MODEL 1
REMARK VINA RESULT:     -10.8      0.000      0.000
ROOT
ATOM    131  H30 UNL A   1      23.482  27.946   1.280  1.00  0.00    +0.000 H 
ATOM    132  H31 UNL A   1      23.059  25.603   2.471  1.00  0.00    +0.000 H 
ATOM    133  H32 UNL A   1      19.518  27.168   1.329  1.00  0.00    +0.000 H 
ATOM    134  H33 UNL A   1      19.770  20.841  -3.779  1.00  0.00    +0.000 H 
ATOM    135  H34 UNL A   1      22.029  21.898  -4.302  1.00  0.00    +0.000 H 
ATOM    136  H35 UNL A   1      20.156  24.345  -1.512  1.00  0.00    +0.000 H 
ATOM    137  H36 UNL A   1      16.858  24.866  -1.294  1.00  0.00    +0.000 H 
ATOM    138  H37 UNL A   1      18.071  26.094   0.622  1.00  0.00    +0.000 H 
ATOM    139  H38 UNL A   1      21.417  29.140  -3.398  1.00  0.00    +0.000 H 
ATOM    140  H39 UNL A   1      21.647  27.060  -4.890  1.00  0.00    +0.000 H 
ATOM     41  C30 UNL A   1      22.187  24.652  -3.418  1.00  0.00    +0.000 C 
ATOM     42  C31 UNL A   1      21.949  26.034  -2.887  1.00  0.00    +0.000 C 
ATOM     43  N9  UNL A   1      21.989  26.446  -1.659  1.00  0.00    +0.000 N 
ATOM     44  C32 UNL A   1      21.573  27.779  -1.682  1.00  0.00    +0.000 C 
ATOM     45  C33 UNL A   1      21.064  28.391  -0.577  1.00  0.00    +0.000 C 
ATOM     57  C40 UNL A   1      21.431  27.698   0.627  1.00  0.00    +0.000 C 
ATOM     58  C41 UNL A   1      22.613  27.390   1.269  1.00  0.00    +0.000 C 
ATOM     59  C42 UNL A   1      22.377  26.139   1.913  1.00  0.00    +0.000 C 
ATOM     60  C43 UNL A   1      21.056  25.771   1.652  1.00  0.00    +0.000 C 
ATOM     61  N10 UNL A   1      20.468  26.929   1.225  1.00  0.00    +0.000 N 
ATOM     62  C44 UNL A   1      20.391  24.490   1.621  1.00  0.00    +0.000 C 
ATOM     74  C51 UNL A   1      19.220  24.243   0.965  1.00  0.00    +0.000 C 
ATOM     75  N11 UNL A   1      18.953  22.982   0.458  1.00  0.00    +0.000 N 
ATOM     76  C52 UNL A   1      18.215  23.199  -0.595  1.00  0.00    +0.000 C 
ATOM     77  C53 UNL A   1      18.255  22.360  -1.813  1.00  0.00    +0.000 C 
ATOM     89  C60 UNL A   1      19.465  22.539  -2.391  1.00  0.00    +0.000 C 
ATOM     90  C61 UNL A   1      20.130  21.724  -3.384  1.00  0.00    +0.000 C 
ATOM     91  C62 UNL A   1      21.297  22.312  -3.703  1.00  0.00    +0.000 C 
ATOM     92  C63 UNL A   1      21.372  23.631  -3.068  1.00  0.00    +0.000 C 
ATOM     93  N12 UNL A   1      20.307  23.648  -2.191  1.00  0.00    +0.000 N 
ATOM     94  C64 UNL A   1      17.591  24.510  -0.661  1.00  0.00    +0.000 C 
ATOM     95  C65 UNL A   1      18.242  25.118   0.333  1.00  0.00    +0.000 C 
ATOM     96  C66 UNL A   1      21.541  28.172  -3.065  1.00  0.00    +0.000 C 
ATOM     97  C67 UNL A   1      21.694  27.112  -3.861  1.00  0.00    +0.000 C 
ENDROOT
BRANCH   41   40
ATOM    129  H28 UNL A   1      26.362  24.976  -5.295  1.00  0.00    +0.000 H 
ATOM     98  C68 UNL A   1      22.616  24.433  -5.847  1.00  0.00    +0.000 C 
ATOM     99  C69 UNL A   1      23.472  24.451  -6.928  1.00  0.00    +0.000 C 
ATOM    130  H29 UNL A   1      24.876  24.762  -3.379  1.00  0.00    +0.000 H 
ATOM     37  C26 UNL A   1      24.819  24.741  -6.723  1.00  0.00    +0.000 C 
ATOM     38  C27 UNL A   1      25.349  24.829  -5.434  1.00  0.00    +0.000 C 
ATOM     39  C28 UNL A   1      24.497  24.719  -4.338  1.00  0.00    +0.000 C 
ATOM     40  C29 UNL A   1      23.123  24.547  -4.546  1.00  0.00    +0.000 C 
ATOM    141  H40 UNL A   1      21.599  24.335  -5.997  1.00  0.00    +0.000 H 
ATOM    142  H41 UNL A   1      23.118  24.254  -7.877  1.00  0.00    +0.000 H 
BRANCH   37   35
ATOM     35  C25 UNL A   1      25.679  25.015  -7.890  1.00  0.00    +0.000 C 
ATOM     36  O3  UNL A   1      25.564  26.053  -8.511  1.00  0.00    +0.000 O 
BRANCH   35   34
ATOM     34  N8  UNL A   1      26.599  24.055  -8.267  1.00  0.00    +0.000 N 
ATOM    128  H27 UNL A   1      26.265  23.320  -8.829  1.00  0.00    +0.000 H 
BRANCH   34   33
ATOM     33  C24 UNL A   1      28.017  24.019  -7.917  1.00  0.00    +0.000 C 
ATOM    126  H25 UNL A   1      28.570  23.638  -8.749  1.00  0.00    +0.000 H 
ATOM    127  H26 UNL A   1      28.328  25.014  -7.675  1.00  0.00    +0.000 H 
BRANCH   33   32
ATOM    124  H23 UNL A   1      29.250  22.711  -6.791  1.00  0.00    +0.000 H 
ATOM    125  H24 UNL A   1      28.164  23.748  -5.837  1.00  0.00    +0.000 H 
ATOM     32  C23 UNL A   1      28.270  23.131  -6.705  1.00  0.00    +0.000 C 
BRANCH   32   31
ATOM    122  H21 UNL A   1      26.287  22.372  -6.767  1.00  0.00    +0.000 H 
ATOM    123  H22 UNL A   1      27.581  21.227  -7.254  1.00  0.00    +0.000 H 
ATOM     31  C22 UNL A   1      27.262  21.981  -6.564  1.00  0.00    +0.000 C 
BRANCH   31   30
ATOM    121  H20 UNL A   1      27.964  21.782  -4.595  1.00  0.00    +0.000 H 
ATOM     30  C21 UNL A   1      27.219  21.295  -5.189  1.00  0.00    +0.000 C 
ATOM    120  H19 UNL A   1      27.398  20.250  -5.336  1.00  0.00    +0.000 H 
BRANCH   30   29
ATOM     29  C20 UNL A   1      25.900  21.444  -4.415  1.00  0.00    +0.000 C 
ATOM    118  H17 UNL A   1      26.086  22.028  -3.538  1.00  0.00    +0.000 H 
ATOM    119  H18 UNL A   1      25.200  21.912  -5.075  1.00  0.00    +0.000 H 
BRANCH   29   28
ATOM    116  H15 UNL A   1      24.220  20.206  -3.946  1.00  0.00    +0.000 H 
ATOM     28  C19 UNL A   1      25.285  20.108  -3.984  1.00  0.00    +0.000 C 
ATOM    117  H16 UNL A   1      25.556  19.354  -4.693  1.00  0.00    +0.000 H 
BRANCH   28   27
ATOM     27  N7  UNL A   1      25.778  19.728  -2.676  1.00  0.00    +0.000 N 
ATOM    115  H14 UNL A   1      26.619  20.180  -2.435  1.00  0.00    +0.000 H 
BRANCH   27   25
ATOM     25  C18 UNL A   1      25.327  18.876  -1.703  1.00  0.00    +0.000 C 
ATOM     26  O2  UNL A   1      24.451  18.072  -2.030  1.00  0.00    +0.000 O 
BRANCH   25   24
ATOM    100  C70 UNL A   1      26.926  19.548   0.186  1.00  0.00    +0.000 C 
ATOM    101  C71 UNL A   1      27.186  19.640   1.560  1.00  0.00    +0.000 C 
ATOM    143  H42 UNL A   1      27.595  19.953  -0.487  1.00  0.00    +0.000 H 
ATOM    144  H43 UNL A   1      27.997  20.179   1.898  1.00  0.00    +0.000 H 
ATOM    113  H12 UNL A   1      24.698  17.684   2.679  1.00  0.00    +0.000 H 
ATOM    114  H13 UNL A   1      24.142  17.706   0.317  1.00  0.00    +0.000 H 
ATOM     21  C14 UNL A   1      26.340  18.998   2.473  1.00  0.00    +0.000 C 
ATOM     22  C15 UNL A   1      25.266  18.235   2.016  1.00  0.00    +0.000 C 
ATOM     23  C16 UNL A   1      24.968  18.227   0.650  1.00  0.00    +0.000 C 
ATOM     24  C17 UNL A   1      25.773  18.912  -0.279  1.00  0.00    +0.000 C 
BRANCH   21   20
ATOM      2  C2  UNL A   1      26.040  18.354   4.890  1.00  0.00    +0.000 C 
ATOM      3  C3  UNL A   1      26.475  19.025   6.015  1.00  0.00    +0.000 C 
ATOM     18  N4  UNL A   1      27.345  20.015   5.668  1.00  0.00    +0.000 N 
ATOM     19  N5  UNL A   1      27.475  19.991   4.346  1.00  0.00    +0.000 N 
ATOM     20  N6  UNL A   1      26.594  19.086   3.857  1.00  0.00    +0.000 N 
BRANCH    2    1
ATOM      1  C1  UNL A   1      25.306  17.075   4.752  1.00  0.00    +0.000 C 
ATOM    102  H1  UNL A   1      25.625  16.575   3.859  1.00  0.00    +0.000 H 
ATOM    103  H2  UNL A   1      24.256  17.270   4.695  1.00  0.00    +0.000 H 
ATOM    104  H3  UNL A   1      25.508  16.454   5.599  1.00  0.00    +0.000 H 
ENDBRANCH    2    1
BRANCH    3    4
ATOM      4  C4  UNL A   1      26.176  18.714   7.407  1.00  0.00    +0.000 C 
ATOM      5  N1  UNL A   1      25.241  19.377   8.098  1.00  0.00    +0.000 N 
ATOM      6  N2  UNL A   1      25.393  18.945   9.369  1.00  0.00    +0.000 N 
ATOM     13  C11 UNL A   1      26.380  17.992   9.473  1.00  0.00    +0.000 C 
ATOM     14  C12 UNL A   1      26.873  17.773   8.200  1.00  0.00    +0.000 C 
ATOM    110  H9  UNL A   1      26.692  17.526  10.339  1.00  0.00    +0.000 H 
BRANCH    6    7
ATOM      7  C5  UNL A   1      24.609  19.481  10.417  1.00  0.00    +0.000 C 
ATOM      8  C6  UNL A   1      23.369  18.899  10.708  1.00  0.00    +0.000 C 
ATOM      9  C7  UNL A   1      22.602  19.398  11.760  1.00  0.00    +0.000 C 
ATOM    105  H4  UNL A   1      23.025  18.105  10.147  1.00  0.00    +0.000 H 
ATOM     11  C9  UNL A   1      24.263  21.108  12.168  1.00  0.00    +0.000 C 
ATOM     12  C10 UNL A   1      25.065  20.581  11.152  1.00  0.00    +0.000 C 
ATOM    109  H8  UNL A   1      25.985  21.001  10.946  1.00  0.00    +0.000 H 
ATOM     10  C8  UNL A   1      23.043  20.508  12.481  1.00  0.00    +0.000 C 
ATOM    106  H5  UNL A   1      21.707  18.946  12.006  1.00  0.00    +0.000 H 
ATOM    108  H7  UNL A   1      24.576  21.943  12.689  1.00  0.00    +0.000 H 
ATOM    107  H6  UNL A   1      22.465  20.887  13.248  1.00  0.00    +0.000 H 
ENDBRANCH    6    7
BRANCH   14   15
ATOM    111  H10 UNL A   1      27.879  15.879   8.347  1.00  0.00    +0.000 H 
ATOM     15  C13 UNL A   1      27.871  16.790   7.864  1.00  0.00    +0.000 C 
BRANCH   15   16
ATOM     16  N3  UNL A   1      28.756  17.049   6.959  1.00  0.00    +0.000 N 
BRANCH   16   17
ATOM     17  O1  UNL A   1      29.251  15.845   6.442  1.00  0.00    +0.000 O 
ATOM    112  H11 UNL A   1      28.710  15.080   6.436  1.00  0.00    +0.000 H 
ENDBRANCH   16   17
ENDBRANCH   15   16
ENDBRANCH   14   15
ENDBRANCH    3    4
ENDBRANCH   21   20
ENDBRANCH   25   24
ENDBRANCH   27   25
ENDBRANCH   28   27
ENDBRANCH   29   28
ENDBRANCH   30   29
ENDBRANCH   31   30
ENDBRANCH   32   31
ENDBRANCH   33   32
ENDBRANCH   34   33
ENDBRANCH   35   34
ENDBRANCH   37   35
ENDBRANCH   41   40
BRANCH   45   46
ATOM     46  C34 UNL A   1      19.911  29.380  -0.597  1.00  0.00    +0.000 C 
ATOM     47  C35 UNL A   1      19.969  30.520   0.233  1.00  0.00    +0.000 C 
ATOM     48  F1  UNL A   1      21.125  30.893   0.804  1.00  0.00    +0.000 F 
ATOM     49  C36 UNL A   1      18.825  31.244   0.582  1.00  0.00    +0.000 C 
ATOM     50  F2  UNL A   1      18.910  32.232   1.484  1.00  0.00    +0.000 F 
ATOM     51  C37 UNL A   1      17.592  30.898   0.064  1.00  0.00    +0.000 C 
ATOM     52  F3  UNL A   1      16.483  31.545   0.449  1.00  0.00    +0.000 F 
ATOM     53  C38 UNL A   1      17.505  29.844  -0.820  1.00  0.00    +0.000 C 
ATOM     54  F4  UNL A   1      16.316  29.485  -1.324  1.00  0.00    +0.000 F 
ATOM     55  C39 UNL A   1      18.636  29.087  -1.129  1.00  0.00    +0.000 C 
ATOM     56  F5  UNL A   1      18.406  28.001  -1.875  1.00  0.00    +0.000 F 
ENDBRANCH   45   46
BRANCH   62   63
ATOM     65  F6  UNL A   1      20.022  23.146   4.199  1.00  0.00    +0.000 F 
ATOM     66  C47 UNL A   1      21.677  21.554   3.731  1.00  0.00    +0.000 C 
ATOM     67  F7  UNL A   1      21.474  20.997   4.932  1.00  0.00    +0.000 F 
ATOM     68  C48 UNL A   1      22.578  20.981   2.848  1.00  0.00    +0.000 C 
ATOM     69  F8  UNL A   1      23.240  19.867   3.190  1.00  0.00    +0.000 F 
ATOM     70  C49 UNL A   1      22.773  21.549   1.598  1.00  0.00    +0.000 C 
ATOM     71  F9  UNL A   1      23.605  20.970   0.721  1.00  0.00    +0.000 F 
ATOM     72  C50 UNL A   1      22.089  22.706   1.241  1.00  0.00    +0.000 C 
ATOM     73  F10 UNL A   1      22.286  23.220   0.016  1.00  0.00    +0.000 F 
ATOM     63  C45 UNL A   1      21.172  23.307   2.114  1.00  0.00    +0.000 C 
ATOM     64  C46 UNL A   1      20.959  22.689   3.357  1.00  0.00    +0.000 C 
ENDBRANCH   62   63
BRANCH   77   78
ATOM     78  C54 UNL A   1      17.065  21.681  -2.366  1.00  0.00    +0.000 C 
ATOM     79  C55 UNL A   1      16.496  20.569  -1.726  1.00  0.00    +0.000 C 
ATOM     80  F11 UNL A   1      17.132  19.985  -0.700  1.00  0.00    +0.000 F 
ATOM     81  C56 UNL A   1      15.238  20.081  -2.089  1.00  0.00    +0.000 C 
ATOM     82  F12 UNL A   1      14.700  19.054  -1.417  1.00  0.00    +0.000 F 
ATOM     83  C57 UNL A   1      14.517  20.687  -3.107  1.00  0.00    +0.000 C 
ATOM     84  F13 UNL A   1      13.288  20.253  -3.418  1.00  0.00    +0.000 F 
ATOM     85  C58 UNL A   1      15.060  21.769  -3.774  1.00  0.00    +0.000 C 
ATOM     86  F14 UNL A   1      14.360  22.385  -4.737  1.00  0.00    +0.000 F 
ATOM     87  C59 UNL A   1      16.311  22.262  -3.405  1.00  0.00    +0.000 C 
ATOM     88  F15 UNL A   1      16.736  23.375  -4.021  1.00  0.00    +0.000 F 
ENDBRANCH   77   78
TORSDOF 22
ENDMDL
MODEL 2
REMARK VINA RESULT:     -10.8     28.257     36.005
ROOT
ATOM    131  H30 UNL A   1      45.372  30.072  34.258  1.00  0.00    +0.000 H 
ATOM    132  H31 UNL A   1      46.700  29.978  31.954  1.00  0.00    +0.000 H 
ATOM    133  H32 UNL A   1      45.959  26.215  33.210  1.00  0.00    +0.000 H 
ATOM    134  H33 UNL A   1      41.119  26.303  26.672  1.00  0.00    +0.000 H 
ATOM    135  H34 UNL A   1      40.269  28.392  27.855  1.00  0.00    +0.000 H 
ATOM    136  H35 UNL A   1      43.176  26.704  30.301  1.00  0.00    +0.000 H 
ATOM    137  H36 UNL A   1      43.793  23.429  30.602  1.00  0.00    +0.000 H 
ATOM    138  H37 UNL A   1      45.487  24.776  32.004  1.00  0.00    +0.000 H 
ATOM    139  H38 UNL A   1      40.953  27.355  35.074  1.00  0.00    +0.000 H 
ATOM    140  H39 UNL A   1      39.529  27.553  32.943  1.00  0.00    +0.000 H 
ATOM     41  C30 UNL A   1      41.015  28.452  30.655  1.00  0.00    +0.000 C 
ATOM     42  C31 UNL A   1      41.516  28.179  32.041  1.00  0.00    +0.000 C 
ATOM     43  N9  UNL A   1      42.711  28.341  32.515  1.00  0.00    +0.000 N 
ATOM     44  C32 UNL A   1      42.688  27.826  33.813  1.00  0.00    +0.000 C 
ATOM     45  C33 UNL A   1      43.823  27.415  34.442  1.00  0.00    +0.000 C 
ATOM     57  C40 UNL A   1      44.998  27.980  33.836  1.00  0.00    +0.000 C 
ATOM     58  C41 UNL A   1      45.494  29.253  33.644  1.00  0.00    +0.000 C 
ATOM     59  C42 UNL A   1      46.213  29.194  32.413  1.00  0.00    +0.000 C 
ATOM     60  C43 UNL A   1      46.139  27.881  31.941  1.00  0.00    +0.000 C 
ATOM     61  N10 UNL A   1      45.744  27.160  33.032  1.00  0.00    +0.000 N 
ATOM     62  C44 UNL A   1      46.245  27.316  30.617  1.00  0.00    +0.000 C 
ATOM     74  C51 UNL A   1      45.755  26.095  30.257  1.00  0.00    +0.000 C 
ATOM     75  N11 UNL A   1      45.337  25.862  28.957  1.00  0.00    +0.000 N 
ATOM     76  C52 UNL A   1      44.379  24.985  29.070  1.00  0.00    +0.000 C 
ATOM     77  C53 UNL A   1      43.200  24.935  28.176  1.00  0.00    +0.000 C 
ATOM     89  C60 UNL A   1      42.465  26.046  28.411  1.00  0.00    +0.000 C 
ATOM     90  C61 UNL A   1      41.430  26.642  27.596  1.00  0.00    +0.000 C 
ATOM     91  C62 UNL A   1      40.940  27.712  28.247  1.00  0.00    +0.000 C 
ATOM     92  C63 UNL A   1      41.506  27.767  29.598  1.00  0.00    +0.000 C 
ATOM     93  N12 UNL A   1      42.512  26.821  29.584  1.00  0.00    +0.000 N 
ATOM     94  C64 UNL A   1      44.341  24.260  30.329  1.00  0.00    +0.000 C 
ATOM     95  C65 UNL A   1      45.218  24.982  31.029  1.00  0.00    +0.000 C 
ATOM     96  C66 UNL A   1      41.305  27.593  34.134  1.00  0.00    +0.000 C 
ATOM     97  C67 UNL A   1      40.540  27.724  33.049  1.00  0.00    +0.000 C 
ENDROOT
BRANCH   41   40
ATOM    129  H28 UNL A   1      36.484  28.888  30.066  1.00  0.00    +0.000 H 
ATOM     98  C68 UNL A   1      39.871  30.634  30.402  1.00  0.00    +0.000 C 
ATOM     99  C69 UNL A   1      38.732  31.383  30.192  1.00  0.00    +0.000 C 
ATOM    130  H29 UNL A   1      38.466  27.587  30.618  1.00  0.00    +0.000 H 
ATOM     37  C26 UNL A   1      37.520  30.730  29.979  1.00  0.00    +0.000 C 
ATOM     38  C27 UNL A   1      37.403  29.350  30.159  1.00  0.00    +0.000 C 
ATOM     39  C28 UNL A   1      38.539  28.604  30.463  1.00  0.00    +0.000 C 
ATOM     40  C29 UNL A   1      39.781  29.245  30.559  1.00  0.00    +0.000 C 
ATOM    141  H40 UNL A   1      40.792  31.099  30.445  1.00  0.00    +0.000 H 
ATOM    142  H41 UNL A   1      38.778  32.414  30.190  1.00  0.00    +0.000 H 
BRANCH   37   35
ATOM     35  C25 UNL A   1      36.361  31.508  29.502  1.00  0.00    +0.000 C 
ATOM     36  O3  UNL A   1      36.296  31.869  28.344  1.00  0.00    +0.000 O 
BRANCH   35   34
ATOM     34  N8  UNL A   1      35.368  31.830  30.408  1.00  0.00    +0.000 N 
ATOM    128  H27 UNL A   1      34.507  31.367  30.302  1.00  0.00    +0.000 H 
BRANCH   34   33
ATOM     33  C24 UNL A   1      35.465  32.787  31.507  1.00  0.00    +0.000 C 
ATOM    126  H25 UNL A   1      35.305  32.273  32.431  1.00  0.00    +0.000 H 
ATOM    127  H26 UNL A   1      36.440  33.229  31.481  1.00  0.00    +0.000 H 
BRANCH   33   32
ATOM    124  H23 UNL A   1      33.456  33.461  31.425  1.00  0.00    +0.000 H 
ATOM    125  H24 UNL A   1      34.613  34.593  32.165  1.00  0.00    +0.000 H 
ATOM     32  C23 UNL A   1      34.432  33.898  31.371  1.00  0.00    +0.000 C 
BRANCH   32   31
ATOM    122  H21 UNL A   1      34.738  35.705  30.298  1.00  0.00    +0.000 H 
ATOM    123  H22 UNL A   1      35.319  34.208  29.497  1.00  0.00    +0.000 H 
ATOM     31  C22 UNL A   1      34.539  34.682  30.056  1.00  0.00    +0.000 C 
BRANCH   31   30
ATOM    121  H20 UNL A   1      33.153  35.648  28.809  1.00  0.00    +0.000 H 
ATOM     30  C21 UNL A   1      33.296  34.644  29.151  1.00  0.00    +0.000 C 
ATOM    120  H19 UNL A   1      32.480  34.263  29.729  1.00  0.00    +0.000 H 
BRANCH   30   29
ATOM     29  C20 UNL A   1      33.423  33.782  27.886  1.00  0.00    +0.000 C 
ATOM    118  H17 UNL A   1      32.879  34.258  27.097  1.00  0.00    +0.000 H 
ATOM    119  H18 UNL A   1      34.467  33.697  27.667  1.00  0.00    +0.000 H 
BRANCH   29   28
ATOM    116  H15 UNL A   1      33.437  31.861  28.825  1.00  0.00    +0.000 H 
ATOM     28  C19 UNL A   1      32.884  32.358  28.055  1.00  0.00    +0.000 C 
ATOM    117  H16 UNL A   1      31.849  32.406  28.322  1.00  0.00    +0.000 H 
BRANCH   28   27
ATOM     27  N7  UNL A   1      33.019  31.621  26.815  1.00  0.00    +0.000 N 
ATOM    115  H14 UNL A   1      33.854  31.824  26.334  1.00  0.00    +0.000 H 
BRANCH   27   25
ATOM     25  C18 UNL A   1      32.236  30.702  26.167  1.00  0.00    +0.000 C 
ATOM     26  O2  UNL A   1      31.043  30.985  26.034  1.00  0.00    +0.000 O 
BRANCH   25   24
ATOM    100  C70 UNL A   1      33.810  28.678  26.209  1.00  0.00    +0.000 C 
ATOM    101  C71 UNL A   1      34.099  27.376  25.780  1.00  0.00    +0.000 C 
ATOM    143  H42 UNL A   1      34.412  29.127  26.917  1.00  0.00    +0.000 H 
ATOM    144  H43 UNL A   1      34.858  26.840  26.227  1.00  0.00    +0.000 H 
ATOM    113  H12 UNL A   1      31.866  27.157  23.284  1.00  0.00    +0.000 H 
ATOM    114  H13 UNL A   1      31.241  29.326  24.175  1.00  0.00    +0.000 H 
ATOM     21  C14 UNL A   1      33.353  26.804  24.742  1.00  0.00    +0.000 C 
ATOM     22  C15 UNL A   1      32.353  27.540  24.109  1.00  0.00    +0.000 C 
ATOM     23  C16 UNL A   1      32.017  28.802  24.608  1.00  0.00    +0.000 C 
ATOM     24  C17 UNL A   1      32.717  29.374  25.687  1.00  0.00    +0.000 C 
BRANCH   21   20
ATOM      2  C2  UNL A   1      33.920  24.370  25.059  1.00  0.00    +0.000 C 
ATOM      3  C3  UNL A   1      34.342  23.459  24.111  1.00  0.00    +0.000 C 
ATOM     18  N4  UNL A   1      34.190  23.974  22.859  1.00  0.00    +0.000 N 
ATOM     19  N5  UNL A   1      33.679  25.194  22.985  1.00  0.00    +0.000 N 
ATOM     20  N6  UNL A   1      33.638  25.494  24.305  1.00  0.00    +0.000 N 
BRANCH    2    1
ATOM      1  C1  UNL A   1      33.651  24.203  26.506  1.00  0.00    +0.000 C 
ATOM    102  H1  UNL A   1      33.216  25.102  26.893  1.00  0.00    +0.000 H 
ATOM    103  H2  UNL A   1      34.567  24.001  27.018  1.00  0.00    +0.000 H 
ATOM    104  H3  UNL A   1      32.974  23.387  26.651  1.00  0.00    +0.000 H 
ENDBRANCH    2    1
BRANCH    3    4
ATOM      4  C4  UNL A   1      34.799  22.092  24.333  1.00  0.00    +0.000 C 
ATOM      5  N1  UNL A   1      33.989  21.038  24.178  1.00  0.00    +0.000 N 
ATOM      6  N2  UNL A   1      34.702  19.993  24.651  1.00  0.00    +0.000 N 
ATOM     13  C11 UNL A   1      35.961  20.373  25.058  1.00  0.00    +0.000 C 
ATOM     14  C12 UNL A   1      36.079  21.728  24.810  1.00  0.00    +0.000 C 
ATOM    110  H9  UNL A   1      36.681  19.760  25.470  1.00  0.00    +0.000 H 
BRANCH    6    7
ATOM      7  C5  UNL A   1      34.140  18.698  24.712  1.00  0.00    +0.000 C 
ATOM      8  C6  UNL A   1      32.845  18.539  25.220  1.00  0.00    +0.000 C 
ATOM      9  C7  UNL A   1      32.267  17.270  25.254  1.00  0.00    +0.000 C 
ATOM    105  H4  UNL A   1      32.320  19.357  25.567  1.00  0.00    +0.000 H 
ATOM     11  C9  UNL A   1      34.301  16.313  24.362  1.00  0.00    +0.000 C 
ATOM     12  C10 UNL A   1      34.869  17.586  24.272  1.00  0.00    +0.000 C 
ATOM    109  H8  UNL A   1      35.818  17.706  23.885  1.00  0.00    +0.000 H 
ATOM     10  C8  UNL A   1      32.998  16.158  24.837  1.00  0.00    +0.000 C 
ATOM    106  H5  UNL A   1      31.297  17.153  25.589  1.00  0.00    +0.000 H 
ATOM    108  H7  UNL A   1      34.847  15.486  24.076  1.00  0.00    +0.000 H 
ATOM    107  H6  UNL A   1      32.575  15.217  24.880  1.00  0.00    +0.000 H 
ENDBRANCH    6    7
BRANCH   14   15
ATOM    111  H10 UNL A   1      38.120  22.310  24.464  1.00  0.00    +0.000 H 
ATOM     15  C13 UNL A   1      37.276  22.500  25.026  1.00  0.00    +0.000 C 
BRANCH   15   16
ATOM     16  N3  UNL A   1      37.294  23.431  25.922  1.00  0.00    +0.000 N 
BRANCH   16   17
ATOM     17  O1  UNL A   1      38.597  23.567  26.418  1.00  0.00    +0.000 O 
ATOM    112  H11 UNL A   1      39.282  23.872  25.857  1.00  0.00    +0.000 H 
ENDBRANCH   16   17
ENDBRANCH   15   16
ENDBRANCH   14   15
ENDBRANCH    3    4
ENDBRANCH   21   20
ENDBRANCH   25   24
ENDBRANCH   27   25
ENDBRANCH   28   27
ENDBRANCH   29   28
ENDBRANCH   30   29
ENDBRANCH   31   30
ENDBRANCH   32   31
ENDBRANCH   33   32
ENDBRANCH   34   33
ENDBRANCH   35   34
ENDBRANCH   37   35
ENDBRANCH   41   40
BRANCH   45   46
ATOM     46  C34 UNL A   1      43.911  26.197  35.346  1.00  0.00    +0.000 C 
ATOM     47  C35 UNL A   1      44.493  26.331  36.625  1.00  0.00    +0.000 C 
ATOM     48  F1  UNL A   1      44.696  27.545  37.161  1.00  0.00    +0.000 F 
ATOM     49  C36 UNL A   1      44.978  25.232  37.340  1.00  0.00    +0.000 C 
ATOM     50  F2  UNL A   1      45.648  25.423  38.485  1.00  0.00    +0.000 F 
ATOM     51  C37 UNL A   1      44.839  23.953  36.837  1.00  0.00    +0.000 C 
ATOM     52  F3  UNL A   1      45.363  22.903  37.485  1.00  0.00    +0.000 F 
ATOM     53  C38 UNL A   1      44.198  23.770  35.631  1.00  0.00    +0.000 C 
ATOM     54  F4  UNL A   1      44.066  22.538  35.119  1.00  0.00    +0.000 F 
ATOM     55  C39 UNL A   1      43.761  24.869  34.889  1.00  0.00    +0.000 C 
ATOM     56  F5  UNL A   1      43.292  24.581  33.671  1.00  0.00    +0.000 F 
ENDBRANCH   45   46
BRANCH   62   63
ATOM     65  F6  UNL A   1      44.542  29.259  29.234  1.00  0.00    +0.000 F 
ATOM     66  C47 UNL A   1      46.313  30.035  27.911  1.00  0.00    +0.000 C 
ATOM     67  F7  UNL A   1      45.478  30.889  27.302  1.00  0.00    +0.000 F 
ATOM     68  C48 UNL A   1      47.662  30.046  27.593  1.00  0.00    +0.000 C 
ATOM     69  F8  UNL A   1      48.134  30.912  26.686  1.00  0.00    +0.000 F 
ATOM     70  C49 UNL A   1      48.527  29.174  28.237  1.00  0.00    +0.000 C 
ATOM     71  F9  UNL A   1      49.840  29.216  27.972  1.00  0.00    +0.000 F 
ATOM     72  C50 UNL A   1      48.040  28.273  29.177  1.00  0.00    +0.000 C 
ATOM     73  F10 UNL A   1      48.907  27.455  29.797  1.00  0.00    +0.000 F 
ATOM     63  C45 UNL A   1      46.681  28.240  29.517  1.00  0.00    +0.000 C 
ATOM     64  C46 UNL A   1      45.832  29.161  28.883  1.00  0.00    +0.000 C 
ENDBRANCH   62   63
BRANCH   77   78
ATOM     78  C54 UNL A   1      42.832  23.739  27.390  1.00  0.00    +0.000 C 
ATOM     79  C55 UNL A   1      43.522  23.397  26.217  1.00  0.00    +0.000 C 
ATOM     80  F11 UNL A   1      44.408  24.251  25.684  1.00  0.00    +0.000 F 
ATOM     81  C56 UNL A   1      43.358  22.149  25.610  1.00  0.00    +0.000 C 
ATOM     82  F12 UNL A   1      44.077  21.834  24.524  1.00  0.00    +0.000 F 
ATOM     83  C57 UNL A   1      42.495  21.211  26.156  1.00  0.00    +0.000 C 
ATOM     84  F13 UNL A   1      42.380  19.995  25.606  1.00  0.00    +0.000 F 
ATOM     85  C58 UNL A   1      41.783  21.527  27.298  1.00  0.00    +0.000 C 
ATOM     86  F14 UNL A   1      40.970  20.617  27.855  1.00  0.00    +0.000 F 
ATOM     87  C59 UNL A   1      41.953  22.768  27.909  1.00  0.00    +0.000 C 
ATOM     88  F15 UNL A   1      41.311  22.973  29.068  1.00  0.00    +0.000 F 
ENDBRANCH   77   78
TORSDOF 22
ENDMDL
MODEL 3
REMARK VINA RESULT:     -10.4      1.655      2.358
ROOT
ATOM    131  H30 UNL A   1      24.220  27.009   1.621  1.00  0.00    +0.000 H 
ATOM    132  H31 UNL A   1      23.584  24.622   2.611  1.00  0.00    +0.000 H 
ATOM    133  H32 UNL A   1      20.201  26.699   1.885  1.00  0.00    +0.000 H 
ATOM    134  H33 UNL A   1      19.356  20.948  -3.806  1.00  0.00    +0.000 H 
ATOM    135  H34 UNL A   1      21.691  21.782  -4.390  1.00  0.00    +0.000 H 
ATOM    136  H35 UNL A   1      20.310  24.130  -1.250  1.00  0.00    +0.000 H 
ATOM    137  H36 UNL A   1      17.121  25.008  -0.743  1.00  0.00    +0.000 H 
ATOM    138  H37 UNL A   1      18.591  25.881   1.187  1.00  0.00    +0.000 H 
ATOM    139  H38 UNL A   1      22.037  28.913  -2.759  1.00  0.00    +0.000 H 
ATOM    140  H39 UNL A   1      21.916  26.986  -4.454  1.00  0.00    +0.000 H 
ATOM     41  C30 UNL A   1      22.243  24.393  -3.261  1.00  0.00    +0.000 C 
ATOM     42  C31 UNL A   1      22.211  25.730  -2.586  1.00  0.00    +0.000 C 
ATOM     43  N9  UNL A   1      22.377  26.006  -1.330  1.00  0.00    +0.000 N 
ATOM     44  C32 UNL A   1      22.127  27.373  -1.196  1.00  0.00    +0.000 C 
ATOM     45  C33 UNL A   1      21.767  27.924  -0.004  1.00  0.00    +0.000 C 
ATOM     57  C40 UNL A   1      22.118  27.072   1.099  1.00  0.00    +0.000 C 
ATOM     58  C41 UNL A   1      23.290  26.563   1.620  1.00  0.00    +0.000 C 
ATOM     59  C42 UNL A   1      22.941  25.288   2.158  1.00  0.00    +0.000 C 
ATOM     60  C43 UNL A   1      21.571  25.106   1.961  1.00  0.00    +0.000 C 
ATOM     61  N10 UNL A   1      21.106  26.363   1.690  1.00  0.00    +0.000 N 
ATOM     62  C44 UNL A   1      20.752  23.922   1.857  1.00  0.00    +0.000 C 
ATOM     74  C51 UNL A   1      19.522  23.882   1.268  1.00  0.00    +0.000 C 
ATOM     75  N11 UNL A   1      19.070  22.721   0.664  1.00  0.00    +0.000 N 
ATOM     76  C52 UNL A   1      18.302  23.130  -0.307  1.00  0.00    +0.000 C 
ATOM     77  C53 UNL A   1      18.163  22.422  -1.599  1.00  0.00    +0.000 C 
ATOM     89  C60 UNL A   1      19.348  22.518  -2.245  1.00  0.00    +0.000 C 
ATOM     90  C61 UNL A   1      19.845  21.737  -3.356  1.00  0.00    +0.000 C 
ATOM     91  C62 UNL A   1      21.055  22.214  -3.702  1.00  0.00    +0.000 C 
ATOM     92  C63 UNL A   1      21.331  23.443  -2.952  1.00  0.00    +0.000 C 
ATOM     93  N12 UNL A   1      20.331  23.494  -2.002  1.00  0.00    +0.000 N 
ATOM     94  C64 UNL A   1      17.841  24.505  -0.202  1.00  0.00    +0.000 C 
ATOM     95  C65 UNL A   1      18.622  24.927   0.795  1.00  0.00    +0.000 C 
ATOM     96  C66 UNL A   1      22.060  27.908  -2.530  1.00  0.00    +0.000 C 
ATOM     97  C67 UNL A   1      22.032  26.925  -3.431  1.00  0.00    +0.000 C 
ENDROOT
BRANCH   41   40
ATOM    129  H28 UNL A   1      26.247  23.650  -5.377  1.00  0.00    +0.000 H 
ATOM     98  C68 UNL A   1      22.613  24.804  -5.675  1.00  0.00    +0.000 C 
ATOM     99  C69 UNL A   1      23.432  24.830  -6.784  1.00  0.00    +0.000 C 
ATOM    130  H29 UNL A   1      24.749  23.435  -3.470  1.00  0.00    +0.000 H 
ATOM     37  C26 UNL A   1      24.777  24.495  -6.642  1.00  0.00    +0.000 C 
ATOM     38  C27 UNL A   1      25.264  23.959  -5.448  1.00  0.00    +0.000 C 
ATOM     39  C28 UNL A   1      24.410  23.847  -4.354  1.00  0.00    +0.000 C 
ATOM     40  C29 UNL A   1      23.087  24.295  -4.460  1.00  0.00    +0.000 C 
ATOM    141  H40 UNL A   1      21.646  25.160  -5.742  1.00  0.00    +0.000 H 
ATOM    142  H41 UNL A   1      23.054  25.095  -7.707  1.00  0.00    +0.000 H 
BRANCH   37   35
ATOM     35  C25 UNL A   1      25.705  24.768  -7.756  1.00  0.00    +0.000 C 
ATOM     36  O3  UNL A   1      25.377  25.502  -8.666  1.00  0.00    +0.000 O 
BRANCH   35   34
ATOM     34  N8  UNL A   1      26.942  24.152  -7.745  1.00  0.00    +0.000 N 
ATOM    128  H27 UNL A   1      26.948  23.171  -7.817  1.00  0.00    +0.000 H 
BRANCH   34   33
ATOM     33  C24 UNL A   1      28.243  24.808  -7.638  1.00  0.00    +0.000 C 
ATOM    126  H25 UNL A   1      28.931  24.324  -8.299  1.00  0.00    +0.000 H 
ATOM    127  H26 UNL A   1      28.122  25.838  -7.900  1.00  0.00    +0.000 H 
BRANCH   33   32
ATOM    124  H23 UNL A   1      29.834  24.961  -6.243  1.00  0.00    +0.000 H 
ATOM    125  H24 UNL A   1      28.234  25.441  -5.633  1.00  0.00    +0.000 H 
ATOM     32  C23 UNL A   1      28.788  24.736  -6.217  1.00  0.00    +0.000 C 
BRANCH   32   31
ATOM    122  H21 UNL A   1      27.558  23.217  -5.386  1.00  0.00    +0.000 H 
ATOM    123  H22 UNL A   1      29.039  22.654  -6.229  1.00  0.00    +0.000 H 
ATOM     31  C22 UNL A   1      28.604  23.363  -5.555  1.00  0.00    +0.000 C 
BRANCH   31   30
ATOM    121  H20 UNL A   1      29.430  24.140  -3.788  1.00  0.00    +0.000 H 
ATOM     30  C21 UNL A   1      29.331  23.163  -4.215  1.00  0.00    +0.000 C 
ATOM    120  H19 UNL A   1      30.265  22.682  -4.415  1.00  0.00    +0.000 H 
BRANCH   30   29
ATOM     29  C20 UNL A   1      28.579  22.321  -3.172  1.00  0.00    +0.000 C 
ATOM    118  H17 UNL A   1      27.927  22.968  -2.623  1.00  0.00    +0.000 H 
ATOM    119  H18 UNL A   1      28.046  21.563  -3.707  1.00  0.00    +0.000 H 
BRANCH   29   28
ATOM    116  H15 UNL A   1      29.852  20.695  -2.617  1.00  0.00    +0.000 H 
ATOM     28  C19 UNL A   1      29.501  21.606  -2.179  1.00  0.00    +0.000 C 
ATOM    117  H16 UNL A   1      30.329  22.243  -1.950  1.00  0.00    +0.000 H 
BRANCH   28   27
ATOM     27  N7  UNL A   1      28.783  21.305  -0.957  1.00  0.00    +0.000 N 
ATOM    115  H14 UNL A   1      28.696  22.083  -0.359  1.00  0.00    +0.000 H 
BRANCH   27   25
ATOM     25  C18 UNL A   1      28.200  20.172  -0.453  1.00  0.00    +0.000 C 
ATOM     26  O2  UNL A   1      28.073  19.221  -1.228  1.00  0.00    +0.000 O 
BRANCH   25   24
ATOM    100  C70 UNL A   1      27.780  21.014   1.933  1.00  0.00    +0.000 C 
ATOM    101  C71 UNL A   1      27.115  20.863   3.156  1.00  0.00    +0.000 C 
ATOM    143  H42 UNL A   1      28.370  21.845   1.772  1.00  0.00    +0.000 H 
ATOM    144  H43 UNL A   1      27.149  21.616   3.860  1.00  0.00    +0.000 H 
ATOM    113  H12 UNL A   1      25.943  17.749   2.717  1.00  0.00    +0.000 H 
ATOM    114  H13 UNL A   1      26.923  18.107   0.525  1.00  0.00    +0.000 H 
ATOM     21  C14 UNL A   1      26.402  19.687   3.420  1.00  0.00    +0.000 C 
ATOM     22  C15 UNL A   1      26.387  18.652   2.487  1.00  0.00    +0.000 C 
ATOM     23  C16 UNL A   1      26.980  18.853   1.237  1.00  0.00    +0.000 C 
ATOM     24  C17 UNL A   1      27.653  20.050   0.930  1.00  0.00    +0.000 C 
BRANCH   21   20
ATOM      2  C2  UNL A   1      25.790  18.475   5.542  1.00  0.00    +0.000 C 
ATOM      3  C3  UNL A   1      24.763  18.753   6.421  1.00  0.00    +0.000 C 
ATOM     18  N4  UNL A   1      24.216  19.969   6.141  1.00  0.00    +0.000 N 
ATOM     19  N5  UNL A   1      24.872  20.474   5.101  1.00  0.00    +0.000 N 
ATOM     20  N6  UNL A   1      25.729  19.528   4.649  1.00  0.00    +0.000 N 
BRANCH    2    1
ATOM      1  C1  UNL A   1      26.836  17.426   5.580  1.00  0.00    +0.000 C 
ATOM    102  H1  UNL A   1      27.798  17.886   5.676  1.00  0.00    +0.000 H 
ATOM    103  H2  UNL A   1      26.803  16.856   4.675  1.00  0.00    +0.000 H 
ATOM    104  H3  UNL A   1      26.664  16.780   6.415  1.00  0.00    +0.000 H 
ENDBRANCH    2    1
BRANCH    3    4
ATOM      4  C4  UNL A   1      24.335  17.962   7.569  1.00  0.00    +0.000 C 
ATOM      5  N1  UNL A   1      24.299  18.468   8.808  1.00  0.00    +0.000 N 
ATOM      6  N2  UNL A   1      24.047  17.403   9.599  1.00  0.00    +0.000 N 
ATOM     13  C11 UNL A   1      23.883  16.248   8.869  1.00  0.00    +0.000 C 
ATOM     14  C12 UNL A   1      24.006  16.587   7.534  1.00  0.00    +0.000 C 
ATOM    110  H9  UNL A   1      23.700  15.306   9.247  1.00  0.00    +0.000 H 
BRANCH    6    7
ATOM      7  C5  UNL A   1      24.001  17.538  11.005  1.00  0.00    +0.000 C 
ATOM      8  C6  UNL A   1      23.043  16.819  11.729  1.00  0.00    +0.000 C 
ATOM      9  C7  UNL A   1      23.010  16.919  13.120  1.00  0.00    +0.000 C 
ATOM    105  H4  UNL A   1      22.365  16.217  11.237  1.00  0.00    +0.000 H 
ATOM     11  C9  UNL A   1      24.823  18.517  13.055  1.00  0.00    +0.000 C 
ATOM     12  C10 UNL A   1      24.901  18.382  11.667  1.00  0.00    +0.000 C 
ATOM    109  H8  UNL A   1      25.617  18.902  11.134  1.00  0.00    +0.000 H 
ATOM     10  C8  UNL A   1      23.890  17.776  13.781  1.00  0.00    +0.000 C 
ATOM    106  H5  UNL A   1      22.332  16.358  13.662  1.00  0.00    +0.000 H 
ATOM    108  H7  UNL A   1      25.458  19.167  13.544  1.00  0.00    +0.000 H 
ATOM    107  H6  UNL A   1      23.852  17.861  14.809  1.00  0.00    +0.000 H 
ENDBRANCH    6    7
BRANCH   14   15
ATOM    111  H10 UNL A   1      23.346  15.988   5.578  1.00  0.00    +0.000 H 
ATOM     15  C13 UNL A   1      23.825  15.674   6.435  1.00  0.00    +0.000 C 
BRANCH   15   16
ATOM     16  N3  UNL A   1      24.262  14.461   6.521  1.00  0.00    +0.000 N 
BRANCH   16   17
ATOM     17  O1  UNL A   1      23.181  13.595   6.729  1.00  0.00    +0.000 O 
ATOM    112  H11 UNL A   1      22.705  13.625   7.536  1.00  0.00    +0.000 H 
ENDBRANCH   16   17
ENDBRANCH   15   16
ENDBRANCH   14   15
ENDBRANCH    3    4
ENDBRANCH   21   20
ENDBRANCH   25   24
ENDBRANCH   27   25
ENDBRANCH   28   27
ENDBRANCH   29   28
ENDBRANCH   30   29
ENDBRANCH   31   30
ENDBRANCH   32   31
ENDBRANCH   33   32
ENDBRANCH   34   33
ENDBRANCH   35   34
ENDBRANCH   37   35
ENDBRANCH   41   40
BRANCH   45   46
ATOM     46  C34 UNL A   1      20.746  29.037   0.155  1.00  0.00    +0.000 C 
ATOM     47  C35 UNL A   1      19.385  28.763  -0.106  1.00  0.00    +0.000 C 
ATOM     48  F1  UNL A   1      18.948  27.498  -0.201  1.00  0.00    +0.000 F 
ATOM     49  C36 UNL A   1      18.462  29.777  -0.380  1.00  0.00    +0.000 C 
ATOM     50  F2  UNL A   1      17.216  29.461  -0.760  1.00  0.00    +0.000 F 
ATOM     51  C37 UNL A   1      18.846  31.103  -0.338  1.00  0.00    +0.000 C 
ATOM     52  F3  UNL A   1      17.984  32.075  -0.668  1.00  0.00    +0.000 F 
ATOM     53  C38 UNL A   1      20.145  31.417  -0.001  1.00  0.00    +0.000 C 
ATOM     54  F4  UNL A   1      20.540  32.698   0.031  1.00  0.00    +0.000 F 
ATOM     55  C39 UNL A   1      21.082  30.406   0.220  1.00  0.00    +0.000 C 
ATOM     56  F5  UNL A   1      22.340  30.826   0.390  1.00  0.00    +0.000 F 
ENDBRANCH   45   46
BRANCH   62   63
ATOM     65  F6  UNL A   1      20.313  22.329   4.277  1.00  0.00    +0.000 F 
ATOM     66  C47 UNL A   1      21.762  20.635   3.558  1.00  0.00    +0.000 C 
ATOM     67  F7  UNL A   1      21.535  19.963   4.696  1.00  0.00    +0.000 F 
ATOM     68  C48 UNL A   1      22.566  20.076   2.577  1.00  0.00    +0.000 C 
ATOM     69  F8  UNL A   1      23.109  18.864   2.760  1.00  0.00    +0.000 F 
ATOM     70  C49 UNL A   1      22.786  20.764   1.393  1.00  0.00    +0.000 C 
ATOM     71  F9  UNL A   1      23.519  20.206   0.420  1.00  0.00    +0.000 F 
ATOM     72  C50 UNL A   1      22.225  22.022   1.201  1.00  0.00    +0.000 C 
ATOM     73  F10 UNL A   1      22.442  22.654   0.036  1.00  0.00    +0.000 F 
ATOM     63  C45 UNL A   1      21.409  22.611   2.177  1.00  0.00    +0.000 C 
ATOM     64  C46 UNL A   1      21.166  21.877   3.349  1.00  0.00    +0.000 C 
ENDBRANCH   62   63
BRANCH   77   78
ATOM     78  C54 UNL A   1      16.866  21.948  -2.126  1.00  0.00    +0.000 C 
ATOM     79  C55 UNL A   1      16.218  22.616  -3.176  1.00  0.00    +0.000 C 
ATOM     80  F11 UNL A   1      16.670  23.805  -3.598  1.00  0.00    +0.000 F 
ATOM     81  C56 UNL A   1      15.135  22.042  -3.848  1.00  0.00    +0.000 C 
ATOM     82  F12 UNL A   1      14.577  22.682  -4.884  1.00  0.00    +0.000 F 
ATOM     83  C57 UNL A   1      14.667  20.789  -3.484  1.00  0.00    +0.000 C 
ATOM     84  F13 UNL A   1      13.664  20.216  -4.165  1.00  0.00    +0.000 F 
ATOM     85  C58 UNL A   1      15.269  20.116  -2.438  1.00  0.00    +0.000 C 
ATOM     86  F14 UNL A   1      14.848  18.889  -2.098  1.00  0.00    +0.000 F 
ATOM     87  C59 UNL A   1      16.356  20.683  -1.774  1.00  0.00    +0.000 C 
ATOM     88  F15 UNL A   1      16.958  19.936  -0.837  1.00  0.00    +0.000 F 
ENDBRANCH   77   78
TORSDOF 22
ENDMDL
MODEL 4
REMARK VINA RESULT:     -10.2     36.896     44.488
ROOT
ATOM    131  H30 UNL A   1      27.835  -7.117  27.813  1.00  0.00    +0.000 H 
ATOM    132  H31 UNL A   1      30.302  -7.368  26.845  1.00  0.00    +0.000 H 
ATOM    133  H32 UNL A   1      30.114  -9.136  30.468  1.00  0.00    +0.000 H 
ATOM    134  H33 UNL A   1      31.144 -15.791  25.904  1.00  0.00    +0.000 H 
ATOM    135  H34 UNL A   1      29.138 -14.768  24.713  1.00  0.00    +0.000 H 
ATOM    136  H35 UNL A   1      30.005 -12.322  27.960  1.00  0.00    +0.000 H 
ATOM    137  H36 UNL A   1      31.228 -13.358  30.897  1.00  0.00    +0.000 H 
ATOM    138  H37 UNL A   1      31.036 -10.788  30.883  1.00  0.00    +0.000 H 
ATOM    139  H38 UNL A   1      25.117 -11.200  29.687  1.00  0.00    +0.000 H 
ATOM    140  H39 UNL A   1      25.504 -13.175  28.089  1.00  0.00    +0.000 H 
ATOM     41  C30 UNL A   1      27.764 -12.813  26.353  1.00  0.00    +0.000 C 
ATOM     42  C31 UNL A   1      27.266 -11.902  27.433  1.00  0.00    +0.000 C 
ATOM     43  N9  UNL A   1      27.714 -10.736  27.777  1.00  0.00    +0.000 N 
ATOM     44  C32 UNL A   1      26.993 -10.361  28.913  1.00  0.00    +0.000 C 
ATOM     45  C33 UNL A   1      27.472  -9.445  29.799  1.00  0.00    +0.000 C 
ATOM     57  C40 UNL A   1      28.502  -8.632  29.212  1.00  0.00    +0.000 C 
ATOM     58  C41 UNL A   1      28.579  -7.743  28.159  1.00  0.00    +0.000 C 
ATOM     59  C42 UNL A   1      29.905  -7.875  27.651  1.00  0.00    +0.000 C 
ATOM     60  C43 UNL A   1      30.570  -8.814  28.441  1.00  0.00    +0.000 C 
ATOM     61  N10 UNL A   1      29.796  -8.909  29.564  1.00  0.00    +0.000 N 
ATOM     62  C44 UNL A   1      31.697  -9.679  28.184  1.00  0.00    +0.000 C 
ATOM     74  C51 UNL A   1      31.977 -10.813  28.889  1.00  0.00    +0.000 C 
ATOM     75  N11 UNL A   1      32.629 -11.874  28.281  1.00  0.00    +0.000 N 
ATOM     76  C52 UNL A   1      32.170 -12.934  28.886  1.00  0.00    +0.000 C 
ATOM     77  C53 UNL A   1      31.978 -14.242  28.221  1.00  0.00    +0.000 C 
ATOM     89  C60 UNL A   1      30.982 -14.095  27.318  1.00  0.00    +0.000 C 
ATOM     90  C61 UNL A   1      30.637 -14.942  26.197  1.00  0.00    +0.000 C 
ATOM     91  C62 UNL A   1      29.542 -14.434  25.602  1.00  0.00    +0.000 C 
ATOM     92  C63 UNL A   1      29.012 -13.331  26.409  1.00  0.00    +0.000 C 
ATOM     93  N12 UNL A   1      29.995 -13.093  27.349  1.00  0.00    +0.000 N 
ATOM     94  C64 UNL A   1      31.528 -12.693  30.168  1.00  0.00    +0.000 C 
ATOM     95  C65 UNL A   1      31.438 -11.362  30.126  1.00  0.00    +0.000 C 
ATOM     96  C66 UNL A   1      25.909 -11.300  29.035  1.00  0.00    +0.000 C 
ATOM     97  C67 UNL A   1      26.070 -12.319  28.190  1.00  0.00    +0.000 C 
ENDROOT
BRANCH   41   40
ATOM    129  H28 UNL A   1      24.246 -15.576  25.326  1.00  0.00    +0.000 H 
ATOM     98  C68 UNL A   1      26.851 -13.076  24.066  1.00  0.00    +0.000 C 
ATOM     99  C69 UNL A   1      25.976 -13.660  23.174  1.00  0.00    +0.000 C 
ATOM    130  H29 UNL A   1      25.670 -14.407  26.917  1.00  0.00    +0.000 H 
ATOM     37  C26 UNL A   1      25.094 -14.637  23.631  1.00  0.00    +0.000 C 
ATOM     38  C27 UNL A   1      24.952 -14.899  24.996  1.00  0.00    +0.000 C 
ATOM     39  C28 UNL A   1      25.775 -14.239  25.905  1.00  0.00    +0.000 C 
ATOM     40  C29 UNL A   1      26.745 -13.344  25.436  1.00  0.00    +0.000 C 
ATOM    141  H40 UNL A   1      27.586 -12.437  23.721  1.00  0.00    +0.000 H 
ATOM    142  H41 UNL A   1      25.975 -13.378  22.182  1.00  0.00    +0.000 H 
BRANCH   37   35
ATOM     35  C25 UNL A   1      24.344 -15.441  22.648  1.00  0.00    +0.000 C 
ATOM     36  O3  UNL A   1      23.755 -16.446  22.995  1.00  0.00    +0.000 O 
BRANCH   35   34
ATOM     34  N8  UNL A   1      24.347 -15.034  21.327  1.00  0.00    +0.000 N 
ATOM    128  H27 UNL A   1      25.148 -15.251  20.800  1.00  0.00    +0.000 H 
BRANCH   34   33
ATOM     33  C24 UNL A   1      23.281 -14.316  20.632  1.00  0.00    +0.000 C 
ATOM    126  H25 UNL A   1      23.325 -14.553  19.590  1.00  0.00    +0.000 H 
ATOM    127  H26 UNL A   1      22.344 -14.617  21.052  1.00  0.00    +0.000 H 
BRANCH   33   32
ATOM    124  H23 UNL A   1      24.444 -12.587  21.029  1.00  0.00    +0.000 H 
ATOM    125  H24 UNL A   1      23.096 -12.357  19.891  1.00  0.00    +0.000 H 
ATOM     32  C23 UNL A   1      23.421 -12.809  20.805  1.00  0.00    +0.000 C 
BRANCH   32   31
ATOM    122  H21 UNL A   1      21.863 -11.536  21.486  1.00  0.00    +0.000 H 
ATOM    123  H22 UNL A   1      22.069 -13.075  22.386  1.00  0.00    +0.000 H 
ATOM     31  C22 UNL A   1      22.545 -12.234  21.927  1.00  0.00    +0.000 C 
BRANCH   31   30
ATOM    121  H20 UNL A   1      23.105 -10.467  22.914  1.00  0.00    +0.000 H 
ATOM     30  C21 UNL A   1      23.295 -11.511  23.057  1.00  0.00    +0.000 C 
ATOM    120  H19 UNL A   1      24.329 -11.775  22.988  1.00  0.00    +0.000 H 
BRANCH   30   29
ATOM     29  C20 UNL A   1      22.818 -11.835  24.482  1.00  0.00    +0.000 C 
ATOM    118  H17 UNL A   1      21.806 -11.502  24.583  1.00  0.00    +0.000 H 
ATOM    119  H18 UNL A   1      22.915 -12.892  24.612  1.00  0.00    +0.000 H 
BRANCH   29   28
ATOM    116  H15 UNL A   1      23.029 -10.529  26.162  1.00  0.00    +0.000 H 
ATOM     28  C19 UNL A   1      23.657 -11.169  25.578  1.00  0.00    +0.000 C 
ATOM    117  H16 UNL A   1      24.084 -11.928  26.199  1.00  0.00    +0.000 H 
BRANCH   28   27
ATOM     27  N7  UNL A   1      24.723 -10.385  24.986  1.00  0.00    +0.000 N 
ATOM    115  H14 UNL A   1      24.904 -10.626  24.048  1.00  0.00    +0.000 H 
BRANCH   27   25
ATOM     25  C18 UNL A   1      25.533  -9.383  25.450  1.00  0.00    +0.000 C 
ATOM     26  O2  UNL A   1      25.145  -8.772  26.448  1.00  0.00    +0.000 O 
BRANCH   25   24
ATOM    100  C70 UNL A   1      27.740  -9.805  24.212  1.00  0.00    +0.000 C 
ATOM    101  C71 UNL A   1      28.828  -9.291  23.495  1.00  0.00    +0.000 C 
ATOM    143  H42 UNL A   1      27.634 -10.826  24.316  1.00  0.00    +0.000 H 
ATOM    144  H43 UNL A   1      29.473  -9.929  23.006  1.00  0.00    +0.000 H 
ATOM    113  H12 UNL A   1      28.393  -6.033  24.177  1.00  0.00    +0.000 H 
ATOM    114  H13 UNL A   1      26.398  -6.922  25.238  1.00  0.00    +0.000 H 
ATOM     21  C14 UNL A   1      29.036  -7.907  23.443  1.00  0.00    +0.000 C 
ATOM     22  C15 UNL A   1      28.188  -7.044  24.136  1.00  0.00    +0.000 C 
ATOM     23  C16 UNL A   1      27.057  -7.565  24.771  1.00  0.00    +0.000 C 
ATOM     24  C17 UNL A   1      26.798  -8.949  24.788  1.00  0.00    +0.000 C 
BRANCH   21   20
ATOM      2  C2  UNL A   1      30.766  -7.902  21.612  1.00  0.00    +0.000 C 
ATOM      3  C3  UNL A   1      31.886  -7.104  21.495  1.00  0.00    +0.000 C 
ATOM     18  N4  UNL A   1      31.841  -6.089  22.403  1.00  0.00    +0.000 N 
ATOM     19  N5  UNL A   1      30.716  -6.221  23.098  1.00  0.00    +0.000 N 
ATOM     20  N6  UNL A   1      30.129  -7.382  22.723  1.00  0.00    +0.000 N 
BRANCH    2    1
ATOM      1  C1  UNL A   1      30.233  -8.954  20.717  1.00  0.00    +0.000 C 
ATOM    102  H1  UNL A   1      30.935  -9.143  19.930  1.00  0.00    +0.000 H 
ATOM    103  H2  UNL A   1      29.305  -8.628  20.295  1.00  0.00    +0.000 H 
ATOM    104  H3  UNL A   1      30.074  -9.852  21.276  1.00  0.00    +0.000 H 
ENDBRANCH    2    1
BRANCH    3    4
ATOM      4  C4  UNL A   1      32.952  -7.205  20.505  1.00  0.00    +0.000 C 
ATOM      5  N1  UNL A   1      33.989  -8.037  20.659  1.00  0.00    +0.000 N 
ATOM      6  N2  UNL A   1      34.835  -7.708  19.659  1.00  0.00    +0.000 N 
ATOM     13  C11 UNL A   1      34.322  -6.713  18.858  1.00  0.00    +0.000 C 
ATOM     14  C12 UNL A   1      33.067  -6.401  19.347  1.00  0.00    +0.000 C 
ATOM    110  H9  UNL A   1      34.787  -6.282  18.044  1.00  0.00    +0.000 H 
BRANCH    6    7
ATOM      7  C5  UNL A   1      36.093  -8.341  19.535  1.00  0.00    +0.000 C 
ATOM      8  C6  UNL A   1      36.513  -9.226  20.534  1.00  0.00    +0.000 C 
ATOM      9  C7  UNL A   1      37.738  -9.881  20.406  1.00  0.00    +0.000 C 
ATOM    105  H4  UNL A   1      35.920  -9.395  21.361  1.00  0.00    +0.000 H 
ATOM     11  C9  UNL A   1      38.160  -8.701  18.338  1.00  0.00    +0.000 C 
ATOM     12  C10 UNL A   1      36.911  -8.082  18.428  1.00  0.00    +0.000 C 
ATOM    109  H8  UNL A   1      36.595  -7.439  17.685  1.00  0.00    +0.000 H 
ATOM     10  C8  UNL A   1      38.565  -9.610  19.316  1.00  0.00    +0.000 C 
ATOM    106  H5  UNL A   1      38.034 -10.568  21.119  1.00  0.00    +0.000 H 
ATOM    108  H7  UNL A   1      38.784  -8.486  17.545  1.00  0.00    +0.000 H 
ATOM    107  H6  UNL A   1      39.479 -10.083  19.233  1.00  0.00    +0.000 H 
ENDBRANCH    6    7
BRANCH   14   15
ATOM    111  H10 UNL A   1      32.453  -4.475  18.615  1.00  0.00    +0.000 H 
ATOM     15  C13 UNL A   1      32.163  -5.457  18.743  1.00  0.00    +0.000 C 
BRANCH   15   16
ATOM     16  N3  UNL A   1      30.988  -5.836  18.362  1.00  0.00    +0.000 N 
BRANCH   16   17
ATOM     17  O1  UNL A   1      30.396  -4.815  17.608  1.00  0.00    +0.000 O 
ATOM    112  H11 UNL A   1      29.722  -4.285  17.985  1.00  0.00    +0.000 H 
ENDBRANCH   16   17
ENDBRANCH   15   16
ENDBRANCH   14   15
ENDBRANCH    3    4
ENDBRANCH   21   20
ENDBRANCH   25   24
ENDBRANCH   27   25
ENDBRANCH   28   27
ENDBRANCH   29   28
ENDBRANCH   30   29
ENDBRANCH   31   30
ENDBRANCH   32   31
ENDBRANCH   33   32
ENDBRANCH   34   33
ENDBRANCH   35   34
ENDBRANCH   37   35
ENDBRANCH   41   40
BRANCH   45   46
ATOM     46  C34 UNL A   1      27.304  -9.537  31.305  1.00  0.00    +0.000 C 
ATOM     47  C35 UNL A   1      27.832 -10.654  31.989  1.00  0.00    +0.000 C 
ATOM     48  F1  UNL A   1      28.714 -11.469  31.389  1.00  0.00    +0.000 F 
ATOM     49  C36 UNL A   1      27.389 -11.023  33.263  1.00  0.00    +0.000 C 
ATOM     50  F2  UNL A   1      27.816 -12.169  33.811  1.00  0.00    +0.000 F 
ATOM     51  C37 UNL A   1      26.454 -10.255  33.929  1.00  0.00    +0.000 C 
ATOM     52  F3  UNL A   1      25.976 -10.642  35.119  1.00  0.00    +0.000 F 
ATOM     53  C38 UNL A   1      25.978  -9.107  33.333  1.00  0.00    +0.000 C 
ATOM     54  F4  UNL A   1      25.060  -8.356  33.958  1.00  0.00    +0.000 F 
ATOM     55  C39 UNL A   1      26.378  -8.765  32.040  1.00  0.00    +0.000 C 
ATOM     56  F5  UNL A   1      25.739  -7.718  31.507  1.00  0.00    +0.000 F 
ENDBRANCH   45   46
BRANCH   62   63
ATOM     65  F6  UNL A   1      34.353  -8.468  27.931  1.00  0.00    +0.000 F 
ATOM     66  C47 UNL A   1      34.385  -8.758  25.606  1.00  0.00    +0.000 C 
ATOM     67  F7  UNL A   1      35.592  -8.177  25.555  1.00  0.00    +0.000 F 
ATOM     68  C48 UNL A   1      33.816  -9.268  24.450  1.00  0.00    +0.000 C 
ATOM     69  F8  UNL A   1      34.472  -9.188  23.284  1.00  0.00    +0.000 F 
ATOM     70  C49 UNL A   1      32.575  -9.884  24.508  1.00  0.00    +0.000 C 
ATOM     71  F9  UNL A   1      32.043 -10.425  23.403  1.00  0.00    +0.000 F 
ATOM     72  C50 UNL A   1      31.891  -9.966  25.716  1.00  0.00    +0.000 C 
ATOM     73  F10 UNL A   1      30.700 -10.587  25.742  1.00  0.00    +0.000 F 
ATOM     63  C45 UNL A   1      32.443  -9.459  26.900  1.00  0.00    +0.000 C 
ATOM     64  C46 UNL A   1      33.719  -8.878  26.824  1.00  0.00    +0.000 C 
ENDBRANCH   62   63
BRANCH   77   78
ATOM     78  C54 UNL A   1      32.617 -15.489  28.689  1.00  0.00    +0.000 C 
ATOM     79  C55 UNL A   1      33.754 -16.009  28.053  1.00  0.00    +0.000 C 
ATOM     80  F11 UNL A   1      34.174 -15.487  26.892  1.00  0.00    +0.000 F 
ATOM     81  C56 UNL A   1      34.512 -17.031  28.631  1.00  0.00    +0.000 C 
ATOM     82  F12 UNL A   1      35.625 -17.464  28.023  1.00  0.00    +0.000 F 
ATOM     83  C57 UNL A   1      34.149 -17.565  29.859  1.00  0.00    +0.000 C 
ATOM     84  F13 UNL A   1      34.907 -18.507  30.438  1.00  0.00    +0.000 F 
ATOM     85  C58 UNL A   1      33.021 -17.091  30.500  1.00  0.00    +0.000 C 
ATOM     86  F14 UNL A   1      32.678 -17.575  31.702  1.00  0.00    +0.000 F 
ATOM     87  C59 UNL A   1      32.270 -16.064  29.927  1.00  0.00    +0.000 C 
ATOM     88  F15 UNL A   1      31.247 -15.580  30.648  1.00  0.00    +0.000 F 
ENDBRANCH   77   78
TORSDOF 22
ENDMDL
MODEL 5
REMARK VINA RESULT:     -10.2      4.701     11.928
ROOT
ATOM    131  H30 UNL A   1      28.300  16.030   6.484  1.00  0.00    +0.000 H 
ATOM    132  H31 UNL A   1      26.478  14.111   6.763  1.00  0.00    +0.000 H 
ATOM    133  H32 UNL A   1      25.476  17.239   9.107  1.00  0.00    +0.000 H 
ATOM    134  H33 UNL A   1      19.392  17.734   3.729  1.00  0.00    +0.000 H 
ATOM    135  H34 UNL A   1      21.373  17.732   2.128  1.00  0.00    +0.000 H 
ATOM    136  H35 UNL A   1      22.923  17.664   5.984  1.00  0.00    +0.000 H 
ATOM    137  H36 UNL A   1      21.545  19.135   8.655  1.00  0.00    +0.000 H 
ATOM    138  H37 UNL A   1      23.646  17.821   9.362  1.00  0.00    +0.000 H 
ATOM    139  H38 UNL A   1      27.002  21.017   5.469  1.00  0.00    +0.000 H 
ATOM    140  H39 UNL A   1      25.128  20.977   3.710  1.00  0.00    +0.000 H 
ATOM     41  C30 UNL A   1      23.859  18.413   3.452  1.00  0.00    +0.000 C 
ATOM     42  C31 UNL A   1      24.948  18.820   4.396  1.00  0.00    +0.000 C 
ATOM     43  N9  UNL A   1      25.586  18.091   5.258  1.00  0.00    +0.000 N 
ATOM     44  C32 UNL A   1      26.407  18.964   5.974  1.00  0.00    +0.000 C 
ATOM     45  C33 UNL A   1      26.868  18.658   7.219  1.00  0.00    +0.000 C 
ATOM     57  C40 UNL A   1      26.803  17.245   7.473  1.00  0.00    +0.000 C 
ATOM     58  C41 UNL A   1      27.369  16.115   6.921  1.00  0.00    +0.000 C 
ATOM     59  C42 UNL A   1      26.392  15.088   7.082  1.00  0.00    +0.000 C 
ATOM     60  C43 UNL A   1      25.300  15.643   7.751  1.00  0.00    +0.000 C 
ATOM     61  N10 UNL A   1      25.792  16.801   8.284  1.00  0.00    +0.000 N 
ATOM     62  C44 UNL A   1      23.902  15.285   7.794  1.00  0.00    +0.000 C 
ATOM     74  C51 UNL A   1      22.897  16.137   8.150  1.00  0.00    +0.000 C 
ATOM     75  N11 UNL A   1      21.627  15.984   7.621  1.00  0.00    +0.000 N 
ATOM     76  C52 UNL A   1      21.141  17.193   7.571  1.00  0.00    +0.000 C 
ATOM     77  C53 UNL A   1      20.211  17.662   6.520  1.00  0.00    +0.000 C 
ATOM     89  C60 UNL A   1      20.895  17.687   5.354  1.00  0.00    +0.000 C 
ATOM     90  C61 UNL A   1      20.387  17.740   4.001  1.00  0.00    +0.000 C 
ATOM     91  C62 UNL A   1      21.433  17.797   3.157  1.00  0.00    +0.000 C 
ATOM     92  C63 UNL A   1      22.672  17.965   3.921  1.00  0.00    +0.000 C 
ATOM     93  N12 UNL A   1      22.295  17.755   5.232  1.00  0.00    +0.000 N 
ATOM     94  C64 UNL A   1      21.818  18.173   8.403  1.00  0.00    +0.000 C 
ATOM     95  C65 UNL A   1      22.898  17.467   8.746  1.00  0.00    +0.000 C 
ATOM     96  C66 UNL A   1      26.379  20.219   5.271  1.00  0.00    +0.000 C 
ATOM     97  C67 UNL A   1      25.436  20.211   4.329  1.00  0.00    +0.000 C 
ENDROOT
BRANCH   41   40
ATOM    129  H28 UNL A   1      22.932  21.079  -0.167  1.00  0.00    +0.000 H 
ATOM     98  C68 UNL A   1      24.694  17.957   1.165  1.00  0.00    +0.000 C 
ATOM     99  C69 UNL A   1      24.766  18.263  -0.177  1.00  0.00    +0.000 C 
ATOM    130  H29 UNL A   1      22.959  20.634   2.226  1.00  0.00    +0.000 H 
ATOM     37  C26 UNL A   1      24.045  19.351  -0.665  1.00  0.00    +0.000 C 
ATOM     38  C27 UNL A   1      23.405  20.239   0.202  1.00  0.00    +0.000 C 
ATOM     39  C28 UNL A   1      23.411  19.977   1.570  1.00  0.00    +0.000 C 
ATOM     40  C29 UNL A   1      24.034  18.819   2.050  1.00  0.00    +0.000 C 
ATOM    141  H40 UNL A   1      25.128  17.089   1.519  1.00  0.00    +0.000 H 
ATOM    142  H41 UNL A   1      25.347  17.694  -0.813  1.00  0.00    +0.000 H 
BRANCH   37   35
ATOM     35  C25 UNL A   1      23.912  19.527  -2.123  1.00  0.00    +0.000 C 
ATOM     36  O3  UNL A   1      23.916  18.564  -2.864  1.00  0.00    +0.000 O 
BRANCH   35   34
ATOM     34  N8  UNL A   1      23.805  20.812  -2.623  1.00  0.00    +0.000 N 
ATOM    128  H27 UNL A   1      23.221  21.430  -2.128  1.00  0.00    +0.000 H 
BRANCH   34   33
ATOM     33  C24 UNL A   1      24.468  21.346  -3.809  1.00  0.00    +0.000 C 
ATOM    126  H25 UNL A   1      24.111  20.824  -4.672  1.00  0.00    +0.000 H 
ATOM    127  H26 UNL A   1      24.245  22.390  -3.877  1.00  0.00    +0.000 H 
BRANCH   33   32
ATOM    124  H23 UNL A   1      26.318  21.640  -2.814  1.00  0.00    +0.000 H 
ATOM    125  H24 UNL A   1      26.186  20.135  -3.753  1.00  0.00    +0.000 H 
ATOM     32  C23 UNL A   1      25.980  21.185  -3.722  1.00  0.00    +0.000 C 
BRANCH   32   31
ATOM    122  H21 UNL A   1      27.026  21.042  -5.565  1.00  0.00    +0.000 H 
ATOM    123  H22 UNL A   1      26.062  22.537  -5.322  1.00  0.00    +0.000 H 
ATOM     31  C22 UNL A   1      26.737  21.825  -4.894  1.00  0.00    +0.000 C 
BRANCH   31   30
ATOM    121  H20 UNL A   1      28.810  21.921  -4.574  1.00  0.00    +0.000 H 
ATOM     30  C21 UNL A   1      28.000  22.619  -4.522  1.00  0.00    +0.000 C 
ATOM    120  H19 UNL A   1      27.851  23.037  -3.549  1.00  0.00    +0.000 H 
BRANCH   30   29
ATOM     29  C20 UNL A   1      28.369  23.764  -5.479  1.00  0.00    +0.000 C 
ATOM    118  H17 UNL A   1      27.955  24.672  -5.093  1.00  0.00    +0.000 H 
ATOM    119  H18 UNL A   1      29.437  23.794  -5.534  1.00  0.00    +0.000 H 
BRANCH   29   28
ATOM    116  H15 UNL A   1      28.682  23.436  -7.568  1.00  0.00    +0.000 H 
ATOM     28  C19 UNL A   1      27.851  23.563  -6.907  1.00  0.00    +0.000 C 
ATOM    117  H16 UNL A   1      27.227  22.695  -6.933  1.00  0.00    +0.000 H 
BRANCH   28   27
ATOM     27  N7  UNL A   1      27.078  24.715  -7.325  1.00  0.00    +0.000 N 
ATOM    115  H14 UNL A   1      27.636  25.499  -7.533  1.00  0.00    +0.000 H 
BRANCH   27   25
ATOM     25  C18 UNL A   1      25.738  24.949  -7.492  1.00  0.00    +0.000 C 
ATOM     26  O2  UNL A   1      25.258  24.670  -8.593  1.00  0.00    +0.000 O 
BRANCH   25   24
ATOM    100  C70 UNL A   1      24.184  26.791  -6.616  1.00  0.00    +0.000 C 
ATOM    101  C71 UNL A   1      23.274  27.230  -5.645  1.00  0.00    +0.000 C 
ATOM    143  H42 UNL A   1      24.356  27.371  -7.452  1.00  0.00    +0.000 H 
ATOM    144  H43 UNL A   1      22.722  28.086  -5.802  1.00  0.00    +0.000 H 
ATOM    113  H12 UNL A   1      23.850  24.883  -3.315  1.00  0.00    +0.000 H 
ATOM    114  H13 UNL A   1      25.263  24.022  -5.090  1.00  0.00    +0.000 H 
ATOM     21  C14 UNL A   1      23.118  26.502  -4.459  1.00  0.00    +0.000 C 
ATOM     22  C15 UNL A   1      23.893  25.367  -4.225  1.00  0.00    +0.000 C 
ATOM     23  C16 UNL A   1      24.729  24.893  -5.241  1.00  0.00    +0.000 C 
ATOM     24  C17 UNL A   1      24.859  25.578  -6.463  1.00  0.00    +0.000 C 
BRANCH   21   20
ATOM      2  C2  UNL A   1      22.391  27.864  -2.468  1.00  0.00    +0.000 C 
ATOM      3  C3  UNL A   1      21.263  27.706  -1.689  1.00  0.00    +0.000 C 
ATOM     18  N4  UNL A   1      20.400  26.831  -2.277  1.00  0.00    +0.000 N 
ATOM     19  N5  UNL A   1      20.952  26.427  -3.416  1.00  0.00    +0.000 N 
ATOM     20  N6  UNL A   1      22.205  26.937  -3.476  1.00  0.00    +0.000 N 
BRANCH    2    1
ATOM      1  C1  UNL A   1      23.480  28.866  -2.399  1.00  0.00    +0.000 C 
ATOM    102  H1  UNL A   1      23.068  29.848  -2.509  1.00  0.00    +0.000 H 
ATOM    103  H2  UNL A   1      24.183  28.684  -3.185  1.00  0.00    +0.000 H 
ATOM    104  H3  UNL A   1      23.975  28.790  -1.453  1.00  0.00    +0.000 H 
ENDBRANCH    2    1
BRANCH    3    4
ATOM      4  C4  UNL A   1      20.925  28.412  -0.459  1.00  0.00    +0.000 C 
ATOM      5  N1  UNL A   1      19.921  29.295  -0.398  1.00  0.00    +0.000 N 
ATOM      6  N2  UNL A   1      20.046  29.864   0.820  1.00  0.00    +0.000 N 
ATOM     13  C11 UNL A   1      21.087  29.319   1.537  1.00  0.00    +0.000 C 
ATOM     14  C12 UNL A   1      21.647  28.326   0.755  1.00  0.00    +0.000 C 
ATOM    110  H9  UNL A   1      21.391  29.598   2.483  1.00  0.00    +0.000 H 
BRANCH    6    7
ATOM      7  C5  UNL A   1      19.186  30.909   1.225  1.00  0.00    +0.000 C 
ATOM      8  C6  UNL A   1      18.504  30.800   2.443  1.00  0.00    +0.000 C 
ATOM      9  C7  UNL A   1      17.678  31.840   2.868  1.00  0.00    +0.000 C 
ATOM    105  H4  UNL A   1      18.613  29.954   3.024  1.00  0.00    +0.000 H 
ATOM     11  C9  UNL A   1      18.141  33.051   0.827  1.00  0.00    +0.000 C 
ATOM     12  C10 UNL A   1      19.014  32.040   0.417  1.00  0.00    +0.000 C 
ATOM    109  H8  UNL A   1      19.527  32.126  -0.475  1.00  0.00    +0.000 H 
ATOM     10  C8  UNL A   1      17.487  32.958   2.056  1.00  0.00    +0.000 C 
ATOM    106  H5  UNL A   1      17.206  31.783   3.785  1.00  0.00    +0.000 H 
ATOM    108  H7  UNL A   1      17.980  33.869   0.218  1.00  0.00    +0.000 H 
ATOM    107  H6  UNL A   1      16.861  33.719   2.364  1.00  0.00    +0.000 H 
ENDBRANCH    6    7
BRANCH   14   15
ATOM    111  H10 UNL A   1      23.697  27.712   0.959  1.00  0.00    +0.000 H 
ATOM     15  C13 UNL A   1      22.720  27.460   1.171  1.00  0.00    +0.000 C 
BRANCH   15   16
ATOM     16  N3  UNL A   1      22.459  26.367   1.811  1.00  0.00    +0.000 N 
BRANCH   16   17
ATOM     17  O1  UNL A   1      21.127  26.005   1.580  1.00  0.00    +0.000 O 
ATOM    112  H11 UNL A   1      20.820  25.879   0.703  1.00  0.00    +0.000 H 
ENDBRANCH   16   17
ENDBRANCH   15   16
ENDBRANCH   14   15
ENDBRANCH    3    4
ENDBRANCH   21   20
ENDBRANCH   25   24
ENDBRANCH   27   25
ENDBRANCH   28   27
ENDBRANCH   29   28
ENDBRANCH   30   29
ENDBRANCH   31   30
ENDBRANCH   32   31
ENDBRANCH   33   32
ENDBRANCH   34   33
ENDBRANCH   35   34
ENDBRANCH   37   35
ENDBRANCH   41   40
BRANCH   45   46
ATOM     46  C34 UNL A   1      27.004  19.658   8.354  1.00  0.00    +0.000 C 
ATOM     47  C35 UNL A   1      28.121  19.573   9.214  1.00  0.00    +0.000 C 
ATOM     48  F1  UNL A   1      29.188  18.832   8.878  1.00  0.00    +0.000 F 
ATOM     49  C36 UNL A   1      28.128  20.159  10.484  1.00  0.00    +0.000 C 
ATOM     50  F2  UNL A   1      29.152  19.932  11.318  1.00  0.00    +0.000 F 
ATOM     51  C37 UNL A   1      27.049  20.906  10.915  1.00  0.00    +0.000 C 
ATOM     52  F3  UNL A   1      27.021  21.411  12.157  1.00  0.00    +0.000 F 
ATOM     53  C38 UNL A   1      25.975  21.087  10.071  1.00  0.00    +0.000 C 
ATOM     54  F4  UNL A   1      24.913  21.798  10.478  1.00  0.00    +0.000 F 
ATOM     55  C39 UNL A   1      25.942  20.460   8.825  1.00  0.00    +0.000 C 
ATOM     56  F5  UNL A   1      24.790  20.583   8.157  1.00  0.00    +0.000 F 
ENDBRANCH   45   46
BRANCH   62   63
ATOM     65  F6  UNL A   1      23.891  14.726   4.918  1.00  0.00    +0.000 F 
ATOM     66  C47 UNL A   1      23.214  12.506   5.241  1.00  0.00    +0.000 C 
ATOM     67  F7  UNL A   1      23.210  12.319   3.913  1.00  0.00    +0.000 F 
ATOM     68  C48 UNL A   1      22.938  11.444   6.087  1.00  0.00    +0.000 C 
ATOM     69  F8  UNL A   1      22.675  10.231   5.582  1.00  0.00    +0.000 F 
ATOM     70  C49 UNL A   1      22.961  11.635   7.460  1.00  0.00    +0.000 C 
ATOM     71  F9  UNL A   1      22.745  10.600   8.284  1.00  0.00    +0.000 F 
ATOM     72  C50 UNL A   1      23.231  12.893   7.987  1.00  0.00    +0.000 C 
ATOM     73  F10 UNL A   1      23.264  13.040   9.322  1.00  0.00    +0.000 F 
ATOM     63  C45 UNL A   1      23.513  13.985   7.155  1.00  0.00    +0.000 C 
ATOM     64  C46 UNL A   1      23.527  13.756   5.769  1.00  0.00    +0.000 C 
ENDBRANCH   62   63
BRANCH   77   78
ATOM     78  C54 UNL A   1      18.876  18.224   6.814  1.00  0.00    +0.000 C 
ATOM     79  C55 UNL A   1      18.441  19.419   6.221  1.00  0.00    +0.000 C 
ATOM     80  F11 UNL A   1      19.299  20.174   5.521  1.00  0.00    +0.000 F 
ATOM     81  C56 UNL A   1      17.105  19.823   6.286  1.00  0.00    +0.000 C 
ATOM     82  F12 UNL A   1      16.714  20.941   5.659  1.00  0.00    +0.000 F 
ATOM     83  C57 UNL A   1      16.169  19.047   6.952  1.00  0.00    +0.000 C 
ATOM     84  F13 UNL A   1      14.878  19.408   6.967  1.00  0.00    +0.000 F 
ATOM     85  C58 UNL A   1      16.570  17.876   7.567  1.00  0.00    +0.000 C 
ATOM     86  F14 UNL A   1      15.668  17.100   8.185  1.00  0.00    +0.000 F 
ATOM     87  C59 UNL A   1      17.901  17.468   7.494  1.00  0.00    +0.000 C 
ATOM     88  F15 UNL A   1      18.204  16.273   8.023  1.00  0.00    +0.000 F 
ENDBRANCH   77   78
TORSDOF 22
ENDMDL
MODEL 6
REMARK VINA RESULT:     -10.1      2.985      5.096
ROOT
ATOM    131  H30 UNL A   1      23.726  27.772   1.150  1.00  0.00    +0.000 H 
ATOM    132  H31 UNL A   1      23.295  25.456   2.388  1.00  0.00    +0.000 H 
ATOM    133  H32 UNL A   1      19.749  27.111   1.398  1.00  0.00    +0.000 H 
ATOM    134  H33 UNL A   1      19.575  20.725  -3.639  1.00  0.00    +0.000 H 
ATOM    135  H34 UNL A   1      21.834  21.710  -4.283  1.00  0.00    +0.000 H 
ATOM    136  H35 UNL A   1      20.169  24.240  -1.436  1.00  0.00    +0.000 H 
ATOM    137  H36 UNL A   1      16.901  24.859  -1.066  1.00  0.00    +0.000 H 
ATOM    138  H37 UNL A   1      18.239  26.071   0.774  1.00  0.00    +0.000 H 
ATOM    139  H38 UNL A   1      21.473  28.976  -3.438  1.00  0.00    +0.000 H 
ATOM    140  H39 UNL A   1      21.572  26.874  -4.914  1.00  0.00    +0.000 H 
ATOM     41  C30 UNL A   1      22.113  24.468  -3.440  1.00  0.00    +0.000 C 
ATOM     42  C31 UNL A   1      21.941  25.861  -2.916  1.00  0.00    +0.000 C 
ATOM     43  N9  UNL A   1      22.052  26.285  -1.696  1.00  0.00    +0.000 N 
ATOM     44  C32 UNL A   1      21.673  27.629  -1.715  1.00  0.00    +0.000 C 
ATOM     45  C33 UNL A   1      21.235  28.268  -0.595  1.00  0.00    +0.000 C 
ATOM     57  C40 UNL A   1      21.640  27.577   0.599  1.00  0.00    +0.000 C 
ATOM     58  C41 UNL A   1      22.842  27.242   1.187  1.00  0.00    +0.000 C 
ATOM     59  C42 UNL A   1      22.602  26.006   1.857  1.00  0.00    +0.000 C 
ATOM     60  C43 UNL A   1      21.260  25.673   1.664  1.00  0.00    +0.000 C 
ATOM     61  N10 UNL A   1      20.686  26.843   1.251  1.00  0.00    +0.000 N 
ATOM     62  C44 UNL A   1      20.558  24.412   1.681  1.00  0.00    +0.000 C 
ATOM     74  C51 UNL A   1      19.351  24.192   1.085  1.00  0.00    +0.000 C 
ATOM     75  N11 UNL A   1      19.024  22.933   0.606  1.00  0.00    +0.000 N 
ATOM     76  C52 UNL A   1      18.243  23.161  -0.414  1.00  0.00    +0.000 C 
ATOM     77  C53 UNL A   1      18.200  22.307  -1.622  1.00  0.00    +0.000 C 
ATOM     89  C60 UNL A   1      19.385  22.446  -2.259  1.00  0.00    +0.000 C 
ATOM     90  C61 UNL A   1      19.978  21.601  -3.272  1.00  0.00    +0.000 C 
ATOM     91  C62 UNL A   1      21.145  22.151  -3.654  1.00  0.00    +0.000 C 
ATOM     92  C63 UNL A   1      21.288  23.475  -3.040  1.00  0.00    +0.000 C 
ATOM     93  N12 UNL A   1      20.267  23.532  -2.113  1.00  0.00    +0.000 N 
ATOM     94  C64 UNL A   1      17.653  24.488  -0.465  1.00  0.00    +0.000 C 
ATOM     95  C65 UNL A   1      18.368  25.088   0.489  1.00  0.00    +0.000 C 
ATOM     96  C66 UNL A   1      21.586  28.008  -3.100  1.00  0.00    +0.000 C 
ATOM     97  C67 UNL A   1      21.670  26.936  -3.889  1.00  0.00    +0.000 C 
ENDROOT
BRANCH   41   40
ATOM    129  H28 UNL A   1      26.234  24.095  -5.425  1.00  0.00    +0.000 H 
ATOM     98  C68 UNL A   1      22.464  24.535  -5.891  1.00  0.00    +0.000 C 
ATOM     99  C69 UNL A   1      23.292  24.520  -6.993  1.00  0.00    +0.000 C 
ATOM    130  H29 UNL A   1      24.752  23.939  -3.501  1.00  0.00    +0.000 H 
ATOM     37  C26 UNL A   1      24.671  24.452  -6.805  1.00  0.00    +0.000 C 
ATOM     38  C27 UNL A   1      25.215  24.212  -5.541  1.00  0.00    +0.000 C 
ATOM     39  C28 UNL A   1      24.367  24.135  -4.438  1.00  0.00    +0.000 C 
ATOM     40  C29 UNL A   1      22.990  24.323  -4.611  1.00  0.00    +0.000 C 
ATOM    141  H40 UNL A   1      21.452  24.702  -6.011  1.00  0.00    +0.000 H 
ATOM    142  H41 UNL A   1      22.896  24.560  -7.945  1.00  0.00    +0.000 H 
BRANCH   37   35
ATOM     35  C25 UNL A   1      25.564  24.695  -7.953  1.00  0.00    +0.000 C 
ATOM     36  O3  UNL A   1      25.881  23.783  -8.691  1.00  0.00    +0.000 O 
BRANCH   35   34
ATOM     34  N8  UNL A   1      26.044  25.976  -8.152  1.00  0.00    +0.000 N 
ATOM    128  H27 UNL A   1      25.760  26.660  -7.504  1.00  0.00    +0.000 H 
BRANCH   34   33
ATOM     33  C24 UNL A   1      26.932  26.419  -9.224  1.00  0.00    +0.000 C 
ATOM    126  H25 UNL A   1      26.356  26.945  -9.956  1.00  0.00    +0.000 H 
ATOM    127  H26 UNL A   1      27.679  27.056  -8.799  1.00  0.00    +0.000 H 
BRANCH   33   32
ATOM    124  H23 UNL A   1      27.778  24.476  -9.161  1.00  0.00    +0.000 H 
ATOM    125  H24 UNL A   1      27.000  24.921 -10.697  1.00  0.00    +0.000 H 
ATOM     32  C23 UNL A   1      27.629  25.242  -9.893  1.00  0.00    +0.000 C 
BRANCH   32   31
ATOM    122  H21 UNL A   1      28.959  25.353 -11.545  1.00  0.00    +0.000 H 
ATOM    123  H22 UNL A   1      29.135  26.641 -10.308  1.00  0.00    +0.000 H 
ATOM     31  C22 UNL A   1      28.991  25.599 -10.504  1.00  0.00    +0.000 C 
BRANCH   31   30
ATOM    121  H20 UNL A   1      30.983  24.944 -10.625  1.00  0.00    +0.000 H 
ATOM     30  C21 UNL A   1      30.208  24.888  -9.889  1.00  0.00    +0.000 C 
ATOM    120  H19 UNL A   1      29.916  23.888  -9.644  1.00  0.00    +0.000 H 
BRANCH   30   29
ATOM     29  C20 UNL A   1      30.783  25.537  -8.620  1.00  0.00    +0.000 C 
ATOM    118  H17 UNL A   1      31.740  25.954  -8.859  1.00  0.00    +0.000 H 
ATOM    119  H18 UNL A   1      30.082  26.280  -8.303  1.00  0.00    +0.000 H 
BRANCH   29   28
ATOM    116  H15 UNL A   1      31.507  23.704  -7.791  1.00  0.00    +0.000 H 
ATOM     28  C19 UNL A   1      30.959  24.559  -7.454  1.00  0.00    +0.000 C 
ATOM    117  H16 UNL A   1      31.492  25.048  -6.666  1.00  0.00    +0.000 H 
BRANCH   28   27
ATOM     27  N7  UNL A   1      29.665  24.134  -6.958  1.00  0.00    +0.000 N 
ATOM    115  H14 UNL A   1      29.226  24.813  -6.396  1.00  0.00    +0.000 H 
BRANCH   27   25
ATOM     25  C18 UNL A   1      28.923  22.991  -7.101  1.00  0.00    +0.000 C 
ATOM     26  O2  UNL A   1      28.791  22.554  -8.246  1.00  0.00    +0.000 O 
BRANCH   25   24
ATOM    100  C70 UNL A   1      28.387  22.588  -4.625  1.00  0.00    +0.000 C 
ATOM    101  C71 UNL A   1      27.578  21.975  -3.660  1.00  0.00    +0.000 C 
ATOM    143  H42 UNL A   1      29.113  23.259  -4.331  1.00  0.00    +0.000 H 
ATOM    144  H43 UNL A   1      27.654  22.253  -2.669  1.00  0.00    +0.000 H 
ATOM    113  H12 UNL A   1      25.988  19.786  -5.644  1.00  0.00    +0.000 H 
ATOM    114  H13 UNL A   1      27.241  21.000  -7.332  1.00  0.00    +0.000 H 
ATOM     21  C14 UNL A   1      26.666  20.985  -4.043  1.00  0.00    +0.000 C 
ATOM     22  C15 UNL A   1      26.589  20.579  -5.374  1.00  0.00    +0.000 C 
ATOM     23  C16 UNL A   1      27.337  21.262  -6.338  1.00  0.00    +0.000 C 
ATOM     24  C17 UNL A   1      28.219  22.300  -5.982  1.00  0.00    +0.000 C 
BRANCH   21   20
ATOM      2  C2  UNL A   1      26.190  19.413  -2.133  1.00  0.00    +0.000 C 
ATOM      3  C3  UNL A   1      24.965  19.009  -1.641  1.00  0.00    +0.000 C 
ATOM     18  N4  UNL A   1      23.968  19.773  -2.169  1.00  0.00    +0.000 N 
ATOM     19  N5  UNL A   1      24.530  20.657  -2.987  1.00  0.00    +0.000 N 
ATOM     20  N6  UNL A   1      25.849  20.363  -3.076  1.00  0.00    +0.000 N 
BRANCH    2    1
ATOM      1  C1  UNL A   1      27.564  19.080  -1.692  1.00  0.00    +0.000 C 
ATOM    102  H1  UNL A   1      28.198  19.934  -1.824  1.00  0.00    +0.000 H 
ATOM    103  H2  UNL A   1      27.939  18.265  -2.274  1.00  0.00    +0.000 H 
ATOM    104  H3  UNL A   1      27.551  18.803  -0.658  1.00  0.00    +0.000 H 
ENDBRANCH    2    1
BRANCH    3    4
ATOM      4  C4  UNL A   1      24.704  17.994  -0.627  1.00  0.00    +0.000 C 
ATOM      5  N1  UNL A   1      24.003  16.886  -0.895  1.00  0.00    +0.000 N 
ATOM      6  N2  UNL A   1      23.814  16.308   0.311  1.00  0.00    +0.000 N 
ATOM     13  C11 UNL A   1      24.423  17.017   1.321  1.00  0.00    +0.000 C 
ATOM     14  C12 UNL A   1      25.063  18.093   0.737  1.00  0.00    +0.000 C 
ATOM    110  H9  UNL A   1      24.405  16.786   2.327  1.00  0.00    +0.000 H 
BRANCH    6    7
ATOM      7  C5  UNL A   1      23.046  15.128   0.438  1.00  0.00    +0.000 C 
ATOM      8  C6  UNL A   1      22.114  14.810  -0.556  1.00  0.00    +0.000 C 
ATOM      9  C7  UNL A   1      21.373  13.632  -0.458  1.00  0.00    +0.000 C 
ATOM    105  H4  UNL A   1      21.975  15.443  -1.359  1.00  0.00    +0.000 H 
ATOM     11  C9  UNL A   1      22.426  13.141   1.663  1.00  0.00    +0.000 C 
ATOM     12  C10 UNL A   1      23.212  14.289   1.547  1.00  0.00    +0.000 C 
ATOM    109  H8  UNL A   1      23.909  14.518   2.274  1.00  0.00    +0.000 H 
ATOM     10  C8  UNL A   1      21.520  12.805   0.656  1.00  0.00    +0.000 C 
ATOM    106  H5  UNL A   1      20.715  13.371  -1.210  1.00  0.00    +0.000 H 
ATOM    108  H7  UNL A   1      22.516  12.538   2.497  1.00  0.00    +0.000 H 
ATOM    107  H6  UNL A   1      20.958  11.943   0.735  1.00  0.00    +0.000 H 
ENDBRANCH    6    7
BRANCH   14   15
ATOM    111  H10 UNL A   1      25.518  19.986   1.650  1.00  0.00    +0.000 H 
ATOM     15  C13 UNL A   1      25.883  19.043   1.444  1.00  0.00    +0.000 C 
BRANCH   15   16
ATOM     16  N3  UNL A   1      27.075  18.717   1.822  1.00  0.00    +0.000 N 
BRANCH   16   17
ATOM     17  O1  UNL A   1      26.995  17.980   3.010  1.00  0.00    +0.000 O 
ATOM    112  H11 UNL A   1      27.182  17.062   3.006  1.00  0.00    +0.000 H 
ENDBRANCH   16   17
ENDBRANCH   15   16
ENDBRANCH   14   15
ENDBRANCH    3    4
ENDBRANCH   21   20
ENDBRANCH   25   24
ENDBRANCH   27   25
ENDBRANCH   28   27
ENDBRANCH   29   28
ENDBRANCH   30   29
ENDBRANCH   31   30
ENDBRANCH   32   31
ENDBRANCH   33   32
ENDBRANCH   34   33
ENDBRANCH   35   34
ENDBRANCH   37   35
ENDBRANCH   41   40
BRANCH   45   46
ATOM     46  C34 UNL A   1      20.111  29.289  -0.571  1.00  0.00    +0.000 C 
ATOM     47  C35 UNL A   1      20.182  30.368   0.337  1.00  0.00    +0.000 C 
ATOM     48  F1  UNL A   1      21.334  30.666   0.957  1.00  0.00    +0.000 F 
ATOM     49  C36 UNL A   1      19.050  31.100   0.710  1.00  0.00    +0.000 C 
ATOM     50  F2  UNL A   1      19.141  32.021   1.680  1.00  0.00    +0.000 F 
ATOM     51  C37 UNL A   1      17.821  30.827   0.143  1.00  0.00    +0.000 C 
ATOM     52  F3  UNL A   1      16.722  31.478   0.548  1.00  0.00    +0.000 F 
ATOM     53  C38 UNL A   1      17.725  29.839  -0.814  1.00  0.00    +0.000 C 
ATOM     54  F4  UNL A   1      16.538  29.550  -1.366  1.00  0.00    +0.000 F 
ATOM     55  C39 UNL A   1      18.841  29.071  -1.149  1.00  0.00    +0.000 C 
ATOM     56  F5  UNL A   1      18.598  28.046  -1.973  1.00  0.00    +0.000 F 
ENDBRANCH   45   46
BRANCH   62   63
ATOM     65  F6  UNL A   1      20.301  23.128   4.302  1.00  0.00    +0.000 F 
ATOM     66  C47 UNL A   1      21.871  21.473   3.768  1.00  0.00    +0.000 C 
ATOM     67  F7  UNL A   1      21.723  20.944   4.991  1.00  0.00    +0.000 F 
ATOM     68  C48 UNL A   1      22.699  20.853   2.845  1.00  0.00    +0.000 C 
ATOM     69  F8  UNL A   1      23.343  19.724   3.169  1.00  0.00    +0.000 F 
ATOM     70  C49 UNL A   1      22.837  21.391   1.575  1.00  0.00    +0.000 C 
ATOM     71  F9  UNL A   1      23.594  20.768   0.662  1.00  0.00    +0.000 F 
ATOM     72  C50 UNL A   1      22.171  22.564   1.236  1.00  0.00    +0.000 C 
ATOM     73  F10 UNL A   1      22.311  23.049  -0.009  1.00  0.00    +0.000 F 
ATOM     63  C45 UNL A   1      21.328  23.212   2.150  1.00  0.00    +0.000 C 
ATOM     64  C46 UNL A   1      21.171  22.624   3.415  1.00  0.00    +0.000 C 
ENDBRANCH   62   63
BRANCH   77   78
ATOM     78  C54 UNL A   1      16.965  21.657  -2.109  1.00  0.00    +0.000 C 
ATOM     79  C55 UNL A   1      16.343  22.072  -3.296  1.00  0.00    +0.000 C 
ATOM     80  F11 UNL A   1      16.750  23.189  -3.915  1.00  0.00    +0.000 F 
ATOM     81  C56 UNL A   1      15.336  21.312  -3.898  1.00  0.00    +0.000 C 
ATOM     82  F12 UNL A   1      14.804  21.708  -5.062  1.00  0.00    +0.000 F 
ATOM     83  C57 UNL A   1      14.920  20.120  -3.324  1.00  0.00    +0.000 C 
ATOM     84  F13 UNL A   1      13.993  19.364  -3.930  1.00  0.00    +0.000 F 
ATOM     85  C58 UNL A   1      15.496  19.696  -2.142  1.00  0.00    +0.000 C 
ATOM     86  F14 UNL A   1      15.127  18.529  -1.595  1.00  0.00    +0.000 F 
ATOM     87  C59 UNL A   1      16.508  20.449  -1.547  1.00  0.00    +0.000 C 
ATOM     88  F15 UNL A   1      17.096  19.932  -0.458  1.00  0.00    +0.000 F 
ENDBRANCH   77   78
TORSDOF 22
ENDMDL
MODEL 7
REMARK VINA RESULT:     -10.1     42.815     47.267
ROOT
ATOM    131  H30 UNL A   1       1.023   5.973  36.542  1.00  0.00    +0.000 H 
ATOM    132  H31 UNL A   1       3.679   5.898  36.692  1.00  0.00    +0.000 H 
ATOM    133  H32 UNL A   1       2.529   9.532  35.364  1.00  0.00    +0.000 H 
ATOM    134  H33 UNL A   1       5.430  11.742  42.637  1.00  0.00    +0.000 H 
ATOM    135  H34 UNL A   1       3.811   9.914  43.364  1.00  0.00    +0.000 H 
ATOM    136  H35 UNL A   1       3.446  10.294  39.241  1.00  0.00    +0.000 H 
ATOM    137  H36 UNL A   1       3.787  13.142  37.518  1.00  0.00    +0.000 H 
ATOM    138  H37 UNL A   1       3.406  11.174  35.897  1.00  0.00    +0.000 H 
ATOM    139  H38 UNL A   1      -1.810   9.851  38.668  1.00  0.00    +0.000 H 
ATOM    140  H39 UNL A   1      -0.796  10.362  40.974  1.00  0.00    +0.000 H 
ATOM     41  C30 UNL A   1       1.851   9.301  41.319  1.00  0.00    +0.000 C 
ATOM     42  C31 UNL A   1       0.976   9.240  40.105  1.00  0.00    +0.000 C 
ATOM     43  N9  UNL A   1       1.204   8.651  38.973  1.00  0.00    +0.000 N 
ATOM     44  C32 UNL A   1       0.142   8.996  38.135  1.00  0.00    +0.000 C 
ATOM     45  C33 UNL A   1       0.253   8.948  36.778  1.00  0.00    +0.000 C 
ATOM     57  C40 UNL A   1       1.345   8.109  36.367  1.00  0.00    +0.000 C 
ATOM     58  C41 UNL A   1       1.671   6.775  36.501  1.00  0.00    +0.000 C 
ATOM     59  C42 UNL A   1       3.095   6.740  36.571  1.00  0.00    +0.000 C 
ATOM     60  C43 UNL A   1       3.558   8.051  36.445  1.00  0.00    +0.000 C 
ATOM     61  N10 UNL A   1       2.487   8.732  35.938  1.00  0.00    +0.000 N 
ATOM     62  C44 UNL A   1       4.773   8.699  36.877  1.00  0.00    +0.000 C 
ATOM     74  C51 UNL A   1       4.912  10.046  37.047  1.00  0.00    +0.000 C 
ATOM     75  N11 UNL A   1       5.801  10.546  37.985  1.00  0.00    +0.000 N 
ATOM     76  C52 UNL A   1       5.263  11.666  38.384  1.00  0.00    +0.000 C 
ATOM     77  C53 UNL A   1       5.388  12.191  39.762  1.00  0.00    +0.000 C 
ATOM     89  C60 UNL A   1       4.708  11.355  40.579  1.00  0.00    +0.000 C 
ATOM     90  C61 UNL A   1       4.791  11.219  42.017  1.00  0.00    +0.000 C 
ATOM     91  C62 UNL A   1       3.896  10.294  42.408  1.00  0.00    +0.000 C 
ATOM     92  C63 UNL A   1       3.058   9.909  41.268  1.00  0.00    +0.000 C 
ATOM     93  N12 UNL A   1       3.684  10.478  40.178  1.00  0.00    +0.000 N 
ATOM     94  C64 UNL A   1       4.243  12.216  37.509  1.00  0.00    +0.000 C 
ATOM     95  C65 UNL A   1       4.065  11.177  36.690  1.00  0.00    +0.000 C 
ATOM     96  C66 UNL A   1      -0.850   9.621  38.968  1.00  0.00    +0.000 C 
ATOM     97  C67 UNL A   1      -0.358   9.866  40.183  1.00  0.00    +0.000 C 
ENDROOT
BRANCH   41   40
ATOM    129  H28 UNL A   1      -0.137  10.409  45.305  1.00  0.00    +0.000 H 
ATOM     98  C68 UNL A   1       1.288   7.648  43.075  1.00  0.00    +0.000 C 
ATOM     99  C69 UNL A   1       0.796   7.333  44.324  1.00  0.00    +0.000 C 
ATOM    130  H29 UNL A   1       0.565  10.931  43.033  1.00  0.00    +0.000 H 
ATOM     37  C26 UNL A   1       0.364   8.359  45.162  1.00  0.00    +0.000 C 
ATOM     38  C27 UNL A   1       0.249   9.671  44.695  1.00  0.00    +0.000 C 
ATOM     39  C28 UNL A   1       0.662   9.971  43.400  1.00  0.00    +0.000 C 
ATOM     40  C29 UNL A   1       1.208   8.961  42.597  1.00  0.00    +0.000 C 
ATOM    141  H40 UNL A   1       1.718   6.912  42.491  1.00  0.00    +0.000 H 
ATOM    142  H41 UNL A   1       0.748   6.350  44.634  1.00  0.00    +0.000 H 
BRANCH   37   35
ATOM     35  C25 UNL A   1       0.082   8.058  46.578  1.00  0.00    +0.000 C 
ATOM     36  O3  UNL A   1       0.007   6.907  46.960  1.00  0.00    +0.000 O 
BRANCH   35   34
ATOM     34  N8  UNL A   1      -0.114   9.114  47.447  1.00  0.00    +0.000 N 
ATOM    128  H27 UNL A   1      -0.958   9.610  47.356  1.00  0.00    +0.000 H 
BRANCH   34   33
ATOM     33  C24 UNL A   1       0.804   9.570  48.489  1.00  0.00    +0.000 C 
ATOM    126  H25 UNL A   1       0.253   9.730  49.391  1.00  0.00    +0.000 H 
ATOM    127  H26 UNL A   1       1.553   8.818  48.629  1.00  0.00    +0.000 H 
BRANCH   33   32
ATOM    124  H23 UNL A   1       0.804  11.464  47.536  1.00  0.00    +0.000 H 
ATOM    125  H24 UNL A   1       1.811  11.344  48.998  1.00  0.00    +0.000 H 
ATOM     32  C23 UNL A   1       1.496  10.867  48.093  1.00  0.00    +0.000 C 
BRANCH   32   31
ATOM    122  H21 UNL A   1       3.601  10.669  47.888  1.00  0.00    +0.000 H 
ATOM    123  H22 UNL A   1       2.606   9.728  46.726  1.00  0.00    +0.000 H 
ATOM     31  C22 UNL A   1       2.752  10.658  47.235  1.00  0.00    +0.000 C 
BRANCH   31   30
ATOM    121  H20 UNL A   1       2.546  12.609  46.488  1.00  0.00    +0.000 H 
ATOM     30  C21 UNL A   1       2.992  11.704  46.133  1.00  0.00    +0.000 C 
ATOM    120  H19 UNL A   1       2.558  11.333  45.228  1.00  0.00    +0.000 H 
BRANCH   30   29
ATOM     29  C20 UNL A   1       4.464  12.041  45.849  1.00  0.00    +0.000 C 
ATOM    118  H17 UNL A   1       5.076  11.287  46.298  1.00  0.00    +0.000 H 
ATOM    119  H18 UNL A   1       4.577  12.079  44.786  1.00  0.00    +0.000 H 
BRANCH   29   28
ATOM    116  H15 UNL A   1       4.600  13.487  47.419  1.00  0.00    +0.000 H 
ATOM     28  C19 UNL A   1       4.898  13.406  46.394  1.00  0.00    +0.000 C 
ATOM    117  H16 UNL A   1       5.962  13.490  46.317  1.00  0.00    +0.000 H 
BRANCH   28   27
ATOM     27  N7  UNL A   1       4.281  14.470  45.630  1.00  0.00    +0.000 N 
ATOM    115  H14 UNL A   1       3.667  15.023  46.164  1.00  0.00    +0.000 H 
BRANCH   27   25
ATOM     25  C18 UNL A   1       4.368  14.873  44.323  1.00  0.00    +0.000 C 
ATOM     26  O2  UNL A   1       5.477  15.236  43.925  1.00  0.00    +0.000 O 
BRANCH   25   24
ATOM    100  C70 UNL A   1       2.669  16.153  42.890  1.00  0.00    +0.000 C 
ATOM    101  C71 UNL A   1       1.664  16.128  41.915  1.00  0.00    +0.000 C 
ATOM    143  H42 UNL A   1       3.016  17.060  43.241  1.00  0.00    +0.000 H 
ATOM    144  H43 UNL A   1       1.329  17.007  41.493  1.00  0.00    +0.000 H 
ATOM    113  H12 UNL A   1       1.066  12.825  41.889  1.00  0.00    +0.000 H 
ATOM    114  H13 UNL A   1       2.949  12.866  43.420  1.00  0.00    +0.000 H 
ATOM     21  C14 UNL A   1       1.113  14.904  41.515  1.00  0.00    +0.000 C 
ATOM     22  C15 UNL A   1       1.535  13.717  42.113  1.00  0.00    +0.000 C 
ATOM     23  C16 UNL A   1       2.600  13.751  43.017  1.00  0.00    +0.000 C 
ATOM     24  C17 UNL A   1       3.206  14.965  43.392  1.00  0.00    +0.000 C 
BRANCH   21   20
ATOM      2  C2  UNL A   1      -1.113  14.210  40.563  1.00  0.00    +0.000 C 
ATOM      3  C3  UNL A   1      -1.566  14.337  39.265  1.00  0.00    +0.000 C 
ATOM     18  N4  UNL A   1      -0.730  15.140  38.548  1.00  0.00    +0.000 N 
ATOM     19  N5  UNL A   1       0.247  15.529  39.360  1.00  0.00    +0.000 N 
ATOM     20  N6  UNL A   1       0.101  14.870  40.534  1.00  0.00    +0.000 N 
BRANCH    2    1
ATOM      1  C1  UNL A   1      -1.779  13.668  41.769  1.00  0.00    +0.000 C 
ATOM    102  H1  UNL A   1      -2.617  13.068  41.475  1.00  0.00    +0.000 H 
ATOM    103  H2  UNL A   1      -2.119  14.475  42.383  1.00  0.00    +0.000 H 
ATOM    104  H3  UNL A   1      -1.086  13.067  42.321  1.00  0.00    +0.000 H 
ENDBRANCH    2    1
BRANCH    3    4
ATOM      4  C4  UNL A   1      -2.800  13.807  38.698  1.00  0.00    +0.000 C 
ATOM      5  N1  UNL A   1      -2.910  12.535  38.298  1.00  0.00    +0.000 N 
ATOM      6  N2  UNL A   1      -4.104  12.482  37.668  1.00  0.00    +0.000 N 
ATOM     13  C11 UNL A   1      -4.759  13.691  37.707  1.00  0.00    +0.000 C 
ATOM     14  C12 UNL A   1      -3.962  14.565  38.423  1.00  0.00    +0.000 C 
ATOM    110  H9  UNL A   1      -5.674  13.905  37.282  1.00  0.00    +0.000 H 
BRANCH    6    7
ATOM      7  C5  UNL A   1      -4.543  11.292  37.044  1.00  0.00    +0.000 C 
ATOM      8  C6  UNL A   1      -4.018  10.065  37.465  1.00  0.00    +0.000 C 
ATOM      9  C7  UNL A   1      -4.468   8.883  36.880  1.00  0.00    +0.000 C 
ATOM    105  H4  UNL A   1      -3.301  10.036  38.206  1.00  0.00    +0.000 H 
ATOM     11  C9  UNL A   1      -5.894  10.153  35.396  1.00  0.00    +0.000 C 
ATOM     12  C10 UNL A   1      -5.491  11.340  36.014  1.00  0.00    +0.000 C 
ATOM    109  H8  UNL A   1      -5.888  12.243  35.712  1.00  0.00    +0.000 H 
ATOM     10  C8  UNL A   1      -5.396   8.927  35.839  1.00  0.00    +0.000 C 
ATOM    106  H5  UNL A   1      -4.115   7.972  37.216  1.00  0.00    +0.000 H 
ATOM    108  H7  UNL A   1      -6.563  10.185  34.611  1.00  0.00    +0.000 H 
ATOM    107  H6  UNL A   1      -5.715   8.052  35.394  1.00  0.00    +0.000 H 
ENDBRANCH    6    7
BRANCH   14   15
ATOM    111  H10 UNL A   1      -4.097  16.687  38.108  1.00  0.00    +0.000 H 
ATOM     15  C13 UNL A   1      -4.323  15.919  38.757  1.00  0.00    +0.000 C 
BRANCH   15   16
ATOM     16  N3  UNL A   1      -4.930  16.172  39.870  1.00  0.00    +0.000 N 
BRANCH   16   17
ATOM     17  O1  UNL A   1      -6.299  16.332  39.622  1.00  0.00    +0.000 O 
ATOM    112  H11 UNL A   1      -6.700  15.886  38.902  1.00  0.00    +0.000 H 
ENDBRANCH   16   17
ENDBRANCH   15   16
ENDBRANCH   14   15
ENDBRANCH    3    4
ENDBRANCH   21   20
ENDBRANCH   25   24
ENDBRANCH   27   25
ENDBRANCH   28   27
ENDBRANCH   29   28
ENDBRANCH   30   29
ENDBRANCH   31   30
ENDBRANCH   32   31
ENDBRANCH   33   32
ENDBRANCH   34   33
ENDBRANCH   35   34
ENDBRANCH   37   35
ENDBRANCH   41   40
BRANCH   45   46
ATOM     46  C34 UNL A   1      -0.362   9.962  35.829  1.00  0.00    +0.000 C 
ATOM     47  C35 UNL A   1      -0.171  11.339  36.079  1.00  0.00    +0.000 C 
ATOM     48  F1  UNL A   1       0.765  11.754  36.946  1.00  0.00    +0.000 F 
ATOM     49  C36 UNL A   1      -1.005  12.316  35.526  1.00  0.00    +0.000 C 
ATOM     50  F2  UNL A   1      -0.874  13.596  35.903  1.00  0.00    +0.000 F 
ATOM     51  C37 UNL A   1      -2.015  11.963  34.653  1.00  0.00    +0.000 C 
ATOM     52  F3  UNL A   1      -2.859  12.887  34.176  1.00  0.00    +0.000 F 
ATOM     53  C38 UNL A   1      -2.179  10.637  34.314  1.00  0.00    +0.000 C 
ATOM     54  F4  UNL A   1      -3.162  10.273  33.479  1.00  0.00    +0.000 F 
ATOM     55  C39 UNL A   1      -1.383   9.654  34.905  1.00  0.00    +0.000 C 
ATOM     56  F5  UNL A   1      -1.730   8.395  34.617  1.00  0.00    +0.000 F 
ENDBRANCH   45   46
BRANCH   62   63
ATOM     65  F6  UNL A   1       7.449   8.362  35.730  1.00  0.00    +0.000 F 
ATOM     66  C47 UNL A   1       8.115   6.898  37.434  1.00  0.00    +0.000 C 
ATOM     67  F7  UNL A   1       9.314   6.770  36.850  1.00  0.00    +0.000 F 
ATOM     68  C48 UNL A   1       7.866   6.269  38.644  1.00  0.00    +0.000 C 
ATOM     69  F8  UNL A   1       8.825   5.541  39.234  1.00  0.00    +0.000 F 
ATOM     70  C49 UNL A   1       6.632   6.417  39.257  1.00  0.00    +0.000 C 
ATOM     71  F9  UNL A   1       6.404   5.854  40.451  1.00  0.00    +0.000 F 
ATOM     72  C50 UNL A   1       5.634   7.170  38.646  1.00  0.00    +0.000 C 
ATOM     73  F10 UNL A   1       4.455   7.310  39.274  1.00  0.00    +0.000 F 
ATOM     63  C45 UNL A   1       5.857   7.816  37.422  1.00  0.00    +0.000 C 
ATOM     64  C46 UNL A   1       7.130   7.687  36.844  1.00  0.00    +0.000 C 
ENDBRANCH   62   63
BRANCH   77   78
ATOM     78  C54 UNL A   1       5.949  13.523  40.072  1.00  0.00    +0.000 C 
ATOM     79  C55 UNL A   1       7.332  13.756  40.042  1.00  0.00    +0.000 C 
ATOM     80  F11 UNL A   1       8.185  12.730  39.916  1.00  0.00    +0.000 F 
ATOM     81  C56 UNL A   1       7.855  15.052  40.079  1.00  0.00    +0.000 C 
ATOM     82  F12 UNL A   1       9.179  15.241  39.990  1.00  0.00    +0.000 F 
ATOM     83  C57 UNL A   1       7.010  16.148  40.154  1.00  0.00    +0.000 C 
ATOM     84  F13 UNL A   1       7.510  17.392  40.133  1.00  0.00    +0.000 F 
ATOM     85  C58 UNL A   1       5.643  15.951  40.208  1.00  0.00    +0.000 C 
ATOM     86  F14 UNL A   1       4.814  17.004  40.246  1.00  0.00    +0.000 F 
ATOM     87  C59 UNL A   1       5.121  14.659  40.161  1.00  0.00    +0.000 C 
ATOM     88  F15 UNL A   1       3.785  14.541  40.115  1.00  0.00    +0.000 F 
ENDBRANCH   77   78
TORSDOF 22
ENDMDL
MODEL 8
REMARK VINA RESULT:     -10.0     43.368     47.646
ROOT
ATOM    131  H30 UNL A   1      -0.154   5.465  37.744  1.00  0.00    +0.000 H 
ATOM    132  H31 UNL A   1       2.489   5.319  37.468  1.00  0.00    +0.000 H 
ATOM    133  H32 UNL A   1       1.186   8.814  35.926  1.00  0.00    +0.000 H 
ATOM    134  H33 UNL A   1       5.282  11.741  42.316  1.00  0.00    +0.000 H 
ATOM    135  H34 UNL A   1       3.781  10.063  43.508  1.00  0.00    +0.000 H 
ATOM    136  H35 UNL A   1       2.743   9.982  39.484  1.00  0.00    +0.000 H 
ATOM    137  H36 UNL A   1       2.834  12.602  37.404  1.00  0.00    +0.000 H 
ATOM    138  H37 UNL A   1       2.162  10.476  36.110  1.00  0.00    +0.000 H 
ATOM    139  H38 UNL A   1      -2.540   9.651  39.831  1.00  0.00    +0.000 H 
ATOM    140  H39 UNL A   1      -1.152  10.389  41.865  1.00  0.00    +0.000 H 
ATOM     41  C30 UNL A   1       1.501   9.287  41.897  1.00  0.00    +0.000 C 
ATOM     42  C31 UNL A   1       0.435   9.117  40.857  1.00  0.00    +0.000 C 
ATOM     43  N9  UNL A   1       0.465   8.395  39.780  1.00  0.00    +0.000 N 
ATOM     44  C32 UNL A   1      -0.717   8.677  39.092  1.00  0.00    +0.000 C 
ATOM     45  C33 UNL A   1      -0.833   8.471  37.750  1.00  0.00    +0.000 C 
ATOM     57  C40 UNL A   1       0.165   7.555  37.269  1.00  0.00    +0.000 C 
ATOM     58  C41 UNL A   1       0.489   6.234  37.504  1.00  0.00    +0.000 C 
ATOM     59  C42 UNL A   1       1.905   6.160  37.345  1.00  0.00    +0.000 C 
ATOM     60  C43 UNL A   1       2.359   7.433  36.992  1.00  0.00    +0.000 C 
ATOM     61  N10 UNL A   1       1.228   8.087  36.589  1.00  0.00    +0.000 N 
ATOM     62  C44 UNL A   1       3.638   8.085  37.140  1.00  0.00    +0.000 C 
ATOM     74  C51 UNL A   1       3.822   9.437  37.125  1.00  0.00    +0.000 C 
ATOM     75  N11 UNL A   1       4.860  10.011  37.840  1.00  0.00    +0.000 N 
ATOM     76  C52 UNL A   1       4.412  11.186  38.187  1.00  0.00    +0.000 C 
ATOM     77  C53 UNL A   1       4.771  11.861  39.454  1.00  0.00    +0.000 C 
ATOM     89  C60 UNL A   1       4.224  11.146  40.464  1.00  0.00    +0.000 C 
ATOM     90  C61 UNL A   1       4.543  11.172  41.874  1.00  0.00    +0.000 C 
ATOM     91  C62 UNL A   1       3.711  10.329  42.513  1.00  0.00    +0.000 C 
ATOM     92  C63 UNL A   1       2.691   9.844  41.578  1.00  0.00    +0.000 C 
ATOM     93  N12 UNL A   1       3.136  10.264  40.341  1.00  0.00    +0.000 N 
ATOM     94  C64 UNL A   1       3.269  11.667  37.430  1.00  0.00    +0.000 C 
ATOM     95  C65 UNL A   1       2.943  10.547  36.780  1.00  0.00    +0.000 C 
ATOM     96  C66 UNL A   1      -1.547   9.426  39.996  1.00  0.00    +0.000 C 
ATOM     97  C67 UNL A   1      -0.857   9.791  41.077  1.00  0.00    +0.000 C 
ENDROOT
BRANCH   41   40
ATOM    129  H28 UNL A   1      -0.183  10.860  45.866  1.00  0.00    +0.000 H 
ATOM     98  C68 UNL A   1       1.430   7.949  43.980  1.00  0.00    +0.000 C 
ATOM     99  C69 UNL A   1       1.142   7.819  45.322  1.00  0.00    +0.000 C 
ATOM    130  H29 UNL A   1       0.159  11.018  43.461  1.00  0.00    +0.000 H 
ATOM     37  C26 UNL A   1       0.640   8.917  46.018  1.00  0.00    +0.000 C 
ATOM     38  C27 UNL A   1       0.252  10.079  45.348  1.00  0.00    +0.000 C 
ATOM     39  C28 UNL A   1       0.459  10.174  43.974  1.00  0.00    +0.000 C 
ATOM     40  C29 UNL A   1       1.073   9.116  43.293  1.00  0.00    +0.000 C 
ATOM    141  H40 UNL A   1       1.909   7.183  43.480  1.00  0.00    +0.000 H 
ATOM    142  H41 UNL A   1       1.297   6.921  45.805  1.00  0.00    +0.000 H 
BRANCH   37   35
ATOM     35  C25 UNL A   1       0.576   8.864  47.491  1.00  0.00    +0.000 C 
ATOM     36  O3  UNL A   1       0.550   7.795  48.069  1.00  0.00    +0.000 O 
BRANCH   35   34
ATOM     34  N8  UNL A   1       0.524  10.056  48.189  1.00  0.00    +0.000 N 
ATOM    128  H27 UNL A   1      -0.328  10.547  48.162  1.00  0.00    +0.000 H 
BRANCH   34   33
ATOM     33  C24 UNL A   1       1.604  10.662  48.963  1.00  0.00    +0.000 C 
ATOM    126  H25 UNL A   1       1.191  11.115  49.840  1.00  0.00    +0.000 H 
ATOM    127  H26 UNL A   1       2.302   9.893  49.225  1.00  0.00    +0.000 H 
BRANCH   33   32
ATOM    124  H23 UNL A   1       1.646  12.178  47.481  1.00  0.00    +0.000 H 
ATOM    125  H24 UNL A   1       2.747  12.423  48.856  1.00  0.00    +0.000 H 
ATOM     32  C23 UNL A   1       2.341  11.723  48.157  1.00  0.00    +0.000 C 
BRANCH   32   31
ATOM    122  H21 UNL A   1       4.423  11.516  47.794  1.00  0.00    +0.000 H 
ATOM    123  H22 UNL A   1       3.405  10.105  47.351  1.00  0.00    +0.000 H 
ATOM     31  C22 UNL A   1       3.518  11.170  47.340  1.00  0.00    +0.000 C 
BRANCH   31   30
ATOM    121  H20 UNL A   1       2.725  12.238  45.716  1.00  0.00    +0.000 H 
ATOM     30  C21 UNL A   1       3.550  11.571  45.856  1.00  0.00    +0.000 C 
ATOM    120  H19 UNL A   1       3.488  10.677  45.272  1.00  0.00    +0.000 H 
BRANCH   30   29
ATOM     29  C20 UNL A   1       4.799  12.345  45.406  1.00  0.00    +0.000 C 
ATOM    118  H17 UNL A   1       5.665  11.799  45.718  1.00  0.00    +0.000 H 
ATOM    119  H18 UNL A   1       4.740  12.444  44.342  1.00  0.00    +0.000 H 
BRANCH   29   28
ATOM    116  H15 UNL A   1       4.548  13.750  46.999  1.00  0.00    +0.000 H 
ATOM     28  C19 UNL A   1       4.886  13.761  45.984  1.00  0.00    +0.000 C 
ATOM    117  H16 UNL A   1       5.902  14.093  45.942  1.00  0.00    +0.000 H 
BRANCH   28   27
ATOM     27  N7  UNL A   1       4.060  14.668  45.213  1.00  0.00    +0.000 N 
ATOM    115  H14 UNL A   1       3.335  15.073  45.742  1.00  0.00    +0.000 H 
BRANCH   27   25
ATOM     25  C18 UNL A   1       4.069  15.083  43.907  1.00  0.00    +0.000 C 
ATOM     26  O2  UNL A   1       5.116  15.582  43.490  1.00  0.00    +0.000 O 
BRANCH   25   24
ATOM    100  C70 UNL A   1       2.243  16.148  42.455  1.00  0.00    +0.000 C 
ATOM    101  C71 UNL A   1       1.224  15.992  41.506  1.00  0.00    +0.000 C 
ATOM    143  H42 UNL A   1       2.521  17.096  42.753  1.00  0.00    +0.000 H 
ATOM    144  H43 UNL A   1       0.811  16.819  41.050  1.00  0.00    +0.000 H 
ATOM    113  H12 UNL A   1       0.900  12.654  41.653  1.00  0.00    +0.000 H 
ATOM    114  H13 UNL A   1       2.803  12.925  43.136  1.00  0.00    +0.000 H 
ATOM     21  C14 UNL A   1       0.769  14.709  41.178  1.00  0.00    +0.000 C 
ATOM     22  C15 UNL A   1       1.298  13.592  41.823  1.00  0.00    +0.000 C 
ATOM     23  C16 UNL A   1       2.374  13.757  42.699  1.00  0.00    +0.000 C 
ATOM     24  C17 UNL A   1       2.885  15.034  43.000  1.00  0.00    +0.000 C 
BRANCH   21   20
ATOM      2  C2  UNL A   1      -1.553  14.105  40.411  1.00  0.00    +0.000 C 
ATOM      3  C3  UNL A   1      -2.007  13.920  39.121  1.00  0.00    +0.000 C 
ATOM     18  N4  UNL A   1      -1.076  14.351  38.225  1.00  0.00    +0.000 N 
ATOM     19  N5  UNL A   1      -0.037  14.810  38.914  1.00  0.00    +0.000 N 
ATOM     20  N6  UNL A   1      -0.256  14.544  40.224  1.00  0.00    +0.000 N 
BRANCH    2    1
ATOM      1  C1  UNL A   1      -2.269  14.036  41.706  1.00  0.00    +0.000 C 
ATOM    102  H1  UNL A   1      -3.025  13.280  41.655  1.00  0.00    +0.000 H 
ATOM    103  H2  UNL A   1      -2.724  14.981  41.913  1.00  0.00    +0.000 H 
ATOM    104  H3  UNL A   1      -1.576  13.796  42.485  1.00  0.00    +0.000 H 
ENDBRANCH    2    1
BRANCH    3    4
ATOM      4  C4  UNL A   1      -3.317  13.436  38.700  1.00  0.00    +0.000 C 
ATOM      5  N1  UNL A   1      -3.524  12.163  38.343  1.00  0.00    +0.000 N 
ATOM      6  N2  UNL A   1      -4.779  12.153  37.844  1.00  0.00    +0.000 N 
ATOM     13  C11 UNL A   1      -5.373  13.392  37.924  1.00  0.00    +0.000 C 
ATOM     14  C12 UNL A   1      -4.467  14.242  38.531  1.00  0.00    +0.000 C 
ATOM    110  H9  UNL A   1      -6.318  13.640  37.593  1.00  0.00    +0.000 H 
BRANCH    6    7
ATOM      7  C5  UNL A   1      -5.334  10.973  37.298  1.00  0.00    +0.000 C 
ATOM      8  C6  UNL A   1      -5.235   9.776  38.017  1.00  0.00    +0.000 C 
ATOM      9  C7  UNL A   1      -5.808   8.613  37.503  1.00  0.00    +0.000 C 
ATOM    105  H4  UNL A   1      -4.743   9.755  38.923  1.00  0.00    +0.000 H 
ATOM     11  C9  UNL A   1      -6.493   9.818  35.521  1.00  0.00    +0.000 C 
ATOM     12  C10 UNL A   1      -5.971  11.000  36.052  1.00  0.00    +0.000 C 
ATOM    109  H8  UNL A   1      -6.055  11.886  35.528  1.00  0.00    +0.000 H 
ATOM     10  C8  UNL A   1      -6.425   8.631  36.252  1.00  0.00    +0.000 C 
ATOM    106  H5  UNL A   1      -5.776   7.737  38.049  1.00  0.00    +0.000 H 
ATOM    108  H7  UNL A   1      -6.930   9.823  34.586  1.00  0.00    +0.000 H 
ATOM    107  H6  UNL A   1      -6.832   7.765  35.866  1.00  0.00    +0.000 H 
ENDBRANCH    6    7
BRANCH   14   15
ATOM    111  H10 UNL A   1      -5.280  15.843  39.714  1.00  0.00    +0.000 H 
ATOM     15  C13 UNL A   1      -4.731  15.617  38.870  1.00  0.00    +0.000 C 
BRANCH   15   16
ATOM     16  N3  UNL A   1      -4.282  16.567  38.118  1.00  0.00    +0.000 N 
BRANCH   16   17
ATOM     17  O1  UNL A   1      -3.193  17.179  38.752  1.00  0.00    +0.000 O 
ATOM    112  H11 UNL A   1      -3.317  17.972  39.236  1.00  0.00    +0.000 H 
ENDBRANCH   16   17
ENDBRANCH   15   16
ENDBRANCH   14   15
ENDBRANCH    3    4
ENDBRANCH   21   20
ENDBRANCH   25   24
ENDBRANCH   27   25
ENDBRANCH   28   27
ENDBRANCH   29   28
ENDBRANCH   30   29
ENDBRANCH   31   30
ENDBRANCH   32   31
ENDBRANCH   33   32
ENDBRANCH   34   33
ENDBRANCH   35   34
ENDBRANCH   37   35
ENDBRANCH   41   40
BRANCH   45   46
ATOM     46  C34 UNL A   1      -1.581   9.390  36.801  1.00  0.00    +0.000 C 
ATOM     47  C35 UNL A   1      -2.493   8.831  35.879  1.00  0.00    +0.000 C 
ATOM     48  F1  UNL A   1      -2.920   7.566  36.020  1.00  0.00    +0.000 F 
ATOM     49  C36 UNL A   1      -2.905   9.517  34.732  1.00  0.00    +0.000 C 
ATOM     50  F2  UNL A   1      -3.658   8.893  33.815  1.00  0.00    +0.000 F 
ATOM     51  C37 UNL A   1      -2.478  10.810  34.499  1.00  0.00    +0.000 C 
ATOM     52  F3  UNL A   1      -2.814  11.446  33.368  1.00  0.00    +0.000 F 
ATOM     53  C38 UNL A   1      -1.657  11.424  35.420  1.00  0.00    +0.000 C 
ATOM     54  F4  UNL A   1      -1.221  12.674  35.204  1.00  0.00    +0.000 F 
ATOM     55  C39 UNL A   1      -1.200  10.724  36.537  1.00  0.00    +0.000 C 
ATOM     56  F5  UNL A   1      -0.293  11.367  37.279  1.00  0.00    +0.000 F 
ENDBRANCH   45   46
BRANCH   62   63
ATOM     65  F6  UNL A   1       4.032   7.071  39.861  1.00  0.00    +0.000 F 
ATOM     66  C47 UNL A   1       5.989   5.926  39.269  1.00  0.00    +0.000 C 
ATOM     67  F7  UNL A   1       6.124   5.511  40.536  1.00  0.00    +0.000 F 
ATOM     68  C48 UNL A   1       6.883   5.494  38.302  1.00  0.00    +0.000 C 
ATOM     69  F8  UNL A   1       7.877   4.656  38.631  1.00  0.00    +0.000 F 
ATOM     70  C49 UNL A   1       6.732   5.910  36.989  1.00  0.00    +0.000 C 
ATOM     71  F9  UNL A   1       7.563   5.454  36.041  1.00  0.00    +0.000 F 
ATOM     72  C50 UNL A   1       5.703   6.781  36.645  1.00  0.00    +0.000 C 
ATOM     73  F10 UNL A   1       5.572   7.150  35.360  1.00  0.00    +0.000 F 
ATOM     63  C45 UNL A   1       4.785   7.235  37.602  1.00  0.00    +0.000 C 
ATOM     64  C46 UNL A   1       4.933   6.765  38.917  1.00  0.00    +0.000 C 
ENDBRANCH   62   63
BRANCH   77   78
ATOM     78  C54 UNL A   1       5.394  13.200  39.509  1.00  0.00    +0.000 C 
ATOM     79  C55 UNL A   1       4.617  14.360  39.641  1.00  0.00    +0.000 C 
ATOM     80  F11 UNL A   1       3.282  14.293  39.532  1.00  0.00    +0.000 F 
ATOM     81  C56 UNL A   1       5.194  15.595  39.949  1.00  0.00    +0.000 C 
ATOM     82  F12 UNL A   1       4.415  16.672  40.125  1.00  0.00    +0.000 F 
ATOM     83  C57 UNL A   1       6.565  15.705  40.126  1.00  0.00    +0.000 C 
ATOM     84  F13 UNL A   1       7.111  16.878  40.475  1.00  0.00    +0.000 F 
ATOM     85  C58 UNL A   1       7.361  14.584  39.979  1.00  0.00    +0.000 C 
ATOM     86  F14 UNL A   1       8.684  14.670  40.181  1.00  0.00    +0.000 F 
ATOM     87  C59 UNL A   1       6.784  13.350  39.681  1.00  0.00    +0.000 C 
ATOM     88  F15 UNL A   1       7.599  12.285  39.653  1.00  0.00    +0.000 F 
ENDBRANCH   77   78
TORSDOF 22
ENDMDL
MODEL 9
REMARK VINA RESULT:     -10.0     33.062     38.231
ROOT
ATOM    131  H30 UNL A   1      43.360  32.527  33.216  1.00  0.00    +0.000 H 
ATOM    132  H31 UNL A   1      44.981  32.653  31.109  1.00  0.00    +0.000 H 
ATOM    133  H32 UNL A   1      44.904  28.864  32.499  1.00  0.00    +0.000 H 
ATOM    134  H33 UNL A   1      41.108  27.649  25.407  1.00  0.00    +0.000 H 
ATOM    135  H34 UNL A   1      39.672  29.536  26.337  1.00  0.00    +0.000 H 
ATOM    136  H35 UNL A   1      42.509  28.622  29.235  1.00  0.00    +0.000 H 
ATOM    137  H36 UNL A   1      43.771  25.579  29.820  1.00  0.00    +0.000 H 
ATOM    138  H37 UNL A   1      44.925  27.315  31.337  1.00  0.00    +0.000 H 
ATOM    139  H38 UNL A   1      39.562  28.925  33.635  1.00  0.00    +0.000 H 
ATOM    140  H39 UNL A   1      38.436  28.729  31.333  1.00  0.00    +0.000 H 
ATOM     41  C30 UNL A   1      39.994  29.856  29.199  1.00  0.00    +0.000 C 
ATOM     42  C31 UNL A   1      40.346  29.749  30.652  1.00  0.00    +0.000 C 
ATOM     43  N9  UNL A   1      41.401  30.190  31.263  1.00  0.00    +0.000 N 
ATOM     44  C32 UNL A   1      41.311  29.727  32.577  1.00  0.00    +0.000 C 
ATOM     45  C33 UNL A   1      42.411  29.600  33.371  1.00  0.00    +0.000 C 
ATOM     57  C40 UNL A   1      43.507  30.391  32.884  1.00  0.00    +0.000 C 
ATOM     58  C41 UNL A   1      43.739  31.735  32.675  1.00  0.00    +0.000 C 
ATOM     59  C42 UNL A   1      44.616  31.795  31.552  1.00  0.00    +0.000 C 
ATOM     60  C43 UNL A   1      44.893  30.484  31.159  1.00  0.00    +0.000 C 
ATOM     61  N10 UNL A   1      44.517  29.731  32.235  1.00  0.00    +0.000 N 
ATOM     62  C44 UNL A   1      45.300  29.912  29.898  1.00  0.00    +0.000 C 
ATOM     74  C51 UNL A   1      45.140  28.600  29.557  1.00  0.00    +0.000 C 
ATOM     75  N11 UNL A   1      44.965  28.236  28.232  1.00  0.00    +0.000 N 
ATOM     76  C52 UNL A   1      44.213  27.172  28.279  1.00  0.00    +0.000 C 
ATOM     77  C53 UNL A   1      43.208  26.831  27.247  1.00  0.00    +0.000 C 
ATOM     89  C60 UNL A   1      42.225  27.758  27.315  1.00  0.00    +0.000 C 
ATOM     90  C61 UNL A   1      41.208  28.080  26.339  1.00  0.00    +0.000 C 
ATOM     91  C62 UNL A   1      40.414  29.037  26.853  1.00  0.00    +0.000 C 
ATOM     92  C63 UNL A   1      40.763  29.262  28.259  1.00  0.00    +0.000 C 
ATOM     93  N12 UNL A   1      41.941  28.563  28.433  1.00  0.00    +0.000 N 
ATOM     94  C64 UNL A   1      44.159  26.500  29.566  1.00  0.00    +0.000 C 
ATOM     95  C65 UNL A   1      44.755  27.423  30.325  1.00  0.00    +0.000 C 
ATOM     96  C66 UNL A   1      39.981  29.203  32.735  1.00  0.00    +0.000 C 
ATOM     97  C67 UNL A   1      39.363  29.124  31.556  1.00  0.00    +0.000 C 
ENDROOT
BRANCH   41   40
ATOM    129  H28 UNL A   1      36.757  33.109  29.167  1.00  0.00    +0.000 H 
ATOM     98  C68 UNL A   1      37.636  29.435  28.570  1.00  0.00    +0.000 C 
ATOM     99  C69 UNL A   1      36.337  29.864  28.399  1.00  0.00    +0.000 C 
ATOM    130  H29 UNL A   1      39.078  32.385  29.291  1.00  0.00    +0.000 H 
ATOM     37  C26 UNL A   1      36.012  31.183  28.708  1.00  0.00    +0.000 C 
ATOM     38  C27 UNL A   1      37.004  32.120  29.007  1.00  0.00    +0.000 C 
ATOM     39  C28 UNL A   1      38.330  31.702  29.090  1.00  0.00    +0.000 C 
ATOM     40  C29 UNL A   1      38.644  30.351  28.897  1.00  0.00    +0.000 C 
ATOM    141  H40 UNL A   1      37.866  28.435  28.457  1.00  0.00    +0.000 H 
ATOM    142  H41 UNL A   1      35.615  29.217  28.047  1.00  0.00    +0.000 H 
BRANCH   37   35
ATOM     35  C25 UNL A   1      34.591  31.575  28.774  1.00  0.00    +0.000 C 
ATOM     36  O3  UNL A   1      33.799  31.160  27.952  1.00  0.00    +0.000 O 
BRANCH   35   34
ATOM     34  N8  UNL A   1      34.194  32.437  29.778  1.00  0.00    +0.000 N 
ATOM    128  H27 UNL A   1      33.966  32.031  30.644  1.00  0.00    +0.000 H 
BRANCH   34   33
ATOM     33  C24 UNL A   1      34.079  33.891  29.686  1.00  0.00    +0.000 C 
ATOM    126  H25 UNL A   1      34.698  34.238  28.886  1.00  0.00    +0.000 H 
ATOM    127  H26 UNL A   1      33.052  34.135  29.506  1.00  0.00    +0.000 H 
BRANCH   33   32
ATOM    124  H23 UNL A   1      35.457  35.042  30.814  1.00  0.00    +0.000 H 
ATOM    125  H24 UNL A   1      33.745  35.265  31.241  1.00  0.00    +0.000 H 
ATOM     32  C23 UNL A   1      34.512  34.567  30.980  1.00  0.00    +0.000 C 
BRANCH   32   31
ATOM    122  H21 UNL A   1      33.957  33.889  32.914  1.00  0.00    +0.000 H 
ATOM    123  H22 UNL A   1      34.489  32.621  31.761  1.00  0.00    +0.000 H 
ATOM     31  C22 UNL A   1      34.660  33.599  32.162  1.00  0.00    +0.000 C 
BRANCH   31   30
ATOM    121  H20 UNL A   1      35.960  34.064  33.744  1.00  0.00    +0.000 H 
ATOM     30  C21 UNL A   1      36.052  33.544  32.813  1.00  0.00    +0.000 C 
ATOM    120  H19 UNL A   1      36.750  33.991  32.136  1.00  0.00    +0.000 H 
BRANCH   30   29
ATOM     29  C20 UNL A   1      36.566  32.139  33.163  1.00  0.00    +0.000 C 
ATOM    118  H17 UNL A   1      35.873  31.685  33.840  1.00  0.00    +0.000 H 
ATOM    119  H18 UNL A   1      36.651  31.598  32.243  1.00  0.00    +0.000 H 
BRANCH   29   28
ATOM    116  H15 UNL A   1      37.938  32.769  34.677  1.00  0.00    +0.000 H 
ATOM     28  C19 UNL A   1      37.952  32.135  33.814  1.00  0.00    +0.000 C 
ATOM    117  H16 UNL A   1      38.201  31.135  34.101  1.00  0.00    +0.000 H 
BRANCH   28   27
ATOM     27  N7  UNL A   1      38.946  32.621  32.879  1.00  0.00    +0.000 N 
ATOM    115  H14 UNL A   1      38.661  32.547  31.939  1.00  0.00    +0.000 H 
BRANCH   27   25
ATOM     25  C18 UNL A   1      40.198  33.160  33.019  1.00  0.00    +0.000 C 
ATOM     26  O2  UNL A   1      40.703  33.106  34.143  1.00  0.00    +0.000 O 
BRANCH   25   24
ATOM    100  C70 UNL A   1      42.026  34.718  32.121  1.00  0.00    +0.000 C 
ATOM    101  C71 UNL A   1      42.742  35.218  31.025  1.00  0.00    +0.000 C 
ATOM    143  H42 UNL A   1      42.304  34.989  33.077  1.00  0.00    +0.000 H 
ATOM    144  H43 UNL A   1      43.588  35.788  31.176  1.00  0.00    +0.000 H 
ATOM    113  H12 UNL A   1      40.761  34.084  28.565  1.00  0.00    +0.000 H 
ATOM    114  H13 UNL A   1      39.653  33.051  30.462  1.00  0.00    +0.000 H 
ATOM     21  C14 UNL A   1      42.304  34.943  29.724  1.00  0.00    +0.000 C 
ATOM     22  C15 UNL A   1      41.137  34.208  29.517  1.00  0.00    +0.000 C 
ATOM     23  C16 UNL A   1      40.486  33.641  30.617  1.00  0.00    +0.000 C 
ATOM     24  C17 UNL A   1      40.942  33.859  31.931  1.00  0.00    +0.000 C 
BRANCH   21   20
ATOM      2  C2  UNL A   1      44.361  35.757  28.520  1.00  0.00    +0.000 C 
ATOM      3  C3  UNL A   1      44.441  36.412  27.307  1.00  0.00    +0.000 C 
ATOM     18  N4  UNL A   1      43.239  36.368  26.666  1.00  0.00    +0.000 N 
ATOM     19  N5  UNL A   1      42.394  35.698  27.442  1.00  0.00    +0.000 N 
ATOM     20  N6  UNL A   1      43.019  35.443  28.616  1.00  0.00    +0.000 N 
BRANCH    2    1
ATOM      1  C1  UNL A   1      45.426  35.318  29.451  1.00  0.00    +0.000 C 
ATOM    102  H1  UNL A   1      46.274  35.964  29.353  1.00  0.00    +0.000 H 
ATOM    103  H2  UNL A   1      45.714  34.315  29.217  1.00  0.00    +0.000 H 
ATOM    104  H3  UNL A   1      45.060  35.359  30.456  1.00  0.00    +0.000 H 
ENDBRANCH    2    1
BRANCH    3    4
ATOM      4  C4  UNL A   1      45.623  36.999  26.689  1.00  0.00    +0.000 C 
ATOM      5  N1  UNL A   1      46.658  36.253  26.283  1.00  0.00    +0.000 N 
ATOM      6  N2  UNL A   1      47.612  37.152  25.955  1.00  0.00    +0.000 N 
ATOM     13  C11 UNL A   1      47.172  38.447  26.108  1.00  0.00    +0.000 C 
ATOM     14  C12 UNL A   1      45.857  38.385  26.530  1.00  0.00    +0.000 C 
ATOM    110  H9  UNL A   1      47.721  39.304  25.938  1.00  0.00    +0.000 H 
BRANCH    6    7
ATOM      7  C5  UNL A   1      48.894  36.730  25.536  1.00  0.00    +0.000 C 
ATOM      8  C6  UNL A   1      49.918  37.676  25.410  1.00  0.00    +0.000 C 
ATOM      9  C7  UNL A   1      51.195  37.266  25.030  1.00  0.00    +0.000 C 
ATOM    105  H4  UNL A   1      49.728  38.673  25.598  1.00  0.00    +0.000 H 
ATOM     11  C9  UNL A   1      50.407  34.990  24.816  1.00  0.00    +0.000 C 
ATOM     12  C10 UNL A   1      49.138  35.381  25.249  1.00  0.00    +0.000 C 
ATOM    109  H8  UNL A   1      48.386  34.681  25.355  1.00  0.00    +0.000 H 
ATOM     10  C8  UNL A   1      51.437  35.927  24.722  1.00  0.00    +0.000 C 
ATOM    106  H5  UNL A   1      51.964  37.953  24.977  1.00  0.00    +0.000 H 
ATOM    108  H7  UNL A   1      50.583  34.004  24.566  1.00  0.00    +0.000 H 
ATOM    107  H6  UNL A   1      52.379  35.628  24.424  1.00  0.00    +0.000 H 
ENDBRANCH    6    7
BRANCH   14   15
ATOM    111  H10 UNL A   1      44.945  40.262  26.013  1.00  0.00    +0.000 H 
ATOM     15  C13 UNL A   1      45.006  39.529  26.736  1.00  0.00    +0.000 C 
BRANCH   15   16
ATOM     16  N3  UNL A   1      44.319  39.639  27.825  1.00  0.00    +0.000 N 
BRANCH   16   17
ATOM     17  O1  UNL A   1      42.964  39.775  27.503  1.00  0.00    +0.000 O 
ATOM    112  H11 UNL A   1      42.503  39.065  27.100  1.00  0.00    +0.000 H 
ENDBRANCH   16   17
ENDBRANCH   15   16
ENDBRANCH   14   15
ENDBRANCH    3    4
ENDBRANCH   21   20
ENDBRANCH   25   24
ENDBRANCH   27   25
ENDBRANCH   28   27
ENDBRANCH   29   28
ENDBRANCH   30   29
ENDBRANCH   31   30
ENDBRANCH   32   31
ENDBRANCH   33   32
ENDBRANCH   34   33
ENDBRANCH   35   34
ENDBRANCH   37   35
ENDBRANCH   41   40
BRANCH   45   46
ATOM     46  C34 UNL A   1      42.634  28.464  34.354  1.00  0.00    +0.000 C 
ATOM     47  C35 UNL A   1      43.013  28.768  35.680  1.00  0.00    +0.000 C 
ATOM     48  F1  UNL A   1      42.895  30.016  36.157  1.00  0.00    +0.000 F 
ATOM     49  C36 UNL A   1      43.620  27.823  36.514  1.00  0.00    +0.000 C 
ATOM     50  F2  UNL A   1      44.091  28.196  37.713  1.00  0.00    +0.000 F 
ATOM     51  C37 UNL A   1      43.811  26.526  36.080  1.00  0.00    +0.000 C 
ATOM     52  F3  UNL A   1      44.454  25.636  36.849  1.00  0.00    +0.000 F 
ATOM     53  C38 UNL A   1      43.374  26.165  34.823  1.00  0.00    +0.000 C 
ATOM     54  F4  UNL A   1      43.562  24.914  34.380  1.00  0.00    +0.000 F 
ATOM     55  C39 UNL A   1      42.817  27.118  33.969  1.00  0.00    +0.000 C 
ATOM     56  F5  UNL A   1      42.570  26.691  32.726  1.00  0.00    +0.000 F 
ENDBRANCH   45   46
BRANCH   62   63
ATOM     65  F6  UNL A   1      47.997  30.324  28.828  1.00  0.00    +0.000 F 
ATOM     66  C47 UNL A   1      47.252  31.897  27.258  1.00  0.00    +0.000 C 
ATOM     67  F7  UNL A   1      48.512  32.055  26.827  1.00  0.00    +0.000 F 
ATOM     68  C48 UNL A   1      46.217  32.569  26.628  1.00  0.00    +0.000 C 
ATOM     69  F8  UNL A   1      46.472  33.369  25.583  1.00  0.00    +0.000 F 
ATOM     70  C49 UNL A   1      44.914  32.390  27.064  1.00  0.00    +0.000 C 
ATOM     71  F9  UNL A   1      43.904  32.997  26.424  1.00  0.00    +0.000 F 
ATOM     72  C50 UNL A   1      44.647  31.562  28.149  1.00  0.00    +0.000 C 
ATOM     73  F10 UNL A   1      43.371  31.395  28.534  1.00  0.00    +0.000 F 
ATOM     63  C45 UNL A   1      45.674  30.871  28.806  1.00  0.00    +0.000 C 
ATOM     64  C46 UNL A   1      46.981  31.034  28.318  1.00  0.00    +0.000 C 
ENDBRANCH   62   63
BRANCH   77   78
ATOM     78  C54 UNL A   1      43.218  25.557  26.498  1.00  0.00    +0.000 C 
ATOM     79  C55 UNL A   1      44.166  25.310  25.494  1.00  0.00    +0.000 C 
ATOM     80  F11 UNL A   1      44.965  26.297  25.065  1.00  0.00    +0.000 F 
ATOM     81  C56 UNL A   1      44.350  24.030  24.962  1.00  0.00    +0.000 C 
ATOM     82  F12 UNL A   1      45.304  23.819  24.046  1.00  0.00    +0.000 F 
ATOM     83  C57 UNL A   1      43.586  22.966  25.414  1.00  0.00    +0.000 C 
ATOM     84  F13 UNL A   1      43.801  21.729  24.943  1.00  0.00    +0.000 F 
ATOM     85  C58 UNL A   1      42.627  23.181  26.386  1.00  0.00    +0.000 C 
ATOM     86  F14 UNL A   1      41.905  22.154  26.856  1.00  0.00    +0.000 F 
ATOM     87  C59 UNL A   1      42.450  24.456  26.924  1.00  0.00    +0.000 C 
ATOM     88  F15 UNL A   1      41.575  24.577  27.934  1.00  0.00    +0.000 F 
ENDBRANCH   77   78
TORSDOF 22
ENDMDL
MODEL 10
REMARK VINA RESULT:     -10.0      6.733     14.668
ROOT
ATOM    131  H30 UNL A   1      23.365  12.141   9.318  1.00  0.00    +0.000 H 
ATOM    132  H31 UNL A   1      24.448  14.498   9.911  1.00  0.00    +0.000 H 
ATOM    133  H32 UNL A   1      24.607  13.934   5.918  1.00  0.00    +0.000 H 
ATOM    134  H33 UNL A   1      19.220  20.028   6.086  1.00  0.00    +0.000 H 
ATOM    135  H34 UNL A   1      18.090  18.421   7.707  1.00  0.00    +0.000 H 
ATOM    136  H35 UNL A   1      21.506  16.522   6.289  1.00  0.00    +0.000 H 
ATOM    137  H36 UNL A   1      22.795  16.885   3.223  1.00  0.00    +0.000 H 
ATOM    138  H37 UNL A   1      24.315  15.360   4.640  1.00  0.00    +0.000 H 
ATOM    139  H38 UNL A   1      19.684  11.585   5.614  1.00  0.00    +0.000 H 
ATOM    140  H39 UNL A   1      18.044  13.548   5.865  1.00  0.00    +0.000 H 
ATOM     41  C30 UNL A   1      19.085  15.711   7.443  1.00  0.00    +0.000 C 
ATOM     42  C31 UNL A   1      19.765  14.436   7.050  1.00  0.00    +0.000 C 
ATOM     43  N9  UNL A   1      20.945  14.014   7.381  1.00  0.00    +0.000 N 
ATOM     44  C32 UNL A   1      21.155  12.838   6.657  1.00  0.00    +0.000 C 
ATOM     45  C33 UNL A   1      22.407  12.368   6.398  1.00  0.00    +0.000 C 
ATOM     57  C40 UNL A   1      23.378  12.927   7.299  1.00  0.00    +0.000 C 
ATOM     58  C41 UNL A   1      23.587  12.905   8.663  1.00  0.00    +0.000 C 
ATOM     59  C42 UNL A   1      24.177  14.167   8.973  1.00  0.00    +0.000 C 
ATOM     60  C43 UNL A   1      24.321  14.873   7.777  1.00  0.00    +0.000 C 
ATOM     61  N10 UNL A   1      24.189  13.916   6.810  1.00  0.00    +0.000 N 
ATOM     62  C44 UNL A   1      24.405  16.284   7.485  1.00  0.00    +0.000 C 
ATOM     74  C51 UNL A   1      24.137  16.838   6.267  1.00  0.00    +0.000 C 
ATOM     75  N11 UNL A   1      23.646  18.131   6.178  1.00  0.00    +0.000 N 
ATOM     76  C52 UNL A   1      22.900  18.127   5.108  1.00  0.00    +0.000 C 
ATOM     77  C53 UNL A   1      21.673  18.941   4.960  1.00  0.00    +0.000 C 
ATOM     89  C60 UNL A   1      20.757  18.455   5.829  1.00  0.00    +0.000 C 
ATOM     90  C61 UNL A   1      19.547  19.078   6.319  1.00  0.00    +0.000 C 
ATOM     91  C62 UNL A   1      18.920  18.207   7.131  1.00  0.00    +0.000 C 
ATOM     92  C63 UNL A   1      19.596  16.907   7.072  1.00  0.00    +0.000 C 
ATOM     93  N12 UNL A   1      20.764  17.162   6.382  1.00  0.00    +0.000 N 
ATOM     94  C64 UNL A   1      23.134  17.029   4.186  1.00  0.00    +0.000 C 
ATOM     95  C65 UNL A   1      23.914  16.259   4.949  1.00  0.00    +0.000 C 
ATOM     96  C66 UNL A   1      19.887  12.483   6.080  1.00  0.00    +0.000 C 
ATOM     97  C67 UNL A   1      19.007  13.474   6.228  1.00  0.00    +0.000 C 
ENDROOT
BRANCH   41   40
ATOM    129  H28 UNL A   1      14.600  16.685   7.387  1.00  0.00    +0.000 H 
ATOM     98  C68 UNL A   1      17.505  14.994   9.210  1.00  0.00    +0.000 C 
ATOM     99  C69 UNL A   1      16.242  14.967   9.763  1.00  0.00    +0.000 C 
ATOM    130  H29 UNL A   1      16.790  16.574   6.330  1.00  0.00    +0.000 H 
ATOM     37  C26 UNL A   1      15.212  15.664   9.135  1.00  0.00    +0.000 C 
ATOM     38  C27 UNL A   1      15.390  16.231   7.871  1.00  0.00    +0.000 C 
ATOM     39  C28 UNL A   1      16.647  16.177   7.272  1.00  0.00    +0.000 C 
ATOM     40  C29 UNL A   1      17.713  15.580   7.956  1.00  0.00    +0.000 C 
ATOM    141  H40 UNL A   1      18.300  14.580   9.724  1.00  0.00    +0.000 H 
ATOM    142  H41 UNL A   1      16.062  14.437  10.630  1.00  0.00    +0.000 H 
BRANCH   37   35
ATOM     35  C25 UNL A   1      13.935  15.852   9.849  1.00  0.00    +0.000 C 
ATOM     36  O3  UNL A   1      13.537  15.012  10.632  1.00  0.00    +0.000 O 
BRANCH   35   34
ATOM     34  N8  UNL A   1      13.199  16.993   9.589  1.00  0.00    +0.000 N 
ATOM    128  H27 UNL A   1      12.759  17.044   8.710  1.00  0.00    +0.000 H 
BRANCH   34   33
ATOM     33  C24 UNL A   1      13.007  18.132  10.483  1.00  0.00    +0.000 C 
ATOM    126  H25 UNL A   1      12.013  18.506  10.360  1.00  0.00    +0.000 H 
ATOM    127  H26 UNL A   1      13.168  17.800  11.488  1.00  0.00    +0.000 H 
BRANCH   33   32
ATOM    124  H23 UNL A   1      14.227  19.228   9.138  1.00  0.00    +0.000 H 
ATOM    125  H24 UNL A   1      13.537  20.166  10.483  1.00  0.00    +0.000 H 
ATOM     32  C23 UNL A   1      13.999  19.249  10.184  1.00  0.00    +0.000 C 
BRANCH   32   31
ATOM    122  H21 UNL A   1      15.482  20.063  11.467  1.00  0.00    +0.000 H 
ATOM    123  H22 UNL A   1      15.186  18.300  11.629  1.00  0.00    +0.000 H 
ATOM     31  C22 UNL A   1      15.314  19.131  10.968  1.00  0.00    +0.000 C 
BRANCH   31   30
ATOM    121  H20 UNL A   1      16.233  18.762   9.116  1.00  0.00    +0.000 H 
ATOM     30  C21 UNL A   1      16.564  18.811  10.133  1.00  0.00    +0.000 C 
ATOM    120  H19 UNL A   1      16.977  17.894  10.497  1.00  0.00    +0.000 H 
BRANCH   30   29
ATOM     29  C20 UNL A   1      17.673  19.874  10.164  1.00  0.00    +0.000 C 
ATOM    118  H17 UNL A   1      18.330  19.653  10.979  1.00  0.00    +0.000 H 
ATOM    119  H18 UNL A   1      18.170  19.837   9.217  1.00  0.00    +0.000 H 
BRANCH   29   28
ATOM    116  H15 UNL A   1      16.231  21.278  10.888  1.00  0.00    +0.000 H 
ATOM     28  C19 UNL A   1      17.150  21.304  10.339  1.00  0.00    +0.000 C 
ATOM    117  H16 UNL A   1      17.877  21.879  10.873  1.00  0.00    +0.000 H 
BRANCH   28   27
ATOM     27  N7  UNL A   1      16.919  21.915   9.046  1.00  0.00    +0.000 N 
ATOM    115  H14 UNL A   1      17.654  22.505   8.761  1.00  0.00    +0.000 H 
BRANCH   27   25
ATOM     25  C18 UNL A   1      15.898  21.850   8.135  1.00  0.00    +0.000 C 
ATOM     26  O2  UNL A   1      14.817  22.334   8.476  1.00  0.00    +0.000 O 
BRANCH   25   24
ATOM    100  C70 UNL A   1      16.616  21.711   5.676  1.00  0.00    +0.000 C 
ATOM    101  C71 UNL A   1      16.774  20.942   4.516  1.00  0.00    +0.000 C 
ATOM    143  H42 UNL A   1      16.961  22.683   5.694  1.00  0.00    +0.000 H 
ATOM    144  H43 UNL A   1      17.302  21.317   3.714  1.00  0.00    +0.000 H 
ATOM    113  H12 UNL A   1      14.968  18.265   5.433  1.00  0.00    +0.000 H 
ATOM    114  H13 UNL A   1      14.881  19.520   7.508  1.00  0.00    +0.000 H 
ATOM     21  C14 UNL A   1      16.212  19.661   4.449  1.00  0.00    +0.000 C 
ATOM     22  C15 UNL A   1      15.462  19.167   5.515  1.00  0.00    +0.000 C 
ATOM     23  C16 UNL A   1      15.390  19.909   6.698  1.00  0.00    +0.000 C 
ATOM     24  C17 UNL A   1      15.996  21.175   6.807  1.00  0.00    +0.000 C 
BRANCH   21   20
ATOM      2  C2  UNL A   1      16.624  17.527   3.175  1.00  0.00    +0.000 C 
ATOM      3  C3  UNL A   1      16.906  17.372   1.833  1.00  0.00    +0.000 C 
ATOM     18  N4  UNL A   1      16.694  18.542   1.167  1.00  0.00    +0.000 N 
ATOM     19  N5  UNL A   1      16.283  19.441   2.055  1.00  0.00    +0.000 N 
ATOM     20  N6  UNL A   1      16.366  18.881   3.284  1.00  0.00    +0.000 N 
BRANCH    2    1
ATOM      1  C1  UNL A   1      16.457  16.521   4.249  1.00  0.00    +0.000 C 
ATOM    102  H1  UNL A   1      17.232  16.645   4.978  1.00  0.00    +0.000 H 
ATOM    103  H2  UNL A   1      16.516  15.538   3.830  1.00  0.00    +0.000 H 
ATOM    104  H3  UNL A   1      15.503  16.652   4.716  1.00  0.00    +0.000 H 
ENDBRANCH    2    1
BRANCH    3    4
ATOM      4  C4  UNL A   1      17.278  16.146   1.137  1.00  0.00    +0.000 C 
ATOM      5  N1  UNL A   1      18.516  15.642   1.199  1.00  0.00    +0.000 N 
ATOM      6  N2  UNL A   1      18.517  14.640   0.293  1.00  0.00    +0.000 N 
ATOM     13  C11 UNL A   1      17.286  14.485  -0.302  1.00  0.00    +0.000 C 
ATOM     14  C12 UNL A   1      16.436  15.414   0.269  1.00  0.00    +0.000 C 
ATOM    110  H9  UNL A   1      17.043  13.801  -1.035  1.00  0.00    +0.000 H 
BRANCH    6    7
ATOM      7  C5  UNL A   1      19.694  13.904   0.025  1.00  0.00    +0.000 C 
ATOM      8  C6  UNL A   1      20.635  14.423  -0.872  1.00  0.00    +0.000 C 
ATOM      9  C7  UNL A   1      21.815  13.721  -1.118  1.00  0.00    +0.000 C 
ATOM    105  H4  UNL A   1      20.457  15.321  -1.349  1.00  0.00    +0.000 H 
ATOM     11  C9  UNL A   1      21.075  11.949   0.351  1.00  0.00    +0.000 C 
ATOM     12  C10 UNL A   1      19.915  12.669   0.647  1.00  0.00    +0.000 C 
ATOM    109  H8  UNL A   1      19.227  12.294   1.319  1.00  0.00    +0.000 H 
ATOM     10  C8  UNL A   1      22.029  12.481  -0.517  1.00  0.00    +0.000 C 
ATOM    106  H5  UNL A   1      22.531  14.120  -1.747  1.00  0.00    +0.000 H 
ATOM    108  H7  UNL A   1      21.226  11.021   0.776  1.00  0.00    +0.000 H 
ATOM    107  H6  UNL A   1      22.895  11.955  -0.715  1.00  0.00    +0.000 H 
ENDBRANCH    6    7
BRANCH   14   15
ATOM    111  H10 UNL A   1      14.358  15.709   0.736  1.00  0.00    +0.000 H 
ATOM     15  C13 UNL A   1      15.030  15.529  -0.025  1.00  0.00    +0.000 C 
BRANCH   15   16
ATOM     16  N3  UNL A   1      14.610  15.409  -1.241  1.00  0.00    +0.000 N 
BRANCH   16   17
ATOM     17  O1  UNL A   1      15.236  16.372  -2.042  1.00  0.00    +0.000 O 
ATOM    112  H11 UNL A   1      14.721  17.006  -2.501  1.00  0.00    +0.000 H 
ENDBRANCH   16   17
ENDBRANCH   15   16
ENDBRANCH   14   15
ENDBRANCH    3    4
ENDBRANCH   21   20
ENDBRANCH   25   24
ENDBRANCH   27   25
ENDBRANCH   28   27
ENDBRANCH   29   28
ENDBRANCH   30   29
ENDBRANCH   31   30
ENDBRANCH   32   31
ENDBRANCH   33   32
ENDBRANCH   34   33
ENDBRANCH   35   34
ENDBRANCH   37   35
ENDBRANCH   41   40
BRANCH   45   46
ATOM     46  C34 UNL A   1      22.827  11.719   5.091  1.00  0.00    +0.000 C 
ATOM     47  C35 UNL A   1      23.290  10.385   5.104  1.00  0.00    +0.000 C 
ATOM     48  F1  UNL A   1      23.091   9.602   6.176  1.00  0.00    +0.000 F 
ATOM     49  C36 UNL A   1      24.058   9.855   4.063  1.00  0.00    +0.000 C 
ATOM     50  F2  UNL A   1      24.593   8.631   4.184  1.00  0.00    +0.000 F 
ATOM     51  C37 UNL A   1      24.337  10.612   2.942  1.00  0.00    +0.000 C 
ATOM     52  F3  UNL A   1      25.130  10.133   1.974  1.00  0.00    +0.000 F 
ATOM     53  C38 UNL A   1      23.830  11.891   2.851  1.00  0.00    +0.000 C 
ATOM     54  F4  UNL A   1      24.101  12.646   1.777  1.00  0.00    +0.000 F 
ATOM     55  C39 UNL A   1      23.108  12.442   3.911  1.00  0.00    +0.000 C 
ATOM     56  F5  UNL A   1      22.797  13.735   3.774  1.00  0.00    +0.000 F 
ENDBRANCH   45   46
BRANCH   62   63
ATOM     65  F6  UNL A   1      26.845  17.692   8.293  1.00  0.00    +0.000 F 
ATOM     66  C47 UNL A   1      25.764  18.773  10.069  1.00  0.00    +0.000 C 
ATOM     67  F7  UNL A   1      26.917  19.371  10.400  1.00  0.00    +0.000 F 
ATOM     68  C48 UNL A   1      24.605  19.076  10.766  1.00  0.00    +0.000 C 
ATOM     69  F8  UNL A   1      24.633  19.971  11.763  1.00  0.00    +0.000 F 
ATOM     70  C49 UNL A   1      23.410  18.470  10.410  1.00  0.00    +0.000 C 
ATOM     71  F9  UNL A   1      22.277  18.798  11.047  1.00  0.00    +0.000 F 
ATOM     72  C50 UNL A   1      23.378  17.540   9.377  1.00  0.00    +0.000 C 
ATOM     73  F10 UNL A   1      22.201  16.984   9.045  1.00  0.00    +0.000 F 
ATOM     63  C45 UNL A   1      24.535  17.214   8.656  1.00  0.00    +0.000 C 
ATOM     64  C46 UNL A   1      25.725  17.873   9.006  1.00  0.00    +0.000 C 
ENDBRANCH   62   63
BRANCH   77   78
ATOM     78  C54 UNL A   1      21.475  19.915   3.867  1.00  0.00    +0.000 C 
ATOM     79  C55 UNL A   1      20.367  19.836   3.011  1.00  0.00    +0.000 C 
ATOM     80  F11 UNL A   1      19.562  18.764   3.049  1.00  0.00    +0.000 F 
ATOM     81  C56 UNL A   1      20.033  20.883   2.148  1.00  0.00    +0.000 C 
ATOM     82  F12 UNL A   1      18.934  20.797   1.386  1.00  0.00    +0.000 F 
ATOM     83  C57 UNL A   1      20.803  22.036   2.113  1.00  0.00    +0.000 C 
ATOM     84  F13 UNL A   1      20.450  23.062   1.326  1.00  0.00    +0.000 F 
ATOM     85  C58 UNL A   1      21.915  22.135   2.928  1.00  0.00    +0.000 C 
ATOM     86  F14 UNL A   1      22.648  23.258   2.928  1.00  0.00    +0.000 F 
ATOM     87  C59 UNL A   1      22.243  21.094   3.796  1.00  0.00    +0.000 C 
ATOM     88  F15 UNL A   1      23.273  21.296   4.630  1.00  0.00    +0.000 F 
ENDBRANCH   77   78
TORSDOF 22
ENDMDL
