MODEL 1
REMARK VINA RESULT:     -10.1      0.000      0.000
ROOT
ATOM     28  C23 UNL A   1      37.778  31.064  30.310  1.00  0.00    +0.000 C 
ATOM     29  C24 UNL A   1      38.093  31.400  31.741  1.00  0.00    +0.000 C 
ATOM     30  N3  UNL A   1      39.091  30.997  32.486  1.00  0.00    +0.000 N 
ATOM     31  C25 UNL A   1      38.923  31.624  33.714  1.00  0.00    +0.000 C 
ATOM     32  C26 UNL A   1      39.659  31.482  34.842  1.00  0.00    +0.000 C 
ATOM     44  C33 UNL A   1      40.804  30.619  34.962  1.00  0.00    +0.000 C 
ATOM     45  C34 UNL A   1      41.604  30.394  36.069  1.00  0.00    +0.000 C 
ATOM     46  C35 UNL A   1      42.608  29.490  35.707  1.00  0.00    +0.000 C 
ATOM     47  C36 UNL A   1      42.409  29.122  34.387  1.00  0.00    +0.000 C 
ATOM     48  N4  UNL A   1      41.307  29.831  33.938  1.00  0.00    +0.000 N 
ATOM     49  C37 UNL A   1      43.170  28.194  33.592  1.00  0.00    +0.000 C 
ATOM     61  C44 UNL A   1      42.923  27.901  32.293  1.00  0.00    +0.000 C 
ATOM     62  N5  UNL A   1      41.919  28.381  31.464  1.00  0.00    +0.000 N 
ATOM     63  C45 UNL A   1      42.111  27.811  30.299  1.00  0.00    +0.000 C 
ATOM     64  C46 UNL A   1      41.303  27.934  29.034  1.00  0.00    +0.000 C 
ATOM     76  C53 UNL A   1      40.208  28.717  29.029  1.00  0.00    +0.000 C 
ATOM     77  C54 UNL A   1      39.326  28.934  27.886  1.00  0.00    +0.000 C 
ATOM     78  C55 UNL A   1      38.371  29.813  28.230  1.00  0.00    +0.000 C 
ATOM     79  C56 UNL A   1      38.554  30.196  29.632  1.00  0.00    +0.000 C 
ATOM     80  N6  UNL A   1      39.661  29.487  30.027  1.00  0.00    +0.000 N 
ATOM     81  C57 UNL A   1      43.287  26.930  30.250  1.00  0.00    +0.000 C 
ATOM     82  C58 UNL A   1      43.717  26.984  31.502  1.00  0.00    +0.000 C 
ATOM     83  C59 UNL A   1      37.760  32.476  33.599  1.00  0.00    +0.000 C 
ATOM     84  C60 UNL A   1      37.175  32.329  32.418  1.00  0.00    +0.000 C 
ATOM    119  H31 UNL A   1      41.481  30.820  37.001  1.00  0.00    +0.000 H 
ATOM    120  H32 UNL A   1      43.367  29.154  36.320  1.00  0.00    +0.000 H 
ATOM    121  H33 UNL A   1      40.935  29.782  33.028  1.00  0.00    +0.000 H 
ATOM    122  H34 UNL A   1      39.420  28.483  26.963  1.00  0.00    +0.000 H 
ATOM    123  H35 UNL A   1      37.627  30.164  27.606  1.00  0.00    +0.000 H 
ATOM    124  H36 UNL A   1      40.028  29.525  30.939  1.00  0.00    +0.000 H 
ATOM    125  H37 UNL A   1      43.676  26.406  29.450  1.00  0.00    +0.000 H 
ATOM    126  H38 UNL A   1      44.515  26.442  31.867  1.00  0.00    +0.000 H 
ATOM    127  H39 UNL A   1      37.429  33.115  34.338  1.00  0.00    +0.000 H 
ATOM    128  H40 UNL A   1      36.303  32.756  32.067  1.00  0.00    +0.000 H 
ENDROOT
BRANCH   28   27
ATOM    129  H41 UNL A   1      35.377  30.032  29.716  1.00  0.00    +0.000 H 
ATOM    130  H42 UNL A   1      33.539  31.064  28.518  1.00  0.00    +0.000 H 
ATOM     27  C22 UNL A   1      36.641  31.727  29.623  1.00  0.00    +0.000 C 
ATOM    117  H29 UNL A   1      35.703  34.666  28.285  1.00  0.00    +0.000 H 
ATOM     86  C62 UNL A   1      34.383  31.614  28.742  1.00  0.00    +0.000 C 
ATOM     85  C61 UNL A   1      35.455  31.011  29.396  1.00  0.00    +0.000 C 
ATOM     24  C19 UNL A   1      34.454  32.965  28.390  1.00  0.00    +0.000 C 
ATOM     25  C20 UNL A   1      35.639  33.680  28.584  1.00  0.00    +0.000 C 
ATOM     26  C21 UNL A   1      36.734  33.057  29.185  1.00  0.00    +0.000 C 
ATOM    118  H30 UNL A   1      37.616  33.577  29.308  1.00  0.00    +0.000 H 
BRANCH   24   22
ATOM     22  C18 UNL A   1      33.293  33.663  27.797  1.00  0.00    +0.000 C 
ATOM     23  O2  UNL A   1      32.990  34.786  28.191  1.00  0.00    +0.000 O 
BRANCH   22   21
ATOM    116  H28 UNL A   1      32.852  33.173  25.906  1.00  0.00    +0.000 H 
ATOM     21  N2  UNL A   1      32.542  33.044  26.831  1.00  0.00    +0.000 N 
BRANCH   21   20
ATOM    114  H26 UNL A   1      31.520  31.514  27.762  1.00  0.00    +0.000 H 
ATOM    115  H27 UNL A   1      30.535  32.876  27.206  1.00  0.00    +0.000 H 
ATOM     20  C17 UNL A   1      31.352  32.223  26.978  1.00  0.00    +0.000 C 
BRANCH   20   19
ATOM    113  H25 UNL A   1      31.427  32.026  24.898  1.00  0.00    +0.000 H 
ATOM     19  C16 UNL A   1      30.997  31.467  25.702  1.00  0.00    +0.000 C 
ATOM    112  H24 UNL A   1      29.932  31.392  25.648  1.00  0.00    +0.000 H 
BRANCH   19   18
ATOM     18  C15 UNL A   1      31.578  30.055  25.598  1.00  0.00    +0.000 C 
ATOM    110  H22 UNL A   1      30.929  29.478  24.972  1.00  0.00    +0.000 H 
ATOM    111  H23 UNL A   1      32.565  30.173  25.203  1.00  0.00    +0.000 H 
BRANCH   18   17
ATOM     17  C14 UNL A   1      31.742  29.308  26.925  1.00  0.00    +0.000 C 
ATOM    108  H20 UNL A   1      32.442  29.853  27.525  1.00  0.00    +0.000 H 
ATOM    109  H21 UNL A   1      30.762  29.249  27.352  1.00  0.00    +0.000 H 
BRANCH   17   16
ATOM    106  H18 UNL A   1      31.979  27.347  27.711  1.00  0.00    +0.000 H 
ATOM    107  H19 UNL A   1      31.776  27.448  25.941  1.00  0.00    +0.000 H 
ATOM     16  C13 UNL A   1      32.241  27.864  26.811  1.00  0.00    +0.000 C 
BRANCH   16   15
ATOM    105  H17 UNL A   1      34.198  27.530  27.556  1.00  0.00    +0.000 H 
ATOM     15  C12 UNL A   1      33.745  27.731  26.606  1.00  0.00    +0.000 C 
ATOM    104  H16 UNL A   1      34.123  28.643  26.191  1.00  0.00    +0.000 H 
BRANCH   15   14
ATOM     14  N1  UNL A   1      34.065  26.635  25.708  1.00  0.00    +0.000 N 
ATOM    103  H15 UNL A   1      35.004  26.584  25.420  1.00  0.00    +0.000 H 
BRANCH   14   12
ATOM     12  C11 UNL A   1      33.245  25.664  25.206  1.00  0.00    +0.000 C 
ATOM     13  O1  UNL A   1      32.836  24.807  25.994  1.00  0.00    +0.000 O 
BRANCH   12    9
ATOM      9  C9  UNL A   1      32.803  25.662  23.745  1.00  0.00    +0.000 C 
ATOM    100  H12 UNL A   1      33.482  26.230  23.145  1.00  0.00    +0.000 H 
BRANCH    9    8
ATOM     98  H10 UNL A   1      28.246  26.600  24.199  1.00  0.00    +0.000 H 
ATOM     99  H11 UNL A   1      30.222  25.273  24.603  1.00  0.00    +0.000 H 
ATOM    132  H44 UNL A   1      30.533  29.309  21.951  1.00  0.00    +0.000 H 
ATOM      5  C5  UNL A   1      29.231  28.079  23.063  1.00  0.00    +0.000 C 
ATOM      6  C6  UNL A   1      29.152  26.899  23.805  1.00  0.00    +0.000 C 
ATOM      7  C7  UNL A   1      30.292  26.119  24.018  1.00  0.00    +0.000 C 
ATOM    131  H43 UNL A   1      32.493  27.938  22.287  1.00  0.00    +0.000 H 
ATOM      8  C8  UNL A   1      31.533  26.461  23.451  1.00  0.00    +0.000 C 
ATOM     87  C63 UNL A   1      31.594  27.648  22.703  1.00  0.00    +0.000 C 
ATOM     88  C64 UNL A   1      30.460  28.443  22.509  1.00  0.00    +0.000 C 
BRANCH    5    4
ATOM     97  H9  UNL A   1      27.537  28.993  23.898  1.00  0.00    +0.000 H 
ATOM      4  C4  UNL A   1      28.031  28.986  22.948  1.00  0.00    +0.000 C 
ATOM     96  H8  UNL A   1      27.392  28.613  22.174  1.00  0.00    +0.000 H 
BRANCH    4    2
ATOM      2  C2  UNL A   1      28.416  30.442  22.612  1.00  0.00    +0.000 C 
ATOM     92  H4  UNL A   1      29.479  30.520  22.708  1.00  0.00    +0.000 H 
BRANCH    2    1
ATOM      1  C1  UNL A   1      28.051  30.819  21.173  1.00  0.00    +0.000 C 
ATOM     90  H2  UNL A   1      27.814  29.933  20.621  1.00  0.00    +0.000 H 
ATOM     91  H3  UNL A   1      28.882  31.314  20.712  1.00  0.00    +0.000 H 
ATOM     89  H1  UNL A   1      27.205  31.473  21.179  1.00  0.00    +0.000 H 
ENDBRANCH    2    1
BRANCH    2    3
ATOM      3  C3  UNL A   1      27.736  31.404  23.587  1.00  0.00    +0.000 C 
ATOM     93  H5  UNL A   1      28.141  32.387  23.458  1.00  0.00    +0.000 H 
ATOM     94  H6  UNL A   1      27.909  31.077  24.590  1.00  0.00    +0.000 H 
ATOM     95  H7  UNL A   1      26.684  31.423  23.395  1.00  0.00    +0.000 H 
ENDBRANCH    2    3
ENDBRANCH    4    2
ENDBRANCH    5    4
ENDBRANCH    9    8
BRANCH    9   10
ATOM     10  C10 UNL A   1      32.858  24.209  23.259  1.00  0.00    +0.000 C 
ATOM     11  F1  UNL A   1      32.651  24.142  21.916  1.00  0.00    +0.000 F 
ATOM    101  H13 UNL A   1      32.099  23.644  23.759  1.00  0.00    +0.000 H 
ATOM    102  H14 UNL A   1      33.826  23.811  23.478  1.00  0.00    +0.000 H 
ENDBRANCH    9   10
ENDBRANCH   12    9
ENDBRANCH   14   12
ENDBRANCH   15   14
ENDBRANCH   16   15
ENDBRANCH   17   16
ENDBRANCH   18   17
ENDBRANCH   19   18
ENDBRANCH   20   19
ENDBRANCH   21   20
ENDBRANCH   22   21
ENDBRANCH   24   22
ENDBRANCH   28   27
BRANCH   32   33
ATOM     33  C27 UNL A   1      39.234  32.262  36.051  1.00  0.00    +0.000 C 
ATOM     34  C28 UNL A   1      38.323  31.733  36.975  1.00  0.00    +0.000 C 
ATOM     35  F2  UNL A   1      37.759  30.536  36.756  1.00  0.00    +0.000 F 
ATOM     36  C29 UNL A   1      37.965  32.445  38.117  1.00  0.00    +0.000 C 
ATOM     37  F3  UNL A   1      37.066  31.934  38.969  1.00  0.00    +0.000 F 
ATOM     38  C30 UNL A   1      38.533  33.684  38.370  1.00  0.00    +0.000 C 
ATOM     39  F4  UNL A   1      38.198  34.362  39.477  1.00  0.00    +0.000 F 
ATOM     40  C31 UNL A   1      39.446  34.223  37.475  1.00  0.00    +0.000 C 
ATOM     41  F5  UNL A   1      40.003  35.415  37.725  1.00  0.00    +0.000 F 
ATOM     42  C32 UNL A   1      39.786  33.525  36.319  1.00  0.00    +0.000 C 
ATOM     43  F6  UNL A   1      40.665  34.074  35.468  1.00  0.00    +0.000 F 
ENDBRANCH   32   33
BRANCH   49   50
ATOM     50  C38 UNL A   1      44.311  27.481  34.254  1.00  0.00    +0.000 C 
ATOM     51  C39 UNL A   1      45.601  28.031  34.290  1.00  0.00    +0.000 C 
ATOM     52  F7  UNL A   1      45.853  29.200  33.682  1.00  0.00    +0.000 F 
ATOM     53  C40 UNL A   1      46.645  27.360  34.919  1.00  0.00    +0.000 C 
ATOM     54  F8  UNL A   1      47.879  27.882  34.902  1.00  0.00    +0.000 F 
ATOM     55  C41 UNL A   1      46.414  26.147  35.550  1.00  0.00    +0.000 C 
ATOM     56  F9  UNL A   1      47.421  25.505  36.160  1.00  0.00    +0.000 F 
ATOM     57  C42 UNL A   1      45.142  25.594  35.542  1.00  0.00    +0.000 C 
ATOM     58  F10 UNL A   1      44.916  24.427  36.161  1.00  0.00    +0.000 F 
ATOM     59  C43 UNL A   1      44.101  26.249  34.890  1.00  0.00    +0.000 C 
ATOM     60  F11 UNL A   1      42.884  25.684  34.888  1.00  0.00    +0.000 F 
ENDBRANCH   49   50
BRANCH   64   65
ATOM     65  C47 UNL A   1      41.700  27.187  27.812  1.00  0.00    +0.000 C 
ATOM     66  C48 UNL A   1      41.270  25.869  27.605  1.00  0.00    +0.000 C 
ATOM     67  F12 UNL A   1      40.479  25.274  28.509  1.00  0.00    +0.000 F 
ATOM     68  C49 UNL A   1      41.697  25.139  26.498  1.00  0.00    +0.000 C 
ATOM     69  F13 UNL A   1      41.319  23.860  26.356  1.00  0.00    +0.000 F 
ATOM     70  C50 UNL A   1      42.532  25.723  25.558  1.00  0.00    +0.000 C 
ATOM     71  F14 UNL A   1      42.948  25.018  24.498  1.00  0.00    +0.000 F 
ATOM     72  C51 UNL A   1      42.946  27.036  25.727  1.00  0.00    +0.000 C 
ATOM     73  F15 UNL A   1      43.743  27.609  24.815  1.00  0.00    +0.000 F 
ATOM     74  C52 UNL A   1      42.544  27.758  26.848  1.00  0.00    +0.000 C 
ATOM     75  F16 UNL A   1      42.979  29.018  26.997  1.00  0.00    +0.000 F 
ENDBRANCH   64   65
TORSDOF 21
ENDMDL
MODEL 2
REMARK VINA RESULT:     -10.0      1.264      2.013
ROOT
ATOM     28  C23 UNL A   1      38.297  29.918  29.957  1.00  0.00    +0.000 C 
ATOM     29  C24 UNL A   1      38.584  30.451  31.333  1.00  0.00    +0.000 C 
ATOM     30  N3  UNL A   1      39.625  30.243  32.101  1.00  0.00    +0.000 N 
ATOM     31  C25 UNL A   1      39.400  30.990  33.250  1.00  0.00    +0.000 C 
ATOM     32  C26 UNL A   1      40.154  31.058  34.374  1.00  0.00    +0.000 C 
ATOM     44  C33 UNL A   1      41.384  30.339  34.571  1.00  0.00    +0.000 C 
ATOM     45  C34 UNL A   1      42.210  30.329  35.682  1.00  0.00    +0.000 C 
ATOM     46  C35 UNL A   1      43.301  29.497  35.408  1.00  0.00    +0.000 C 
ATOM     47  C36 UNL A   1      43.133  28.959  34.143  1.00  0.00    +0.000 C 
ATOM     48  N4  UNL A   1      41.960  29.492  33.637  1.00  0.00    +0.000 N 
ATOM     49  C37 UNL A   1      43.982  28.027  33.448  1.00  0.00    +0.000 C 
ATOM     61  C44 UNL A   1      43.759  27.559  32.196  1.00  0.00    +0.000 C 
ATOM     62  N5  UNL A   1      42.704  27.831  31.336  1.00  0.00    +0.000 N 
ATOM     63  C45 UNL A   1      42.947  27.152  30.243  1.00  0.00    +0.000 C 
ATOM     64  C46 UNL A   1      42.122  27.041  28.987  1.00  0.00    +0.000 C 
ATOM     76  C53 UNL A   1      40.950  27.700  28.912  1.00  0.00    +0.000 C 
ATOM     77  C54 UNL A   1      40.043  27.688  27.769  1.00  0.00    +0.000 C 
ATOM     78  C55 UNL A   1      39.004  28.499  28.027  1.00  0.00    +0.000 C 
ATOM     79  C56 UNL A   1      39.155  29.061  29.370  1.00  0.00    +0.000 C 
ATOM     80  N6  UNL A   1      40.332  28.521  29.824  1.00  0.00    +0.000 N 
ATOM     81  C57 UNL A   1      44.209  26.397  30.274  1.00  0.00    +0.000 C 
ATOM     82  C58 UNL A   1      44.639  26.643  31.503  1.00  0.00    +0.000 C 
ATOM     83  C59 UNL A   1      38.153  31.698  33.059  1.00  0.00    +0.000 C 
ATOM     84  C60 UNL A   1      37.579  31.353  31.916  1.00  0.00    +0.000 C 
ATOM    119  H31 UNL A   1      42.050  30.847  36.559  1.00  0.00    +0.000 H 
ATOM    120  H32 UNL A   1      44.096  29.317  36.041  1.00  0.00    +0.000 H 
ATOM    121  H33 UNL A   1      41.589  29.297  32.745  1.00  0.00    +0.000 H 
ATOM    122  H34 UNL A   1      40.178  27.144  26.903  1.00  0.00    +0.000 H 
ATOM    123  H35 UNL A   1      38.223  28.695  27.380  1.00  0.00    +0.000 H 
ATOM    124  H36 UNL A   1      40.699  28.705  30.719  1.00  0.00    +0.000 H 
ATOM    125  H37 UNL A   1      44.644  25.826  29.533  1.00  0.00    +0.000 H 
ATOM    126  H38 UNL A   1      45.492  26.232  31.913  1.00  0.00    +0.000 H 
ATOM    127  H39 UNL A   1      37.762  32.382  33.726  1.00  0.00    +0.000 H 
ATOM    128  H40 UNL A   1      36.665  31.643  31.533  1.00  0.00    +0.000 H 
ENDROOT
BRANCH   28   27
ATOM    129  H41 UNL A   1      36.144  28.482  29.259  1.00  0.00    +0.000 H 
ATOM    130  H42 UNL A   1      34.206  29.182  27.980  1.00  0.00    +0.000 H 
ATOM     27  C22 UNL A   1      37.092  30.374  29.220  1.00  0.00    +0.000 C 
ATOM    117  H29 UNL A   1      35.709  33.110  27.837  1.00  0.00    +0.000 H 
ATOM     86  C62 UNL A   1      34.930  29.870  28.240  1.00  0.00    +0.000 C 
ATOM     85  C61 UNL A   1      36.062  29.462  28.942  1.00  0.00    +0.000 C 
ATOM     24  C19 UNL A   1      34.776  31.215  27.890  1.00  0.00    +0.000 C 
ATOM     25  C20 UNL A   1      35.807  32.126  28.135  1.00  0.00    +0.000 C 
ATOM     26  C21 UNL A   1      36.968  31.703  28.784  1.00  0.00    +0.000 C 
ATOM    118  H30 UNL A   1      37.738  32.369  28.945  1.00  0.00    +0.000 H 
BRANCH   24   22
ATOM     22  C18 UNL A   1      33.538  31.701  27.245  1.00  0.00    +0.000 C 
ATOM     23  O2  UNL A   1      33.092  32.807  27.538  1.00  0.00    +0.000 O 
BRANCH   22   21
ATOM    116  H28 UNL A   1      33.319  30.793  25.474  1.00  0.00    +0.000 H 
ATOM     21  N2  UNL A   1      32.876  30.905  26.346  1.00  0.00    +0.000 N 
BRANCH   21   20
ATOM    114  H26 UNL A   1      31.251  30.359  27.490  1.00  0.00    +0.000 H 
ATOM    115  H27 UNL A   1      30.937  30.593  25.763  1.00  0.00    +0.000 H 
ATOM     20  C17 UNL A   1      31.614  30.203  26.496  1.00  0.00    +0.000 C 
BRANCH   20   19
ATOM    113  H25 UNL A   1      30.930  28.437  25.608  1.00  0.00    +0.000 H 
ATOM     19  C16 UNL A   1      31.742  28.703  26.252  1.00  0.00    +0.000 C 
ATOM    112  H24 UNL A   1      31.713  28.210  27.201  1.00  0.00    +0.000 H 
BRANCH   19   18
ATOM     18  C15 UNL A   1      33.019  28.266  25.530  1.00  0.00    +0.000 C 
ATOM    110  H22 UNL A   1      32.755  28.008  24.525  1.00  0.00    +0.000 H 
ATOM    111  H23 UNL A   1      33.692  29.094  25.600  1.00  0.00    +0.000 H 
BRANCH   18   17
ATOM     17  C14 UNL A   1      33.752  27.072  26.148  1.00  0.00    +0.000 C 
ATOM    108  H20 UNL A   1      34.786  27.332  26.241  1.00  0.00    +0.000 H 
ATOM    109  H21 UNL A   1      33.269  26.883  27.084  1.00  0.00    +0.000 H 
BRANCH   17   16
ATOM    106  H18 UNL A   1      33.524  26.006  24.323  1.00  0.00    +0.000 H 
ATOM    107  H19 UNL A   1      34.575  25.233  25.539  1.00  0.00    +0.000 H 
ATOM     16  C13 UNL A   1      33.664  25.763  25.356  1.00  0.00    +0.000 C 
BRANCH   16   15
ATOM    105  H17 UNL A   1      32.348  24.994  26.829  1.00  0.00    +0.000 H 
ATOM     15  C12 UNL A   1      32.529  24.841  25.785  1.00  0.00    +0.000 C 
ATOM    104  H16 UNL A   1      32.812  23.826  25.593  1.00  0.00    +0.000 H 
BRANCH   15   14
ATOM     14  N1  UNL A   1      31.304  25.133  25.061  1.00  0.00    +0.000 N 
ATOM    103  H15 UNL A   1      30.526  25.358  25.620  1.00  0.00    +0.000 H 
BRANCH   14   12
ATOM     12  C11 UNL A   1      31.079  25.140  23.714  1.00  0.00    +0.000 C 
ATOM     13  O1  UNL A   1      30.445  24.193  23.242  1.00  0.00    +0.000 O 
BRANCH   12    9
ATOM      9  C9  UNL A   1      31.543  26.293  22.828  1.00  0.00    +0.000 C 
ATOM    100  H12 UNL A   1      32.426  26.745  23.228  1.00  0.00    +0.000 H 
BRANCH    9    8
ATOM     98  H10 UNL A   1      30.556  30.772  21.923  1.00  0.00    +0.000 H 
ATOM     99  H11 UNL A   1      32.025  28.856  21.964  1.00  0.00    +0.000 H 
ATOM    132  H44 UNL A   1      27.468  28.431  23.537  1.00  0.00    +0.000 H 
ATOM      5  C5  UNL A   1      28.882  29.753  22.702  1.00  0.00    +0.000 C 
ATOM      6  C6  UNL A   1      30.207  29.867  22.276  1.00  0.00    +0.000 C 
ATOM      7  C7  UNL A   1      31.063  28.763  22.323  1.00  0.00    +0.000 C 
ATOM    131  H43 UNL A   1      28.962  26.536  23.654  1.00  0.00    +0.000 H 
ATOM      8  C8  UNL A   1      30.642  27.529  22.849  1.00  0.00    +0.000 C 
ATOM     87  C63 UNL A   1      29.308  27.433  23.279  1.00  0.00    +0.000 C 
ATOM     88  C64 UNL A   1      28.443  28.529  23.210  1.00  0.00    +0.000 C 
BRANCH    5    4
ATOM     97  H9  UNL A   1      27.576  31.190  23.497  1.00  0.00    +0.000 H 
ATOM      4  C4  UNL A   1      27.925  30.907  22.526  1.00  0.00    +0.000 C 
ATOM     96  H8  UNL A   1      27.120  30.590  21.894  1.00  0.00    +0.000 H 
BRANCH    4    2
ATOM      2  C2  UNL A   1      28.594  32.143  21.890  1.00  0.00    +0.000 C 
ATOM     92  H4  UNL A   1      29.548  31.833  21.519  1.00  0.00    +0.000 H 
BRANCH    2    1
ATOM      1  C1  UNL A   1      27.790  32.691  20.707  1.00  0.00    +0.000 C 
ATOM     90  H2  UNL A   1      27.309  33.603  20.995  1.00  0.00    +0.000 H 
ATOM     91  H3  UNL A   1      27.051  31.974  20.416  1.00  0.00    +0.000 H 
ATOM     89  H1  UNL A   1      28.448  32.879  19.885  1.00  0.00    +0.000 H 
ENDBRANCH    2    1
BRANCH    2    3
ATOM      3  C3  UNL A   1      28.779  33.238  22.942  1.00  0.00    +0.000 C 
ATOM     93  H5  UNL A   1      29.566  32.960  23.612  1.00  0.00    +0.000 H 
ATOM     94  H6  UNL A   1      27.870  33.362  23.492  1.00  0.00    +0.000 H 
ATOM     95  H7  UNL A   1      29.030  34.159  22.458  1.00  0.00    +0.000 H 
ENDBRANCH    2    3
ENDBRANCH    4    2
ENDBRANCH    5    4
ENDBRANCH    9    8
BRANCH    9   10
ATOM     10  C10 UNL A   1      31.902  25.698  21.462  1.00  0.00    +0.000 C 
ATOM     11  F1  UNL A   1      33.170  25.206  21.468  1.00  0.00    +0.000 F 
ATOM    101  H13 UNL A   1      31.826  26.462  20.716  1.00  0.00    +0.000 H 
ATOM    102  H14 UNL A   1      31.224  24.899  21.248  1.00  0.00    +0.000 H 
ENDBRANCH    9   10
ENDBRANCH   12    9
ENDBRANCH   14   12
ENDBRANCH   15   14
ENDBRANCH   16   15
ENDBRANCH   17   16
ENDBRANCH   18   17
ENDBRANCH   19   18
ENDBRANCH   20   19
ENDBRANCH   21   20
ENDBRANCH   22   21
ENDBRANCH   24   22
ENDBRANCH   28   27
BRANCH   32   33
ATOM     33  C27 UNL A   1      39.658  31.928  35.491  1.00  0.00    +0.000 C 
ATOM     34  C28 UNL A   1      40.106  33.248  35.639  1.00  0.00    +0.000 C 
ATOM     35  F2  UNL A   1      41.045  33.738  34.816  1.00  0.00    +0.000 F 
ATOM     36  C29 UNL A   1      39.610  34.063  36.653  1.00  0.00    +0.000 C 
ATOM     37  F3  UNL A   1      40.078  35.311  36.796  1.00  0.00    +0.000 F 
ATOM     38  C30 UNL A   1      38.637  33.585  37.517  1.00  0.00    +0.000 C 
ATOM     39  F4  UNL A   1      38.151  34.376  38.484  1.00  0.00    +0.000 F 
ATOM     40  C31 UNL A   1      38.171  32.285  37.383  1.00  0.00    +0.000 C 
ATOM     41  F5  UNL A   1      37.224  31.826  38.210  1.00  0.00    +0.000 F 
ATOM     42  C32 UNL A   1      38.684  31.459  36.386  1.00  0.00    +0.000 C 
ATOM     43  F6  UNL A   1      38.220  30.205  36.285  1.00  0.00    +0.000 F 
ENDBRANCH   32   33
BRANCH   49   50
ATOM     50  C38 UNL A   1      45.197  27.519  34.166  1.00  0.00    +0.000 C 
ATOM     51  C39 UNL A   1      46.429  28.183  34.089  1.00  0.00    +0.000 C 
ATOM     52  F7  UNL A   1      46.560  29.275  33.321  1.00  0.00    +0.000 F 
ATOM     53  C40 UNL A   1      47.542  27.703  34.772  1.00  0.00    +0.000 C 
ATOM     54  F8  UNL A   1      48.721  28.327  34.648  1.00  0.00    +0.000 F 
ATOM     55  C41 UNL A   1      47.437  26.572  35.568  1.00  0.00    +0.000 C 
ATOM     56  F9  UNL A   1      48.510  26.114  36.229  1.00  0.00    +0.000 F 
ATOM     57  C42 UNL A   1      46.223  25.911  35.673  1.00  0.00    +0.000 C 
ATOM     58  F10 UNL A   1      46.117  24.824  36.451  1.00  0.00    +0.000 F 
ATOM     59  C43 UNL A   1      45.114  26.372  34.970  1.00  0.00    +0.000 C 
ATOM     60  F11 UNL A   1      43.956  25.704  35.080  1.00  0.00    +0.000 F 
ENDBRANCH   49   50
BRANCH   64   65
ATOM     65  C47 UNL A   1      42.586  26.200  27.853  1.00  0.00    +0.000 C 
ATOM     66  C48 UNL A   1      42.174  24.866  27.732  1.00  0.00    +0.000 C 
ATOM     67  F12 UNL A   1      41.339  24.339  28.639  1.00  0.00    +0.000 F 
ATOM     68  C49 UNL A   1      42.662  24.051  26.713  1.00  0.00    +0.000 C 
ATOM     69  F13 UNL A   1      42.298  22.763  26.656  1.00  0.00    +0.000 F 
ATOM     70  C50 UNL A   1      43.543  24.565  25.774  1.00  0.00    +0.000 C 
ATOM     71  F14 UNL A   1      44.019  23.779  24.798  1.00  0.00    +0.000 F 
ATOM     72  C51 UNL A   1      43.943  25.891  25.856  1.00  0.00    +0.000 C 
ATOM     73  F15 UNL A   1      44.785  26.394  24.944  1.00  0.00    +0.000 F 
ATOM     74  C52 UNL A   1      43.478  26.698  26.892  1.00  0.00    +0.000 C 
ATOM     75  F16 UNL A   1      43.900  27.970  26.960  1.00  0.00    +0.000 F 
ENDBRANCH   64   65
TORSDOF 21
ENDMDL
MODEL 3
REMARK VINA RESULT:      -9.9      1.539      7.739
ROOT
ATOM     28  C23 UNL A   1      37.864  29.940  29.832  1.00  0.00    +0.000 C 
ATOM     29  C24 UNL A   1      38.939  29.040  29.291  1.00  0.00    +0.000 C 
ATOM     30  N3  UNL A   1      40.057  28.654  29.854  1.00  0.00    +0.000 N 
ATOM     31  C25 UNL A   1      40.669  27.809  28.937  1.00  0.00    +0.000 C 
ATOM     32  C26 UNL A   1      41.878  27.205  29.022  1.00  0.00    +0.000 C 
ATOM     44  C33 UNL A   1      42.775  27.335  30.140  1.00  0.00    +0.000 C 
ATOM     45  C34 UNL A   1      44.029  26.775  30.311  1.00  0.00    +0.000 C 
ATOM     46  C35 UNL A   1      44.515  27.166  31.563  1.00  0.00    +0.000 C 
ATOM     47  C36 UNL A   1      43.581  28.001  32.153  1.00  0.00    +0.000 C 
ATOM     48  N4  UNL A   1      42.513  28.087  31.275  1.00  0.00    +0.000 N 
ATOM     49  C37 UNL A   1      43.656  28.670  33.426  1.00  0.00    +0.000 C 
ATOM     61  C44 UNL A   1      42.686  29.459  33.946  1.00  0.00    +0.000 C 
ATOM     62  N5  UNL A   1      41.460  29.813  33.400  1.00  0.00    +0.000 N 
ATOM     63  C45 UNL A   1      40.877  30.578  34.289  1.00  0.00    +0.000 C 
ATOM     64  C46 UNL A   1      39.545  31.278  34.217  1.00  0.00    +0.000 C 
ATOM     76  C53 UNL A   1      38.797  31.152  33.105  1.00  0.00    +0.000 C 
ATOM     77  C54 UNL A   1      37.493  31.769  32.886  1.00  0.00    +0.000 C 
ATOM     78  C55 UNL A   1      37.020  31.381  31.690  1.00  0.00    +0.000 C 
ATOM     79  C56 UNL A   1      38.006  30.514  31.042  1.00  0.00    +0.000 C 
ATOM     80  N6  UNL A   1      39.033  30.445  31.951  1.00  0.00    +0.000 N 
ATOM     81  C57 UNL A   1      41.657  30.766  35.522  1.00  0.00    +0.000 C 
ATOM     82  C58 UNL A   1      42.769  30.102  35.240  1.00  0.00    +0.000 C 
ATOM     83  C59 UNL A   1      39.776  27.695  27.804  1.00  0.00    +0.000 C 
ATOM     84  C60 UNL A   1      38.720  28.483  27.947  1.00  0.00    +0.000 C 
ATOM    119  H31 UNL A   1      44.520  26.173  29.633  1.00  0.00    +0.000 H 
ATOM    120  H32 UNL A   1      45.417  26.881  31.976  1.00  0.00    +0.000 H 
ATOM    121  H33 UNL A   1      41.691  28.605  31.434  1.00  0.00    +0.000 H 
ATOM    122  H34 UNL A   1      37.012  32.402  33.543  1.00  0.00    +0.000 H 
ATOM    123  H35 UNL A   1      36.107  31.650  31.291  1.00  0.00    +0.000 H 
ATOM    124  H36 UNL A   1      39.861  29.937  31.790  1.00  0.00    +0.000 H 
ATOM    125  H37 UNL A   1      41.405  31.280  36.380  1.00  0.00    +0.000 H 
ATOM    126  H38 UNL A   1      43.589  30.051  35.864  1.00  0.00    +0.000 H 
ATOM    127  H39 UNL A   1      39.940  27.079  26.992  1.00  0.00    +0.000 H 
ATOM    128  H40 UNL A   1      37.946  28.659  27.287  1.00  0.00    +0.000 H 
ENDROOT
BRANCH   28   27
ATOM    129  H41 UNL A   1      37.067  32.172  28.579  1.00  0.00    +0.000 H 
ATOM    130  H42 UNL A   1      34.998  32.580  27.382  1.00  0.00    +0.000 H 
ATOM     27  C22 UNL A   1      36.618  30.159  29.056  1.00  0.00    +0.000 C 
ATOM    117  H29 UNL A   1      33.842  28.581  27.999  1.00  0.00    +0.000 H 
ATOM     86  C62 UNL A   1      35.204  31.639  27.752  1.00  0.00    +0.000 C 
ATOM     85  C61 UNL A   1      36.374  31.413  28.473  1.00  0.00    +0.000 C 
ATOM     24  C19 UNL A   1      34.309  30.588  27.530  1.00  0.00    +0.000 C 
ATOM     25  C20 UNL A   1      34.526  29.344  28.129  1.00  0.00    +0.000 C 
ATOM     26  C21 UNL A   1      35.668  29.136  28.903  1.00  0.00    +0.000 C 
ATOM    118  H30 UNL A   1      35.818  28.225  29.363  1.00  0.00    +0.000 H 
BRANCH   24   22
ATOM     22  C18 UNL A   1      33.116  30.766  26.676  1.00  0.00    +0.000 C 
ATOM     23  O2  UNL A   1      32.399  31.751  26.829  1.00  0.00    +0.000 O 
BRANCH   22   21
ATOM    116  H28 UNL A   1      31.877  29.471  25.783  1.00  0.00    +0.000 H 
ATOM     21  N2  UNL A   1      32.797  29.818  25.738  1.00  0.00    +0.000 N 
BRANCH   21   20
ATOM    114  H26 UNL A   1      33.198  29.509  23.740  1.00  0.00    +0.000 H 
ATOM    115  H27 UNL A   1      34.610  29.652  24.799  1.00  0.00    +0.000 H 
ATOM     20  C17 UNL A   1      33.624  29.251  24.687  1.00  0.00    +0.000 C 
BRANCH   20   19
ATOM    113  H25 UNL A   1      34.705  27.527  25.169  1.00  0.00    +0.000 H 
ATOM     19  C16 UNL A   1      33.731  27.732  24.776  1.00  0.00    +0.000 C 
ATOM    112  H24 UNL A   1      33.571  27.331  23.798  1.00  0.00    +0.000 H 
BRANCH   19   18
ATOM     18  C15 UNL A   1      32.739  27.064  25.731  1.00  0.00    +0.000 C 
ATOM    110  H22 UNL A   1      32.723  27.632  26.639  1.00  0.00    +0.000 H 
ATOM    111  H23 UNL A   1      31.802  27.048  25.216  1.00  0.00    +0.000 H 
BRANCH   18   17
ATOM     17  C14 UNL A   1      33.047  25.607  26.091  1.00  0.00    +0.000 C 
ATOM    108  H20 UNL A   1      33.121  25.540  27.157  1.00  0.00    +0.000 H 
ATOM    109  H21 UNL A   1      32.250  25.026  25.677  1.00  0.00    +0.000 H 
BRANCH   17   16
ATOM    106  H18 UNL A   1      34.192  24.916  24.439  1.00  0.00    +0.000 H 
ATOM    107  H19 UNL A   1      35.116  25.739  25.724  1.00  0.00    +0.000 H 
ATOM     16  C13 UNL A   1      34.339  25.040  25.492  1.00  0.00    +0.000 C 
BRANCH   16   15
ATOM    105  H17 UNL A   1      34.156  23.491  26.927  1.00  0.00    +0.000 H 
ATOM     15  C12 UNL A   1      34.769  23.700  26.074  1.00  0.00    +0.000 C 
ATOM    104  H16 UNL A   1      35.801  23.755  26.353  1.00  0.00    +0.000 H 
BRANCH   15   14
ATOM     14  N1  UNL A   1      34.597  22.623  25.114  1.00  0.00    +0.000 N 
ATOM    103  H15 UNL A   1      35.428  22.267  24.724  1.00  0.00    +0.000 H 
BRANCH   14   12
ATOM     12  C11 UNL A   1      33.445  22.033  24.677  1.00  0.00    +0.000 C 
ATOM     13  O1  UNL A   1      32.778  21.411  25.508  1.00  0.00    +0.000 O 
BRANCH   12    9
ATOM      9  C9  UNL A   1      32.966  22.177  23.235  1.00  0.00    +0.000 C 
ATOM    100  H12 UNL A   1      33.797  22.237  22.566  1.00  0.00    +0.000 H 
BRANCH    9    8
ATOM     98  H10 UNL A   1      29.666  25.461  23.659  1.00  0.00    +0.000 H 
ATOM     99  H11 UNL A   1      30.624  23.297  24.136  1.00  0.00    +0.000 H 
ATOM    132  H44 UNL A   1      32.959  26.375  21.222  1.00  0.00    +0.000 H 
ATOM      5  C5  UNL A   1      31.246  26.107  22.422  1.00  0.00    +0.000 C 
ATOM      6  C6  UNL A   1      30.572  25.199  23.240  1.00  0.00    +0.000 C 
ATOM      7  C7  UNL A   1      31.117  23.937  23.495  1.00  0.00    +0.000 C 
ATOM    131  H43 UNL A   1      33.877  24.179  21.633  1.00  0.00    +0.000 H 
ATOM      8  C8  UNL A   1      32.320  23.522  22.898  1.00  0.00    +0.000 C 
ATOM     87  C63 UNL A   1      32.982  24.445  22.073  1.00  0.00    +0.000 C 
ATOM     88  C64 UNL A   1      32.452  25.717  21.836  1.00  0.00    +0.000 C 
BRANCH    5    4
ATOM     97  H9  UNL A   1      30.055  27.515  21.422  1.00  0.00    +0.000 H 
ATOM      4  C4  UNL A   1      30.725  27.514  22.256  1.00  0.00    +0.000 C 
ATOM     96  H8  UNL A   1      31.556  28.170  22.096  1.00  0.00    +0.000 H 
BRANCH    4    2
ATOM      2  C2  UNL A   1      29.938  28.005  23.489  1.00  0.00    +0.000 C 
ATOM     92  H4  UNL A   1      30.344  27.508  24.345  1.00  0.00    +0.000 H 
BRANCH    2    1
ATOM      1  C1  UNL A   1      30.093  29.513  23.710  1.00  0.00    +0.000 C 
ATOM     90  H2  UNL A   1      29.141  29.990  23.596  1.00  0.00    +0.000 H 
ATOM     91  H3  UNL A   1      30.779  29.910  22.991  1.00  0.00    +0.000 H 
ATOM     89  H1  UNL A   1      30.466  29.693  24.697  1.00  0.00    +0.000 H 
ENDBRANCH    2    1
BRANCH    2    3
ATOM      3  C3  UNL A   1      28.457  27.654  23.341  1.00  0.00    +0.000 C 
ATOM     93  H5  UNL A   1      27.935  28.483  22.909  1.00  0.00    +0.000 H 
ATOM     94  H6  UNL A   1      28.044  27.436  24.303  1.00  0.00    +0.000 H 
ATOM     95  H7  UNL A   1      28.355  26.799  22.707  1.00  0.00    +0.000 H 
ENDBRANCH    2    3
ENDBRANCH    4    2
ENDBRANCH    5    4
ENDBRANCH    9    8
BRANCH    9   10
ATOM     10  C10 UNL A   1      32.182  20.906  22.890  1.00  0.00    +0.000 C 
ATOM     11  F1  UNL A   1      31.795  20.916  21.586  1.00  0.00    +0.000 F 
ATOM    101  H13 UNL A   1      31.314  20.849  23.514  1.00  0.00    +0.000 H 
ATOM    102  H14 UNL A   1      32.815  20.059  23.053  1.00  0.00    +0.000 H 
ENDBRANCH    9   10
ENDBRANCH   12    9
ENDBRANCH   14   12
ENDBRANCH   15   14
ENDBRANCH   16   15
ENDBRANCH   17   16
ENDBRANCH   18   17
ENDBRANCH   19   18
ENDBRANCH   20   19
ENDBRANCH   21   20
ENDBRANCH   22   21
ENDBRANCH   24   22
ENDBRANCH   28   27
BRANCH   32   33
ATOM     33  C27 UNL A   1      42.316  26.361  27.862  1.00  0.00    +0.000 C 
ATOM     34  C28 UNL A   1      41.841  25.052  27.693  1.00  0.00    +0.000 C 
ATOM     35  F2  UNL A   1      41.032  24.505  28.613  1.00  0.00    +0.000 F 
ATOM     36  C29 UNL A   1      42.218  24.289  26.592  1.00  0.00    +0.000 C 
ATOM     37  F3  UNL A   1      41.778  23.029  26.470  1.00  0.00    +0.000 F 
ATOM     38  C30 UNL A   1      43.051  24.829  25.624  1.00  0.00    +0.000 C 
ATOM     39  F4  UNL A   1      43.402  24.097  24.557  1.00  0.00    +0.000 F 
ATOM     40  C31 UNL A   1      43.524  26.126  25.764  1.00  0.00    +0.000 C 
ATOM     41  F5  UNL A   1      44.320  26.652  24.824  1.00  0.00    +0.000 F 
ATOM     42  C32 UNL A   1      43.170  26.882  26.878  1.00  0.00    +0.000 C 
ATOM     43  F6  UNL A   1      43.649  28.130  26.990  1.00  0.00    +0.000 F 
ENDBRANCH   32   33
BRANCH   49   50
ATOM     50  C38 UNL A   1      44.909  28.498  34.232  1.00  0.00    +0.000 C 
ATOM     51  C39 UNL A   1      45.054  27.450  35.152  1.00  0.00    +0.000 C 
ATOM     52  F7  UNL A   1      44.042  26.597  35.368  1.00  0.00    +0.000 F 
ATOM     53  C40 UNL A   1      46.230  27.300  35.882  1.00  0.00    +0.000 C 
ATOM     54  F8  UNL A   1      46.330  26.319  36.789  1.00  0.00    +0.000 F 
ATOM     55  C41 UNL A   1      47.290  28.172  35.683  1.00  0.00    +0.000 C 
ATOM     56  F9  UNL A   1      48.423  28.022  36.384  1.00  0.00    +0.000 F 
ATOM     57  C42 UNL A   1      47.174  29.204  34.765  1.00  0.00    +0.000 C 
ATOM     58  F10 UNL A   1      48.202  30.041  34.564  1.00  0.00    +0.000 F 
ATOM     59  C43 UNL A   1      45.990  29.374  34.052  1.00  0.00    +0.000 C 
ATOM     60  F11 UNL A   1      45.902  30.389  33.180  1.00  0.00    +0.000 F 
ENDBRANCH   49   50
BRANCH   64   65
ATOM     65  C47 UNL A   1      39.071  32.112  35.352  1.00  0.00    +0.000 C 
ATOM     66  C48 UNL A   1      39.377  33.479  35.417  1.00  0.00    +0.000 C 
ATOM     67  F12 UNL A   1      40.094  34.050  34.439  1.00  0.00    +0.000 F 
ATOM     68  C49 UNL A   1      38.997  34.250  36.513  1.00  0.00    +0.000 C 
ATOM     69  F13 UNL A   1      39.356  35.540  36.577  1.00  0.00    +0.000 F 
ATOM     70  C50 UNL A   1      38.273  33.679  37.548  1.00  0.00    +0.000 C 
ATOM     71  F14 UNL A   1      37.915  34.420  38.606  1.00  0.00    +0.000 F 
ATOM     72  C51 UNL A   1      37.933  32.336  37.492  1.00  0.00    +0.000 C 
ATOM     73  F15 UNL A   1      37.224  31.783  38.485  1.00  0.00    +0.000 F 
ATOM     74  C52 UNL A   1      38.338  31.556  36.411  1.00  0.00    +0.000 C 
ATOM     75  F16 UNL A   1      38.015  30.255  36.395  1.00  0.00    +0.000 F 
ENDBRANCH   64   65
TORSDOF 21
ENDMDL
MODEL 4
REMARK VINA RESULT:      -9.9     24.586     27.838
ROOT
ATOM     28  C23 UNL A   1      46.600  51.079  17.975  1.00  0.00    +0.000 C 
ATOM     29  C24 UNL A   1      47.582  50.672  19.037  1.00  0.00    +0.000 C 
ATOM     30  N3  UNL A   1      48.617  51.326  19.503  1.00  0.00    +0.000 N 
ATOM     31  C25 UNL A   1      49.165  50.515  20.488  1.00  0.00    +0.000 C 
ATOM     32  C26 UNL A   1      50.286  50.716  21.221  1.00  0.00    +0.000 C 
ATOM     44  C33 UNL A   1      51.137  51.870  21.103  1.00  0.00    +0.000 C 
ATOM     45  C34 UNL A   1      52.304  52.156  21.789  1.00  0.00    +0.000 C 
ATOM     46  C35 UNL A   1      52.774  53.400  21.354  1.00  0.00    +0.000 C 
ATOM     47  C36 UNL A   1      51.921  53.868  20.369  1.00  0.00    +0.000 C 
ATOM     48  N4  UNL A   1      50.915  52.926  20.233  1.00  0.00    +0.000 N 
ATOM     49  C37 UNL A   1      52.016  55.087  19.609  1.00  0.00    +0.000 C 
ATOM     61  C44 UNL A   1      51.125  55.488  18.670  1.00  0.00    +0.000 C 
ATOM     62  N5  UNL A   1      49.980  54.846  18.222  1.00  0.00    +0.000 N 
ATOM     63  C45 UNL A   1      49.452  55.638  17.322  1.00  0.00    +0.000 C 
ATOM     64  C46 UNL A   1      48.220  55.435  16.479  1.00  0.00    +0.000 C 
ATOM     76  C53 UNL A   1      47.516  54.295  16.610  1.00  0.00    +0.000 C 
ATOM     77  C54 UNL A   1      46.308  53.954  15.865  1.00  0.00    +0.000 C 
ATOM     78  C55 UNL A   1      45.850  52.767  16.294  1.00  0.00    +0.000 C 
ATOM     79  C56 UNL A   1      46.753  52.247  17.322  1.00  0.00    +0.000 C 
ATOM     80  N6  UNL A   1      47.720  53.215  17.435  1.00  0.00    +0.000 N 
ATOM     81  C57 UNL A   1      50.189  56.895  17.124  1.00  0.00    +0.000 C 
ATOM     82  C58 UNL A   1      51.224  56.731  17.935  1.00  0.00    +0.000 C 
ATOM     83  C59 UNL A   1      48.319  49.345  20.592  1.00  0.00    +0.000 C 
ATOM     84  C60 UNL A   1      47.362  49.365  19.676  1.00  0.00    +0.000 C 
ATOM    119  H31 UNL A   1      52.750  51.556  22.500  1.00  0.00    +0.000 H 
ATOM    120  H32 UNL A   1      53.614  53.884  21.708  1.00  0.00    +0.000 H 
ATOM    121  H33 UNL A   1      50.155  52.997  19.610  1.00  0.00    +0.000 H 
ATOM    122  H34 UNL A   1      45.877  54.532  15.127  1.00  0.00    +0.000 H 
ATOM    123  H35 UNL A   1      44.996  52.297  15.954  1.00  0.00    +0.000 H 
ATOM    124  H36 UNL A   1      48.486  53.143  18.048  1.00  0.00    +0.000 H 
ATOM    125  H37 UNL A   1      49.961  57.695  16.513  1.00  0.00    +0.000 H 
ATOM    126  H38 UNL A   1      52.001  57.403  18.029  1.00  0.00    +0.000 H 
ATOM    127  H39 UNL A   1      48.446  48.594  21.288  1.00  0.00    +0.000 H 
ATOM    128  H40 UNL A   1      46.647  48.650  19.466  1.00  0.00    +0.000 H 
ENDROOT
BRANCH   28   27
ATOM    129  H41 UNL A   1      44.174  51.134  19.114  1.00  0.00    +0.000 H 
ATOM    130  H42 UNL A   1      42.276  49.681  18.708  1.00  0.00    +0.000 H 
ATOM     27  C22 UNL A   1      45.428  50.217  17.677  1.00  0.00    +0.000 C 
ATOM    117  H29 UNL A   1      44.417  47.724  15.659  1.00  0.00    +0.000 H 
ATOM     86  C62 UNL A   1      43.129  49.589  18.134  1.00  0.00    +0.000 C 
ATOM     85  C61 UNL A   1      44.234  50.397  18.393  1.00  0.00    +0.000 C 
ATOM     24  C19 UNL A   1      43.179  48.654  17.096  1.00  0.00    +0.000 C 
ATOM     25  C20 UNL A   1      44.371  48.444  16.397  1.00  0.00    +0.000 C 
ATOM     26  C21 UNL A   1      45.496  49.213  16.698  1.00  0.00    +0.000 C 
ATOM    118  H30 UNL A   1      46.382  49.044  16.198  1.00  0.00    +0.000 H 
BRANCH   24   22
ATOM     22  C18 UNL A   1      41.989  47.860  16.724  1.00  0.00    +0.000 C 
ATOM     23  O2  UNL A   1      41.230  48.273  15.851  1.00  0.00    +0.000 O 
BRANCH   22   21
ATOM    116  H28 UNL A   1      41.473  46.769  18.321  1.00  0.00    +0.000 H 
ATOM     21  N2  UNL A   1      41.720  46.682  17.373  1.00  0.00    +0.000 N 
BRANCH   21   20
ATOM    114  H26 UNL A   1      41.145  44.706  17.492  1.00  0.00    +0.000 H 
ATOM    115  H27 UNL A   1      41.373  45.348  15.857  1.00  0.00    +0.000 H 
ATOM     20  C17 UNL A   1      41.748  45.323  16.860  1.00  0.00    +0.000 C 
BRANCH   20   19
ATOM    113  H25 UNL A   1      43.822  45.559  17.001  1.00  0.00    +0.000 H 
ATOM     19  C16 UNL A   1      43.158  44.742  16.810  1.00  0.00    +0.000 C 
ATOM    112  H24 UNL A   1      43.297  44.293  15.850  1.00  0.00    +0.000 H 
BRANCH   19   18
ATOM     18  C15 UNL A   1      43.465  43.687  17.876  1.00  0.00    +0.000 C 
ATOM    110  H22 UNL A   1      43.927  42.853  17.389  1.00  0.00    +0.000 H 
ATOM    111  H23 UNL A   1      44.094  44.170  18.593  1.00  0.00    +0.000 H 
BRANCH   18   17
ATOM     17  C14 UNL A   1      42.255  43.166  18.658  1.00  0.00    +0.000 C 
ATOM    108  H20 UNL A   1      41.371  43.544  18.187  1.00  0.00    +0.000 H 
ATOM    109  H21 UNL A   1      42.331  42.099  18.640  1.00  0.00    +0.000 H 
BRANCH   17   16
ATOM    106  H18 UNL A   1      42.839  44.415  20.276  1.00  0.00    +0.000 H 
ATOM    107  H19 UNL A   1      41.182  43.760  20.368  1.00  0.00    +0.000 H 
ATOM     16  C13 UNL A   1      42.208  43.561  20.138  1.00  0.00    +0.000 C 
BRANCH   16   15
ATOM    105  H17 UNL A   1      43.493  41.956  20.651  1.00  0.00    +0.000 H 
ATOM     15  C12 UNL A   1      42.667  42.470  21.097  1.00  0.00    +0.000 C 
ATOM    104  H16 UNL A   1      41.853  41.798  21.276  1.00  0.00    +0.000 H 
BRANCH   15   14
ATOM     14  N1  UNL A   1      43.106  43.027  22.365  1.00  0.00    +0.000 N 
ATOM    103  H15 UNL A   1      42.401  43.149  23.041  1.00  0.00    +0.000 H 
BRANCH   14   12
ATOM     12  C11 UNL A   1      44.361  43.405  22.752  1.00  0.00    +0.000 C 
ATOM     13  O1  UNL A   1      45.061  42.553  23.307  1.00  0.00    +0.000 O 
BRANCH   12    9
ATOM      9  C9  UNL A   1      44.902  44.803  22.468  1.00  0.00    +0.000 C 
ATOM    100  H12 UNL A   1      44.107  45.517  22.441  1.00  0.00    +0.000 H 
BRANCH    9    8
ATOM     98  H10 UNL A   1      45.432  47.248  18.520  1.00  0.00    +0.000 H 
ATOM     99  H11 UNL A   1      44.512  46.889  20.723  1.00  0.00    +0.000 H 
ATOM    132  H44 UNL A   1      47.570  43.649  18.831  1.00  0.00    +0.000 H 
ATOM      5  C5  UNL A   1      46.598  45.491  18.504  1.00  0.00    +0.000 C 
ATOM      6  C6  UNL A   1      45.695  46.404  19.052  1.00  0.00    +0.000 C 
ATOM      7  C7  UNL A   1      45.144  46.182  20.317  1.00  0.00    +0.000 C 
ATOM    131  H43 UNL A   1      46.585  43.249  21.000  1.00  0.00    +0.000 H 
ATOM      8  C8  UNL A   1      45.432  45.016  21.050  1.00  0.00    +0.000 C 
ATOM     87  C63 UNL A   1      46.338  44.106  20.482  1.00  0.00    +0.000 C 
ATOM     88  C64 UNL A   1      46.910  44.337  19.227  1.00  0.00    +0.000 C 
BRANCH    5    4
ATOM     97  H9  UNL A   1      46.541  46.060  16.486  1.00  0.00    +0.000 H 
ATOM      4  C4  UNL A   1      47.293  45.798  17.200  1.00  0.00    +0.000 C 
ATOM     96  H8  UNL A   1      47.844  44.933  16.894  1.00  0.00    +0.000 H 
BRANCH    4    2
ATOM      2  C2  UNL A   1      48.266  46.991  17.311  1.00  0.00    +0.000 C 
ATOM     92  H4  UNL A   1      47.749  47.777  17.820  1.00  0.00    +0.000 H 
BRANCH    2    1
ATOM      1  C1  UNL A   1      49.511  46.645  18.135  1.00  0.00    +0.000 C 
ATOM     90  H2  UNL A   1      49.520  47.232  19.030  1.00  0.00    +0.000 H 
ATOM     91  H3  UNL A   1      50.389  46.858  17.560  1.00  0.00    +0.000 H 
ATOM     89  H1  UNL A   1      49.494  45.606  18.390  1.00  0.00    +0.000 H 
ENDBRANCH    2    1
BRANCH    2    3
ATOM      3  C3  UNL A   1      48.683  47.461  15.917  1.00  0.00    +0.000 C 
ATOM     93  H5  UNL A   1      48.394  48.483  15.785  1.00  0.00    +0.000 H 
ATOM     94  H6  UNL A   1      48.201  46.856  15.178  1.00  0.00    +0.000 H 
ATOM     95  H7  UNL A   1      49.744  47.374  15.813  1.00  0.00    +0.000 H 
ENDBRANCH    2    3
ENDBRANCH    4    2
ENDBRANCH    5    4
ENDBRANCH    9    8
BRANCH    9   10
ATOM     10  C10 UNL A   1      45.822  45.178  23.635  1.00  0.00    +0.000 C 
ATOM     11  F1  UNL A   1      45.096  45.505  24.738  1.00  0.00    +0.000 F 
ATOM    101  H13 UNL A   1      46.425  46.015  23.351  1.00  0.00    +0.000 H 
ATOM    102  H14 UNL A   1      46.439  44.336  23.868  1.00  0.00    +0.000 H 
ENDBRANCH    9   10
ENDBRANCH   12    9
ENDBRANCH   14   12
ENDBRANCH   15   14
ENDBRANCH   16   15
ENDBRANCH   17   16
ENDBRANCH   18   17
ENDBRANCH   19   18
ENDBRANCH   20   19
ENDBRANCH   21   20
ENDBRANCH   22   21
ENDBRANCH   24   22
ENDBRANCH   28   27
BRANCH   32   33
ATOM     33  C27 UNL A   1      50.672  49.652  22.204  1.00  0.00    +0.000 C 
ATOM     34  C28 UNL A   1      51.510  48.589  21.835  1.00  0.00    +0.000 C 
ATOM     35  F2  UNL A   1      51.928  48.470  20.566  1.00  0.00    +0.000 F 
ATOM     36  C29 UNL A   1      51.899  47.628  22.764  1.00  0.00    +0.000 C 
ATOM     37  F3  UNL A   1      52.673  46.603  22.380  1.00  0.00    +0.000 F 
ATOM     38  C30 UNL A   1      51.484  47.727  24.083  1.00  0.00    +0.000 C 
ATOM     39  F4  UNL A   1      51.872  46.808  24.979  1.00  0.00    +0.000 F 
ATOM     40  C31 UNL A   1      50.665  48.776  24.474  1.00  0.00    +0.000 C 
ATOM     41  F5  UNL A   1      50.273  48.879  25.750  1.00  0.00    +0.000 F 
ATOM     42  C32 UNL A   1      50.252  49.724  23.541  1.00  0.00    +0.000 C 
ATOM     43  F6  UNL A   1      49.454  50.723  23.946  1.00  0.00    +0.000 F 
ENDBRANCH   32   33
BRANCH   49   50
ATOM     50  C38 UNL A   1      53.199  55.974  19.858  1.00  0.00    +0.000 C 
ATOM     51  C39 UNL A   1      54.403  55.809  19.158  1.00  0.00    +0.000 C 
ATOM     52  F7  UNL A   1      54.538  54.808  18.275  1.00  0.00    +0.000 F 
ATOM     53  C40 UNL A   1      55.487  56.650  19.393  1.00  0.00    +0.000 C 
ATOM     54  F8  UNL A   1      56.642  56.445  18.747  1.00  0.00    +0.000 F 
ATOM     55  C41 UNL A   1      55.377  57.689  20.305  1.00  0.00    +0.000 C 
ATOM     56  F9  UNL A   1      56.421  58.501  20.527  1.00  0.00    +0.000 F 
ATOM     57  C42 UNL A   1      54.190  57.882  20.995  1.00  0.00    +0.000 C 
ATOM     58  F10 UNL A   1      54.079  58.893  21.868  1.00  0.00    +0.000 F 
ATOM     59  C43 UNL A   1      53.113  57.026  20.782  1.00  0.00    +0.000 C 
ATOM     60  F11 UNL A   1      51.980  57.229  21.472  1.00  0.00    +0.000 F 
ENDBRANCH   49   50
BRANCH   64   65
ATOM     65  C47 UNL A   1      47.797  56.473  15.503  1.00  0.00    +0.000 C 
ATOM     66  C48 UNL A   1      47.034  57.576  15.912  1.00  0.00    +0.000 C 
ATOM     67  F12 UNL A   1      46.690  57.710  17.200  1.00  0.00    +0.000 F 
ATOM     68  C49 UNL A   1      46.573  58.513  14.990  1.00  0.00    +0.000 C 
ATOM     69  F13 UNL A   1      45.794  59.525  15.400  1.00  0.00    +0.000 F 
ATOM     70  C50 UNL A   1      46.896  58.387  13.648  1.00  0.00    +0.000 C 
ATOM     71  F14 UNL A   1      46.446  59.285  12.761  1.00  0.00    +0.000 F 
ATOM     72  C51 UNL A   1      47.675  57.320  13.224  1.00  0.00    +0.000 C 
ATOM     73  F15 UNL A   1      47.999  57.201  11.930  1.00  0.00    +0.000 F 
ATOM     74  C52 UNL A   1      48.111  56.366  14.140  1.00  0.00    +0.000 C 
ATOM     75  F16 UNL A   1      48.843  55.332  13.698  1.00  0.00    +0.000 F 
ENDBRANCH   64   65
TORSDOF 21
ENDMDL
MODEL 5
REMARK VINA RESULT:      -9.8      4.781      8.100
ROOT
ATOM     28  C23 UNL A   1      41.802  26.283  27.640  1.00  0.00    +0.000 C 
ATOM     29  C24 UNL A   1      41.125  27.364  28.435  1.00  0.00    +0.000 C 
ATOM     30  N3  UNL A   1      41.566  28.554  28.757  1.00  0.00    +0.000 N 
ATOM     31  C25 UNL A   1      40.537  29.157  29.470  1.00  0.00    +0.000 C 
ATOM     32  C26 UNL A   1      40.527  30.368  30.076  1.00  0.00    +0.000 C 
ATOM     44  C33 UNL A   1      41.635  31.286  30.075  1.00  0.00    +0.000 C 
ATOM     45  C34 UNL A   1      41.727  32.530  30.676  1.00  0.00    +0.000 C 
ATOM     46  C35 UNL A   1      42.988  33.062  30.388  1.00  0.00    +0.000 C 
ATOM     47  C36 UNL A   1      43.694  32.134  29.642  1.00  0.00    +0.000 C 
ATOM     48  N4  UNL A   1      42.849  31.054  29.447  1.00  0.00    +0.000 N 
ATOM     49  C37 UNL A   1      45.041  32.226  29.142  1.00  0.00    +0.000 C 
ATOM     61  C44 UNL A   1      45.659  31.278  28.398  1.00  0.00    +0.000 C 
ATOM     62  N5  UNL A   1      45.179  30.046  27.978  1.00  0.00    +0.000 N 
ATOM     63  C45 UNL A   1      46.142  29.504  27.275  1.00  0.00    +0.000 C 
ATOM     64  C46 UNL A   1      46.191  28.155  26.605  1.00  0.00    +0.000 C 
ATOM     76  C53 UNL A   1      45.131  27.332  26.710  1.00  0.00    +0.000 C 
ATOM     77  C54 UNL A   1      45.030  26.000  26.122  1.00  0.00    +0.000 C 
ATOM     78  C55 UNL A   1      43.814  25.496  26.386  1.00  0.00    +0.000 C 
ATOM     79  C56 UNL A   1      43.061  26.457  27.194  1.00  0.00    +0.000 C 
ATOM     80  N6  UNL A   1      43.927  27.511  27.347  1.00  0.00    +0.000 N 
ATOM     81  C57 UNL A   1      47.335  30.353  27.140  1.00  0.00    +0.000 C 
ATOM     82  C58 UNL A   1      47.006  31.400  27.881  1.00  0.00    +0.000 C 
ATOM     83  C59 UNL A   1      39.431  28.225  29.488  1.00  0.00    +0.000 C 
ATOM     84  C60 UNL A   1      39.763  27.078  28.914  1.00  0.00    +0.000 C 
ATOM    119  H31 UNL A   1      40.992  32.985  31.239  1.00  0.00    +0.000 H 
ATOM    120  H32 UNL A   1      43.332  33.990  30.683  1.00  0.00    +0.000 H 
ATOM    121  H33 UNL A   1      43.077  30.243  28.938  1.00  0.00    +0.000 H 
ATOM    122  H34 UNL A   1      45.774  25.523  25.590  1.00  0.00    +0.000 H 
ATOM    123  H35 UNL A   1      43.466  24.577  26.070  1.00  0.00    +0.000 H 
ATOM    124  H36 UNL A   1      43.706  28.319  27.864  1.00  0.00    +0.000 H 
ATOM    125  H37 UNL A   1      48.202  30.179  26.608  1.00  0.00    +0.000 H 
ATOM    126  H38 UNL A   1      47.630  32.201  28.067  1.00  0.00    +0.000 H 
ATOM    127  H39 UNL A   1      38.504  28.427  29.894  1.00  0.00    +0.000 H 
ATOM    128  H40 UNL A   1      39.211  26.210  28.825  1.00  0.00    +0.000 H 
ENDROOT
BRANCH   28   27
ATOM    129  H41 UNL A   1      39.725  25.992  25.970  1.00  0.00    +0.000 H 
ATOM    130  H42 UNL A   1      38.453  23.989  25.469  1.00  0.00    +0.000 H 
ATOM     27  C22 UNL A   1      41.066  25.038  27.300  1.00  0.00    +0.000 C 
ATOM    117  H29 UNL A   1      41.028  21.732  27.915  1.00  0.00    +0.000 H 
ATOM     86  C62 UNL A   1      39.283  23.935  26.080  1.00  0.00    +0.000 C 
ATOM     85  C61 UNL A   1      39.991  25.091  26.399  1.00  0.00    +0.000 C 
ATOM     24  C19 UNL A   1      39.700  22.701  26.588  1.00  0.00    +0.000 C 
ATOM     25  C20 UNL A   1      40.749  22.639  27.509  1.00  0.00    +0.000 C 
ATOM     26  C21 UNL A   1      41.420  23.807  27.876  1.00  0.00    +0.000 C 
ATOM    118  H30 UNL A   1      42.179  23.766  28.572  1.00  0.00    +0.000 H 
BRANCH   24   22
ATOM     22  C18 UNL A   1      39.039  21.443  26.180  1.00  0.00    +0.000 C 
ATOM     23  O2  UNL A   1      39.665  20.387  26.215  1.00  0.00    +0.000 O 
BRANCH   22   21
ATOM    116  H28 UNL A   1      37.068  21.701  26.413  1.00  0.00    +0.000 H 
ATOM     21  N2  UNL A   1      37.742  21.463  25.736  1.00  0.00    +0.000 N 
BRANCH   21   20
ATOM    114  H26 UNL A   1      38.025  20.853  23.788  1.00  0.00    +0.000 H 
ATOM    115  H27 UNL A   1      36.466  20.430  24.511  1.00  0.00    +0.000 H 
ATOM     20  C17 UNL A   1      37.220  21.183  24.410  1.00  0.00    +0.000 C 
BRANCH   20   19
ATOM    113  H25 UNL A   1      35.786  22.025  23.142  1.00  0.00    +0.000 H 
ATOM     19  C16 UNL A   1      36.570  22.402  23.764  1.00  0.00    +0.000 C 
ATOM    112  H24 UNL A   1      37.326  22.933  23.224  1.00  0.00    +0.000 H 
BRANCH   19   18
ATOM     18  C15 UNL A   1      35.908  23.380  24.737  1.00  0.00    +0.000 C 
ATOM    110  H22 UNL A   1      35.476  22.810  25.533  1.00  0.00    +0.000 H 
ATOM    111  H23 UNL A   1      36.681  24.047  25.054  1.00  0.00    +0.000 H 
BRANCH   18   17
ATOM     17  C14 UNL A   1      34.808  24.264  24.139  1.00  0.00    +0.000 C 
ATOM    108  H20 UNL A   1      35.188  24.698  23.237  1.00  0.00    +0.000 H 
ATOM    109  H21 UNL A   1      33.966  23.622  23.986  1.00  0.00    +0.000 H 
BRANCH   17   16
ATOM    106  H18 UNL A   1      34.296  25.045  26.048  1.00  0.00    +0.000 H 
ATOM    107  H19 UNL A   1      34.993  26.218  24.899  1.00  0.00    +0.000 H 
ATOM     16  C13 UNL A   1      34.315  25.402  25.039  1.00  0.00    +0.000 C 
BRANCH   16   15
ATOM    105  H17 UNL A   1      32.553  25.361  23.862  1.00  0.00    +0.000 H 
ATOM     15  C12 UNL A   1      32.926  25.923  24.693  1.00  0.00    +0.000 C 
ATOM    104  H16 UNL A   1      32.995  26.963  24.447  1.00  0.00    +0.000 H 
BRANCH   15   14
ATOM     14  N1  UNL A   1      32.005  25.762  25.804  1.00  0.00    +0.000 N 
ATOM    103  H15 UNL A   1      32.143  26.375  26.561  1.00  0.00    +0.000 H 
BRANCH   14   12
ATOM     12  C11 UNL A   1      30.972  24.879  25.947  1.00  0.00    +0.000 C 
ATOM     13  O1  UNL A   1      29.921  25.138  25.355  1.00  0.00    +0.000 O 
BRANCH   12    9
ATOM      9  C9  UNL A   1      31.119  23.595  26.759  1.00  0.00    +0.000 C 
ATOM    100  H12 UNL A   1      31.684  23.775  27.650  1.00  0.00    +0.000 H 
BRANCH    9    8
ATOM     98  H10 UNL A   1      34.537  20.409  26.894  1.00  0.00    +0.000 H 
ATOM     99  H11 UNL A   1      33.170  22.142  27.871  1.00  0.00    +0.000 H 
ATOM    132  H44 UNL A   1      32.404  20.762  23.295  1.00  0.00    +0.000 H 
ATOM      5  C5  UNL A   1      33.566  20.423  25.022  1.00  0.00    +0.000 C 
ATOM      6  C6  UNL A   1      33.792  20.849  26.332  1.00  0.00    +0.000 C 
ATOM      7  C7  UNL A   1      33.016  21.870  26.888  1.00  0.00    +0.000 C 
ATOM    131  H43 UNL A   1      31.092  22.553  24.246  1.00  0.00    +0.000 H 
ATOM      8  C8  UNL A   1      32.030  22.536  26.137  1.00  0.00    +0.000 C 
ATOM     87  C63 UNL A   1      31.820  22.099  24.819  1.00  0.00    +0.000 C 
ATOM     88  C64 UNL A   1      32.578  21.060  24.269  1.00  0.00    +0.000 C 
BRANCH    5    4
ATOM     97  H9  UNL A   1      35.116  19.015  25.142  1.00  0.00    +0.000 H 
ATOM      4  C4  UNL A   1      34.312  19.233  24.470  1.00  0.00    +0.000 C 
ATOM     96  H8  UNL A   1      34.671  19.477  23.492  1.00  0.00    +0.000 H 
BRANCH    4    2
ATOM      2  C2  UNL A   1      33.430  17.971  24.372  1.00  0.00    +0.000 C 
ATOM     92  H4  UNL A   1      32.612  18.101  25.050  1.00  0.00    +0.000 H 
BRANCH    2    1
ATOM      1  C1  UNL A   1      32.844  17.783  22.969  1.00  0.00    +0.000 C 
ATOM     90  H2  UNL A   1      32.014  18.445  22.838  1.00  0.00    +0.000 H 
ATOM     91  H3  UNL A   1      32.515  16.771  22.854  1.00  0.00    +0.000 H 
ATOM     89  H1  UNL A   1      33.594  18.000  22.237  1.00  0.00    +0.000 H 
ENDBRANCH    2    1
BRANCH    2    3
ATOM      3  C3  UNL A   1      34.237  16.733  24.766  1.00  0.00    +0.000 C 
ATOM     93  H5  UNL A   1      34.010  16.466  25.778  1.00  0.00    +0.000 H 
ATOM     94  H6  UNL A   1      35.282  16.946  24.680  1.00  0.00    +0.000 H 
ATOM     95  H7  UNL A   1      33.984  15.921  24.118  1.00  0.00    +0.000 H 
ENDBRANCH    2    3
ENDBRANCH    4    2
ENDBRANCH    5    4
ENDBRANCH    9    8
BRANCH    9   10
ATOM     10  C10 UNL A   1      29.711  23.163  27.182  1.00  0.00    +0.000 C 
ATOM     11  F1  UNL A   1      29.358  22.001  26.568  1.00  0.00    +0.000 F 
ATOM    101  H13 UNL A   1      29.013  23.929  26.911  1.00  0.00    +0.000 H 
ATOM    102  H14 UNL A   1      29.703  23.009  28.240  1.00  0.00    +0.000 H 
ENDBRANCH    9   10
ENDBRANCH   12    9
ENDBRANCH   14   12
ENDBRANCH   15   14
ENDBRANCH   16   15
ENDBRANCH   17   16
ENDBRANCH   18   17
ENDBRANCH   19   18
ENDBRANCH   20   19
ENDBRANCH   21   20
ENDBRANCH   22   21
ENDBRANCH   24   22
ENDBRANCH   28   27
BRANCH   32   33
ATOM     33  C27 UNL A   1      39.283  30.765  30.815  1.00  0.00    +0.000 C 
ATOM     34  C28 UNL A   1      39.127  30.486  32.180  1.00  0.00    +0.000 C 
ATOM     35  F2  UNL A   1      40.069  29.793  32.839  1.00  0.00    +0.000 F 
ATOM     36  C29 UNL A   1      37.989  30.894  32.869  1.00  0.00    +0.000 C 
ATOM     37  F3  UNL A   1      37.846  30.587  34.166  1.00  0.00    +0.000 F 
ATOM     38  C30 UNL A   1      37.000  31.613  32.215  1.00  0.00    +0.000 C 
ATOM     39  F4  UNL A   1      35.911  32.017  32.884  1.00  0.00    +0.000 F 
ATOM     40  C31 UNL A   1      37.138  31.910  30.867  1.00  0.00    +0.000 C 
ATOM     41  F5  UNL A   1      36.189  32.615  30.237  1.00  0.00    +0.000 F 
ATOM     42  C32 UNL A   1      38.264  31.481  30.169  1.00  0.00    +0.000 C 
ATOM     43  F6  UNL A   1      38.366  31.776  28.865  1.00  0.00    +0.000 F 
ENDBRANCH   32   33
BRANCH   49   50
ATOM     50  C38 UNL A   1      45.831  33.454  29.485  1.00  0.00    +0.000 C 
ATOM     51  C39 UNL A   1      45.809  34.594  28.669  1.00  0.00    +0.000 C 
ATOM     52  F7  UNL A   1      45.109  34.591  27.524  1.00  0.00    +0.000 F 
ATOM     53  C40 UNL A   1      46.538  35.730  29.010  1.00  0.00    +0.000 C 
ATOM     54  F8  UNL A   1      46.540  36.791  28.193  1.00  0.00    +0.000 F 
ATOM     55  C41 UNL A   1      47.275  35.758  30.184  1.00  0.00    +0.000 C 
ATOM     56  F9  UNL A   1      47.973  36.854  30.513  1.00  0.00    +0.000 F 
ATOM     57  C42 UNL A   1      47.296  34.647  31.015  1.00  0.00    +0.000 C 
ATOM     58  F10 UNL A   1      47.998  34.678  32.156  1.00  0.00    +0.000 F 
ATOM     59  C43 UNL A   1      46.589  33.501  30.664  1.00  0.00    +0.000 C 
ATOM     60  F11 UNL A   1      46.638  32.437  31.481  1.00  0.00    +0.000 F 
ENDBRANCH   49   50
BRANCH   64   65
ATOM     65  C47 UNL A   1      47.401  27.732  25.853  1.00  0.00    +0.000 C 
ATOM     66  C48 UNL A   1      48.549  27.291  26.528  1.00  0.00    +0.000 C 
ATOM     67  F12 UNL A   1      48.557  27.235  27.867  1.00  0.00    +0.000 F 
ATOM     68  C49 UNL A   1      49.710  26.962  25.832  1.00  0.00    +0.000 C 
ATOM     69  F13 UNL A   1      50.811  26.602  26.506  1.00  0.00    +0.000 F 
ATOM     70  C50 UNL A   1      49.735  27.031  24.448  1.00  0.00    +0.000 C 
ATOM     71  F14 UNL A   1      50.855  26.722  23.780  1.00  0.00    +0.000 F 
ATOM     72  C51 UNL A   1      48.603  27.436  23.757  1.00  0.00    +0.000 C 
ATOM     73  F15 UNL A   1      48.619  27.493  22.419  1.00  0.00    +0.000 F 
ATOM     74  C52 UNL A   1      47.450  27.794  24.453  1.00  0.00    +0.000 C 
ATOM     75  F16 UNL A   1      46.377  28.204  23.760  1.00  0.00    +0.000 F 
ENDBRANCH   64   65
TORSDOF 21
ENDMDL
MODEL 6
REMARK VINA RESULT:      -9.8     20.782     26.736
ROOT
ATOM     28  C23 UNL A   1      53.575  19.546  11.687  1.00  0.00    +0.000 C 
ATOM     29  C24 UNL A   1      54.951  18.949  11.593  1.00  0.00    +0.000 C 
ATOM     30  N3  UNL A   1      55.923  18.968  12.470  1.00  0.00    +0.000 N 
ATOM     31  C25 UNL A   1      56.964  18.249  11.895  1.00  0.00    +0.000 C 
ATOM     32  C26 UNL A   1      58.211  18.036  12.378  1.00  0.00    +0.000 C 
ATOM     44  C33 UNL A   1      58.691  18.538  13.639  1.00  0.00    +0.000 C 
ATOM     45  C34 UNL A   1      59.944  18.390  14.207  1.00  0.00    +0.000 C 
ATOM     46  C35 UNL A   1      59.940  19.034  15.449  1.00  0.00    +0.000 C 
ATOM     47  C36 UNL A   1      58.697  19.615  15.635  1.00  0.00    +0.000 C 
ATOM     48  N4  UNL A   1      57.937  19.293  14.524  1.00  0.00    +0.000 N 
ATOM     49  C37 UNL A   1      58.236  20.404  16.748  1.00  0.00    +0.000 C 
ATOM     61  C44 UNL A   1      56.991  20.925  16.867  1.00  0.00    +0.000 C 
ATOM     62  N5  UNL A   1      55.923  20.846  15.985  1.00  0.00    +0.000 N 
ATOM     63  C45 UNL A   1      54.937  21.495  16.555  1.00  0.00    +0.000 C 
ATOM     64  C46 UNL A   1      53.548  21.763  16.038  1.00  0.00    +0.000 C 
ATOM     76  C53 UNL A   1      53.204  21.309  14.818  1.00  0.00    +0.000 C 
ATOM     77  C54 UNL A   1      51.903  21.491  14.182  1.00  0.00    +0.000 C 
ATOM     78  C55 UNL A   1      51.903  20.861  12.997  1.00  0.00    +0.000 C 
ATOM     79  C56 UNL A   1      53.218  20.258  12.773  1.00  0.00    +0.000 C 
ATOM     80  N6  UNL A   1      53.929  20.587  13.901  1.00  0.00    +0.000 N 
ATOM     81  C57 UNL A   1      55.262  22.028  17.887  1.00  0.00    +0.000 C 
ATOM     82  C58 UNL A   1      56.538  21.694  18.007  1.00  0.00    +0.000 C 
ATOM     83  C59 UNL A   1      56.488  17.762  10.619  1.00  0.00    +0.000 C 
ATOM     84  C60 UNL A   1      55.271  18.217  10.358  1.00  0.00    +0.000 C 
ATOM    119  H31 UNL A   1      60.743  17.892  13.787  1.00  0.00    +0.000 H 
ATOM    120  H32 UNL A   1      60.730  19.069  16.112  1.00  0.00    +0.000 H 
ATOM    121  H33 UNL A   1      57.000  19.562  14.383  1.00  0.00    +0.000 H 
ATOM    122  H34 UNL A   1      51.111  22.020  14.580  1.00  0.00    +0.000 H 
ATOM    123  H35 UNL A   1      51.102  20.808  12.347  1.00  0.00    +0.000 H 
ATOM    124  H36 UNL A   1      54.868  20.329  14.040  1.00  0.00    +0.000 H 
ATOM    125  H37 UNL A   1      54.655  22.532  18.552  1.00  0.00    +0.000 H 
ATOM    126  H38 UNL A   1      57.134  21.949  18.810  1.00  0.00    +0.000 H 
ATOM    127  H39 UNL A   1      57.025  17.141   9.994  1.00  0.00    +0.000 H 
ATOM    128  H40 UNL A   1      54.697  18.090   9.509  1.00  0.00    +0.000 H 
ENDROOT
BRANCH   28   27
ATOM    129  H41 UNL A   1      52.025  17.393  11.303  1.00  0.00    +0.000 H 
ATOM    130  H42 UNL A   1      50.471  16.947   9.496  1.00  0.00    +0.000 H 
ATOM     27  C22 UNL A   1      52.587  19.310  10.605  1.00  0.00    +0.000 C 
ATOM    117  H29 UNL A   1      51.219  20.769   7.901  1.00  0.00    +0.000 H 
ATOM     86  C62 UNL A   1      50.947  17.861   9.555  1.00  0.00    +0.000 C 
ATOM     85  C61 UNL A   1      51.869  18.104  10.571  1.00  0.00    +0.000 C 
ATOM     24  C19 UNL A   1      50.669  18.859   8.616  1.00  0.00    +0.000 C 
ATOM     25  C20 UNL A   1      51.397  20.051   8.621  1.00  0.00    +0.000 C 
ATOM     26  C21 UNL A   1      52.364  20.269   9.603  1.00  0.00    +0.000 C 
ATOM    118  H30 UNL A   1      52.918  21.139   9.595  1.00  0.00    +0.000 H 
BRANCH   24   22
ATOM     22  C18 UNL A   1      49.616  18.675   7.594  1.00  0.00    +0.000 C 
ATOM     23  O2  UNL A   1      48.810  19.576   7.381  1.00  0.00    +0.000 O 
BRANCH   22   21
ATOM    116  H28 UNL A   1      50.057  16.747   7.278  1.00  0.00    +0.000 H 
ATOM     21  N2  UNL A   1      49.525  17.490   6.910  1.00  0.00    +0.000 N 
BRANCH   21   20
ATOM    114  H26 UNL A   1      48.637  18.065   5.140  1.00  0.00    +0.000 H 
ATOM    115  H27 UNL A   1      49.292  16.420   5.178  1.00  0.00    +0.000 H 
ATOM     20  C17 UNL A   1      48.756  17.173   5.719  1.00  0.00    +0.000 C 
BRANCH   20   19
ATOM    113  H25 UNL A   1      47.326  16.543   7.109  1.00  0.00    +0.000 H 
ATOM     19  C16 UNL A   1      47.374  16.613   6.042  1.00  0.00    +0.000 C 
ATOM    112  H24 UNL A   1      47.275  15.671   5.546  1.00  0.00    +0.000 H 
BRANCH   19   18
ATOM     18  C15 UNL A   1      46.198  17.497   5.621  1.00  0.00    +0.000 C 
ATOM    110  H22 UNL A   1      45.492  16.880   5.103  1.00  0.00    +0.000 H 
ATOM    111  H23 UNL A   1      45.816  17.926   6.523  1.00  0.00    +0.000 H 
BRANCH   18   17
ATOM     17  C14 UNL A   1      46.552  18.677   4.710  1.00  0.00    +0.000 C 
ATOM    108  H20 UNL A   1      46.129  19.562   5.139  1.00  0.00    +0.000 H 
ATOM    109  H21 UNL A   1      47.620  18.694   4.652  1.00  0.00    +0.000 H 
BRANCH   17   16
ATOM    106  H18 UNL A   1      45.989  19.554   2.857  1.00  0.00    +0.000 H 
ATOM    107  H19 UNL A   1      46.752  17.945   2.747  1.00  0.00    +0.000 H 
ATOM     16  C13 UNL A   1      46.052  18.567   3.265  1.00  0.00    +0.000 C 
BRANCH   16   15
ATOM    105  H17 UNL A   1      44.640  17.079   3.801  1.00  0.00    +0.000 H 
ATOM     15  C12 UNL A   1      44.688  17.903   3.119  1.00  0.00    +0.000 C 
ATOM    104  H16 UNL A   1      44.570  17.568   2.109  1.00  0.00    +0.000 H 
BRANCH   15   14
ATOM     14  N1  UNL A   1      43.612  18.824   3.439  1.00  0.00    +0.000 N 
ATOM    103  H15 UNL A   1      43.451  18.970   4.399  1.00  0.00    +0.000 H 
BRANCH   14   12
ATOM     12  C11 UNL A   1      42.791  19.518   2.596  1.00  0.00    +0.000 C 
ATOM     13  O1  UNL A   1      43.196  20.609   2.184  1.00  0.00    +0.000 O 
BRANCH   12    9
ATOM      9  C9  UNL A   1      41.452  18.953   2.133  1.00  0.00    +0.000 C 
ATOM    100  H12 UNL A   1      41.599  18.154   1.437  1.00  0.00    +0.000 H 
BRANCH    9    8
ATOM     98  H10 UNL A   1      40.263  20.793  -1.996  1.00  0.00    +0.000 H 
ATOM     99  H11 UNL A   1      41.622  19.394  -0.574  1.00  0.00    +0.000 H 
ATOM    132  H44 UNL A   1      37.937  21.896   1.319  1.00  0.00    +0.000 H 
ATOM      5  C5  UNL A   1      38.971  21.440  -0.461  1.00  0.00    +0.000 C 
ATOM      6  C6  UNL A   1      40.053  20.732  -0.988  1.00  0.00    +0.000 C 
ATOM      7  C7  UNL A   1      40.853  19.942  -0.158  1.00  0.00    +0.000 C 
ATOM    131  H43 UNL A   1      39.347  20.561   2.756  1.00  0.00    +0.000 H 
ATOM      8  C8  UNL A   1      40.635  19.878   1.229  1.00  0.00    +0.000 C 
ATOM     87  C63 UNL A   1      39.546  20.600   1.744  1.00  0.00    +0.000 C 
ATOM     88  C64 UNL A   1      38.729  21.372   0.913  1.00  0.00    +0.000 C 
BRANCH    5    4
ATOM     97  H9  UNL A   1      37.905  21.594  -2.261  1.00  0.00    +0.000 H 
ATOM      4  C4  UNL A   1      38.029  22.183  -1.377  1.00  0.00    +0.000 C 
ATOM     96  H8  UNL A   1      38.452  23.142  -1.597  1.00  0.00    +0.000 H 
BRANCH    4    2
ATOM      2  C2  UNL A   1      36.633  22.390  -0.753  1.00  0.00    +0.000 C 
ATOM     92  H4  UNL A   1      36.743  22.307   0.308  1.00  0.00    +0.000 H 
BRANCH    2    1
ATOM      1  C1  UNL A   1      36.066  23.781  -1.054  1.00  0.00    +0.000 C 
ATOM     90  H2  UNL A   1      36.868  24.488  -1.111  1.00  0.00    +0.000 H 
ATOM     91  H3  UNL A   1      35.393  24.068  -0.272  1.00  0.00    +0.000 H 
ATOM     89  H1  UNL A   1      35.542  23.759  -1.986  1.00  0.00    +0.000 H 
ENDBRANCH    2    1
BRANCH    2    3
ATOM      3  C3  UNL A   1      35.668  21.317  -1.259  1.00  0.00    +0.000 C 
ATOM     93  H5  UNL A   1      35.003  21.747  -1.980  1.00  0.00    +0.000 H 
ATOM     94  H6  UNL A   1      35.101  20.931  -0.438  1.00  0.00    +0.000 H 
ATOM     95  H7  UNL A   1      36.223  20.524  -1.713  1.00  0.00    +0.000 H 
ENDBRANCH    2    3
ENDBRANCH    4    2
ENDBRANCH    5    4
ENDBRANCH    9    8
BRANCH    9   10
ATOM     10  C10 UNL A   1      40.755  18.370   3.368  1.00  0.00    +0.000 C 
ATOM     11  F1  UNL A   1      40.654  19.304   4.352  1.00  0.00    +0.000 F 
ATOM    101  H13 UNL A   1      41.324  17.539   3.731  1.00  0.00    +0.000 H 
ATOM    102  H14 UNL A   1      39.772  18.056   3.090  1.00  0.00    +0.000 H 
ENDBRANCH    9   10
ENDBRANCH   12    9
ENDBRANCH   14   12
ENDBRANCH   15   14
ENDBRANCH   16   15
ENDBRANCH   17   16
ENDBRANCH   18   17
ENDBRANCH   19   18
ENDBRANCH   20   19
ENDBRANCH   21   20
ENDBRANCH   22   21
ENDBRANCH   24   22
ENDBRANCH   28   27
BRANCH   32   33
ATOM     33  C27 UNL A   1      59.159  17.243  11.529  1.00  0.00    +0.000 C 
ATOM     34  C28 UNL A   1      59.241  15.847  11.639  1.00  0.00    +0.000 C 
ATOM     35  F2  UNL A   1      58.515  15.200  12.564  1.00  0.00    +0.000 F 
ATOM     36  C29 UNL A   1      60.092  15.112  10.819  1.00  0.00    +0.000 C 
ATOM     37  F3  UNL A   1      60.179  13.783  10.966  1.00  0.00    +0.000 F 
ATOM     38  C30 UNL A   1      60.853  15.754   9.853  1.00  0.00    +0.000 C 
ATOM     39  F4  UNL A   1      61.661  15.042   9.055  1.00  0.00    +0.000 F 
ATOM     40  C31 UNL A   1      60.779  17.132   9.718  1.00  0.00    +0.000 C 
ATOM     41  F5  UNL A   1      61.505  17.751   8.778  1.00  0.00    +0.000 F 
ATOM     42  C32 UNL A   1      59.949  17.873  10.555  1.00  0.00    +0.000 C 
ATOM     43  F6  UNL A   1      59.904  19.205  10.406  1.00  0.00    +0.000 F 
ENDBRANCH   32   33
BRANCH   49   50
ATOM     50  C38 UNL A   1      59.211  20.691  17.851  1.00  0.00    +0.000 C 
ATOM     51  C39 UNL A   1      59.439  19.775  18.888  1.00  0.00    +0.000 C 
ATOM     52  F7  UNL A   1      58.744  18.628  18.940  1.00  0.00    +0.000 F 
ATOM     53  C40 UNL A   1      60.357  20.053  19.897  1.00  0.00    +0.000 C 
ATOM     54  F8  UNL A   1      60.525  19.184  20.903  1.00  0.00    +0.000 F 
ATOM     55  C41 UNL A   1      61.084  21.234  19.871  1.00  0.00    +0.000 C 
ATOM     56  F9  UNL A   1      61.970  21.498  20.842  1.00  0.00    +0.000 F 
ATOM     57  C42 UNL A   1      60.887  22.146  18.845  1.00  0.00    +0.000 C 
ATOM     58  F10 UNL A   1      61.597  23.282  18.813  1.00  0.00    +0.000 F 
ATOM     59  C43 UNL A   1      59.951  21.883  17.849  1.00  0.00    +0.000 C 
ATOM     60  F11 UNL A   1      59.772  22.789  16.875  1.00  0.00    +0.000 F 
ENDBRANCH   49   50
BRANCH   64   65
ATOM     65  C47 UNL A   1      52.576  22.534  16.856  1.00  0.00    +0.000 C 
ATOM     66  C48 UNL A   1      52.415  23.914  16.669  1.00  0.00    +0.000 C 
ATOM     67  F12 UNL A   1      53.133  24.550  15.733  1.00  0.00    +0.000 F 
ATOM     68  C49 UNL A   1      51.560  24.655  17.481  1.00  0.00    +0.000 C 
ATOM     69  F13 UNL A   1      51.471  25.983  17.320  1.00  0.00    +0.000 F 
ATOM     70  C50 UNL A   1      50.821  24.026  18.471  1.00  0.00    +0.000 C 
ATOM     71  F14 UNL A   1      50.004  24.741  19.257  1.00  0.00    +0.000 F 
ATOM     72  C51 UNL A   1      50.942  22.657  18.656  1.00  0.00    +0.000 C 
ATOM     73  F15 UNL A   1      50.221  22.043  19.604  1.00  0.00    +0.000 F 
ATOM     74  C52 UNL A   1      51.819  21.919  17.864  1.00  0.00    +0.000 C 
ATOM     75  F16 UNL A   1      51.933  20.600  18.080  1.00  0.00    +0.000 F 
ENDBRANCH   64   65
TORSDOF 21
ENDMDL
MODEL 7
REMARK VINA RESULT:      -9.8     34.756     39.307
ROOT
ATOM     28  C23 UNL A   1      10.684   2.961  21.477  1.00  0.00    +0.000 C 
ATOM     29  C24 UNL A   1       9.757   3.909  22.185  1.00  0.00    +0.000 C 
ATOM     30  N3  UNL A   1       9.316   5.080  21.798  1.00  0.00    +0.000 N 
ATOM     31  C25 UNL A   1       8.470   5.517  22.809  1.00  0.00    +0.000 C 
ATOM     32  C26 UNL A   1       7.818   6.700  22.912  1.00  0.00    +0.000 C 
ATOM     44  C33 UNL A   1       7.888   7.754  21.934  1.00  0.00    +0.000 C 
ATOM     45  C34 UNL A   1       7.277   8.996  21.958  1.00  0.00    +0.000 C 
ATOM     46  C35 UNL A   1       7.621   9.674  20.783  1.00  0.00    +0.000 C 
ATOM     47  C36 UNL A   1       8.476   8.870  20.049  1.00  0.00    +0.000 C 
ATOM     48  N4  UNL A   1       8.623   7.691  20.760  1.00  0.00    +0.000 N 
ATOM     49  C37 UNL A   1       9.112   9.156  18.789  1.00  0.00    +0.000 C 
ATOM     61  C44 UNL A   1       9.926   8.305  18.119  1.00  0.00    +0.000 C 
ATOM     62  N5  UNL A   1      10.338   7.029  18.475  1.00  0.00    +0.000 N 
ATOM     63  C45 UNL A   1      11.104   6.612  17.497  1.00  0.00    +0.000 C 
ATOM     64  C46 UNL A   1      11.855   5.313  17.362  1.00  0.00    +0.000 C 
ATOM     76  C53 UNL A   1      11.783   4.408  18.355  1.00  0.00    +0.000 C 
ATOM     77  C54 UNL A   1      12.454   3.112  18.371  1.00  0.00    +0.000 C 
ATOM     78  C55 UNL A   1      12.112   2.455  19.491  1.00  0.00    +0.000 C 
ATOM     79  C56 UNL A   1      11.224   3.301  20.291  1.00  0.00    +0.000 C 
ATOM     80  N6  UNL A   1      11.095   4.445  19.544  1.00  0.00    +0.000 N 
ATOM     81  C57 UNL A   1      11.233   7.569  16.388  1.00  0.00    +0.000 C 
ATOM     82  C58 UNL A   1      10.535   8.601  16.840  1.00  0.00    +0.000 C 
ATOM     83  C59 UNL A   1       8.415   4.466  23.801  1.00  0.00    +0.000 C 
ATOM     84  C60 UNL A   1       9.240   3.475  23.492  1.00  0.00    +0.000 C 
ATOM    119  H31 UNL A   1       6.673   9.358  22.711  1.00  0.00    +0.000 H 
ATOM    120  H32 UNL A   1       7.292  10.614  20.511  1.00  0.00    +0.000 H 
ATOM    121  H33 UNL A   1       9.168   6.922  20.474  1.00  0.00    +0.000 H 
ATOM    122  H34 UNL A   1      13.090   2.757  17.639  1.00  0.00    +0.000 H 
ATOM    123  H35 UNL A   1      12.425   1.505  19.748  1.00  0.00    +0.000 H 
ATOM    124  H36 UNL A   1      10.559   5.219  19.832  1.00  0.00    +0.000 H 
ATOM    125  H37 UNL A   1      11.737   7.466  15.493  1.00  0.00    +0.000 H 
ATOM    126  H38 UNL A   1      10.438   9.500  16.343  1.00  0.00    +0.000 H 
ATOM    127  H39 UNL A   1       7.813   4.485  24.639  1.00  0.00    +0.000 H 
ATOM    128  H40 UNL A   1       9.460   2.621  24.029  1.00  0.00    +0.000 H 
ENDROOT
BRANCH   28   27
ATOM    129  H41 UNL A   1      12.639   2.281  23.180  1.00  0.00    +0.000 H 
ATOM    130  H42 UNL A   1      13.177   0.093  24.074  1.00  0.00    +0.000 H 
ATOM     27  C22 UNL A   1      10.968   1.625  22.060  1.00  0.00    +0.000 C 
ATOM    117  H29 UNL A   1       9.830  -1.539  22.113  1.00  0.00    +0.000 H 
ATOM     86  C62 UNL A   1      12.340   0.218  23.483  1.00  0.00    +0.000 C 
ATOM     85  C61 UNL A   1      12.052   1.467  22.937  1.00  0.00    +0.000 C 
ATOM     24  C19 UNL A   1      11.493  -0.865  23.227  1.00  0.00    +0.000 C 
ATOM     25  C20 UNL A   1      10.429  -0.727  22.332  1.00  0.00    +0.000 C 
ATOM     26  C21 UNL A   1      10.177   0.510  21.739  1.00  0.00    +0.000 C 
ATOM    118  H30 UNL A   1       9.405   0.608  21.061  1.00  0.00    +0.000 H 
BRANCH   24   22
ATOM     22  C18 UNL A   1      11.707  -2.174  23.879  1.00  0.00    +0.000 C 
ATOM     23  O2  UNL A   1      11.741  -3.196  23.199  1.00  0.00    +0.000 O 
BRANCH   22   21
ATOM    116  H28 UNL A   1      10.994  -2.280  25.747  1.00  0.00    +0.000 H 
ATOM     21  N2  UNL A   1      11.838  -2.247  25.242  1.00  0.00    +0.000 N 
BRANCH   21   20
ATOM    114  H26 UNL A   1      12.916  -3.003  26.829  1.00  0.00    +0.000 H 
ATOM    115  H27 UNL A   1      13.859  -2.544  25.403  1.00  0.00    +0.000 H 
ATOM     20  C17 UNL A   1      13.046  -2.283  26.049  1.00  0.00    +0.000 C 
BRANCH   20   19
ATOM    113  H25 UNL A   1      13.483  -1.115  27.727  1.00  0.00    +0.000 H 
ATOM     19  C16 UNL A   1      13.374  -0.933  26.679  1.00  0.00    +0.000 C 
ATOM    112  H24 UNL A   1      12.580  -0.256  26.442  1.00  0.00    +0.000 H 
BRANCH   19   18
ATOM     18  C15 UNL A   1      14.689  -0.301  26.218  1.00  0.00    +0.000 C 
ATOM    110  H22 UNL A   1      15.489  -0.941  26.532  1.00  0.00    +0.000 H 
ATOM    111  H23 UNL A   1      14.610  -0.199  25.157  1.00  0.00    +0.000 H 
BRANCH   18   17
ATOM     17  C14 UNL A   1      14.971   1.105  26.757  1.00  0.00    +0.000 C 
ATOM    108  H20 UNL A   1      15.123   1.754  25.919  1.00  0.00    +0.000 H 
ATOM    109  H21 UNL A   1      14.123   1.366  27.355  1.00  0.00    +0.000 H 
BRANCH   17   16
ATOM    106  H18 UNL A   1      16.559   0.241  27.874  1.00  0.00    +0.000 H 
ATOM    107  H19 UNL A   1      16.900   1.841  27.163  1.00  0.00    +0.000 H 
ATOM     16  C13 UNL A   1      16.190   1.226  27.676  1.00  0.00    +0.000 C 
BRANCH   16   15
ATOM    105  H17 UNL A   1      16.837   2.262  29.409  1.00  0.00    +0.000 H 
ATOM     15  C12 UNL A   1      15.909   1.906  29.010  1.00  0.00    +0.000 C 
ATOM    104  H16 UNL A   1      15.458   1.198  29.675  1.00  0.00    +0.000 H 
BRANCH   15   14
ATOM     14  N1  UNL A   1      15.015   3.040  28.852  1.00  0.00    +0.000 N 
ATOM    103  H15 UNL A   1      15.129   3.556  28.021  1.00  0.00    +0.000 H 
BRANCH   14   12
ATOM     12  C11 UNL A   1      14.036   3.491  29.692  1.00  0.00    +0.000 C 
ATOM     13  O1  UNL A   1      14.140   3.199  30.887  1.00  0.00    +0.000 O 
BRANCH   12    9
ATOM      9  C9  UNL A   1      12.889   4.363  29.193  1.00  0.00    +0.000 C 
ATOM    100  H12 UNL A   1      12.281   4.690  30.010  1.00  0.00    +0.000 H 
BRANCH    9    8
ATOM     98  H10 UNL A   1      11.400   1.275  26.016  1.00  0.00    +0.000 H 
ATOM     99  H11 UNL A   1      13.119   2.498  27.189  1.00  0.00    +0.000 H 
ATOM    132  H44 UNL A   1       8.467   3.182  28.336  1.00  0.00    +0.000 H 
ATOM      5  C5  UNL A   1       9.793   2.108  27.097  1.00  0.00    +0.000 C 
ATOM      6  C6  UNL A   1      11.137   1.940  26.760  1.00  0.00    +0.000 C 
ATOM      7  C7  UNL A   1      12.129   2.667  27.424  1.00  0.00    +0.000 C 
ATOM    131  H43 UNL A   1      10.182   4.465  29.453  1.00  0.00    +0.000 H 
ATOM      8  C8  UNL A   1      11.808   3.623  28.403  1.00  0.00    +0.000 C 
ATOM     87  C63 UNL A   1      10.451   3.784  28.726  1.00  0.00    +0.000 C 
ATOM     88  C64 UNL A   1       9.458   3.041  28.081  1.00  0.00    +0.000 C 
BRANCH    5    4
ATOM     97  H9  UNL A   1       8.529   1.610  25.498  1.00  0.00    +0.000 H 
ATOM      4  C4  UNL A   1       8.737   1.227  26.475  1.00  0.00    +0.000 C 
ATOM     96  H8  UNL A   1       7.866   1.243  27.099  1.00  0.00    +0.000 H 
BRANCH    4    2
ATOM      2  C2  UNL A   1       9.202  -0.236  26.314  1.00  0.00    +0.000 C 
ATOM     92  H4  UNL A   1      10.203  -0.211  25.938  1.00  0.00    +0.000 H 
BRANCH    2    1
ATOM      1  C1  UNL A   1       9.226  -0.985  27.650  1.00  0.00    +0.000 C 
ATOM     90  H2  UNL A   1      10.199  -0.902  28.088  1.00  0.00    +0.000 H 
ATOM     91  H3  UNL A   1       8.997  -2.017  27.484  1.00  0.00    +0.000 H 
ATOM     89  H1  UNL A   1       8.500  -0.560  28.311  1.00  0.00    +0.000 H 
ENDBRANCH    2    1
BRANCH    2    3
ATOM      3  C3  UNL A   1       8.294  -0.970  25.326  1.00  0.00    +0.000 C 
ATOM     93  H5  UNL A   1       7.375  -1.228  25.810  1.00  0.00    +0.000 H 
ATOM     94  H6  UNL A   1       8.781  -1.860  24.988  1.00  0.00    +0.000 H 
ATOM     95  H7  UNL A   1       8.090  -0.335  24.490  1.00  0.00    +0.000 H 
ENDBRANCH    2    3
ENDBRANCH    4    2
ENDBRANCH    5    4
ENDBRANCH    9    8
BRANCH    9   10
ATOM     10  C10 UNL A   1      13.512   5.608  28.551  1.00  0.00    +0.000 C 
ATOM     11  F1  UNL A   1      12.552   6.510  28.214  1.00  0.00    +0.000 F 
ATOM    101  H13 UNL A   1      14.045   5.317  27.669  1.00  0.00    +0.000 H 
ATOM    102  H14 UNL A   1      14.177   6.060  29.256  1.00  0.00    +0.000 H 
ENDBRANCH    9   10
ENDBRANCH   12    9
ENDBRANCH   14   12
ENDBRANCH   15   14
ENDBRANCH   16   15
ENDBRANCH   17   16
ENDBRANCH   18   17
ENDBRANCH   19   18
ENDBRANCH   20   19
ENDBRANCH   21   20
ENDBRANCH   22   21
ENDBRANCH   24   22
ENDBRANCH   28   27
BRANCH   32   33
ATOM     33  C27 UNL A   1       6.985   6.930  24.138  1.00  0.00    +0.000 C 
ATOM     34  C28 UNL A   1       5.698   6.387  24.256  1.00  0.00    +0.000 C 
ATOM     35  F2  UNL A   1       5.159   5.702  23.236  1.00  0.00    +0.000 F 
ATOM     36  C29 UNL A   1       4.947   6.568  25.413  1.00  0.00    +0.000 C 
ATOM     37  F3  UNL A   1       3.706   6.069  25.491  1.00  0.00    +0.000 F 
ATOM     38  C30 UNL A   1       5.479   7.270  26.485  1.00  0.00    +0.000 C 
ATOM     39  F4  UNL A   1       4.759   7.431  27.604  1.00  0.00    +0.000 F 
ATOM     40  C31 UNL A   1       6.755   7.807  26.395  1.00  0.00    +0.000 C 
ATOM     41  F5  UNL A   1       7.274   8.474  27.434  1.00  0.00    +0.000 F 
ATOM     42  C32 UNL A   1       7.499   7.649  25.229  1.00  0.00    +0.000 C 
ATOM     43  F6  UNL A   1       8.726   8.186  25.168  1.00  0.00    +0.000 F 
ENDBRANCH   32   33
BRANCH   49   50
ATOM     50  C38 UNL A   1       8.875  10.505  18.178  1.00  0.00    +0.000 C 
ATOM     51  C39 UNL A   1       7.798  10.740  17.311  1.00  0.00    +0.000 C 
ATOM     52  F7  UNL A   1       6.976   9.737  16.968  1.00  0.00    +0.000 F 
ATOM     53  C40 UNL A   1       7.587  12.002  16.762  1.00  0.00    +0.000 C 
ATOM     54  F8  UNL A   1       6.579  12.194  15.900  1.00  0.00    +0.000 F 
ATOM     55  C41 UNL A   1       8.425  13.056  17.095  1.00  0.00    +0.000 C 
ATOM     56  F9  UNL A   1       8.216  14.271  16.569  1.00  0.00    +0.000 F 
ATOM     57  C42 UNL A   1       9.485  12.849  17.965  1.00  0.00    +0.000 C 
ATOM     58  F10 UNL A   1      10.288  13.869  18.296  1.00  0.00    +0.000 F 
ATOM     59  C43 UNL A   1       9.715  11.582  18.494  1.00  0.00    +0.000 C 
ATOM     60  F11 UNL A   1      10.756  11.409  19.324  1.00  0.00    +0.000 F 
ENDBRANCH   49   50
BRANCH   64   65
ATOM     65  C47 UNL A   1      12.680   5.043  16.155  1.00  0.00    +0.000 C 
ATOM     66  C48 UNL A   1      12.141   4.363  15.054  1.00  0.00    +0.000 C 
ATOM     67  F12 UNL A   1      10.862   3.962  15.077  1.00  0.00    +0.000 F 
ATOM     68  C49 UNL A   1      12.929   4.043  13.950  1.00  0.00    +0.000 C 
ATOM     69  F13 UNL A   1      12.403   3.340  12.938  1.00  0.00    +0.000 F 
ATOM     70  C50 UNL A   1      14.259   4.428  13.910  1.00  0.00    +0.000 C 
ATOM     71  F14 UNL A   1      15.018   4.113  12.851  1.00  0.00    +0.000 F 
ATOM     72  C51 UNL A   1      14.807   5.128  14.975  1.00  0.00    +0.000 C 
ATOM     73  F15 UNL A   1      16.090   5.512  14.935  1.00  0.00    +0.000 F 
ATOM     74  C52 UNL A   1      14.029   5.423  16.092  1.00  0.00    +0.000 C 
ATOM     75  F16 UNL A   1      14.591   6.080  17.117  1.00  0.00    +0.000 F 
ENDBRANCH   64   65
TORSDOF 21
ENDMDL
MODEL 8
REMARK VINA RESULT:      -9.7      4.971     10.788
ROOT
ATOM     28  C23 UNL A   1      41.778  25.864  27.444  1.00  0.00    +0.000 C 
ATOM     29  C24 UNL A   1      43.137  26.249  26.929  1.00  0.00    +0.000 C 
ATOM     30  N3  UNL A   1      43.811  27.356  27.117  1.00  0.00    +0.000 N 
ATOM     31  C25 UNL A   1      45.015  27.183  26.447  1.00  0.00    +0.000 C 
ATOM     32  C26 UNL A   1      46.027  28.069  26.287  1.00  0.00    +0.000 C 
ATOM     44  C33 UNL A   1      46.029  29.405  26.821  1.00  0.00    +0.000 C 
ATOM     45  C34 UNL A   1      47.000  30.383  26.697  1.00  0.00    +0.000 C 
ATOM     46  C35 UNL A   1      46.573  31.516  27.399  1.00  0.00    +0.000 C 
ATOM     47  C36 UNL A   1      45.318  31.255  27.925  1.00  0.00    +0.000 C 
ATOM     48  N4  UNL A   1      45.002  29.954  27.573  1.00  0.00    +0.000 N 
ATOM     49  C37 UNL A   1      44.472  32.130  28.694  1.00  0.00    +0.000 C 
ATOM     61  C44 UNL A   1      43.259  31.793  29.194  1.00  0.00    +0.000 C 
ATOM     62  N5  UNL A   1      42.565  30.598  29.074  1.00  0.00    +0.000 N 
ATOM     63  C45 UNL A   1      41.449  30.760  29.741  1.00  0.00    +0.000 C 
ATOM     64  C46 UNL A   1      40.300  29.804  29.922  1.00  0.00    +0.000 C 
ATOM     76  C53 UNL A   1      40.354  28.594  29.334  1.00  0.00    +0.000 C 
ATOM     77  C54 UNL A   1      39.322  27.565  29.415  1.00  0.00    +0.000 C 
ATOM     78  C55 UNL A   1      39.740  26.473  28.754  1.00  0.00    +0.000 C 
ATOM     79  C56 UNL A   1      41.057  26.739  28.172  1.00  0.00    +0.000 C 
ATOM     80  N6  UNL A   1      41.336  28.026  28.558  1.00  0.00    +0.000 N 
ATOM     81  C57 UNL A   1      41.327  32.073  30.393  1.00  0.00    +0.000 C 
ATOM     82  C58 UNL A   1      42.434  32.678  29.988  1.00  0.00    +0.000 C 
ATOM     83  C59 UNL A   1      45.004  25.846  25.894  1.00  0.00    +0.000 C 
ATOM     84  C60 UNL A   1      43.842  25.248  26.113  1.00  0.00    +0.000 C 
ATOM    119  H31 UNL A   1      47.887  30.293  26.178  1.00  0.00    +0.000 H 
ATOM    120  H32 UNL A   1      47.103  32.395  27.505  1.00  0.00    +0.000 H 
ATOM    121  H33 UNL A   1      44.170  29.488  27.820  1.00  0.00    +0.000 H 
ATOM    122  H34 UNL A   1      38.417  27.661  29.901  1.00  0.00    +0.000 H 
ATOM    123  H35 UNL A   1      39.216  25.587  28.670  1.00  0.00    +0.000 H 
ATOM    124  H36 UNL A   1      42.161  28.498  28.304  1.00  0.00    +0.000 H 
ATOM    125  H37 UNL A   1      40.576  32.429  31.004  1.00  0.00    +0.000 H 
ATOM    126  H38 UNL A   1      42.676  33.657  30.210  1.00  0.00    +0.000 H 
ATOM    127  H39 UNL A   1      45.798  25.415  25.396  1.00  0.00    +0.000 H 
ATOM    128  H40 UNL A   1      43.516  24.322  25.794  1.00  0.00    +0.000 H 
ENDROOT
BRANCH   28   27
ATOM    129  H41 UNL A   1      39.790  25.140  25.798  1.00  0.00    +0.000 H 
ATOM    130  H42 UNL A   1      38.847  22.936  25.440  1.00  0.00    +0.000 H 
ATOM     27  C22 UNL A   1      41.247  24.501  27.193  1.00  0.00    +0.000 C 
ATOM    117  H29 UNL A   1      41.710  21.280  28.042  1.00  0.00    +0.000 H 
ATOM     86  C62 UNL A   1      39.669  23.053  26.053  1.00  0.00    +0.000 C 
ATOM     85  C61 UNL A   1      40.187  24.324  26.290  1.00  0.00    +0.000 C 
ATOM     24  C19 UNL A   1      40.264  21.936  26.649  1.00  0.00    +0.000 C 
ATOM     25  C20 UNL A   1      41.300  22.102  27.572  1.00  0.00    +0.000 C 
ATOM     26  C21 UNL A   1      41.779  23.382  27.855  1.00  0.00    +0.000 C 
ATOM    118  H30 UNL A   1      42.528  23.508  28.553  1.00  0.00    +0.000 H 
BRANCH   24   22
ATOM     22  C18 UNL A   1      39.810  20.566  26.331  1.00  0.00    +0.000 C 
ATOM     23  O2  UNL A   1      40.625  19.649  26.287  1.00  0.00    +0.000 O 
BRANCH   22   21
ATOM    116  H28 UNL A   1      37.882  20.367  26.832  1.00  0.00    +0.000 H 
ATOM     21  N2  UNL A   1      38.487  20.329  26.057  1.00  0.00    +0.000 N 
BRANCH   21   20
ATOM    114  H26 UNL A   1      38.290  20.647  24.030  1.00  0.00    +0.000 H 
ATOM    115  H27 UNL A   1      38.004  18.990  24.584  1.00  0.00    +0.000 H 
ATOM     20  C17 UNL A   1      37.851  20.031  24.786  1.00  0.00    +0.000 C 
BRANCH   20   19
ATOM    113  H25 UNL A   1      35.923  19.484  25.384  1.00  0.00    +0.000 H 
ATOM     19  C16 UNL A   1      36.347  20.279  24.807  1.00  0.00    +0.000 C 
ATOM    112  H24 UNL A   1      36.001  20.305  23.796  1.00  0.00    +0.000 H 
BRANCH   19   18
ATOM     18  C15 UNL A   1      35.910  21.578  25.491  1.00  0.00    +0.000 C 
ATOM    110  H22 UNL A   1      34.884  21.470  25.777  1.00  0.00    +0.000 H 
ATOM    111  H23 UNL A   1      36.577  21.713  26.316  1.00  0.00    +0.000 H 
BRANCH   18   17
ATOM     17  C14 UNL A   1      36.032  22.845  24.639  1.00  0.00    +0.000 C 
ATOM    108  H20 UNL A   1      35.667  23.668  25.219  1.00  0.00    +0.000 H 
ATOM    109  H21 UNL A   1      37.066  22.927  24.378  1.00  0.00    +0.000 H 
BRANCH   17   16
ATOM    106  H18 UNL A   1      35.973  22.874  22.514  1.00  0.00    +0.000 H 
ATOM    107  H19 UNL A   1      34.691  21.920  23.307  1.00  0.00    +0.000 H 
ATOM     16  C13 UNL A   1      35.263  22.824  23.313  1.00  0.00    +0.000 C 
BRANCH   16   15
ATOM    105  H17 UNL A   1      33.497  23.646  22.475  1.00  0.00    +0.000 H 
ATOM     15  C12 UNL A   1      34.271  23.968  23.141  1.00  0.00    +0.000 C 
ATOM    104  H16 UNL A   1      34.785  24.818  22.742  1.00  0.00    +0.000 H 
BRANCH   15   14
ATOM     14  N1  UNL A   1      33.660  24.337  24.406  1.00  0.00    +0.000 N 
ATOM    103  H15 UNL A   1      33.841  25.255  24.712  1.00  0.00    +0.000 H 
BRANCH   14   12
ATOM     12  C11 UNL A   1      32.869  23.590  25.232  1.00  0.00    +0.000 C 
ATOM     13  O1  UNL A   1      33.072  23.682  26.446  1.00  0.00    +0.000 O 
BRANCH   12    9
ATOM      9  C9  UNL A   1      31.742  22.715  24.690  1.00  0.00    +0.000 C 
ATOM    100  H12 UNL A   1      30.991  22.562  25.435  1.00  0.00    +0.000 H 
BRANCH    9    8
ATOM     98  H10 UNL A   1      32.741  19.028  21.996  1.00  0.00    +0.000 H 
ATOM     99  H11 UNL A   1      32.066  21.319  22.345  1.00  0.00    +0.000 H 
ATOM    132  H44 UNL A   1      33.119  18.512  26.145  1.00  0.00    +0.000 H 
ATOM      5  C5  UNL A   1      33.012  18.588  24.040  1.00  0.00    +0.000 C 
ATOM      6  C6  UNL A   1      32.680  19.402  22.956  1.00  0.00    +0.000 C 
ATOM      7  C7  UNL A   1      32.266  20.721  23.161  1.00  0.00    +0.000 C 
ATOM    131  H43 UNL A   1      32.364  20.780  26.498  1.00  0.00    +0.000 H 
ATOM      8  C8  UNL A   1      32.114  21.251  24.455  1.00  0.00    +0.000 C 
ATOM     87  C63 UNL A   1      32.446  20.417  25.535  1.00  0.00    +0.000 C 
ATOM     88  C64 UNL A   1      32.885  19.105  25.332  1.00  0.00    +0.000 C 
BRANCH    5    4
ATOM     97  H9  UNL A   1      34.532  17.333  23.324  1.00  0.00    +0.000 H 
ATOM      4  C4  UNL A   1      33.587  17.212  23.810  1.00  0.00    +0.000 C 
ATOM     96  H8  UNL A   1      32.902  16.651  23.208  1.00  0.00    +0.000 H 
BRANCH    4    2
ATOM      2  C2  UNL A   1      33.832  16.443  25.125  1.00  0.00    +0.000 C 
ATOM     92  H4  UNL A   1      33.683  17.133  25.930  1.00  0.00    +0.000 H 
BRANCH    2    1
ATOM      1  C1  UNL A   1      32.841  15.290  25.314  1.00  0.00    +0.000 C 
ATOM     90  H2  UNL A   1      33.379  14.367  25.395  1.00  0.00    +0.000 H 
ATOM     91  H3  UNL A   1      32.182  15.245  24.471  1.00  0.00    +0.000 H 
ATOM     89  H1  UNL A   1      32.271  15.450  26.205  1.00  0.00    +0.000 H 
ENDBRANCH    2    1
BRANCH    2    3
ATOM      3  C3  UNL A   1      35.263  15.906  25.161  1.00  0.00    +0.000 C 
ATOM     93  H5  UNL A   1      35.356  15.190  25.951  1.00  0.00    +0.000 H 
ATOM     94  H6  UNL A   1      35.943  16.714  25.331  1.00  0.00    +0.000 H 
ATOM     95  H7  UNL A   1      35.493  15.438  24.227  1.00  0.00    +0.000 H 
ENDBRANCH    2    3
ENDBRANCH    4    2
ENDBRANCH    5    4
ENDBRANCH    9    8
BRANCH    9   10
ATOM     10  C10 UNL A   1      31.096  23.479  23.528  1.00  0.00    +0.000 C 
ATOM     11  F1  UNL A   1      30.453  24.590  23.978  1.00  0.00    +0.000 F 
ATOM    101  H13 UNL A   1      30.391  22.840  23.038  1.00  0.00    +0.000 H 
ATOM    102  H14 UNL A   1      31.864  23.779  22.846  1.00  0.00    +0.000 H 
ENDBRANCH    9   10
ENDBRANCH   12    9
ENDBRANCH   14   12
ENDBRANCH   15   14
ENDBRANCH   16   15
ENDBRANCH   17   16
ENDBRANCH   18   17
ENDBRANCH   19   18
ENDBRANCH   20   19
ENDBRANCH   21   20
ENDBRANCH   22   21
ENDBRANCH   24   22
ENDBRANCH   28   27
BRANCH   32   33
ATOM     33  C27 UNL A   1      47.214  27.630  25.482  1.00  0.00    +0.000 C 
ATOM     34  C28 UNL A   1      47.247  27.790  24.089  1.00  0.00    +0.000 C 
ATOM     35  F2  UNL A   1      46.181  28.282  23.441  1.00  0.00    +0.000 F 
ATOM     36  C29 UNL A   1      48.368  27.419  23.352  1.00  0.00    +0.000 C 
ATOM     37  F3  UNL A   1      48.365  27.551  22.018  1.00  0.00    +0.000 F 
ATOM     38  C30 UNL A   1      49.486  26.910  23.995  1.00  0.00    +0.000 C 
ATOM     39  F4  UNL A   1      50.570  26.566  23.285  1.00  0.00    +0.000 F 
ATOM     40  C31 UNL A   1      49.480  26.752  25.373  1.00  0.00    +0.000 C 
ATOM     41  F5  UNL A   1      50.563  26.271  25.996  1.00  0.00    +0.000 F 
ATOM     42  C32 UNL A   1      48.350  27.098  26.110  1.00  0.00    +0.000 C 
ATOM     43  F6  UNL A   1      48.370  26.927  27.440  1.00  0.00    +0.000 F 
ENDBRANCH   32   33
BRANCH   49   50
ATOM     50  C38 UNL A   1      44.957  33.526  28.947  1.00  0.00    +0.000 C 
ATOM     51  C39 UNL A   1      45.758  33.837  30.056  1.00  0.00    +0.000 C 
ATOM     52  F7  UNL A   1      46.070  32.887  30.950  1.00  0.00    +0.000 F 
ATOM     53  C40 UNL A   1      46.210  35.137  30.268  1.00  0.00    +0.000 C 
ATOM     54  F8  UNL A   1      46.935  35.421  31.358  1.00  0.00    +0.000 F 
ATOM     55  C41 UNL A   1      45.897  36.139  29.362  1.00  0.00    +0.000 C 
ATOM     56  F9  UNL A   1      46.336  37.389  29.566  1.00  0.00    +0.000 F 
ATOM     57  C42 UNL A   1      45.121  35.849  28.249  1.00  0.00    +0.000 C 
ATOM     58  F10 UNL A   1      44.828  36.815  27.367  1.00  0.00    +0.000 F 
ATOM     59  C43 UNL A   1      44.646  34.557  28.048  1.00  0.00    +0.000 C 
ATOM     60  F11 UNL A   1      43.887  34.309  26.970  1.00  0.00    +0.000 F 
ENDBRANCH   49   50
BRANCH   64   65
ATOM     65  C47 UNL A   1      39.112  30.198  30.725  1.00  0.00    +0.000 C 
ATOM     66  C48 UNL A   1      38.020  30.840  30.124  1.00  0.00    +0.000 C 
ATOM     67  F12 UNL A   1      38.034  31.092  28.808  1.00  0.00    +0.000 F 
ATOM     68  C49 UNL A   1      36.936  31.276  30.883  1.00  0.00    +0.000 C 
ATOM     69  F13 UNL A   1      35.933  31.941  30.292  1.00  0.00    +0.000 F 
ATOM     70  C50 UNL A   1      36.906  31.047  32.250  1.00  0.00    +0.000 C 
ATOM     71  F14 UNL A   1      35.867  31.474  32.980  1.00  0.00    +0.000 F 
ATOM     72  C51 UNL A   1      37.962  30.388  32.861  1.00  0.00    +0.000 C 
ATOM     73  F15 UNL A   1      37.932  30.154  34.180  1.00  0.00    +0.000 F 
ATOM     74  C52 UNL A   1      39.060  29.977  32.109  1.00  0.00    +0.000 C 
ATOM     75  F16 UNL A   1      40.077  29.362  32.731  1.00  0.00    +0.000 F 
ENDBRANCH   64   65
TORSDOF 21
ENDMDL
MODEL 9
REMARK VINA RESULT:      -9.7      4.286      9.293
ROOT
ATOM     28  C23 UNL A   1      40.736  27.923  28.618  1.00  0.00    +0.000 C 
ATOM     29  C24 UNL A   1      42.172  28.119  29.017  1.00  0.00    +0.000 C 
ATOM     30  N3  UNL A   1      42.730  29.136  29.626  1.00  0.00    +0.000 N 
ATOM     31  C25 UNL A   1      44.068  28.795  29.778  1.00  0.00    +0.000 C 
ATOM     32  C26 UNL A   1      45.076  29.541  30.291  1.00  0.00    +0.000 C 
ATOM     44  C33 UNL A   1      44.921  30.878  30.799  1.00  0.00    +0.000 C 
ATOM     45  C34 UNL A   1      45.885  31.720  31.323  1.00  0.00    +0.000 C 
ATOM     46  C35 UNL A   1      45.263  32.914  31.705  1.00  0.00    +0.000 C 
ATOM     47  C36 UNL A   1      43.919  32.828  31.383  1.00  0.00    +0.000 C 
ATOM     48  N4  UNL A   1      43.720  31.570  30.839  1.00  0.00    +0.000 N 
ATOM     49  C37 UNL A   1      42.891  33.820  31.560  1.00  0.00    +0.000 C 
ATOM     61  C44 UNL A   1      41.587  33.653  31.236  1.00  0.00    +0.000 C 
ATOM     62  N5  UNL A   1      40.962  32.553  30.666  1.00  0.00    +0.000 N 
ATOM     63  C45 UNL A   1      39.695  32.871  30.563  1.00  0.00    +0.000 C 
ATOM     64  C46 UNL A   1      38.556  32.074  29.983  1.00  0.00    +0.000 C 
ATOM     76  C53 UNL A   1      38.804  30.854  29.470  1.00  0.00    +0.000 C 
ATOM     77  C54 UNL A   1      37.810  29.967  28.874  1.00  0.00    +0.000 C 
ATOM     78  C55 UNL A   1      38.405  28.817  28.521  1.00  0.00    +0.000 C 
ATOM     79  C56 UNL A   1      39.833  28.898  28.835  1.00  0.00    +0.000 C 
ATOM     80  N6  UNL A   1      39.980  30.148  29.384  1.00  0.00    +0.000 N 
ATOM     81  C57 UNL A   1      39.368  34.203  31.093  1.00  0.00    +0.000 C 
ATOM     82  C58 UNL A   1      40.562  34.653  31.447  1.00  0.00    +0.000 C 
ATOM     83  C59 UNL A   1      44.229  27.458  29.248  1.00  0.00    +0.000 C 
ATOM     84  C60 UNL A   1      43.099  27.019  28.711  1.00  0.00    +0.000 C 
ATOM    119  H31 UNL A   1      46.890  31.506  31.416  1.00  0.00    +0.000 H 
ATOM    120  H32 UNL A   1      45.728  33.720  32.151  1.00  0.00    +0.000 H 
ATOM    121  H33 UNL A   1      42.854  31.220  30.527  1.00  0.00    +0.000 H 
ATOM    122  H34 UNL A   1      36.811  30.189  28.744  1.00  0.00    +0.000 H 
ATOM    123  H35 UNL A   1      37.932  28.003  28.096  1.00  0.00    +0.000 H 
ATOM    124  H36 UNL A   1      40.845  30.505  29.687  1.00  0.00    +0.000 H 
ATOM    125  H37 UNL A   1      38.448  34.666  31.169  1.00  0.00    +0.000 H 
ATOM    126  H38 UNL A   1      40.740  35.598  31.824  1.00  0.00    +0.000 H 
ATOM    127  H39 UNL A   1      45.107  26.918  29.284  1.00  0.00    +0.000 H 
ATOM    128  H40 UNL A   1      42.918  26.135  28.210  1.00  0.00    +0.000 H 
ENDROOT
BRANCH   28   27
ATOM    129  H41 UNL A   1      39.435  25.911  29.818  1.00  0.00    +0.000 H 
ATOM    130  H42 UNL A   1      38.790  23.762  28.899  1.00  0.00    +0.000 H 
ATOM     27  C22 UNL A   1      40.299  26.633  28.027  1.00  0.00    +0.000 C 
ATOM    117  H29 UNL A   1      40.263  24.922  25.132  1.00  0.00    +0.000 H 
ATOM     86  C62 UNL A   1      39.223  24.475  28.292  1.00  0.00    +0.000 C 
ATOM     85  C61 UNL A   1      39.629  25.695  28.827  1.00  0.00    +0.000 C 
ATOM     24  C19 UNL A   1      39.403  24.219  26.929  1.00  0.00    +0.000 C 
ATOM     25  C20 UNL A   1      40.094  25.132  26.128  1.00  0.00    +0.000 C 
ATOM     26  C21 UNL A   1      40.555  26.328  26.680  1.00  0.00    +0.000 C 
ATOM    118  H30 UNL A   1      41.085  26.993  26.096  1.00  0.00    +0.000 H 
BRANCH   24   22
ATOM     22  C18 UNL A   1      38.883  22.982  26.307  1.00  0.00    +0.000 C 
ATOM     23  O2  UNL A   1      39.442  21.910  26.522  1.00  0.00    +0.000 O 
BRANCH   22   21
ATOM    116  H28 UNL A   1      37.300  23.889  25.482  1.00  0.00    +0.000 H 
ATOM     21  N2  UNL A   1      37.798  23.040  25.471  1.00  0.00    +0.000 N 
BRANCH   21   20
ATOM    114  H26 UNL A   1      38.101  21.507  24.125  1.00  0.00    +0.000 H 
ATOM    115  H27 UNL A   1      36.661  21.367  25.147  1.00  0.00    +0.000 H 
ATOM     20  C17 UNL A   1      37.277  22.026  24.570  1.00  0.00    +0.000 C 
BRANCH   20   19
ATOM    113  H25 UNL A   1      35.761  21.825  23.144  1.00  0.00    +0.000 H 
ATOM     19  C16 UNL A   1      36.412  22.613  23.460  1.00  0.00    +0.000 C 
ATOM    112  H24 UNL A   1      37.061  22.967  22.687  1.00  0.00    +0.000 H 
BRANCH   19   18
ATOM     18  C15 UNL A   1      35.504  23.770  23.884  1.00  0.00    +0.000 C 
ATOM    110  H22 UNL A   1      35.269  23.640  24.920  1.00  0.00    +0.000 H 
ATOM    111  H23 UNL A   1      36.052  24.664  23.675  1.00  0.00    +0.000 H 
BRANCH   18   17
ATOM     17  C14 UNL A   1      34.187  23.892  23.112  1.00  0.00    +0.000 C 
ATOM    108  H20 UNL A   1      34.318  23.423  22.159  1.00  0.00    +0.000 H 
ATOM    109  H21 UNL A   1      33.443  23.425  23.723  1.00  0.00    +0.000 H 
BRANCH   17   16
ATOM    106  H18 UNL A   1      34.496  25.996  23.103  1.00  0.00    +0.000 H 
ATOM    107  H19 UNL A   1      33.394  25.374  21.845  1.00  0.00    +0.000 H 
ATOM     16  C13 UNL A   1      33.696  25.324  22.870  1.00  0.00    +0.000 C 
BRANCH   16   15
ATOM    105  H17 UNL A   1      31.643  25.147  23.371  1.00  0.00    +0.000 H 
ATOM     15  C12 UNL A   1      32.483  25.723  23.701  1.00  0.00    +0.000 C 
ATOM    104  H16 UNL A   1      32.299  26.770  23.571  1.00  0.00    +0.000 H 
BRANCH   15   14
ATOM     14  N1  UNL A   1      32.694  25.454  25.113  1.00  0.00    +0.000 N 
ATOM    103  H15 UNL A   1      33.634  25.387  25.396  1.00  0.00    +0.000 H 
BRANCH   14   12
ATOM     12  C11 UNL A   1      31.770  25.282  26.105  1.00  0.00    +0.000 C 
ATOM     13  O1  UNL A   1      31.139  26.278  26.469  1.00  0.00    +0.000 O 
BRANCH   12    9
ATOM      9  C9  UNL A   1      31.486  23.909  26.708  1.00  0.00    +0.000 C 
ATOM    100  H12 UNL A   1      31.877  23.845  27.702  1.00  0.00    +0.000 H 
BRANCH    9    8
ATOM     98  H10 UNL A   1      34.996  20.823  26.602  1.00  0.00    +0.000 H 
ATOM     99  H11 UNL A   1      33.811  22.705  27.542  1.00  0.00    +0.000 H 
ATOM    132  H44 UNL A   1      32.061  20.472  23.621  1.00  0.00    +0.000 H 
ATOM      5  C5  UNL A   1      33.612  20.475  25.049  1.00  0.00    +0.000 C 
ATOM      6  C6  UNL A   1      34.118  21.145  26.164  1.00  0.00    +0.000 C 
ATOM      7  C7  UNL A   1      33.444  22.250  26.692  1.00  0.00    +0.000 C 
ATOM    131  H43 UNL A   1      30.920  22.405  24.513  1.00  0.00    +0.000 H 
ATOM      8  C8  UNL A   1      32.277  22.754  26.092  1.00  0.00    +0.000 C 
ATOM     87  C63 UNL A   1      31.785  22.072  24.967  1.00  0.00    +0.000 C 
ATOM     88  C64 UNL A   1      32.444  20.952  24.452  1.00  0.00    +0.000 C 
BRANCH    5    4
ATOM     97  H9  UNL A   1      34.875  18.828  25.360  1.00  0.00    +0.000 H 
ATOM      4  C4  UNL A   1      34.267  19.205  24.563  1.00  0.00    +0.000 C 
ATOM     96  H8  UNL A   1      34.851  19.431  23.695  1.00  0.00    +0.000 H 
BRANCH    4    2
ATOM      2  C2  UNL A   1      33.243  18.110  24.199  1.00  0.00    +0.000 C 
ATOM     92  H4  UNL A   1      32.453  18.583  23.653  1.00  0.00    +0.000 H 
BRANCH    2    1
ATOM      1  C1  UNL A   1      33.848  17.030  23.297  1.00  0.00    +0.000 C 
ATOM     90  H2  UNL A   1      33.098  16.662  22.628  1.00  0.00    +0.000 H 
ATOM     91  H3  UNL A   1      34.211  16.224  23.901  1.00  0.00    +0.000 H 
ATOM     89  H1  UNL A   1      34.656  17.446  22.733  1.00  0.00    +0.000 H 
ENDBRANCH    2    1
BRANCH    2    3
ATOM      3  C3  UNL A   1      32.684  17.470  25.470  1.00  0.00    +0.000 C 
ATOM     93  H5  UNL A   1      32.839  16.411  25.434  1.00  0.00    +0.000 H 
ATOM     94  H6  UNL A   1      31.636  17.674  25.541  1.00  0.00    +0.000 H 
ATOM     95  H7  UNL A   1      33.185  17.875  26.324  1.00  0.00    +0.000 H 
ENDBRANCH    2    3
ENDBRANCH    4    2
ENDBRANCH    5    4
ENDBRANCH    9    8
BRANCH    9   10
ATOM     10  C10 UNL A   1      29.963  23.760  26.797  1.00  0.00    +0.000 C 
ATOM     11  F1  UNL A   1      29.626  22.560  27.342  1.00  0.00    +0.000 F 
ATOM    101  H13 UNL A   1      29.547  23.828  25.814  1.00  0.00    +0.000 H 
ATOM    102  H14 UNL A   1      29.579  24.541  27.420  1.00  0.00    +0.000 H 
ENDBRANCH    9   10
ENDBRANCH   12    9
ENDBRANCH   14   12
ENDBRANCH   15   14
ENDBRANCH   16   15
ENDBRANCH   17   16
ENDBRANCH   18   17
ENDBRANCH   19   18
ENDBRANCH   20   19
ENDBRANCH   21   20
ENDBRANCH   22   21
ENDBRANCH   24   22
ENDBRANCH   28   27
BRANCH   32   33
ATOM     33  C27 UNL A   1      46.449  28.935  30.307  1.00  0.00    +0.000 C 
ATOM     34  C28 UNL A   1      47.330  29.100  29.229  1.00  0.00    +0.000 C 
ATOM     35  F2  UNL A   1      46.931  29.751  28.126  1.00  0.00    +0.000 F 
ATOM     36  C29 UNL A   1      48.617  28.572  29.268  1.00  0.00    +0.000 C 
ATOM     37  F3  UNL A   1      49.430  28.713  28.212  1.00  0.00    +0.000 F 
ATOM     38  C30 UNL A   1      49.057  27.896  30.396  1.00  0.00    +0.000 C 
ATOM     39  F4  UNL A   1      50.302  27.400  30.437  1.00  0.00    +0.000 F 
ATOM     40  C31 UNL A   1      48.207  27.730  31.479  1.00  0.00    +0.000 C 
ATOM     41  F5  UNL A   1      48.635  27.087  32.573  1.00  0.00    +0.000 F 
ATOM     42  C32 UNL A   1      46.910  28.235  31.432  1.00  0.00    +0.000 C 
ATOM     43  F6  UNL A   1      46.108  28.053  32.492  1.00  0.00    +0.000 F 
ENDBRANCH   32   33
BRANCH   49   50
ATOM     50  C38 UNL A   1      43.294  35.148  32.128  1.00  0.00    +0.000 C 
ATOM     51  C39 UNL A   1      43.709  36.205  31.305  1.00  0.00    +0.000 C 
ATOM     52  F7  UNL A   1      43.801  36.030  29.978  1.00  0.00    +0.000 F 
ATOM     53  C40 UNL A   1      44.067  37.435  31.849  1.00  0.00    +0.000 C 
ATOM     54  F8  UNL A   1      44.504  38.416  31.049  1.00  0.00    +0.000 F 
ATOM     55  C41 UNL A   1      43.987  37.641  33.218  1.00  0.00    +0.000 C 
ATOM     56  F9  UNL A   1      44.328  38.828  33.740  1.00  0.00    +0.000 F 
ATOM     57  C42 UNL A   1      43.561  36.615  34.049  1.00  0.00    +0.000 C 
ATOM     58  F10 UNL A   1      43.473  36.817  35.371  1.00  0.00    +0.000 F 
ATOM     59  C43 UNL A   1      43.228  35.375  33.511  1.00  0.00    +0.000 C 
ATOM     60  F11 UNL A   1      42.832  34.398  34.340  1.00  0.00    +0.000 F 
ENDBRANCH   49   50
BRANCH   64   65
ATOM     65  C47 UNL A   1      37.180  32.634  29.961  1.00  0.00    +0.000 C 
ATOM     66  C48 UNL A   1      36.278  32.365  31.000  1.00  0.00    +0.000 C 
ATOM     67  F12 UNL A   1      36.660  31.606  32.037  1.00  0.00    +0.000 F 
ATOM     68  C49 UNL A   1      34.965  32.827  30.950  1.00  0.00    +0.000 C 
ATOM     69  F13 UNL A   1      34.107  32.505  31.929  1.00  0.00    +0.000 F 
ATOM     70  C50 UNL A   1      34.538  33.597  29.879  1.00  0.00    +0.000 C 
ATOM     71  F14 UNL A   1      33.272  34.034  29.828  1.00  0.00    +0.000 F 
ATOM     72  C51 UNL A   1      35.421  33.901  28.854  1.00  0.00    +0.000 C 
ATOM     73  F15 UNL A   1      35.015  34.654  27.823  1.00  0.00    +0.000 F 
ATOM     74  C52 UNL A   1      36.726  33.414  28.887  1.00  0.00    +0.000 C 
ATOM     75  F16 UNL A   1      37.551  33.704  27.871  1.00  0.00    +0.000 F 
ENDBRANCH   64   65
TORSDOF 21
ENDMDL
MODEL 10
REMARK VINA RESULT:      -9.7      4.495      7.893
ROOT
ATOM     28  C23 UNL A   1      41.499  26.171  27.479  1.00  0.00    +0.000 C 
ATOM     29  C24 UNL A   1      40.819  27.257  28.266  1.00  0.00    +0.000 C 
ATOM     30  N3  UNL A   1      41.261  28.446  28.589  1.00  0.00    +0.000 N 
ATOM     31  C25 UNL A   1      40.229  29.055  29.291  1.00  0.00    +0.000 C 
ATOM     32  C26 UNL A   1      40.218  30.267  29.894  1.00  0.00    +0.000 C 
ATOM     44  C33 UNL A   1      41.329  31.182  29.900  1.00  0.00    +0.000 C 
ATOM     45  C34 UNL A   1      41.420  32.426  30.499  1.00  0.00    +0.000 C 
ATOM     46  C35 UNL A   1      42.686  32.954  30.221  1.00  0.00    +0.000 C 
ATOM     47  C36 UNL A   1      43.395  32.021  29.483  1.00  0.00    +0.000 C 
ATOM     48  N4  UNL A   1      42.548  30.944  29.283  1.00  0.00    +0.000 N 
ATOM     49  C37 UNL A   1      44.746  32.107  28.994  1.00  0.00    +0.000 C 
ATOM     61  C44 UNL A   1      45.368  31.154  28.258  1.00  0.00    +0.000 C 
ATOM     62  N5  UNL A   1      44.886  29.923  27.837  1.00  0.00    +0.000 N 
ATOM     63  C45 UNL A   1      45.854  29.376  27.144  1.00  0.00    +0.000 C 
ATOM     64  C46 UNL A   1      45.904  28.025  26.478  1.00  0.00    +0.000 C 
ATOM     76  C53 UNL A   1      44.840  27.206  26.576  1.00  0.00    +0.000 C 
ATOM     77  C54 UNL A   1      44.739  25.873  25.990  1.00  0.00    +0.000 C 
ATOM     78  C55 UNL A   1      43.519  25.374  26.245  1.00  0.00    +0.000 C 
ATOM     79  C56 UNL A   1      42.762  26.340  27.044  1.00  0.00    +0.000 C 
ATOM     80  N6  UNL A   1      43.630  27.391  27.202  1.00  0.00    +0.000 N 
ATOM     81  C57 UNL A   1      47.051  30.220  27.016  1.00  0.00    +0.000 C 
ATOM     82  C58 UNL A   1      46.719  31.271  27.753  1.00  0.00    +0.000 C 
ATOM     83  C59 UNL A   1      39.119  28.127  29.302  1.00  0.00    +0.000 C 
ATOM     84  C60 UNL A   1      39.452  26.977  28.734  1.00  0.00    +0.000 C 
ATOM    119  H31 UNL A   1      40.683  32.886  31.054  1.00  0.00    +0.000 H 
ATOM    120  H32 UNL A   1      43.031  33.881  30.516  1.00  0.00    +0.000 H 
ATOM    121  H33 UNL A   1      42.777  30.130  28.779  1.00  0.00    +0.000 H 
ATOM    122  H34 UNL A   1      45.486  25.392  25.465  1.00  0.00    +0.000 H 
ATOM    123  H35 UNL A   1      43.170  24.456  25.928  1.00  0.00    +0.000 H 
ATOM    124  H36 UNL A   1      43.408  28.201  27.715  1.00  0.00    +0.000 H 
ATOM    125  H37 UNL A   1      47.922  30.042  26.492  1.00  0.00    +0.000 H 
ATOM    126  H38 UNL A   1      47.344  32.070  27.942  1.00  0.00    +0.000 H 
ATOM    127  H39 UNL A   1      38.190  28.334  29.700  1.00  0.00    +0.000 H 
ATOM    128  H40 UNL A   1      38.897  26.111  28.642  1.00  0.00    +0.000 H 
ENDROOT
BRANCH   28   27
ATOM    129  H41 UNL A   1      39.353  25.904  25.895  1.00  0.00    +0.000 H 
ATOM    130  H42 UNL A   1      38.081  23.902  25.392  1.00  0.00    +0.000 H 
ATOM     27  C22 UNL A   1      40.762  24.929  27.137  1.00  0.00    +0.000 C 
ATOM    117  H29 UNL A   1      40.784  21.606  27.657  1.00  0.00    +0.000 H 
ATOM     86  C62 UNL A   1      38.938  23.840  25.964  1.00  0.00    +0.000 C 
ATOM     85  C61 UNL A   1      39.648  24.994  26.285  1.00  0.00    +0.000 C 
ATOM     24  C19 UNL A   1      39.389  22.597  26.418  1.00  0.00    +0.000 C 
ATOM     25  C20 UNL A   1      40.479  22.521  27.290  1.00  0.00    +0.000 C 
ATOM     26  C21 UNL A   1      41.153  23.686  27.660  1.00  0.00    +0.000 C 
ATOM    118  H30 UNL A   1      41.943  23.633  28.321  1.00  0.00    +0.000 H 
BRANCH   24   22
ATOM     22  C18 UNL A   1      38.724  21.343  26.003  1.00  0.00    +0.000 C 
ATOM     23  O2  UNL A   1      39.307  20.271  26.137  1.00  0.00    +0.000 O 
BRANCH   22   21
ATOM    116  H28 UNL A   1      36.724  21.301  26.077  1.00  0.00    +0.000 H 
ATOM     21  N2  UNL A   1      37.473  21.384  25.444  1.00  0.00    +0.000 N 
BRANCH   21   20
ATOM    114  H26 UNL A   1      37.885  22.036  23.532  1.00  0.00    +0.000 H 
ATOM    115  H27 UNL A   1      36.924  20.554  23.653  1.00  0.00    +0.000 H 
ATOM     20  C17 UNL A   1      37.094  21.534  24.049  1.00  0.00    +0.000 C 
BRANCH   20   19
ATOM    113  H25 UNL A   1      35.030  21.613  23.722  1.00  0.00    +0.000 H 
ATOM     19  C16 UNL A   1      35.808  22.333  23.871  1.00  0.00    +0.000 C 
ATOM    112  H24 UNL A   1      35.942  22.995  23.042  1.00  0.00    +0.000 H 
BRANCH   19   18
ATOM     18  C15 UNL A   1      35.387  23.169  25.082  1.00  0.00    +0.000 C 
ATOM    110  H22 UNL A   1      34.584  22.657  25.572  1.00  0.00    +0.000 H 
ATOM    111  H23 UNL A   1      36.263  23.274  25.685  1.00  0.00    +0.000 H 
BRANCH   18   17
ATOM     17  C14 UNL A   1      34.916  24.593  24.770  1.00  0.00    +0.000 C 
ATOM    108  H20 UNL A   1      35.778  25.178  24.521  1.00  0.00    +0.000 H 
ATOM    109  H21 UNL A   1      34.211  24.502  23.970  1.00  0.00    +0.000 H 
BRANCH   17   16
ATOM    106  H18 UNL A   1      33.258  24.783  26.087  1.00  0.00    +0.000 H 
ATOM    107  H19 UNL A   1      34.832  25.299  26.751  1.00  0.00    +0.000 H 
ATOM     16  C13 UNL A   1      34.175  25.306  25.906  1.00  0.00    +0.000 C 
BRANCH   16   15
ATOM    105  H17 UNL A   1      34.539  27.136  24.901  1.00  0.00    +0.000 H 
ATOM     15  C12 UNL A   1      33.842  26.766  25.624  1.00  0.00    +0.000 C 
ATOM    104  H16 UNL A   1      33.909  27.322  26.537  1.00  0.00    +0.000 H 
BRANCH   15   14
ATOM     14  N1  UNL A   1      32.502  26.910  25.082  1.00  0.00    +0.000 N 
ATOM    103  H15 UNL A   1      32.441  27.392  24.226  1.00  0.00    +0.000 H 
BRANCH   14   12
ATOM     12  C11 UNL A   1      31.313  26.471  25.593  1.00  0.00    +0.000 C 
ATOM     13  O1  UNL A   1      30.956  26.939  26.678  1.00  0.00    +0.000 O 
BRANCH   12    9
ATOM      9  C9  UNL A   1      30.430  25.482  24.837  1.00  0.00    +0.000 C 
ATOM    100  H12 UNL A   1      29.641  25.125  25.463  1.00  0.00    +0.000 H 
BRANCH    9    8
ATOM     98  H10 UNL A   1      31.742  21.122  25.892  1.00  0.00    +0.000 H 
ATOM     99  H11 UNL A   1      30.785  23.272  26.429  1.00  0.00    +0.000 H 
ATOM    132  H44 UNL A   1      32.373  22.396  21.942  1.00  0.00    +0.000 H 
ATOM      5  C5  UNL A   1      32.113  21.572  23.865  1.00  0.00    +0.000 C 
ATOM      6  C6  UNL A   1      31.674  21.848  25.161  1.00  0.00    +0.000 C 
ATOM      7  C7  UNL A   1      31.143  23.101  25.477  1.00  0.00    +0.000 C 
ATOM    131  H43 UNL A   1      31.491  24.574  22.501  1.00  0.00    +0.000 H 
ATOM      8  C8  UNL A   1      31.085  24.136  24.526  1.00  0.00    +0.000 C 
ATOM     87  C63 UNL A   1      31.536  23.843  23.228  1.00  0.00    +0.000 C 
ATOM     88  C64 UNL A   1      32.045  22.582  22.903  1.00  0.00    +0.000 C 
BRANCH    5    4
ATOM     97  H9  UNL A   1      33.424  20.272  22.869  1.00  0.00    +0.000 H 
ATOM      4  C4  UNL A   1      32.560  20.179  23.494  1.00  0.00    +0.000 C 
ATOM     96  H8  UNL A   1      31.757  19.685  22.986  1.00  0.00    +0.000 H 
BRANCH    4    2
ATOM      2  C2  UNL A   1      32.960  19.335  24.722  1.00  0.00    +0.000 C 
ATOM     92  H4  UNL A   1      32.604  19.850  25.591  1.00  0.00    +0.000 H 
BRANCH    2    1
ATOM      1  C1  UNL A   1      32.311  17.948  24.707  1.00  0.00    +0.000 C 
ATOM     90  H2  UNL A   1      32.601  17.409  25.585  1.00  0.00    +0.000 H 
ATOM     91  H3  UNL A   1      32.635  17.413  23.837  1.00  0.00    +0.000 H 
ATOM     89  H1  UNL A   1      31.247  18.051  24.687  1.00  0.00    +0.000 H 
ENDBRANCH    2    1
BRANCH    2    3
ATOM      3  C3  UNL A   1      34.481  19.195  24.790  1.00  0.00    +0.000 C 
ATOM     93  H5  UNL A   1      34.934  20.156  24.658  1.00  0.00    +0.000 H 
ATOM     94  H6  UNL A   1      34.813  18.535  24.017  1.00  0.00    +0.000 H 
ATOM     95  H7  UNL A   1      34.761  18.797  25.743  1.00  0.00    +0.000 H 
ENDBRANCH    2    3
ENDBRANCH    4    2
ENDBRANCH    5    4
ENDBRANCH    9    8
BRANCH    9   10
ATOM     10  C10 UNL A   1      29.790  26.247  23.672  1.00  0.00    +0.000 C 
ATOM     11  F1  UNL A   1      29.343  27.465  24.081  1.00  0.00    +0.000 F 
ATOM    101  H13 UNL A   1      28.965  25.680  23.293  1.00  0.00    +0.000 H 
ATOM    102  H14 UNL A   1      30.526  26.389  22.910  1.00  0.00    +0.000 H 
ENDBRANCH    9   10
ENDBRANCH   12    9
ENDBRANCH   14   12
ENDBRANCH   15   14
ENDBRANCH   16   15
ENDBRANCH   17   16
ENDBRANCH   18   17
ENDBRANCH   19   18
ENDBRANCH   20   19
ENDBRANCH   21   20
ENDBRANCH   22   21
ENDBRANCH   24   22
ENDBRANCH   28   27
BRANCH   32   33
ATOM     33  C27 UNL A   1      38.969  30.670  30.621  1.00  0.00    +0.000 C 
ATOM     34  C28 UNL A   1      37.876  31.221  29.938  1.00  0.00    +0.000 C 
ATOM     35  F2  UNL A   1      37.955  31.462  28.620  1.00  0.00    +0.000 F 
ATOM     36  C29 UNL A   1      36.704  31.554  30.611  1.00  0.00    +0.000 C 
ATOM     37  F3  UNL A   1      35.684  32.111  29.943  1.00  0.00    +0.000 F 
ATOM     38  C30 UNL A   1      36.592  31.315  31.972  1.00  0.00    +0.000 C 
ATOM     39  F4  UNL A   1      35.457  31.624  32.616  1.00  0.00    +0.000 F 
ATOM     40  C31 UNL A   1      37.657  30.761  32.667  1.00  0.00    +0.000 C 
ATOM     41  F5  UNL A   1      37.545  30.519  33.980  1.00  0.00    +0.000 F 
ATOM     42  C32 UNL A   1      38.840  30.451  32.001  1.00  0.00    +0.000 C 
ATOM     43  F6  UNL A   1      39.855  29.923  32.700  1.00  0.00    +0.000 F 
ENDBRANCH   32   33
BRANCH   49   50
ATOM     50  C38 UNL A   1      45.538  33.333  29.341  1.00  0.00    +0.000 C 
ATOM     51  C39 UNL A   1      46.338  33.391  30.490  1.00  0.00    +0.000 C 
ATOM     52  F7  UNL A   1      46.375  32.354  31.340  1.00  0.00    +0.000 F 
ATOM     53  C40 UNL A   1      47.076  34.534  30.789  1.00  0.00    +0.000 C 
ATOM     54  F8  UNL A   1      47.798  34.585  31.917  1.00  0.00    +0.000 F 
ATOM     55  C41 UNL A   1      47.051  35.623  29.931  1.00  0.00    +0.000 C 
ATOM     56  F9  UNL A   1      47.766  36.720  30.219  1.00  0.00    +0.000 F 
ATOM     57  C42 UNL A   1      46.280  35.579  28.779  1.00  0.00    +0.000 C 
ATOM     58  F10 UNL A   1      46.265  36.627  27.943  1.00  0.00    +0.000 F 
ATOM     59  C43 UNL A   1      45.521  34.449  28.491  1.00  0.00    +0.000 C 
ATOM     60  F11 UNL A   1      44.775  34.440  27.376  1.00  0.00    +0.000 F 
ENDBRANCH   49   50
BRANCH   64   65
ATOM     65  C47 UNL A   1      47.118  27.596  25.737  1.00  0.00    +0.000 C 
ATOM     66  C48 UNL A   1      48.221  27.058  26.416  1.00  0.00    +0.000 C 
ATOM     67  F12 UNL A   1      48.180  26.913  27.748  1.00  0.00    +0.000 F 
ATOM     68  C49 UNL A   1      49.390  26.721  25.737  1.00  0.00    +0.000 C 
ATOM     69  F13 UNL A   1      50.450  26.265  26.419  1.00  0.00    +0.000 F 
ATOM     70  C50 UNL A   1      49.466  26.880  24.362  1.00  0.00    +0.000 C 
ATOM     71  F14 UNL A   1      50.593  26.562  23.710  1.00  0.00    +0.000 F 
ATOM     72  C51 UNL A   1      48.377  27.382  23.665  1.00  0.00    +0.000 C 
ATOM     73  F15 UNL A   1      48.443  27.527  22.334  1.00  0.00    +0.000 F 
ATOM     74  C52 UNL A   1      47.218  27.748  24.346  1.00  0.00    +0.000 C 
ATOM     75  F16 UNL A   1      46.190  28.253  23.650  1.00  0.00    +0.000 F 
ENDBRANCH   64   65
TORSDOF 21
ENDMDL
