MODEL 1
REMARK VINA RESULT:     -11.3      0.000      0.000
ROOT
ATOM     34  C26 UNL A   1      38.060  30.177  29.901  1.00  0.00    +0.000 C 
ATOM     35  C27 UNL A   1      38.313  30.654  31.303  1.00  0.00    +0.000 C 
ATOM     36  N4  UNL A   1      39.322  30.384  32.094  1.00  0.00    +0.000 N 
ATOM     37  C28 UNL A   1      39.087  31.085  33.269  1.00  0.00    +0.000 C 
ATOM     38  C29 UNL A   1      39.828  31.105  34.404  1.00  0.00    +0.000 C 
ATOM     50  C36 UNL A   1      41.052  30.367  34.591  1.00  0.00    +0.000 C 
ATOM     51  C37 UNL A   1      41.872  30.317  35.705  1.00  0.00    +0.000 C 
ATOM     52  C38 UNL A   1      42.962  29.489  35.414  1.00  0.00    +0.000 C 
ATOM     53  C39 UNL A   1      42.801  28.988  34.133  1.00  0.00    +0.000 C 
ATOM     54  N5  UNL A   1      41.631  29.543  33.636  1.00  0.00    +0.000 N 
ATOM     55  C40 UNL A   1      43.647  28.071  33.417  1.00  0.00    +0.000 C 
ATOM     67  C47 UNL A   1      43.418  27.615  32.162  1.00  0.00    +0.000 C 
ATOM     68  N6  UNL A   1      42.381  27.931  31.296  1.00  0.00    +0.000 N 
ATOM     69  C48 UNL A   1      42.630  27.281  30.186  1.00  0.00    +0.000 C 
ATOM     70  C49 UNL A   1      41.841  27.253  28.911  1.00  0.00    +0.000 C 
ATOM     82  C56 UNL A   1      40.719  27.990  28.821  1.00  0.00    +0.000 C 
ATOM     83  C57 UNL A   1      39.845  28.047  27.655  1.00  0.00    +0.000 C 
ATOM     84  C58 UNL A   1      38.833  28.886  27.912  1.00  0.00    +0.000 C 
ATOM     85  C59 UNL A   1      38.959  29.386  29.284  1.00  0.00    +0.000 C 
ATOM     86  N7  UNL A   1      40.132  28.834  29.732  1.00  0.00    +0.000 N 
ATOM     87  C60 UNL A   1      43.854  26.470  30.223  1.00  0.00    +0.000 C 
ATOM     88  C61 UNL A   1      44.275  26.680  31.462  1.00  0.00    +0.000 C 
ATOM     89  C62 UNL A   1      37.852  31.818  33.080  1.00  0.00    +0.000 C 
ATOM     90  C63 UNL A   1      37.314  31.556  31.896  1.00  0.00    +0.000 C 
ATOM    118  H26 UNL A   1      41.707  30.808  36.599  1.00  0.00    +0.000 H 
ATOM    119  H27 UNL A   1      43.752  29.286  36.048  1.00  0.00    +0.000 H 
ATOM    120  H28 UNL A   1      41.265  29.376  32.737  1.00  0.00    +0.000 H 
ATOM    121  H29 UNL A   1      39.982  27.523  26.776  1.00  0.00    +0.000 H 
ATOM    122  H30 UNL A   1      38.084  29.141  27.250  1.00  0.00    +0.000 H 
ATOM    123  H31 UNL A   1      40.515  29.023  30.618  1.00  0.00    +0.000 H 
ATOM    124  H32 UNL A   1      44.276  25.891  29.480  1.00  0.00    +0.000 H 
ATOM    125  H33 UNL A   1      45.108  26.234  31.876  1.00  0.00    +0.000 H 
ATOM    126  H34 UNL A   1      37.444  32.461  33.776  1.00  0.00    +0.000 H 
ATOM    127  H35 UNL A   1      36.426  31.897  31.496  1.00  0.00    +0.000 H 
ENDROOT
BRANCH   34   33
ATOM    129  H37 UNL A   1      35.110  32.988  27.684  1.00  0.00    +0.000 H 
ATOM     33  C25 UNL A   1      36.800  30.498  29.183  1.00  0.00    +0.000 C 
ATOM    116  H24 UNL A   1      34.132  28.904  27.906  1.00  0.00    +0.000 H 
ATOM    117  H25 UNL A   1      36.070  28.515  29.303  1.00  0.00    +0.000 H 
ATOM     91  C64 UNL A   1      36.525  31.783  28.691  1.00  0.00    +0.000 C 
ATOM     92  C65 UNL A   1      35.326  32.034  28.014  1.00  0.00    +0.000 C 
ATOM    128  H36 UNL A   1      37.207  32.544  28.830  1.00  0.00    +0.000 H 
ATOM     30  C22 UNL A   1      34.422  30.992  27.784  1.00  0.00    +0.000 C 
ATOM     31  C23 UNL A   1      34.743  29.691  28.174  1.00  0.00    +0.000 C 
ATOM     32  C24 UNL A   1      35.888  29.460  28.928  1.00  0.00    +0.000 C 
BRANCH   30    2
ATOM      1  O1  UNL A   1      32.757  32.452  27.008  1.00  0.00    +0.000 O 
ATOM      2  C1  UNL A   1      33.125  31.287  27.134  1.00  0.00    +0.000 C 
BRANCH    2    3
ATOM      3  N1  UNL A   1      32.323  30.253  26.711  1.00  0.00    +0.000 N 
ATOM     93  H1  UNL A   1      32.191  29.523  27.358  1.00  0.00    +0.000 H 
BRANCH    3    4
ATOM      4  C2  UNL A   1      31.643  30.092  25.436  1.00  0.00    +0.000 C 
ATOM     94  H2  UNL A   1      31.383  31.062  25.067  1.00  0.00    +0.000 H 
ATOM     95  H3  UNL A   1      30.783  29.481  25.613  1.00  0.00    +0.000 H 
BRANCH    4    5
ATOM     97  H5  UNL A   1      31.832  28.679  23.913  1.00  0.00    +0.000 H 
ATOM      5  C3  UNL A   1      32.485  29.384  24.385  1.00  0.00    +0.000 C 
ATOM     96  H4  UNL A   1      32.872  30.127  23.719  1.00  0.00    +0.000 H 
BRANCH    5    6
ATOM     98  H6  UNL A   1      34.141  29.151  25.679  1.00  0.00    +0.000 H 
ATOM     99  H7  UNL A   1      34.280  28.366  24.069  1.00  0.00    +0.000 H 
ATOM      6  C4  UNL A   1      33.662  28.572  24.918  1.00  0.00    +0.000 C 
BRANCH    6    7
ATOM    100  H8  UNL A   1      32.327  26.953  25.204  1.00  0.00    +0.000 H 
ATOM    101  H9  UNL A   1      33.434  27.321  26.575  1.00  0.00    +0.000 H 
ATOM      7  C5  UNL A   1      33.319  27.205  25.517  1.00  0.00    +0.000 C 
BRANCH    7    8
ATOM    102  H10 UNL A   1      35.250  26.354  25.291  1.00  0.00    +0.000 H 
ATOM    103  H11 UNL A   1      34.006  25.808  24.116  1.00  0.00    +0.000 H 
ATOM      8  C6  UNL A   1      34.239  26.039  25.135  1.00  0.00    +0.000 C 
BRANCH    8    9
ATOM      9  C7  UNL A   1      34.030  24.741  25.911  1.00  0.00    +0.000 C 
ATOM    105  H13 UNL A   1      34.053  24.977  26.954  1.00  0.00    +0.000 H 
ATOM    104  H12 UNL A   1      33.089  24.317  25.624  1.00  0.00    +0.000 H 
BRANCH    9   10
ATOM     10  N2  UNL A   1      35.074  23.767  25.655  1.00  0.00    +0.000 N 
ATOM    106  H14 UNL A   1      35.808  23.747  26.311  1.00  0.00    +0.000 H 
BRANCH   10   11
ATOM     11  C8  UNL A   1      35.178  22.868  24.625  1.00  0.00    +0.000 C 
ATOM     12  O2  UNL A   1      36.140  22.913  23.865  1.00  0.00    +0.000 O 
BRANCH   11   13
ATOM    107  H15 UNL A   1      34.868  20.756  26.121  1.00  0.00    +0.000 H 
ATOM    108  H16 UNL A   1      33.252  18.955  25.940  1.00  0.00    +0.000 H 
ATOM     13  C9  UNL A   1      34.153  21.820  24.436  1.00  0.00    +0.000 C 
ATOM     14  C10 UNL A   1      34.169  20.765  25.361  1.00  0.00    +0.000 C 
ATOM     15  C11 UNL A   1      33.244  19.729  25.257  1.00  0.00    +0.000 C 
ATOM    110  H18 UNL A   1      31.602  20.786  22.540  1.00  0.00    +0.000 H 
ATOM     17  C13 UNL A   1      32.306  20.787  23.295  1.00  0.00    +0.000 C 
ATOM     18  C14 UNL A   1      33.237  21.836  23.364  1.00  0.00    +0.000 C 
ATOM     16  C12 UNL A   1      32.309  19.743  24.227  1.00  0.00    +0.000 C 
ATOM    109  H17 UNL A   1      31.617  18.982  24.150  1.00  0.00    +0.000 H 
BRANCH   18   19
ATOM     19  N3  UNL A   1      33.223  22.881  22.416  1.00  0.00    +0.000 N 
ATOM    111  H19 UNL A   1      33.747  22.698  21.602  1.00  0.00    +0.000 H 
BRANCH   19   20
ATOM    112  H20 UNL A   1      33.720  24.882  20.807  1.00  0.00    +0.000 H 
ATOM    113  H21 UNL A   1      32.606  27.028  20.706  1.00  0.00    +0.000 H 
ATOM    114  H22 UNL A   1      30.831  27.553  22.270  1.00  0.00    +0.000 H 
ATOM    115  H23 UNL A   1      31.273  23.755  24.024  1.00  0.00    +0.000 H 
ATOM     20  C15 UNL A   1      32.595  24.138  22.429  1.00  0.00    +0.000 C 
ATOM     21  C16 UNL A   1      32.964  25.095  21.476  1.00  0.00    +0.000 C 
ATOM     22  C17 UNL A   1      32.323  26.334  21.417  1.00  0.00    +0.000 C 
ATOM     23  C18 UNL A   1      31.304  26.637  22.317  1.00  0.00    +0.000 C 
ATOM     24  C19 UNL A   1      30.919  25.702  23.287  1.00  0.00    +0.000 C 
ATOM     25  C20 UNL A   1      29.814  26.033  24.260  1.00  0.00    +0.000 C 
ATOM     26  F1  UNL A   1      30.002  27.235  24.871  1.00  0.00    +0.000 F 
ATOM     27  F2  UNL A   1      28.595  26.101  23.661  1.00  0.00    +0.000 F 
ATOM     28  F3  UNL A   1      29.687  25.124  25.267  1.00  0.00    +0.000 F 
ATOM     29  C21 UNL A   1      31.564  24.454  23.323  1.00  0.00    +0.000 C 
ENDBRANCH   19   20
ENDBRANCH   18   19
ENDBRANCH   11   13
ENDBRANCH   10   11
ENDBRANCH    9   10
ENDBRANCH    8    9
ENDBRANCH    7    8
ENDBRANCH    6    7
ENDBRANCH    5    6
ENDBRANCH    4    5
ENDBRANCH    3    4
ENDBRANCH    2    3
ENDBRANCH   30    2
ENDBRANCH   34   33
BRANCH   38   39
ATOM     39  C30 UNL A   1      39.343  31.955  35.542  1.00  0.00    +0.000 C 
ATOM     40  C31 UNL A   1      38.455  31.454  36.504  1.00  0.00    +0.000 C 
ATOM     41  F4  UNL A   1      37.958  30.214  36.383  1.00  0.00    +0.000 F 
ATOM     42  C32 UNL A   1      38.053  32.235  37.586  1.00  0.00    +0.000 C 
ATOM     43  F5  UNL A   1      37.180  31.746  38.476  1.00  0.00    +0.000 F 
ATOM     44  C33 UNL A   1      38.553  33.520  37.741  1.00  0.00    +0.000 C 
ATOM     45  F6  UNL A   1      38.176  34.265  38.790  1.00  0.00    +0.000 F 
ATOM     46  C34 UNL A   1      39.439  34.033  36.807  1.00  0.00    +0.000 C 
ATOM     47  F7  UNL A   1      39.931  35.270  36.962  1.00  0.00    +0.000 F 
ATOM     48  C35 UNL A   1      39.824  33.263  35.712  1.00  0.00    +0.000 C 
ATOM     49  F8  UNL A   1      40.680  33.789  34.823  1.00  0.00    +0.000 F 
ENDBRANCH   38   39
BRANCH   55   56
ATOM     65  C46 UNL A   1      44.830  26.386  34.873  1.00  0.00    +0.000 C 
ATOM     66  F13 UNL A   1      43.679  25.711  35.007  1.00  0.00    +0.000 F 
ATOM     56  C41 UNL A   1      44.878  27.557  34.104  1.00  0.00    +0.000 C 
ATOM     57  C42 UNL A   1      46.105  28.228  33.998  1.00  0.00    +0.000 C 
ATOM     58  F9  UNL A   1      46.204  29.343  33.258  1.00  0.00    +0.000 F 
ATOM     59  C43 UNL A   1      47.249  27.726  34.611  1.00  0.00    +0.000 C 
ATOM     60  F10 UNL A   1      48.423  28.352  34.450  1.00  0.00    +0.000 F 
ATOM     61  C44 UNL A   1      47.181  26.566  35.367  1.00  0.00    +0.000 C 
ATOM     62  F11 UNL A   1      48.284  26.079  35.952  1.00  0.00    +0.000 F 
ATOM     63  C45 UNL A   1      45.971  25.901  35.507  1.00  0.00    +0.000 C 
ATOM     64  F12 UNL A   1      45.902  24.783  36.243  1.00  0.00    +0.000 F 
ENDBRANCH   55   56
BRANCH   70   71
ATOM     71  C50 UNL A   1      42.280  26.436  27.749  1.00  0.00    +0.000 C 
ATOM     72  C51 UNL A   1      41.790  25.140  27.548  1.00  0.00    +0.000 C 
ATOM     73  F14 UNL A   1      40.933  24.602  28.428  1.00  0.00    +0.000 F 
ATOM     74  C52 UNL A   1      42.205  24.379  26.457  1.00  0.00    +0.000 C 
ATOM     75  F15 UNL A   1      41.753  23.126  26.307  1.00  0.00    +0.000 F 
ATOM     76  C53 UNL A   1      43.091  24.910  25.533  1.00  0.00    +0.000 C 
ATOM     77  F16 UNL A   1      43.482  24.181  24.478  1.00  0.00    +0.000 F 
ATOM     78  C54 UNL A   1      43.578  26.197  25.704  1.00  0.00    +0.000 C 
ATOM     79  F17 UNL A   1      44.420  26.723  24.804  1.00  0.00    +0.000 F 
ATOM     80  C55 UNL A   1      43.188  26.948  26.810  1.00  0.00    +0.000 C 
ATOM     81  F18 UNL A   1      43.681  28.186  26.956  1.00  0.00    +0.000 F 
ENDBRANCH   70   71
TORSDOF 17
ENDMDL
MODEL 2
REMARK VINA RESULT:     -11.3      0.471      1.649
ROOT
ATOM     34  C26 UNL A   1      38.324  30.339  30.036  1.00  0.00    +0.000 C 
ATOM     35  C27 UNL A   1      38.600  30.785  31.444  1.00  0.00    +0.000 C 
ATOM     36  N4  UNL A   1      39.606  30.473  32.223  1.00  0.00    +0.000 N 
ATOM     37  C28 UNL A   1      39.399  31.162  33.411  1.00  0.00    +0.000 C 
ATOM     38  C29 UNL A   1      40.148  31.142  34.541  1.00  0.00    +0.000 C 
ATOM     50  C36 UNL A   1      41.351  30.365  34.707  1.00  0.00    +0.000 C 
ATOM     51  C37 UNL A   1      42.177  30.274  35.815  1.00  0.00    +0.000 C 
ATOM     52  C38 UNL A   1      43.240  29.420  35.503  1.00  0.00    +0.000 C 
ATOM     53  C39 UNL A   1      43.056  28.944  34.216  1.00  0.00    +0.000 C 
ATOM     54  N5  UNL A   1      41.900  29.540  33.735  1.00  0.00    +0.000 N 
ATOM     55  C40 UNL A   1      43.870  28.014  33.479  1.00  0.00    +0.000 C 
ATOM     67  C47 UNL A   1      43.619  27.586  32.218  1.00  0.00    +0.000 C 
ATOM     68  N6  UNL A   1      42.586  27.946  31.365  1.00  0.00    +0.000 N 
ATOM     69  C48 UNL A   1      42.810  27.306  30.243  1.00  0.00    +0.000 C 
ATOM     70  C49 UNL A   1      42.012  27.322  28.973  1.00  0.00    +0.000 C 
ATOM     82  C56 UNL A   1      40.911  28.093  28.903  1.00  0.00    +0.000 C 
ATOM     83  C57 UNL A   1      40.031  28.193  27.744  1.00  0.00    +0.000 C 
ATOM     84  C58 UNL A   1      39.046  29.058  28.022  1.00  0.00    +0.000 C 
ATOM     85  C59 UNL A   1      39.196  29.531  29.400  1.00  0.00    +0.000 C 
ATOM     86  N7  UNL A   1      40.354  28.939  29.831  1.00  0.00    +0.000 N 
ATOM     87  C60 UNL A   1      44.009  26.460  30.259  1.00  0.00    +0.000 C 
ATOM     88  C61 UNL A   1      44.445  26.637  31.497  1.00  0.00    +0.000 C 
ATOM     89  C62 UNL A   1      38.185  31.933  33.242  1.00  0.00    +0.000 C 
ATOM     90  C63 UNL A   1      37.632  31.707  32.058  1.00  0.00    +0.000 C 
ATOM    118  H26 UNL A   1      42.032  30.755  36.717  1.00  0.00    +0.000 H 
ATOM    119  H27 UNL A   1      44.028  29.183  36.127  1.00  0.00    +0.000 H 
ATOM    120  H28 UNL A   1      41.523  29.399  32.836  1.00  0.00    +0.000 H 
ATOM    121  H29 UNL A   1      40.148  27.681  26.856  1.00  0.00    +0.000 H 
ATOM    122  H30 UNL A   1      38.300  29.345  27.368  1.00  0.00    +0.000 H 
ATOM    123  H31 UNL A   1      40.749  29.102  30.717  1.00  0.00    +0.000 H 
ATOM    124  H32 UNL A   1      44.409  25.880  29.503  1.00  0.00    +0.000 H 
ATOM    125  H33 UNL A   1      45.267  26.160  31.899  1.00  0.00    +0.000 H 
ATOM    126  H34 UNL A   1      37.801  32.577  33.951  1.00  0.00    +0.000 H 
ATOM    127  H35 UNL A   1      36.751  32.079  31.669  1.00  0.00    +0.000 H 
ENDROOT
BRANCH   34   33
ATOM    129  H37 UNL A   1      35.547  33.197  27.662  1.00  0.00    +0.000 H 
ATOM     33  C25 UNL A   1      37.070  30.707  29.332  1.00  0.00    +0.000 C 
ATOM    116  H24 UNL A   1      34.221  29.256  28.296  1.00  0.00    +0.000 H 
ATOM    117  H25 UNL A   1      36.172  28.819  29.661  1.00  0.00    +0.000 H 
ATOM     91  C64 UNL A   1      36.889  31.962  28.731  1.00  0.00    +0.000 C 
ATOM     92  C65 UNL A   1      35.691  32.261  28.072  1.00  0.00    +0.000 C 
ATOM    128  H36 UNL A   1      37.641  32.668  28.776  1.00  0.00    +0.000 H 
ATOM     30  C22 UNL A   1      34.690  31.289  27.970  1.00  0.00    +0.000 C 
ATOM     31  C23 UNL A   1      34.910  30.005  28.470  1.00  0.00    +0.000 C 
ATOM     32  C24 UNL A   1      36.059  29.739  29.205  1.00  0.00    +0.000 C 
BRANCH   30    2
ATOM      1  O1  UNL A   1      33.037  32.815  27.302  1.00  0.00    +0.000 O 
ATOM      2  C1  UNL A   1      33.398  31.643  27.338  1.00  0.00    +0.000 C 
BRANCH    2    3
ATOM      3  N1  UNL A   1      32.594  30.650  26.828  1.00  0.00    +0.000 N 
ATOM     93  H1  UNL A   1      31.891  30.319  27.431  1.00  0.00    +0.000 H 
BRANCH    3    4
ATOM      4  C2  UNL A   1      32.643  30.023  25.517  1.00  0.00    +0.000 C 
ATOM     94  H2  UNL A   1      33.174  30.671  24.853  1.00  0.00    +0.000 H 
ATOM     95  H3  UNL A   1      31.631  29.865  25.207  1.00  0.00    +0.000 H 
BRANCH    4    5
ATOM     97  H5  UNL A   1      33.072  28.207  24.586  1.00  0.00    +0.000 H 
ATOM      5  C3  UNL A   1      33.328  28.666  25.518  1.00  0.00    +0.000 C 
ATOM     96  H4  UNL A   1      34.378  28.827  25.646  1.00  0.00    +0.000 H 
BRANCH    5    6
ATOM     98  H6  UNL A   1      31.828  27.873  26.781  1.00  0.00    +0.000 H 
ATOM     99  H7  UNL A   1      33.497  27.882  27.446  1.00  0.00    +0.000 H 
ATOM      6  C4  UNL A   1      32.867  27.694  26.602  1.00  0.00    +0.000 C 
BRANCH    6    7
ATOM    100  H8  UNL A   1      32.158  25.880  25.768  1.00  0.00    +0.000 H 
ATOM    101  H9  UNL A   1      33.194  25.730  27.233  1.00  0.00    +0.000 H 
ATOM      7  C5  UNL A   1      33.037  26.205  26.287  1.00  0.00    +0.000 C 
BRANCH    7    8
ATOM    102  H10 UNL A   1      35.025  26.535  25.621  1.00  0.00    +0.000 H 
ATOM    103  H11 UNL A   1      33.902  25.810  24.421  1.00  0.00    +0.000 H 
ATOM      8  C6  UNL A   1      34.252  25.820  25.433  1.00  0.00    +0.000 C 
BRANCH    8    9
ATOM      9  C7  UNL A   1      34.830  24.429  25.683  1.00  0.00    +0.000 C 
ATOM    105  H13 UNL A   1      35.418  24.477  26.576  1.00  0.00    +0.000 H 
ATOM    104  H12 UNL A   1      34.022  23.733  25.781  1.00  0.00    +0.000 H 
BRANCH    9   10
ATOM     10  N2  UNL A   1      35.696  23.987  24.607  1.00  0.00    +0.000 N 
ATOM    106  H14 UNL A   1      36.486  24.550  24.437  1.00  0.00    +0.000 H 
BRANCH   10   11
ATOM     11  C8  UNL A   1      35.567  22.890  23.795  1.00  0.00    +0.000 C 
ATOM     12  O2  UNL A   1      36.405  22.665  22.928  1.00  0.00    +0.000 O 
BRANCH   11   13
ATOM    107  H15 UNL A   1      35.529  20.843  25.408  1.00  0.00    +0.000 H 
ATOM    108  H16 UNL A   1      33.771  19.218  25.807  1.00  0.00    +0.000 H 
ATOM     13  C9  UNL A   1      34.438  21.952  23.973  1.00  0.00    +0.000 C 
ATOM     14  C10 UNL A   1      34.635  20.914  24.897  1.00  0.00    +0.000 C 
ATOM     15  C11 UNL A   1      33.629  19.979  25.124  1.00  0.00    +0.000 C 
ATOM    110  H18 UNL A   1      31.343  21.165  22.987  1.00  0.00    +0.000 H 
ATOM     17  C13 UNL A   1      32.241  21.102  23.493  1.00  0.00    +0.000 C 
ATOM     18  C14 UNL A   1      33.244  22.049  23.229  1.00  0.00    +0.000 C 
ATOM     16  C12 UNL A   1      32.429  20.077  24.426  1.00  0.00    +0.000 C 
ATOM    109  H17 UNL A   1      31.678  19.392  24.596  1.00  0.00    +0.000 H 
BRANCH   18   19
ATOM     19  N3  UNL A   1      33.041  23.077  22.284  1.00  0.00    +0.000 N 
ATOM    111  H19 UNL A   1      33.208  22.808  21.350  1.00  0.00    +0.000 H 
BRANCH   19   20
ATOM    112  H20 UNL A   1      34.193  25.170  21.220  1.00  0.00    +0.000 H 
ATOM    113  H21 UNL A   1      33.501  27.485  21.358  1.00  0.00    +0.000 H 
ATOM    114  H22 UNL A   1      31.553  28.097  22.663  1.00  0.00    +0.000 H 
ATOM    115  H23 UNL A   1      30.973  24.054  23.669  1.00  0.00    +0.000 H 
ATOM     20  C15 UNL A   1      32.645  24.416  22.438  1.00  0.00    +0.000 C 
ATOM     21  C16 UNL A   1      33.360  25.421  21.776  1.00  0.00    +0.000 C 
ATOM     22  C17 UNL A   1      32.964  26.757  21.856  1.00  0.00    +0.000 C 
ATOM     23  C18 UNL A   1      31.845  27.110  22.607  1.00  0.00    +0.000 C 
ATOM     24  C19 UNL A   1      31.114  26.126  23.288  1.00  0.00    +0.000 C 
ATOM     25  C20 UNL A   1      29.902  26.512  24.100  1.00  0.00    +0.000 C 
ATOM     26  F1  UNL A   1      30.158  27.534  24.962  1.00  0.00    +0.000 F 
ATOM     27  F2  UNL A   1      28.864  26.924  23.323  1.00  0.00    +0.000 F 
ATOM     28  F3  UNL A   1      29.417  25.496  24.866  1.00  0.00    +0.000 F 
ATOM     29  C21 UNL A   1      31.518  24.785  23.184  1.00  0.00    +0.000 C 
ENDBRANCH   19   20
ENDBRANCH   18   19
ENDBRANCH   11   13
ENDBRANCH   10   11
ENDBRANCH    9   10
ENDBRANCH    8    9
ENDBRANCH    7    8
ENDBRANCH    6    7
ENDBRANCH    5    6
ENDBRANCH    4    5
ENDBRANCH    3    4
ENDBRANCH    2    3
ENDBRANCH   30    2
ENDBRANCH   34   33
BRANCH   38   39
ATOM     39  C30 UNL A   1      39.695  31.988  35.695  1.00  0.00    +0.000 C 
ATOM     40  C31 UNL A   1      40.214  33.273  35.909  1.00  0.00    +0.000 C 
ATOM     41  F4  UNL A   1      41.189  33.747  35.120  1.00  0.00    +0.000 F 
ATOM     42  C32 UNL A   1      39.747  34.071  36.953  1.00  0.00    +0.000 C 
ATOM     43  F5  UNL A   1      40.279  35.283  37.157  1.00  0.00    +0.000 F 
ATOM     44  C33 UNL A   1      38.737  33.610  37.784  1.00  0.00    +0.000 C 
ATOM     45  F6  UNL A   1      38.280  34.383  38.778  1.00  0.00    +0.000 F 
ATOM     46  C34 UNL A   1      38.203  32.345  37.585  1.00  0.00    +0.000 C 
ATOM     47  F7  UNL A   1      37.218  31.904  38.380  1.00  0.00    +0.000 F 
ATOM     48  C35 UNL A   1      38.683  31.537  36.558  1.00  0.00    +0.000 C 
ATOM     49  F8  UNL A   1      38.149  30.318  36.393  1.00  0.00    +0.000 F 
ENDBRANCH   38   39
BRANCH   55   56
ATOM     65  C46 UNL A   1      45.015  26.267  34.891  1.00  0.00    +0.000 C 
ATOM     66  F13 UNL A   1      43.848  25.618  35.014  1.00  0.00    +0.000 F 
ATOM     56  C41 UNL A   1      45.090  27.454  34.149  1.00  0.00    +0.000 C 
ATOM     57  C42 UNL A   1      46.333  28.096  34.054  1.00  0.00    +0.000 C 
ATOM     58  F9  UNL A   1      46.458  29.224  33.339  1.00  0.00    +0.000 F 
ATOM     59  C43 UNL A   1      47.466  27.551  34.650  1.00  0.00    +0.000 C 
ATOM     60  F10 UNL A   1      48.655  28.151  34.499  1.00  0.00    +0.000 F 
ATOM     61  C44 UNL A   1      47.371  26.376  35.380  1.00  0.00    +0.000 C 
ATOM     62  F11 UNL A   1      48.464  25.848  35.949  1.00  0.00    +0.000 F 
ATOM     63  C45 UNL A   1      46.145  25.739  35.509  1.00  0.00    +0.000 C 
ATOM     64  F12 UNL A   1      46.051  24.606  36.219  1.00  0.00    +0.000 F 
ENDBRANCH   55   56
BRANCH   70   71
ATOM     71  C50 UNL A   1      42.418  26.512  27.796  1.00  0.00    +0.000 C 
ATOM     72  C51 UNL A   1      43.344  26.998  26.865  1.00  0.00    +0.000 C 
ATOM     73  F14 UNL A   1      43.858  28.229  27.010  1.00  0.00    +0.000 F 
ATOM     74  C52 UNL A   1      43.722  26.234  25.762  1.00  0.00    +0.000 C 
ATOM     75  F15 UNL A   1      44.579  26.737  24.864  1.00  0.00    +0.000 F 
ATOM     76  C53 UNL A   1      43.205  24.959  25.588  1.00  0.00    +0.000 C 
ATOM     77  F16 UNL A   1      43.577  24.221  24.533  1.00  0.00    +0.000 F 
ATOM     78  C54 UNL A   1      42.298  24.451  26.505  1.00  0.00    +0.000 C 
ATOM     79  F17 UNL A   1      41.810  23.213  26.352  1.00  0.00    +0.000 F 
ATOM     80  C55 UNL A   1      41.896  25.225  27.590  1.00  0.00    +0.000 C 
ATOM     81  F18 UNL A   1      41.011  24.713  28.457  1.00  0.00    +0.000 F 
ENDBRANCH   70   71
TORSDOF 17
ENDMDL
MODEL 3
REMARK VINA RESULT:     -11.3     20.041     25.753
ROOT
ATOM     34  C26 UNL A   1      52.817  20.312  11.489  1.00  0.00    +0.000 C 
ATOM     35  C27 UNL A   1      54.138  19.655  11.203  1.00  0.00    +0.000 C 
ATOM     36  N4  UNL A   1      55.179  19.526  11.988  1.00  0.00    +0.000 N 
ATOM     37  C28 UNL A   1      56.129  18.829  11.253  1.00  0.00    +0.000 C 
ATOM     38  C29 UNL A   1      57.387  18.478  11.617  1.00  0.00    +0.000 C 
ATOM     50  C36 UNL A   1      57.981  18.780  12.895  1.00  0.00    +0.000 C 
ATOM     51  C37 UNL A   1      59.249  18.472  13.355  1.00  0.00    +0.000 C 
ATOM     52  C38 UNL A   1      59.370  18.944  14.667  1.00  0.00    +0.000 C 
ATOM     53  C39 UNL A   1      58.191  19.584  15.011  1.00  0.00    +0.000 C 
ATOM     54  N5  UNL A   1      57.344  19.467  13.919  1.00  0.00    +0.000 N 
ATOM     55  C40 UNL A   1      57.861  20.255  16.241  1.00  0.00    +0.000 C 
ATOM     67  C47 UNL A   1      56.683  20.871  16.502  1.00  0.00    +0.000 C 
ATOM     68  N6  UNL A   1      55.556  20.972  15.700  1.00  0.00    +0.000 N 
ATOM     69  C48 UNL A   1      54.663  21.610  16.416  1.00  0.00    +0.000 C 
ATOM     70  C49 UNL A   1      53.260  21.997  16.050  1.00  0.00    +0.000 C 
ATOM     82  C56 UNL A   1      52.785  21.655  14.839  1.00  0.00    +0.000 C 
ATOM     83  C57 UNL A   1      51.452  21.979  14.341  1.00  0.00    +0.000 C 
ATOM     84  C58 UNL A   1      51.316  21.474  13.106  1.00  0.00    +0.000 C 
ATOM     85  C59 UNL A   1      52.574  20.838  12.706  1.00  0.00    +0.000 C 
ATOM     86  N7  UNL A   1      53.373  20.956  13.813  1.00  0.00    +0.000 N 
ATOM     87  C60 UNL A   1      55.125  21.995  17.755  1.00  0.00    +0.000 C 
ATOM     88  C61 UNL A   1      56.374  21.553  17.743  1.00  0.00    +0.000 C 
ATOM     89  C62 UNL A   1      55.532  18.536   9.968  1.00  0.00    +0.000 C 
ATOM     90  C63 UNL A   1      54.316  19.057   9.871  1.00  0.00    +0.000 C 
ATOM    118  H26 UNL A   1      59.982  17.978  12.821  1.00  0.00    +0.000 H 
ATOM    119  H27 UNL A   1      60.197  18.834  15.275  1.00  0.00    +0.000 H 
ATOM    120  H28 UNL A   1      56.425  19.820  13.876  1.00  0.00    +0.000 H 
ATOM    121  H29 UNL A   1      50.732  22.511  14.854  1.00  0.00    +0.000 H 
ATOM    122  H30 UNL A   1      50.462  21.525  12.530  1.00  0.00    +0.000 H 
ATOM    123  H31 UNL A   1      54.280  20.578  13.869  1.00  0.00    +0.000 H 
ATOM    124  H32 UNL A   1      54.612  22.480  18.509  1.00  0.00    +0.000 H 
ATOM    125  H33 UNL A   1      57.044  21.680  18.518  1.00  0.00    +0.000 H 
ATOM    126  H34 UNL A   1      55.992  17.990   9.222  1.00  0.00    +0.000 H 
ATOM    127  H35 UNL A   1      53.665  19.047   9.071  1.00  0.00    +0.000 H 
ENDROOT
BRANCH   34   33
ATOM    129  H37 UNL A   1      50.526  22.614   8.178  1.00  0.00    +0.000 H 
ATOM     33  C25 UNL A   1      51.777  20.464  10.440  1.00  0.00    +0.000 C 
ATOM    116  H24 UNL A   1      49.504  18.587   8.829  1.00  0.00    +0.000 H 
ATOM    117  H25 UNL A   1      51.031  18.502  10.705  1.00  0.00    +0.000 H 
ATOM     91  C64 UNL A   1      51.639  21.641   9.689  1.00  0.00    +0.000 C 
ATOM     92  C65 UNL A   1      50.648  21.735   8.705  1.00  0.00    +0.000 C 
ATOM    128  H36 UNL A   1      52.269  22.440   9.863  1.00  0.00    +0.000 H 
ATOM     30  C22 UNL A   1      49.825  20.637   8.436  1.00  0.00    +0.000 C 
ATOM     31  C23 UNL A   1      50.032  19.429   9.105  1.00  0.00    +0.000 C 
ATOM     32  C24 UNL A   1      50.953  19.366  10.145  1.00  0.00    +0.000 C 
BRANCH   30    2
ATOM      1  O1  UNL A   1      48.203  21.868   7.271  1.00  0.00    +0.000 O 
ATOM      2  C1  UNL A   1      48.732  20.775   7.448  1.00  0.00    +0.000 C 
BRANCH    2    3
ATOM      3  N1  UNL A   1      48.290  19.668   6.760  1.00  0.00    +0.000 N 
ATOM     93  H1  UNL A   1      48.071  18.882   7.311  1.00  0.00    +0.000 H 
BRANCH    3    4
ATOM      4  C2  UNL A   1      48.103  19.501   5.328  1.00  0.00    +0.000 C 
ATOM     94  H2  UNL A   1      48.264  18.472   5.084  1.00  0.00    +0.000 H 
ATOM     95  H3  UNL A   1      48.804  20.147   4.842  1.00  0.00    +0.000 H 
BRANCH    4    5
ATOM     97  H5  UNL A   1      46.139  20.076   5.729  1.00  0.00    +0.000 H 
ATOM      5  C3  UNL A   1      46.717  19.901   4.846  1.00  0.00    +0.000 C 
ATOM     96  H4  UNL A   1      46.822  20.762   4.221  1.00  0.00    +0.000 H 
BRANCH    5    6
ATOM     98  H6  UNL A   1      45.725  18.037   4.727  1.00  0.00    +0.000 H 
ATOM     99  H7  UNL A   1      46.608  18.558   3.251  1.00  0.00    +0.000 H 
ATOM      6  C4  UNL A   1      45.960  18.836   4.056  1.00  0.00    +0.000 C 
BRANCH    6    7
ATOM    100  H8  UNL A   1      43.844  18.899   3.973  1.00  0.00    +0.000 H 
ATOM    101  H9  UNL A   1      44.703  18.923   2.390  1.00  0.00    +0.000 H 
ATOM      7  C5  UNL A   1      44.655  19.291   3.395  1.00  0.00    +0.000 C 
BRANCH    7    8
ATOM    102  H10 UNL A   1      45.392  21.281   3.413  1.00  0.00    +0.000 H 
ATOM    103  H11 UNL A   1      43.707  21.059   3.994  1.00  0.00    +0.000 H 
ATOM      8  C6  UNL A   1      44.445  20.804   3.263  1.00  0.00    +0.000 C 
BRANCH    8    9
ATOM      9  C7  UNL A   1      43.887  21.287   1.926  1.00  0.00    +0.000 C 
ATOM    105  H13 UNL A   1      43.038  21.905   2.132  1.00  0.00    +0.000 H 
ATOM    104  H12 UNL A   1      44.652  21.830   1.410  1.00  0.00    +0.000 H 
BRANCH    9   10
ATOM     10  N2  UNL A   1      43.444  20.193   1.083  1.00  0.00    +0.000 N 
ATOM    106  H14 UNL A   1      44.144  19.558   0.807  1.00  0.00    +0.000 H 
BRANCH   10   11
ATOM     11  C8  UNL A   1      42.182  19.921   0.620  1.00  0.00    +0.000 C 
ATOM     12  O2  UNL A   1      41.992  19.754  -0.581  1.00  0.00    +0.000 O 
BRANCH   11   13
ATOM    107  H15 UNL A   1      41.954  18.131   2.500  1.00  0.00    +0.000 H 
ATOM    108  H16 UNL A   1      40.166  17.791   4.104  1.00  0.00    +0.000 H 
ATOM     13  C9  UNL A   1      41.048  19.796   1.558  1.00  0.00    +0.000 C 
ATOM     14  C10 UNL A   1      41.130  18.753   2.494  1.00  0.00    +0.000 C 
ATOM     15  C11 UNL A   1      40.104  18.555   3.413  1.00  0.00    +0.000 C 
ATOM    110  H18 UNL A   1      38.077  21.039   2.453  1.00  0.00    +0.000 H 
ATOM     17  C13 UNL A   1      38.905  20.422   2.450  1.00  0.00    +0.000 C 
ATOM     18  C14 UNL A   1      39.916  20.635   1.499  1.00  0.00    +0.000 C 
ATOM     16  C12 UNL A   1      38.993  19.393   3.394  1.00  0.00    +0.000 C 
ATOM    109  H17 UNL A   1      38.234  19.255   4.079  1.00  0.00    +0.000 H 
BRANCH   18   19
ATOM     19  N3  UNL A   1      39.812  21.675   0.551  1.00  0.00    +0.000 N 
ATOM    111  H19 UNL A   1      40.473  22.396   0.666  1.00  0.00    +0.000 H 
BRANCH   19   20
ATOM    112  H20 UNL A   1      40.347  21.270  -1.977  1.00  0.00    +0.000 H 
ATOM    113  H21 UNL A   1      38.851  21.470  -3.869  1.00  0.00    +0.000 H 
ATOM    114  H22 UNL A   1      36.560  22.187  -3.539  1.00  0.00    +0.000 H 
ATOM    115  H23 UNL A   1      37.261  22.476   0.599  1.00  0.00    +0.000 H 
ATOM     20  C15 UNL A   1      38.932  21.862  -0.528  1.00  0.00    +0.000 C 
ATOM     21  C16 UNL A   1      39.372  21.573  -1.826  1.00  0.00    +0.000 C 
ATOM     22  C17 UNL A   1      38.511  21.690  -2.919  1.00  0.00    +0.000 C 
ATOM     23  C18 UNL A   1      37.195  22.103  -2.730  1.00  0.00    +0.000 C 
ATOM     24  C19 UNL A   1      36.728  22.407  -1.443  1.00  0.00    +0.000 C 
ATOM     25  C20 UNL A   1      35.301  22.854  -1.242  1.00  0.00    +0.000 C 
ATOM     26  F1  UNL A   1      34.952  23.870  -2.079  1.00  0.00    +0.000 F 
ATOM     27  F2  UNL A   1      34.406  21.855  -1.467  1.00  0.00    +0.000 F 
ATOM     28  F3  UNL A   1      35.048  23.309   0.017  1.00  0.00    +0.000 F 
ATOM     29  C21 UNL A   1      37.604  22.270  -0.353  1.00  0.00    +0.000 C 
ENDBRANCH   19   20
ENDBRANCH   18   19
ENDBRANCH   11   13
ENDBRANCH   10   11
ENDBRANCH    9   10
ENDBRANCH    8    9
ENDBRANCH    7    8
ENDBRANCH    6    7
ENDBRANCH    5    6
ENDBRANCH    4    5
ENDBRANCH    3    4
ENDBRANCH    2    3
ENDBRANCH   30    2
ENDBRANCH   34   33
BRANCH   38   39
ATOM     39  C30 UNL A   1      58.217  17.720  10.621  1.00  0.00    +0.000 C 
ATOM     40  C31 UNL A   1      59.059  18.381   9.715  1.00  0.00    +0.000 C 
ATOM     41  F4  UNL A   1      59.082  19.721   9.670  1.00  0.00    +0.000 F 
ATOM     42  C32 UNL A   1      59.865  17.666   8.832  1.00  0.00    +0.000 C 
ATOM     43  F5  UNL A   1      60.638  18.319   7.954  1.00  0.00    +0.000 F 
ATOM     44  C33 UNL A   1      59.866  16.279   8.856  1.00  0.00    +0.000 C 
ATOM     45  F6  UNL A   1      60.652  15.593   8.016  1.00  0.00    +0.000 F 
ATOM     46  C34 UNL A   1      59.048  15.604   9.750  1.00  0.00    +0.000 C 
ATOM     47  F7  UNL A   1      59.057  14.264   9.783  1.00  0.00    +0.000 F 
ATOM     48  C35 UNL A   1      58.224  16.316  10.618  1.00  0.00    +0.000 C 
ATOM     49  F8  UNL A   1      57.442  15.635  11.469  1.00  0.00    +0.000 F 
ENDBRANCH   38   39
BRANCH   55   56
ATOM     65  C46 UNL A   1      59.079  19.203  18.183  1.00  0.00    +0.000 C 
ATOM     66  F13 UNL A   1      58.324  18.103  18.045  1.00  0.00    +0.000 F 
ATOM     56  C41 UNL A   1      58.897  20.297  17.325  1.00  0.00    +0.000 C 
ATOM     57  C42 UNL A   1      59.709  21.425  17.513  1.00  0.00    +0.000 C 
ATOM     58  F9  UNL A   1      59.584  22.490  16.705  1.00  0.00    +0.000 F 
ATOM     59  C43 UNL A   1      60.690  21.444  18.499  1.00  0.00    +0.000 C 
ATOM     60  F10 UNL A   1      61.492  22.509  18.624  1.00  0.00    +0.000 F 
ATOM     61  C44 UNL A   1      60.854  20.351  19.337  1.00  0.00    +0.000 C 
ATOM     62  F11 UNL A   1      61.803  20.366  20.283  1.00  0.00    +0.000 F 
ATOM     63  C45 UNL A   1      60.043  19.235  19.186  1.00  0.00    +0.000 C 
ATOM     64  F12 UNL A   1      60.196  18.181  19.999  1.00  0.00    +0.000 F 
ENDBRANCH   55   56
BRANCH   70   71
ATOM     71  C50 UNL A   1      52.392  22.739  16.999  1.00  0.00    +0.000 C 
ATOM     72  C51 UNL A   1      52.300  24.136  16.959  1.00  0.00    +0.000 C 
ATOM     73  F14 UNL A   1      53.028  24.831  16.072  1.00  0.00    +0.000 F 
ATOM     74  C52 UNL A   1      51.483  24.827  17.852  1.00  0.00    +0.000 C 
ATOM     75  F15 UNL A   1      51.443  26.165  17.821  1.00  0.00    +0.000 F 
ATOM     76  C53 UNL A   1      50.721  24.132  18.780  1.00  0.00    +0.000 C 
ATOM     77  F16 UNL A   1      49.929  24.798  19.632  1.00  0.00    +0.000 F 
ATOM     78  C54 UNL A   1      50.784  22.749  18.828  1.00  0.00    +0.000 C 
ATOM     79  F17 UNL A   1      50.037  22.072  19.709  1.00  0.00    +0.000 F 
ATOM     80  C55 UNL A   1      51.623  22.059  17.957  1.00  0.00    +0.000 C 
ATOM     81  F18 UNL A   1      51.673  20.721  18.031  1.00  0.00    +0.000 F 
ENDBRANCH   70   71
TORSDOF 17
ENDMDL
MODEL 4
REMARK VINA RESULT:     -11.3     25.705     33.533
ROOT
ATOM     34  C26 UNL A   1      22.321  19.764   4.899  1.00  0.00    +0.000 C 
ATOM     35  C27 UNL A   1      22.034  20.787   3.837  1.00  0.00    +0.000 C 
ATOM     36  N4  UNL A   1      20.876  21.241   3.424  1.00  0.00    +0.000 N 
ATOM     37  C28 UNL A   1      21.160  22.182   2.444  1.00  0.00    +0.000 C 
ATOM     38  C29 UNL A   1      20.295  22.907   1.693  1.00  0.00    +0.000 C 
ATOM     50  C36 UNL A   1      18.860  22.822   1.793  1.00  0.00    +0.000 C 
ATOM     51  C37 UNL A   1      17.899  23.511   1.072  1.00  0.00    +0.000 C 
ATOM     52  C38 UNL A   1      16.637  23.120   1.533  1.00  0.00    +0.000 C 
ATOM     53  C39 UNL A   1      16.809  22.157   2.513  1.00  0.00    +0.000 C 
ATOM     54  N5  UNL A   1      18.177  21.991   2.670  1.00  0.00    +0.000 N 
ATOM     55  C40 UNL A   1      15.802  21.439   3.250  1.00  0.00    +0.000 C 
ATOM     67  C47 UNL A   1      16.049  20.497   4.193  1.00  0.00    +0.000 C 
ATOM     68  N6  UNL A   1      17.268  20.043   4.673  1.00  0.00    +0.000 N 
ATOM     69  C48 UNL A   1      16.982  19.175   5.612  1.00  0.00    +0.000 C 
ATOM     70  C49 UNL A   1      17.914  18.373   6.471  1.00  0.00    +0.000 C 
ATOM     82  C56 UNL A   1      19.241  18.532   6.320  1.00  0.00    +0.000 C 
ATOM     83  C57 UNL A   1      20.263  17.809   7.069  1.00  0.00    +0.000 C 
ATOM     84  C58 UNL A   1      21.472  18.227   6.669  1.00  0.00    +0.000 C 
ATOM     85  C59 UNL A   1      21.309  19.209   5.594  1.00  0.00    +0.000 C 
ATOM     86  N7  UNL A   1      19.951  19.360   5.484  1.00  0.00    +0.000 N 
ATOM     87  C60 UNL A   1      15.544  18.973   5.830  1.00  0.00    +0.000 C 
ATOM     88  C61 UNL A   1      15.021  19.774   4.914  1.00  0.00    +0.000 C 
ATOM     89  C62 UNL A   1      22.602  22.257   2.341  1.00  0.00    +0.000 C 
ATOM     90  C63 UNL A   1      23.189  21.388   3.153  1.00  0.00    +0.000 C 
ATOM    118  H26 UNL A   1      18.083  24.196   0.321  1.00  0.00    +0.000 H 
ATOM    119  H27 UNL A   1      15.732  23.488   1.200  1.00  0.00    +0.000 H 
ATOM    120  H28 UNL A   1      18.602  21.374   3.309  1.00  0.00    +0.000 H 
ATOM    121  H29 UNL A   1      20.083  17.091   7.789  1.00  0.00    +0.000 H 
ATOM    122  H30 UNL A   1      22.373  17.907   7.056  1.00  0.00    +0.000 H 
ATOM    123  H31 UNL A   1      19.525  19.997   4.868  1.00  0.00    +0.000 H 
ATOM    124  H32 UNL A   1      15.067  18.368   6.517  1.00  0.00    +0.000 H 
ATOM    125  H33 UNL A   1      14.009  19.871   4.736  1.00  0.00    +0.000 H 
ATOM    126  H34 UNL A   1      23.109  22.904   1.716  1.00  0.00    +0.000 H 
ATOM    127  H35 UNL A   1      24.194  21.185   3.273  1.00  0.00    +0.000 H 
ENDROOT
BRANCH   34   33
ATOM    129  H37 UNL A   1      26.042  17.100   4.139  1.00  0.00    +0.000 H 
ATOM     33  C25 UNL A   1      23.701  19.283   5.167  1.00  0.00    +0.000 C 
ATOM    116  H24 UNL A   1      26.343  20.092   7.079  1.00  0.00    +0.000 H 
ATOM    117  H25 UNL A   1      24.004  20.634   6.768  1.00  0.00    +0.000 H 
ATOM     91  C64 UNL A   1      24.306  18.278   4.398  1.00  0.00    +0.000 C 
ATOM     92  C65 UNL A   1      25.612  17.863   4.684  1.00  0.00    +0.000 C 
ATOM    128  H36 UNL A   1      23.787  17.843   3.619  1.00  0.00    +0.000 H 
ATOM     30  C22 UNL A   1      26.333  18.486   5.709  1.00  0.00    +0.000 C 
ATOM     31  C23 UNL A   1      25.773  19.560   6.403  1.00  0.00    +0.000 C 
ATOM     32  C24 UNL A   1      24.446  19.908   6.181  1.00  0.00    +0.000 C 
BRANCH   30    2
ATOM      1  O1  UNL A   1      28.663  18.409   5.445  1.00  0.00    +0.000 O 
ATOM      2  C1  UNL A   1      27.683  17.986   6.052  1.00  0.00    +0.000 C 
BRANCH    2    3
ATOM      3  N1  UNL A   1      27.828  17.022   7.023  1.00  0.00    +0.000 N 
ATOM     93  H1  UNL A   1      27.333  16.185   6.870  1.00  0.00    +0.000 H 
BRANCH    3    4
ATOM      4  C2  UNL A   1      28.613  17.072   8.246  1.00  0.00    +0.000 C 
ATOM     94  H2  UNL A   1      29.642  16.931   7.991  1.00  0.00    +0.000 H 
ATOM     95  H3  UNL A   1      28.244  16.301   8.888  1.00  0.00    +0.000 H 
BRANCH    4    5
ATOM     97  H5  UNL A   1      29.260  18.386   9.730  1.00  0.00    +0.000 H 
ATOM      5  C3  UNL A   1      28.477  18.386   9.000  1.00  0.00    +0.000 C 
ATOM     96  H4  UNL A   1      28.549  19.183   8.290  1.00  0.00    +0.000 H 
BRANCH    5    6
ATOM     98  H6  UNL A   1      26.940  17.633  10.242  1.00  0.00    +0.000 H 
ATOM     99  H7  UNL A   1      26.456  18.902   9.066  1.00  0.00    +0.000 H 
ATOM      6  C4  UNL A   1      27.178  18.568   9.781  1.00  0.00    +0.000 C 
BRANCH    6    7
ATOM    100  H8  UNL A   1      26.613  20.467  10.531  1.00  0.00    +0.000 H 
ATOM    101  H9  UNL A   1      28.231  19.860  11.039  1.00  0.00    +0.000 H 
ATOM      7  C5  UNL A   1      27.196  19.638  10.876  1.00  0.00    +0.000 C 
BRANCH    7    8
ATOM    102  H10 UNL A   1      27.475  19.172  12.928  1.00  0.00    +0.000 H 
ATOM    103  H11 UNL A   1      26.154  18.288  12.091  1.00  0.00    +0.000 H 
ATOM      8  C6  UNL A   1      26.650  19.223  12.248  1.00  0.00    +0.000 C 
BRANCH    8    9
ATOM      9  C7  UNL A   1      25.600  20.150  12.857  1.00  0.00    +0.000 C 
ATOM    105  H13 UNL A   1      25.335  19.757  13.816  1.00  0.00    +0.000 H 
ATOM    104  H12 UNL A   1      26.015  21.134  12.937  1.00  0.00    +0.000 H 
BRANCH    9   10
ATOM     10  N2  UNL A   1      24.392  20.220  12.058  1.00  0.00    +0.000 N 
ATOM    106  H14 UNL A   1      24.446  20.784  11.252  1.00  0.00    +0.000 H 
BRANCH   10   11
ATOM     11  C8  UNL A   1      23.184  19.607  12.269  1.00  0.00    +0.000 C 
ATOM     12  O2  UNL A   1      22.141  20.203  12.021  1.00  0.00    +0.000 O 
BRANCH   11   13
ATOM    107  H15 UNL A   1      22.498  18.882  14.677  1.00  0.00    +0.000 H 
ATOM    108  H16 UNL A   1      22.357  16.661  15.643  1.00  0.00    +0.000 H 
ATOM     13  C9  UNL A   1      23.124  18.217  12.767  1.00  0.00    +0.000 C 
ATOM     14  C10 UNL A   1      22.730  18.055  14.104  1.00  0.00    +0.000 C 
ATOM     15  C11 UNL A   1      22.652  16.781  14.661  1.00  0.00    +0.000 C 
ATOM    110  H18 UNL A   1      23.612  15.001  11.995  1.00  0.00    +0.000 H 
ATOM     17  C13 UNL A   1      23.382  15.835  12.558  1.00  0.00    +0.000 C 
ATOM     18  C14 UNL A   1      23.487  17.108  11.975  1.00  0.00    +0.000 C 
ATOM     16  C12 UNL A   1      22.973  15.671  13.886  1.00  0.00    +0.000 C 
ATOM    109  H17 UNL A   1      22.909  14.725  14.292  1.00  0.00    +0.000 H 
BRANCH   18   19
ATOM     19  N3  UNL A   1      23.904  17.260  10.635  1.00  0.00    +0.000 N 
ATOM    111  H19 UNL A   1      24.476  18.046  10.474  1.00  0.00    +0.000 H 
BRANCH   19   20
ATOM    112  H20 UNL A   1      25.522  16.894   8.614  1.00  0.00    +0.000 H 
ATOM    113  H21 UNL A   1      25.186  15.496   6.667  1.00  0.00    +0.000 H 
ATOM    114  H22 UNL A   1      23.112  14.273   6.391  1.00  0.00    +0.000 H 
ATOM    115  H23 UNL A   1      21.721  15.834  10.041  1.00  0.00    +0.000 H 
ATOM     20  C15 UNL A   1      23.647  16.488   9.490  1.00  0.00    +0.000 C 
ATOM     21  C16 UNL A   1      24.637  16.374   8.506  1.00  0.00    +0.000 C 
ATOM     22  C17 UNL A   1      24.444  15.570   7.382  1.00  0.00    +0.000 C 
ATOM     23  C18 UNL A   1      23.252  14.868   7.222  1.00  0.00    +0.000 C 
ATOM     24  C19 UNL A   1      22.239  14.968   8.186  1.00  0.00    +0.000 C 
ATOM     25  C20 UNL A   1      20.949  14.206   8.010  1.00  0.00    +0.000 C 
ATOM     26  F1  UNL A   1      20.395  14.398   6.781  1.00  0.00    +0.000 F 
ATOM     27  F2  UNL A   1      21.116  12.862   8.142  1.00  0.00    +0.000 F 
ATOM     28  F3  UNL A   1      19.986  14.554   8.908  1.00  0.00    +0.000 F 
ATOM     29  C21 UNL A   1      22.456  15.771   9.319  1.00  0.00    +0.000 C 
ENDBRANCH   19   20
ENDBRANCH   18   19
ENDBRANCH   11   13
ENDBRANCH   10   11
ENDBRANCH    9   10
ENDBRANCH    8    9
ENDBRANCH    7    8
ENDBRANCH    6    7
ENDBRANCH    5    6
ENDBRANCH    4    5
ENDBRANCH    3    4
ENDBRANCH    2    3
ENDBRANCH   30    2
ENDBRANCH   34   33
BRANCH   38   39
ATOM     39  C30 UNL A   1      20.872  23.864   0.690  1.00  0.00    +0.000 C 
ATOM     40  C31 UNL A   1      21.026  23.509  -0.658  1.00  0.00    +0.000 C 
ATOM     41  F4  UNL A   1      20.728  22.267  -1.067  1.00  0.00    +0.000 F 
ATOM     42  C32 UNL A   1      21.512  24.424  -1.590  1.00  0.00    +0.000 C 
ATOM     43  F5  UNL A   1      21.680  24.053  -2.866  1.00  0.00    +0.000 F 
ATOM     44  C33 UNL A   1      21.826  25.718  -1.198  1.00  0.00    +0.000 C 
ATOM     45  F6  UNL A   1      22.280  26.600  -2.099  1.00  0.00    +0.000 F 
ATOM     46  C34 UNL A   1      21.672  26.094   0.128  1.00  0.00    +0.000 C 
ATOM     47  F7  UNL A   1      21.965  27.346   0.505  1.00  0.00    +0.000 F 
ATOM     48  C35 UNL A   1      21.210  25.174   1.066  1.00  0.00    +0.000 C 
ATOM     49  F8  UNL A   1      21.075  25.567   2.341  1.00  0.00    +0.000 F 
ENDBRANCH   38   39
BRANCH   55   56
ATOM     65  C46 UNL A   1      13.653  22.673   3.716  1.00  0.00    +0.000 C 
ATOM     66  F13 UNL A   1      14.256  23.320   4.723  1.00  0.00    +0.000 F 
ATOM     56  C41 UNL A   1      14.362  21.733   2.954  1.00  0.00    +0.000 C 
ATOM     57  C42 UNL A   1      13.684  21.081   1.913  1.00  0.00    +0.000 C 
ATOM     58  F9  UNL A   1      14.326  20.187   1.145  1.00  0.00    +0.000 F 
ATOM     59  C43 UNL A   1      12.357  21.384   1.624  1.00  0.00    +0.000 C 
ATOM     60  F10 UNL A   1      11.746  20.790   0.590  1.00  0.00    +0.000 F 
ATOM     61  C44 UNL A   1      11.674  22.317   2.389  1.00  0.00    +0.000 C 
ATOM     62  F11 UNL A   1      10.398  22.613   2.107  1.00  0.00    +0.000 F 
ATOM     63  C45 UNL A   1      12.318  22.954   3.440  1.00  0.00    +0.000 C 
ATOM     64  F12 UNL A   1      11.657  23.851   4.185  1.00  0.00    +0.000 F 
ENDBRANCH   55   56
BRANCH   70   71
ATOM     71  C50 UNL A   1      17.399  17.417   7.486  1.00  0.00    +0.000 C 
ATOM     72  C51 UNL A   1      17.374  16.039   7.238  1.00  0.00    +0.000 C 
ATOM     73  F14 UNL A   1      17.791  15.563   6.055  1.00  0.00    +0.000 F 
ATOM     74  C52 UNL A   1      16.889  15.148   8.193  1.00  0.00    +0.000 C 
ATOM     75  F15 UNL A   1      16.838  13.838   7.917  1.00  0.00    +0.000 F 
ATOM     76  C53 UNL A   1      16.450  15.614   9.423  1.00  0.00    +0.000 C 
ATOM     77  F16 UNL A   1      15.994  14.755  10.344  1.00  0.00    +0.000 F 
ATOM     78  C54 UNL A   1      16.480  16.973   9.696  1.00  0.00    +0.000 C 
ATOM     79  F17 UNL A   1      16.075  17.427  10.889  1.00  0.00    +0.000 F 
ATOM     80  C55 UNL A   1      16.935  17.868   8.731  1.00  0.00    +0.000 C 
ATOM     81  F18 UNL A   1      16.944  19.177   9.018  1.00  0.00    +0.000 F 
ENDBRANCH   70   71
TORSDOF 17
ENDMDL
MODEL 5
REMARK VINA RESULT:     -11.2     17.891     26.819
ROOT
ATOM     34  C26 UNL A   1      26.318  35.488  45.815  1.00  0.00    +0.000 C 
ATOM     35  C27 UNL A   1      24.979  34.829  45.639  1.00  0.00    +0.000 C 
ATOM     36  N4  UNL A   1      23.845  35.099  46.235  1.00  0.00    +0.000 N 
ATOM     37  C28 UNL A   1      22.913  34.216  45.706  1.00  0.00    +0.000 C 
ATOM     38  C29 UNL A   1      21.603  34.079  46.026  1.00  0.00    +0.000 C 
ATOM     50  C36 UNL A   1      20.918  34.870  47.017  1.00  0.00    +0.000 C 
ATOM     51  C37 UNL A   1      19.594  34.802  47.416  1.00  0.00    +0.000 C 
ATOM     52  C38 UNL A   1      19.376  35.785  48.388  1.00  0.00    +0.000 C 
ATOM     53  C39 UNL A   1      20.573  36.438  48.626  1.00  0.00    +0.000 C 
ATOM     54  N5  UNL A   1      21.509  35.874  47.772  1.00  0.00    +0.000 N 
ATOM     55  C40 UNL A   1      20.846  37.494  49.565  1.00  0.00    +0.000 C 
ATOM     67  C47 UNL A   1      22.054  38.081  49.750  1.00  0.00    +0.000 C 
ATOM     68  N6  UNL A   1      23.250  37.838  49.091  1.00  0.00    +0.000 N 
ATOM     69  C48 UNL A   1      24.111  38.694  49.585  1.00  0.00    +0.000 C 
ATOM     70  C49 UNL A   1      25.559  38.883  49.241  1.00  0.00    +0.000 C 
ATOM     82  C56 UNL A   1      26.108  38.109  48.287  1.00  0.00    +0.000 C 
ATOM     83  C57 UNL A   1      27.503  38.168  47.861  1.00  0.00    +0.000 C 
ATOM     84  C58 UNL A   1      27.697  37.267  46.888  1.00  0.00    +0.000 C 
ATOM     85  C59 UNL A   1      26.452  36.530  46.659  1.00  0.00    +0.000 C 
ATOM     86  N7  UNL A   1      25.552  37.128  47.504  1.00  0.00    +0.000 N 
ATOM     87  C60 UNL A   1      23.559  39.575  50.622  1.00  0.00    +0.000 C 
ATOM     88  C61 UNL A   1      22.313  39.135  50.710  1.00  0.00    +0.000 C 
ATOM     89  C62 UNL A   1      23.607  33.418  44.717  1.00  0.00    +0.000 C 
ATOM     90  C63 UNL A   1      24.895  33.731  44.664  1.00  0.00    +0.000 C 
ATOM    118  H26 UNL A   1      18.888  34.139  47.058  1.00  0.00    +0.000 H 
ATOM    119  H27 UNL A   1      18.475  35.988  48.850  1.00  0.00    +0.000 H 
ATOM    120  H28 UNL A   1      22.453  36.146  47.709  1.00  0.00    +0.000 H 
ATOM    121  H29 UNL A   1      28.222  38.799  48.248  1.00  0.00    +0.000 H 
ATOM    122  H30 UNL A   1      28.583  37.118  46.381  1.00  0.00    +0.000 H 
ATOM    123  H31 UNL A   1      24.602  36.878  47.546  1.00  0.00    +0.000 H 
ATOM    124  H32 UNL A   1      24.020  40.338  51.143  1.00  0.00    +0.000 H 
ATOM    125  H33 UNL A   1      21.614  39.495  51.379  1.00  0.00    +0.000 H 
ATOM    126  H34 UNL A   1      23.158  32.699  44.129  1.00  0.00    +0.000 H 
ATOM    127  H35 UNL A   1      25.643  33.313  44.089  1.00  0.00    +0.000 H 
ENDROOT
BRANCH   34   33
ATOM    129  H37 UNL A   1      30.067  32.786  45.412  1.00  0.00    +0.000 H 
ATOM     33  C25 UNL A   1      27.534  34.981  45.131  1.00  0.00    +0.000 C 
ATOM    116  H24 UNL A   1      29.096  35.286  42.172  1.00  0.00    +0.000 H 
ATOM    117  H25 UNL A   1      27.291  36.256  43.461  1.00  0.00    +0.000 H 
ATOM     91  C64 UNL A   1      28.330  33.962  45.677  1.00  0.00    +0.000 C 
ATOM     92  C65 UNL A   1      29.464  33.511  44.992  1.00  0.00    +0.000 C 
ATOM    128  H36 UNL A   1      28.078  33.544  46.587  1.00  0.00    +0.000 H 
ATOM     30  C22 UNL A   1      29.778  34.043  43.737  1.00  0.00    +0.000 C 
ATOM     31  C23 UNL A   1      28.929  34.978  43.142  1.00  0.00    +0.000 C 
ATOM     32  C24 UNL A   1      27.857  35.492  43.862  1.00  0.00    +0.000 C 
BRANCH   30    2
ATOM      1  O1  UNL A   1      31.958  33.177  43.720  1.00  0.00    +0.000 O 
ATOM      2  C1  UNL A   1      31.022  33.613  43.058  1.00  0.00    +0.000 C 
BRANCH    2    3
ATOM      3  N1  UNL A   1      31.132  33.741  41.692  1.00  0.00    +0.000 N 
ATOM     93  H1  UNL A   1      30.352  33.441  41.172  1.00  0.00    +0.000 H 
BRANCH    3    4
ATOM      4  C2  UNL A   1      32.246  34.258  40.914  1.00  0.00    +0.000 C 
ATOM     94  H2  UNL A   1      32.544  33.508  40.212  1.00  0.00    +0.000 H 
ATOM     95  H3  UNL A   1      33.026  34.500  41.604  1.00  0.00    +0.000 H 
BRANCH    4    5
ATOM     97  H5  UNL A   1      32.834  35.861  39.716  1.00  0.00    +0.000 H 
ATOM      5  C3  UNL A   1      31.913  35.530  40.150  1.00  0.00    +0.000 C 
ATOM     96  H4  UNL A   1      31.158  35.294  39.430  1.00  0.00    +0.000 H 
BRANCH    5    6
ATOM     98  H6  UNL A   1      31.757  36.550  41.997  1.00  0.00    +0.000 H 
ATOM     99  H7  UNL A   1      30.342  36.684  40.897  1.00  0.00    +0.000 H 
ATOM      6  C4  UNL A   1      31.407  36.696  40.996  1.00  0.00    +0.000 C 
BRANCH    6    7
ATOM    100  H8  UNL A   1      31.174  38.414  39.779  1.00  0.00    +0.000 H 
ATOM    101  H9  UNL A   1      32.863  37.983  40.230  1.00  0.00    +0.000 H 
ATOM      7  C5  UNL A   1      31.847  38.093  40.547  1.00  0.00    +0.000 C 
BRANCH    7    8
ATOM    102  H10 UNL A   1      30.985  39.768  41.524  1.00  0.00    +0.000 H 
ATOM    103  H11 UNL A   1      32.780  39.729  41.462  1.00  0.00    +0.000 H 
ATOM      8  C6  UNL A   1      31.875  39.182  41.627  1.00  0.00    +0.000 C 
BRANCH    8    9
ATOM      9  C7  UNL A   1      31.946  38.690  43.070  1.00  0.00    +0.000 C 
ATOM    105  H13 UNL A   1      30.991  38.278  43.322  1.00  0.00    +0.000 H 
ATOM    104  H12 UNL A   1      32.722  37.956  43.145  1.00  0.00    +0.000 H 
BRANCH    9   10
ATOM     10  N2  UNL A   1      32.228  39.760  44.008  1.00  0.00    +0.000 N 
ATOM    106  H14 UNL A   1      31.496  40.403  44.153  1.00  0.00    +0.000 H 
BRANCH   10   11
ATOM     11  C8  UNL A   1      33.373  39.998  44.723  1.00  0.00    +0.000 C 
ATOM     12  O2  UNL A   1      33.965  39.068  45.262  1.00  0.00    +0.000 O 
BRANCH   11   13
ATOM    107  H15 UNL A   1      35.374  40.943  43.347  1.00  0.00    +0.000 H 
ATOM    108  H16 UNL A   1      36.392  43.145  43.408  1.00  0.00    +0.000 H 
ATOM     13  C9  UNL A   1      33.923  41.365  44.829  1.00  0.00    +0.000 C 
ATOM     14  C10 UNL A   1      35.009  41.662  43.991  1.00  0.00    +0.000 C 
ATOM     15  C11 UNL A   1      35.596  42.924  44.027  1.00  0.00    +0.000 C 
ATOM    110  H18 UNL A   1      33.674  44.310  46.390  1.00  0.00    +0.000 H 
ATOM     17  C13 UNL A   1      34.031  43.584  45.750  1.00  0.00    +0.000 C 
ATOM     18  C14 UNL A   1      33.430  42.314  45.748  1.00  0.00    +0.000 C 
ATOM     16  C12 UNL A   1      35.103  43.887  44.903  1.00  0.00    +0.000 C 
ATOM    109  H17 UNL A   1      35.530  44.825  44.928  1.00  0.00    +0.000 H 
BRANCH   18   19
ATOM     19  N3  UNL A   1      32.352  42.022  46.609  1.00  0.00    +0.000 N 
ATOM    111  H19 UNL A   1      32.612  41.581  47.452  1.00  0.00    +0.000 H 
BRANCH   19   20
ATOM    112  H20 UNL A   1      31.036  44.128  47.427  1.00  0.00    +0.000 H 
ATOM    113  H21 UNL A   1      28.686  44.625  47.137  1.00  0.00    +0.000 H 
ATOM    114  H22 UNL A   1      27.233  43.035  46.025  1.00  0.00    +0.000 H 
ATOM    115  H23 UNL A   1      30.509  40.455  45.467  1.00  0.00    +0.000 H 
ATOM     20  C15 UNL A   1      30.971  42.246  46.477  1.00  0.00    +0.000 C 
ATOM     21  C16 UNL A   1      30.426  43.446  46.950  1.00  0.00    +0.000 C 
ATOM     22  C17 UNL A   1      29.070  43.734  46.785  1.00  0.00    +0.000 C 
ATOM     23  C18 UNL A   1      28.235  42.820  46.147  1.00  0.00    +0.000 C 
ATOM     24  C19 UNL A   1      28.750  41.606  45.670  1.00  0.00    +0.000 C 
ATOM     25  C20 UNL A   1      27.843  40.618  44.980  1.00  0.00    +0.000 C 
ATOM     26  F1  UNL A   1      26.716  40.356  45.699  1.00  0.00    +0.000 F 
ATOM     27  F2  UNL A   1      27.420  41.061  43.765  1.00  0.00    +0.000 F 
ATOM     28  F3  UNL A   1      28.428  39.409  44.756  1.00  0.00    +0.000 F 
ATOM     29  C21 UNL A   1      30.120  41.340  45.832  1.00  0.00    +0.000 C 
ENDBRANCH   19   20
ENDBRANCH   18   19
ENDBRANCH   11   13
ENDBRANCH   10   11
ENDBRANCH    9   10
ENDBRANCH    8    9
ENDBRANCH    7    8
ENDBRANCH    6    7
ENDBRANCH    5    6
ENDBRANCH    4    5
ENDBRANCH    3    4
ENDBRANCH    2    3
ENDBRANCH   30    2
ENDBRANCH   34   33
BRANCH   38   39
ATOM     39  C30 UNL A   1      20.810  33.034  45.295  1.00  0.00    +0.000 C 
ATOM     40  C31 UNL A   1      20.802  31.695  45.713  1.00  0.00    +0.000 C 
ATOM     41  F4  UNL A   1      21.570  31.305  46.742  1.00  0.00    +0.000 F 
ATOM     42  C32 UNL A   1      20.020  30.744  45.060  1.00  0.00    +0.000 C 
ATOM     43  F5  UNL A   1      20.052  29.465  45.459  1.00  0.00    +0.000 F 
ATOM     44  C33 UNL A   1      19.213  31.117  43.996  1.00  0.00    +0.000 C 
ATOM     45  F6  UNL A   1      18.452  30.204  43.378  1.00  0.00    +0.000 F 
ATOM     46  C34 UNL A   1      19.199  32.437  43.571  1.00  0.00    +0.000 C 
ATOM     47  F7  UNL A   1      18.410  32.801  42.550  1.00  0.00    +0.000 F 
ATOM     48  C35 UNL A   1      19.997  33.385  44.206  1.00  0.00    +0.000 C 
ATOM     49  F8  UNL A   1      19.963  34.653  43.770  1.00  0.00    +0.000 F 
ENDBRANCH   38   39
BRANCH   55   56
ATOM     65  C46 UNL A   1      18.954  39.094  50.031  1.00  0.00    +0.000 C 
ATOM     66  F13 UNL A   1      19.220  39.727  48.879  1.00  0.00    +0.000 F 
ATOM     56  C41 UNL A   1      19.721  37.989  50.424  1.00  0.00    +0.000 C 
ATOM     57  C42 UNL A   1      19.404  37.364  51.640  1.00  0.00    +0.000 C 
ATOM     58  F9  UNL A   1      20.098  36.291  52.049  1.00  0.00    +0.000 F 
ATOM     59  C43 UNL A   1      18.337  37.808  52.414  1.00  0.00    +0.000 C 
ATOM     60  F10 UNL A   1      18.016  37.161  53.543  1.00  0.00    +0.000 F 
ATOM     61  C44 UNL A   1      17.590  38.903  52.007  1.00  0.00    +0.000 C 
ATOM     62  F11 UNL A   1      16.559  39.326  52.750  1.00  0.00    +0.000 F 
ATOM     63  C45 UNL A   1      17.904  39.552  50.822  1.00  0.00    +0.000 C 
ATOM     64  F12 UNL A   1      17.187  40.615  50.430  1.00  0.00    +0.000 F 
ENDBRANCH   55   56
BRANCH   70   71
ATOM     71  C50 UNL A   1      26.388  39.908  49.925  1.00  0.00    +0.000 C 
ATOM     72  C51 UNL A   1      27.108  39.602  51.086  1.00  0.00    +0.000 C 
ATOM     73  F14 UNL A   1      27.032  38.373  51.618  1.00  0.00    +0.000 F 
ATOM     74  C52 UNL A   1      27.884  40.568  51.724  1.00  0.00    +0.000 C 
ATOM     75  F15 UNL A   1      28.532  40.262  52.856  1.00  0.00    +0.000 F 
ATOM     76  C53 UNL A   1      27.979  41.846  51.196  1.00  0.00    +0.000 C 
ATOM     77  F16 UNL A   1      28.734  42.772  51.805  1.00  0.00    +0.000 F 
ATOM     78  C54 UNL A   1      27.287  42.168  50.039  1.00  0.00    +0.000 C 
ATOM     79  F17 UNL A   1      27.389  43.396  49.513  1.00  0.00    +0.000 F 
ATOM     80  C55 UNL A   1      26.486  41.213  49.418  1.00  0.00    +0.000 C 
ATOM     81  F18 UNL A   1      25.820  41.553  48.305  1.00  0.00    +0.000 F 
ENDBRANCH   70   71
TORSDOF 17
ENDMDL
MODEL 6
REMARK VINA RESULT:     -11.2      2.077      3.639
ROOT
ATOM     34  C26 UNL A   1      38.340  30.033  29.844  1.00  0.00    +0.000 C 
ATOM     35  C27 UNL A   1      38.545  30.540  31.244  1.00  0.00    +0.000 C 
ATOM     36  N4  UNL A   1      39.542  30.312  32.063  1.00  0.00    +0.000 N 
ATOM     37  C28 UNL A   1      39.259  31.024  33.220  1.00  0.00    +0.000 C 
ATOM     38  C29 UNL A   1      39.972  31.084  34.371  1.00  0.00    +0.000 C 
ATOM     50  C36 UNL A   1      41.212  30.385  34.599  1.00  0.00    +0.000 C 
ATOM     51  C37 UNL A   1      42.006  30.377  35.733  1.00  0.00    +0.000 C 
ATOM     52  C38 UNL A   1      43.126  29.577  35.482  1.00  0.00    +0.000 C 
ATOM     53  C39 UNL A   1      43.010  29.051  34.206  1.00  0.00    +0.000 C 
ATOM     54  N5  UNL A   1      41.837  29.563  33.672  1.00  0.00    +0.000 N 
ATOM     55  C40 UNL A   1      43.900  28.147  33.525  1.00  0.00    +0.000 C 
ATOM     67  C47 UNL A   1      43.713  27.665  32.272  1.00  0.00    +0.000 C 
ATOM     68  N6  UNL A   1      42.689  27.936  31.378  1.00  0.00    +0.000 N 
ATOM     69  C48 UNL A   1      42.983  27.276  30.285  1.00  0.00    +0.000 C 
ATOM     70  C49 UNL A   1      42.226  27.204  28.992  1.00  0.00    +0.000 C 
ATOM     82  C56 UNL A   1      41.086  27.907  28.864  1.00  0.00    +0.000 C 
ATOM     83  C57 UNL A   1      40.238  27.920  27.677  1.00  0.00    +0.000 C 
ATOM     84  C58 UNL A   1      39.196  28.734  27.896  1.00  0.00    +0.000 C 
ATOM     85  C59 UNL A   1      39.276  29.258  29.262  1.00  0.00    +0.000 C 
ATOM     86  N7  UNL A   1      40.452  28.748  29.746  1.00  0.00    +0.000 N 
ATOM     87  C60 UNL A   1      44.228  26.502  30.364  1.00  0.00    +0.000 C 
ATOM     88  C61 UNL A   1      44.614  26.744  31.608  1.00  0.00    +0.000 C 
ATOM     89  C62 UNL A   1      38.009  31.718  32.990  1.00  0.00    +0.000 C 
ATOM     90  C63 UNL A   1      37.507  31.422  31.798  1.00  0.00    +0.000 C 
ATOM    118  H26 UNL A   1      41.806  30.877  36.614  1.00  0.00    +0.000 H 
ATOM    119  H27 UNL A   1      43.906  29.406  36.136  1.00  0.00    +0.000 H 
ATOM    120  H28 UNL A   1      41.497  29.371  32.767  1.00  0.00    +0.000 H 
ATOM    121  H29 UNL A   1      40.412  27.386  26.810  1.00  0.00    +0.000 H 
ATOM    122  H30 UNL A   1      38.457  28.956  27.212  1.00  0.00    +0.000 H 
ATOM    123  H31 UNL A   1      40.809  28.963  30.638  1.00  0.00    +0.000 H 
ATOM    124  H32 UNL A   1      44.684  25.923  29.641  1.00  0.00    +0.000 H 
ATOM    125  H33 UNL A   1      45.449  26.328  32.050  1.00  0.00    +0.000 H 
ATOM    126  H34 UNL A   1      37.566  32.360  33.665  1.00  0.00    +0.000 H 
ATOM    127  H35 UNL A   1      36.619  31.730  31.371  1.00  0.00    +0.000 H 
ENDROOT
BRANCH   34   33
ATOM    129  H37 UNL A   1      35.433  32.682  27.384  1.00  0.00    +0.000 H 
ATOM     33  C25 UNL A   1      37.089  30.305  29.091  1.00  0.00    +0.000 C 
ATOM    116  H24 UNL A   1      34.418  28.636  27.922  1.00  0.00    +0.000 H 
ATOM    117  H25 UNL A   1      36.340  28.345  29.363  1.00  0.00    +0.000 H 
ATOM     91  C64 UNL A   1      36.828  31.549  28.497  1.00  0.00    +0.000 C 
ATOM     92  C65 UNL A   1      35.638  31.756  27.790  1.00  0.00    +0.000 C 
ATOM    128  H36 UNL A   1      37.517  32.314  28.580  1.00  0.00    +0.000 H 
ATOM     30  C22 UNL A   1      34.727  30.705  27.636  1.00  0.00    +0.000 C 
ATOM     31  C23 UNL A   1      35.033  29.437  28.132  1.00  0.00    +0.000 C 
ATOM     32  C24 UNL A   1      36.170  29.258  28.912  1.00  0.00    +0.000 C 
BRANCH   30    2
ATOM      1  O1  UNL A   1      32.801  31.976  27.211  1.00  0.00    +0.000 O 
ATOM      2  C1  UNL A   1      33.437  30.958  26.954  1.00  0.00    +0.000 C 
BRANCH    2    3
ATOM      3  N1  UNL A   1      32.944  30.033  26.063  1.00  0.00    +0.000 N 
ATOM     93  H1  UNL A   1      33.580  29.715  25.383  1.00  0.00    +0.000 H 
BRANCH    3    4
ATOM      4  C2  UNL A   1      31.609  29.462  25.991  1.00  0.00    +0.000 C 
ATOM     94  H2  UNL A   1      31.001  30.100  25.384  1.00  0.00    +0.000 H 
ATOM     95  H3  UNL A   1      31.244  29.388  26.994  1.00  0.00    +0.000 H 
BRANCH    4    5
ATOM     97  H5  UNL A   1      30.672  28.000  24.836  1.00  0.00    +0.000 H 
ATOM      5  C3  UNL A   1      31.579  28.061  25.400  1.00  0.00    +0.000 C 
ATOM     96  H4  UNL A   1      32.463  27.933  24.810  1.00  0.00    +0.000 H 
BRANCH    5    6
ATOM     98  H6  UNL A   1      31.091  27.302  27.313  1.00  0.00    +0.000 H 
ATOM     99  H7  UNL A   1      32.528  26.574  26.516  1.00  0.00    +0.000 H 
ATOM      6  C4  UNL A   1      31.520  26.919  26.411  1.00  0.00    +0.000 C 
BRANCH    6    7
ATOM    100  H8  UNL A   1      30.839  25.559  24.936  1.00  0.00    +0.000 H 
ATOM    101  H9  UNL A   1      29.702  25.899  26.291  1.00  0.00    +0.000 H 
ATOM      7  C5  UNL A   1      30.708  25.690  25.991  1.00  0.00    +0.000 C 
BRANCH    7    8
ATOM    102  H10 UNL A   1      30.476  24.281  27.561  1.00  0.00    +0.000 H 
ATOM    103  H11 UNL A   1      32.122  24.409  26.854  1.00  0.00    +0.000 H 
ATOM      8  C6  UNL A   1      31.068  24.364  26.673  1.00  0.00    +0.000 C 
BRANCH    8    9
ATOM      9  C7  UNL A   1      30.845  23.103  25.842  1.00  0.00    +0.000 C 
ATOM    105  H13 UNL A   1      31.692  22.465  25.985  1.00  0.00    +0.000 H 
ATOM    104  H12 UNL A   1      29.939  22.633  26.167  1.00  0.00    +0.000 H 
BRANCH    9   10
ATOM     10  N2  UNL A   1      30.738  23.386  24.423  1.00  0.00    +0.000 N 
ATOM    106  H14 UNL A   1      29.829  23.575  24.094  1.00  0.00    +0.000 H 
BRANCH   10   11
ATOM     11  C8  UNL A   1      31.730  23.429  23.478  1.00  0.00    +0.000 C 
ATOM     12  O2  UNL A   1      32.046  22.409  22.873  1.00  0.00    +0.000 O 
BRANCH   11   13
ATOM    107  H15 UNL A   1      31.027  25.090  21.596  1.00  0.00    +0.000 H 
ATOM    108  H16 UNL A   1      32.029  27.200  20.941  1.00  0.00    +0.000 H 
ATOM     13  C9  UNL A   1      32.406  24.702  23.155  1.00  0.00    +0.000 C 
ATOM     14  C10 UNL A   1      31.858  25.443  22.096  1.00  0.00    +0.000 C 
ATOM     15  C11 UNL A   1      32.434  26.653  21.717  1.00  0.00    +0.000 C 
ATOM    110  H18 UNL A   1      34.945  26.734  23.927  1.00  0.00    +0.000 H 
ATOM     17  C13 UNL A   1      34.114  26.371  23.434  1.00  0.00    +0.000 C 
ATOM     18  C14 UNL A   1      33.566  25.139  23.827  1.00  0.00    +0.000 C 
ATOM     16  C12 UNL A   1      33.559  27.119  22.390  1.00  0.00    +0.000 C 
ATOM    109  H17 UNL A   1      33.984  28.018  22.118  1.00  0.00    +0.000 H 
BRANCH   18   19
ATOM     19  N3  UNL A   1      34.137  24.394  24.881  1.00  0.00    +0.000 N 
ATOM    111  H19 UNL A   1      33.571  24.328  25.684  1.00  0.00    +0.000 H 
BRANCH   19   20
ATOM    112  H20 UNL A   1      34.813  22.174  23.677  1.00  0.00    +0.000 H 
ATOM    113  H21 UNL A   1      36.951  21.039  23.729  1.00  0.00    +0.000 H 
ATOM    114  H22 UNL A   1      38.765  21.922  25.072  1.00  0.00    +0.000 H 
ATOM    115  H23 UNL A   1      36.296  25.102  26.291  1.00  0.00    +0.000 H 
ATOM     20  C15 UNL A   1      35.371  23.732  24.985  1.00  0.00    +0.000 C 
ATOM     21  C16 UNL A   1      35.581  22.559  24.249  1.00  0.00    +0.000 C 
ATOM     22  C17 UNL A   1      36.812  21.902  24.280  1.00  0.00    +0.000 C 
ATOM     23  C18 UNL A   1      37.855  22.408  25.052  1.00  0.00    +0.000 C 
ATOM     24  C19 UNL A   1      37.672  23.576  25.806  1.00  0.00    +0.000 C 
ATOM     25  C20 UNL A   1      38.804  24.121  26.642  1.00  0.00    +0.000 C 
ATOM     26  F1  UNL A   1      39.361  23.173  27.444  1.00  0.00    +0.000 F 
ATOM     27  F2  UNL A   1      39.818  24.618  25.884  1.00  0.00    +0.000 F 
ATOM     28  F3  UNL A   1      38.426  25.132  27.473  1.00  0.00    +0.000 F 
ATOM     29  C21 UNL A   1      36.431  24.232  25.753  1.00  0.00    +0.000 C 
ENDBRANCH   19   20
ENDBRANCH   18   19
ENDBRANCH   11   13
ENDBRANCH   10   11
ENDBRANCH    9   10
ENDBRANCH    8    9
ENDBRANCH    7    8
ENDBRANCH    6    7
ENDBRANCH    5    6
ENDBRANCH    4    5
ENDBRANCH    3    4
ENDBRANCH    2    3
ENDBRANCH   30    2
ENDBRANCH   34   33
BRANCH   38   39
ATOM     39  C30 UNL A   1      39.436  31.938  35.483  1.00  0.00    +0.000 C 
ATOM     40  C31 UNL A   1      39.749  33.302  35.575  1.00  0.00    +0.000 C 
ATOM     41  F4  UNL A   1      40.603  33.859  34.704  1.00  0.00    +0.000 F 
ATOM     42  C32 UNL A   1      39.202  34.097  36.580  1.00  0.00    +0.000 C 
ATOM     43  F5  UNL A   1      39.540  35.391  36.667  1.00  0.00    +0.000 F 
ATOM     44  C33 UNL A   1      38.313  33.552  37.494  1.00  0.00    +0.000 C 
ATOM     45  F6  UNL A   1      37.777  34.321  38.452  1.00  0.00    +0.000 F 
ATOM     46  C34 UNL A   1      37.982  32.207  37.417  1.00  0.00    +0.000 C 
ATOM     47  F7  UNL A   1      37.113  31.682  38.292  1.00  0.00    +0.000 F 
ATOM     48  C35 UNL A   1      38.545  31.405  36.428  1.00  0.00    +0.000 C 
ATOM     49  F8  UNL A   1      38.207  30.107  36.381  1.00  0.00    +0.000 F 
ENDBRANCH   38   39
BRANCH   55   56
ATOM     65  C46 UNL A   1      46.331  28.391  34.146  1.00  0.00    +0.000 C 
ATOM     66  F13 UNL A   1      46.400  29.500  33.395  1.00  0.00    +0.000 F 
ATOM     56  C41 UNL A   1      45.128  27.680  34.249  1.00  0.00    +0.000 C 
ATOM     57  C42 UNL A   1      45.109  26.525  35.045  1.00  0.00    +0.000 C 
ATOM     58  F9  UNL A   1      43.975  25.821  35.188  1.00  0.00    +0.000 F 
ATOM     59  C43 UNL A   1      46.244  26.118  35.740  1.00  0.00    +0.000 C 
ATOM     60  F10 UNL A   1      46.188  25.044  36.539  1.00  0.00    +0.000 F 
ATOM     61  C44 UNL A   1      47.424  26.836  35.625  1.00  0.00    +0.000 C 
ATOM     62  F11 UNL A   1      48.515  26.447  36.300  1.00  0.00    +0.000 F 
ATOM     63  C45 UNL A   1      47.471  27.966  34.822  1.00  0.00    +0.000 C 
ATOM     64  F12 UNL A   1      48.614  28.657  34.705  1.00  0.00    +0.000 F 
ENDBRANCH   55   56
BRANCH   70   71
ATOM     71  C50 UNL A   1      42.715  26.383  27.855  1.00  0.00    +0.000 C 
ATOM     72  C51 UNL A   1      42.381  25.028  27.743  1.00  0.00    +0.000 C 
ATOM     73  F14 UNL A   1      41.632  24.441  28.688  1.00  0.00    +0.000 F 
ATOM     74  C52 UNL A   1      42.843  24.261  26.674  1.00  0.00    +0.000 C 
ATOM     75  F15 UNL A   1      42.544  22.957  26.610  1.00  0.00    +0.000 F 
ATOM     76  C53 UNL A   1      43.620  24.843  25.684  1.00  0.00    +0.000 C 
ATOM     77  F16 UNL A   1      44.055  24.107  24.652  1.00  0.00    +0.000 F 
ATOM     78  C54 UNL A   1      43.950  26.187  25.766  1.00  0.00    +0.000 C 
ATOM     79  F17 UNL A   1      44.685  26.758  24.803  1.00  0.00    +0.000 F 
ATOM     80  C55 UNL A   1      43.516  26.946  26.849  1.00  0.00    +0.000 C 
ATOM     81  F18 UNL A   1      43.857  28.241  26.909  1.00  0.00    +0.000 F 
ENDBRANCH   70   71
TORSDOF 17
ENDMDL
MODEL 7
REMARK VINA RESULT:     -11.1     37.457     43.140
ROOT
ATOM     34  C26 UNL A   1      14.311  54.342   5.284  1.00  0.00    +0.000 C 
ATOM     35  C27 UNL A   1      13.824  52.926   5.416  1.00  0.00    +0.000 C 
ATOM     36  N4  UNL A   1      14.087  51.892   4.656  1.00  0.00    +0.000 N 
ATOM     37  C28 UNL A   1      13.407  50.820   5.218  1.00  0.00    +0.000 C 
ATOM     38  C29 UNL A   1      13.338  49.539   4.779  1.00  0.00    +0.000 C 
ATOM     50  C36 UNL A   1      13.997  49.047   3.595  1.00  0.00    +0.000 C 
ATOM     51  C37 UNL A   1      13.984  47.768   3.064  1.00  0.00    +0.000 C 
ATOM     52  C38 UNL A   1      14.789  47.757   1.921  1.00  0.00    +0.000 C 
ATOM     53  C39 UNL A   1      15.272  49.038   1.713  1.00  0.00    +0.000 C 
ATOM     54  N5  UNL A   1      14.787  49.817   2.753  1.00  0.00    +0.000 N 
ATOM     55  C40 UNL A   1      16.110  49.518   0.645  1.00  0.00    +0.000 C 
ATOM     67  C47 UNL A   1      16.536  50.796   0.503  1.00  0.00    +0.000 C 
ATOM     68  N6  UNL A   1      16.305  51.889   1.326  1.00  0.00    +0.000 N 
ATOM     69  C48 UNL A   1      16.972  52.884   0.794  1.00  0.00    +0.000 C 
ATOM     70  C49 UNL A   1      17.083  54.304   1.265  1.00  0.00    +0.000 C 
ATOM     82  C56 UNL A   1      16.447  54.668   2.394  1.00  0.00    +0.000 C 
ATOM     83  C57 UNL A   1      16.450  56.013   2.959  1.00  0.00    +0.000 C 
ATOM     84  C58 UNL A   1      15.727  56.010   4.088  1.00  0.00    +0.000 C 
ATOM     85  C59 UNL A   1      15.165  54.673   4.295  1.00  0.00    +0.000 C 
ATOM     86  N7  UNL A   1      15.681  53.932   3.264  1.00  0.00    +0.000 N 
ATOM     87  C60 UNL A   1      17.698  52.537  -0.434  1.00  0.00    +0.000 C 
ATOM     88  C61 UNL A   1      17.369  51.263  -0.588  1.00  0.00    +0.000 C 
ATOM     89  C62 UNL A   1      12.741  51.321   6.402  1.00  0.00    +0.000 C 
ATOM     90  C63 UNL A   1      12.935  52.625   6.548  1.00  0.00    +0.000 C 
ATOM    118  H26 UNL A   1      13.467  46.961   3.448  1.00  0.00    +0.000 H 
ATOM    119  H27 UNL A   1      14.989  46.933   1.331  1.00  0.00    +0.000 H 
ATOM    120  H28 UNL A   1      14.976  50.776   2.876  1.00  0.00    +0.000 H 
ATOM    121  H29 UNL A   1      16.929  56.833   2.555  1.00  0.00    +0.000 H 
ATOM    122  H30 UNL A   1      15.589  56.820   4.711  1.00  0.00    +0.000 H 
ATOM    123  H31 UNL A   1      15.518  52.968   3.156  1.00  0.00    +0.000 H 
ATOM    124  H32 UNL A   1      18.306  53.130  -1.022  1.00  0.00    +0.000 H 
ATOM    125  H33 UNL A   1      17.666  50.678  -1.384  1.00  0.00    +0.000 H 
ATOM    126  H34 UNL A   1      12.186  50.739   7.048  1.00  0.00    +0.000 H 
ATOM    127  H35 UNL A   1      12.559  53.262   7.267  1.00  0.00    +0.000 H 
ENDROOT
BRANCH   34   33
ATOM    129  H37 UNL A   1      14.583  57.182   8.941  1.00  0.00    +0.000 H 
ATOM     33  C25 UNL A   1      13.823  55.422   6.179  1.00  0.00    +0.000 C 
ATOM    116  H24 UNL A   1      11.346  57.688   6.304  1.00  0.00    +0.000 H 
ATOM    117  H25 UNL A   1      12.062  55.744   5.052  1.00  0.00    +0.000 H 
ATOM     91  C64 UNL A   1      14.556  55.859   7.292  1.00  0.00    +0.000 C 
ATOM     92  C65 UNL A   1      14.059  56.886   8.103  1.00  0.00    +0.000 C 
ATOM    128  H36 UNL A   1      15.465  55.422   7.515  1.00  0.00    +0.000 H 
ATOM     30  C22 UNL A   1      12.851  57.511   7.775  1.00  0.00    +0.000 C 
ATOM     31  C23 UNL A   1      12.174  57.153   6.608  1.00  0.00    +0.000 C 
ATOM     32  C24 UNL A   1      12.620  56.072   5.856  1.00  0.00    +0.000 C 
BRANCH   30    2
ATOM      1  O1  UNL A   1      12.878  59.616   8.810  1.00  0.00    +0.000 O 
ATOM      2  C1  UNL A   1      12.298  58.542   8.682  1.00  0.00    +0.000 C 
BRANCH    2    3
ATOM      3  N1  UNL A   1      11.158  58.275   9.404  1.00  0.00    +0.000 N 
ATOM     93  H1  UNL A   1      10.414  58.906   9.275  1.00  0.00    +0.000 H 
BRANCH    3    4
ATOM      4  C2  UNL A   1      10.903  57.185  10.333  1.00  0.00    +0.000 C 
ATOM     94  H2  UNL A   1      10.212  57.528  11.074  1.00  0.00    +0.000 H 
ATOM     95  H3  UNL A   1      11.846  56.906  10.755  1.00  0.00    +0.000 H 
BRANCH    4    5
ATOM     97  H5  UNL A   1       9.569  55.582  10.335  1.00  0.00    +0.000 H 
ATOM      5  C3  UNL A   1      10.325  55.945   9.670  1.00  0.00    +0.000 C 
ATOM     96  H4  UNL A   1       9.952  56.230   8.708  1.00  0.00    +0.000 H 
BRANCH    5    6
ATOM     98  H6  UNL A   1      11.720  54.878   8.493  1.00  0.00    +0.000 H 
ATOM     99  H7  UNL A   1      10.724  53.897   9.621  1.00  0.00    +0.000 H 
ATOM      6  C4  UNL A   1      11.299  54.787   9.471  1.00  0.00    +0.000 C 
BRANCH    6    7
ATOM    100  H8  UNL A   1      12.033  54.553  11.445  1.00  0.00    +0.000 H 
ATOM    101  H9  UNL A   1      12.997  55.618  10.359  1.00  0.00    +0.000 H 
ATOM      7  C5  UNL A   1      12.455  54.702  10.472  1.00  0.00    +0.000 C 
BRANCH    7    8
ATOM    102  H10 UNL A   1      14.387  54.048   9.886  1.00  0.00    +0.000 H 
ATOM    103  H11 UNL A   1      13.033  52.921   9.535  1.00  0.00    +0.000 H 
ATOM      8  C6  UNL A   1      13.485  53.590  10.236  1.00  0.00    +0.000 C 
BRANCH    8    9
ATOM      9  C7  UNL A   1      13.837  52.737  11.453  1.00  0.00    +0.000 C 
ATOM    105  H13 UNL A   1      14.179  51.787  11.097  1.00  0.00    +0.000 H 
ATOM    104  H12 UNL A   1      14.594  53.240  12.019  1.00  0.00    +0.000 H 
BRANCH    9   10
ATOM     10  N2  UNL A   1      12.693  52.501  12.314  1.00  0.00    +0.000 N 
ATOM    106  H14 UNL A   1      12.522  53.193  12.992  1.00  0.00    +0.000 H 
BRANCH   10   11
ATOM     11  C8  UNL A   1      11.818  51.446  12.311  1.00  0.00    +0.000 C 
ATOM     12  O2  UNL A   1      11.524  50.889  13.364  1.00  0.00    +0.000 O 
BRANCH   11   13
ATOM    107  H15 UNL A   1       9.648  52.417  11.243  1.00  0.00    +0.000 H 
ATOM    108  H16 UNL A   1       8.508  51.775   9.199  1.00  0.00    +0.000 H 
ATOM     13  C9  UNL A   1      11.198  50.988  11.051  1.00  0.00    +0.000 C 
ATOM     14  C10 UNL A   1      10.025  51.653  10.660  1.00  0.00    +0.000 C 
ATOM     15  C11 UNL A   1       9.368  51.283   9.489  1.00  0.00    +0.000 C 
ATOM    110  H18 UNL A   1      11.405  48.811   8.522  1.00  0.00    +0.000 H 
ATOM     17  C13 UNL A   1      11.036  49.574   9.112  1.00  0.00    +0.000 C 
ATOM     18  C14 UNL A   1      11.711  49.912  10.297  1.00  0.00    +0.000 C 
ATOM     16  C12 UNL A   1       9.877  50.247   8.713  1.00  0.00    +0.000 C 
ATOM    109  H17 UNL A   1       9.398  49.976   7.841  1.00  0.00    +0.000 H 
BRANCH   18   19
ATOM     19  N3  UNL A   1      12.878  49.223  10.689  1.00  0.00    +0.000 N 
ATOM    111  H19 UNL A   1      12.806  48.765  11.559  1.00  0.00    +0.000 H 
BRANCH   19   20
ATOM    112  H20 UNL A   1      14.376  47.079  10.696  1.00  0.00    +0.000 H 
ATOM    113  H21 UNL A   1      16.475  46.722   9.546  1.00  0.00    +0.000 H 
ATOM    114  H22 UNL A   1      17.466  48.506   8.239  1.00  0.00    +0.000 H 
ATOM    115  H23 UNL A   1      14.224  51.003   9.216  1.00  0.00    +0.000 H 
ATOM     20  C15 UNL A   1      14.125  49.074  10.059  1.00  0.00    +0.000 C 
ATOM     21  C16 UNL A   1      14.789  47.844  10.139  1.00  0.00    +0.000 C 
ATOM     22  C17 UNL A   1      16.001  47.637   9.478  1.00  0.00    +0.000 C 
ATOM     23  C18 UNL A   1      16.571  48.662   8.727  1.00  0.00    +0.000 C 
ATOM     24  C19 UNL A   1      15.934  49.908   8.635  1.00  0.00    +0.000 C 
ATOM     25  C20 UNL A   1      16.554  51.016   7.821  1.00  0.00    +0.000 C 
ATOM     26  F1  UNL A   1      17.862  51.224   8.137  1.00  0.00    +0.000 F 
ATOM     27  F2  UNL A   1      16.524  50.761   6.485  1.00  0.00    +0.000 F 
ATOM     28  F3  UNL A   1      15.939  52.220   7.987  1.00  0.00    +0.000 F 
ATOM     29  C21 UNL A   1      14.707  50.094   9.295  1.00  0.00    +0.000 C 
ENDBRANCH   19   20
ENDBRANCH   18   19
ENDBRANCH   11   13
ENDBRANCH   10   11
ENDBRANCH    9   10
ENDBRANCH    8    9
ENDBRANCH    7    8
ENDBRANCH    6    7
ENDBRANCH    5    6
ENDBRANCH    4    5
ENDBRANCH    3    4
ENDBRANCH    2    3
ENDBRANCH   30    2
ENDBRANCH   34   33
BRANCH   38   39
ATOM     39  C30 UNL A   1      12.523  48.567   5.582  1.00  0.00    +0.000 C 
ATOM     40  C31 UNL A   1      11.140  48.440   5.393  1.00  0.00    +0.000 C 
ATOM     41  F4  UNL A   1      10.499  49.247   4.534  1.00  0.00    +0.000 F 
ATOM     42  C32 UNL A   1      10.401  47.497   6.105  1.00  0.00    +0.000 C 
ATOM     43  F5  UNL A   1       9.076  47.415   5.930  1.00  0.00    +0.000 F 
ATOM     44  C33 UNL A   1      11.036  46.646   6.998  1.00  0.00    +0.000 C 
ATOM     45  F6  UNL A   1      10.326  45.730   7.672  1.00  0.00    +0.000 F 
ATOM     46  C34 UNL A   1      12.405  46.747   7.194  1.00  0.00    +0.000 C 
ATOM     47  F7  UNL A   1      13.020  45.917   8.048  1.00  0.00    +0.000 F 
ATOM     48  C35 UNL A   1      13.141  47.705   6.501  1.00  0.00    +0.000 C 
ATOM     49  F8  UNL A   1      14.463  47.780   6.715  1.00  0.00    +0.000 F 
ENDBRANCH   38   39
BRANCH   55   56
ATOM     65  C46 UNL A   1      17.817  47.959  -0.362  1.00  0.00    +0.000 C 
ATOM     66  F13 UNL A   1      18.667  48.268   0.629  1.00  0.00    +0.000 F 
ATOM     56  C41 UNL A   1      16.543  48.543  -0.409  1.00  0.00    +0.000 C 
ATOM     57  C42 UNL A   1      15.694  48.189  -1.467  1.00  0.00    +0.000 C 
ATOM     58  F9  UNL A   1      14.459  48.708  -1.545  1.00  0.00    +0.000 F 
ATOM     59  C43 UNL A   1      16.091  47.258  -2.422  1.00  0.00    +0.000 C 
ATOM     60  F10 UNL A   1      15.243  46.892  -3.392  1.00  0.00    +0.000 F 
ATOM     61  C44 UNL A   1      17.355  46.692  -2.357  1.00  0.00    +0.000 C 
ATOM     62  F11 UNL A   1      17.736  45.791  -3.273  1.00  0.00    +0.000 F 
ATOM     63  C45 UNL A   1      18.221  47.048  -1.333  1.00  0.00    +0.000 C 
ATOM     64  F12 UNL A   1      19.446  46.506  -1.273  1.00  0.00    +0.000 F 
ENDBRANCH   55   56
BRANCH   70   71
ATOM     71  C50 UNL A   1      17.883  55.306   0.515  1.00  0.00    +0.000 C 
ATOM     72  C51 UNL A   1      17.398  55.888  -0.662  1.00  0.00    +0.000 C 
ATOM     73  F14 UNL A   1      16.204  55.521  -1.149  1.00  0.00    +0.000 F 
ATOM     74  C52 UNL A   1      18.154  56.827  -1.362  1.00  0.00    +0.000 C 
ATOM     75  F15 UNL A   1      17.686  57.341  -2.507  1.00  0.00    +0.000 F 
ATOM     76  C53 UNL A   1      19.393  57.223  -0.880  1.00  0.00    +0.000 C 
ATOM     77  F16 UNL A   1      20.114  58.134  -1.549  1.00  0.00    +0.000 F 
ATOM     78  C54 UNL A   1      19.886  56.671   0.291  1.00  0.00    +0.000 C 
ATOM     79  F17 UNL A   1      21.074  57.064   0.771  1.00  0.00    +0.000 F 
ATOM     80  C55 UNL A   1      19.146  55.710   0.975  1.00  0.00    +0.000 C 
ATOM     81  F18 UNL A   1      19.651  55.186   2.100  1.00  0.00    +0.000 F 
ENDBRANCH   70   71
TORSDOF 17
ENDMDL
MODEL 8
REMARK VINA RESULT:     -11.1      2.198      3.559
ROOT
ATOM     34  C26 UNL A   1      37.914  30.166  29.825  1.00  0.00    +0.000 C 
ATOM     35  C27 UNL A   1      38.153  30.649  31.228  1.00  0.00    +0.000 C 
ATOM     36  N4  UNL A   1      39.162  30.396  32.024  1.00  0.00    +0.000 N 
ATOM     37  C28 UNL A   1      38.910  31.095  33.197  1.00  0.00    +0.000 C 
ATOM     38  C29 UNL A   1      39.646  31.128  34.335  1.00  0.00    +0.000 C 
ATOM     50  C36 UNL A   1      40.880  30.409  34.529  1.00  0.00    +0.000 C 
ATOM     51  C37 UNL A   1      41.695  30.373  35.648  1.00  0.00    +0.000 C 
ATOM     52  C38 UNL A   1      42.799  29.562  35.363  1.00  0.00    +0.000 C 
ATOM     53  C39 UNL A   1      42.652  29.056  34.083  1.00  0.00    +0.000 C 
ATOM     54  N5  UNL A   1      41.476  29.592  33.578  1.00  0.00    +0.000 N 
ATOM     55  C40 UNL A   1      43.515  28.151  33.372  1.00  0.00    +0.000 C 
ATOM     67  C47 UNL A   1      43.299  27.690  32.116  1.00  0.00    +0.000 C 
ATOM     68  N6  UNL A   1      42.261  27.988  31.245  1.00  0.00    +0.000 N 
ATOM     69  C48 UNL A   1      42.526  27.340  30.138  1.00  0.00    +0.000 C 
ATOM     70  C49 UNL A   1      41.744  27.298  28.858  1.00  0.00    +0.000 C 
ATOM     82  C56 UNL A   1      40.611  28.018  28.762  1.00  0.00    +0.000 C 
ATOM     83  C57 UNL A   1      39.742  28.059  27.592  1.00  0.00    +0.000 C 
ATOM     84  C58 UNL A   1      38.715  28.884  27.843  1.00  0.00    +0.000 C 
ATOM     85  C59 UNL A   1      38.828  29.387  29.214  1.00  0.00    +0.000 C 
ATOM     86  N7  UNL A   1      40.006  28.854  29.668  1.00  0.00    +0.000 N 
ATOM     87  C60 UNL A   1      43.762  26.548  30.182  1.00  0.00    +0.000 C 
ATOM     88  C61 UNL A   1      44.174  26.766  31.422  1.00  0.00    +0.000 C 
ATOM     89  C62 UNL A   1      37.666  31.808  33.001  1.00  0.00    +0.000 C 
ATOM     90  C63 UNL A   1      37.137  31.537  31.815  1.00  0.00    +0.000 C 
ATOM    118  H26 UNL A   1      41.519  30.863  36.540  1.00  0.00    +0.000 H 
ATOM    119  H27 UNL A   1      43.589  29.371  36.001  1.00  0.00    +0.000 H 
ATOM    120  H28 UNL A   1      41.116  29.418  32.678  1.00  0.00    +0.000 H 
ATOM    121  H29 UNL A   1      39.891  27.537  26.714  1.00  0.00    +0.000 H 
ATOM    122  H30 UNL A   1      37.966  29.126  27.176  1.00  0.00    +0.000 H 
ATOM    123  H31 UNL A   1      40.382  29.051  30.556  1.00  0.00    +0.000 H 
ATOM    124  H32 UNL A   1      44.196  25.974  29.442  1.00  0.00    +0.000 H 
ATOM    125  H33 UNL A   1      45.011  26.333  31.841  1.00  0.00    +0.000 H 
ATOM    126  H34 UNL A   1      37.244  32.446  33.694  1.00  0.00    +0.000 H 
ATOM    127  H35 UNL A   1      36.246  31.863  31.410  1.00  0.00    +0.000 H 
ENDROOT
BRANCH   34   33
ATOM    129  H37 UNL A   1      34.901  32.942  27.650  1.00  0.00    +0.000 H 
ATOM     33  C25 UNL A   1      36.653  30.466  29.101  1.00  0.00    +0.000 C 
ATOM    116  H24 UNL A   1      34.052  28.824  27.748  1.00  0.00    +0.000 H 
ATOM    117  H25 UNL A   1      35.985  28.459  29.158  1.00  0.00    +0.000 H 
ATOM     91  C64 UNL A   1      36.342  31.755  28.641  1.00  0.00    +0.000 C 
ATOM     92  C65 UNL A   1      35.144  31.987  27.956  1.00  0.00    +0.000 C 
ATOM    128  H36 UNL A   1      36.998  32.534  28.809  1.00  0.00    +0.000 H 
ATOM     30  C22 UNL A   1      34.276  30.923  27.686  1.00  0.00    +0.000 C 
ATOM     31  C23 UNL A   1      34.634  29.623  28.046  1.00  0.00    +0.000 C 
ATOM     32  C24 UNL A   1      35.777  29.407  28.806  1.00  0.00    +0.000 C 
BRANCH   30    2
ATOM      1  O1  UNL A   1      32.547  32.344  26.980  1.00  0.00    +0.000 O 
ATOM      2  C1  UNL A   1      32.977  31.195  27.029  1.00  0.00    +0.000 C 
BRANCH    2    3
ATOM      3  N1  UNL A   1      32.244  30.153  26.511  1.00  0.00    +0.000 N 
ATOM     93  H1  UNL A   1      32.195  29.346  27.071  1.00  0.00    +0.000 H 
BRANCH    3    4
ATOM      4  C2  UNL A   1      31.531  30.083  25.246  1.00  0.00    +0.000 C 
ATOM     94  H2  UNL A   1      31.672  31.008  24.727  1.00  0.00    +0.000 H 
ATOM     95  H3  UNL A   1      30.502  29.901  25.475  1.00  0.00    +0.000 H 
BRANCH    4    5
ATOM     97  H5  UNL A   1      31.469  28.078  24.676  1.00  0.00    +0.000 H 
ATOM      5  C3  UNL A   1      31.997  28.949  24.348  1.00  0.00    +0.000 C 
ATOM     96  H4  UNL A   1      31.789  29.223  23.335  1.00  0.00    +0.000 H 
BRANCH    5    6
ATOM     98  H6  UNL A   1      33.927  29.259  25.155  1.00  0.00    +0.000 H 
ATOM     99  H7  UNL A   1      33.865  28.696  23.449  1.00  0.00    +0.000 H 
ATOM      6  C4  UNL A   1      33.480  28.598  24.443  1.00  0.00    +0.000 C 
BRANCH    6    7
ATOM    100  H8  UNL A   1      34.700  27.194  25.457  1.00  0.00    +0.000 H 
ATOM    101  H9  UNL A   1      33.893  26.609  23.957  1.00  0.00    +0.000 H 
ATOM      7  C5  UNL A   1      33.806  27.163  24.869  1.00  0.00    +0.000 C 
BRANCH    7    8
ATOM    102  H10 UNL A   1      31.977  27.143  25.946  1.00  0.00    +0.000 H 
ATOM    103  H11 UNL A   1      33.247  26.014  26.528  1.00  0.00    +0.000 H 
ATOM      8  C6  UNL A   1      32.734  26.432  25.687  1.00  0.00    +0.000 C 
BRANCH    8    9
ATOM      9  C7  UNL A   1      32.052  25.255  24.994  1.00  0.00    +0.000 C 
ATOM    105  H13 UNL A   1      32.162  24.397  25.624  1.00  0.00    +0.000 H 
ATOM    104  H12 UNL A   1      31.021  25.498  24.839  1.00  0.00    +0.000 H 
BRANCH    9   10
ATOM     10  N2  UNL A   1      32.653  24.942  23.711  1.00  0.00    +0.000 N 
ATOM    106  H14 UNL A   1      32.512  25.610  23.001  1.00  0.00    +0.000 H 
BRANCH   10   11
ATOM     11  C8  UNL A   1      33.394  23.846  23.353  1.00  0.00    +0.000 C 
ATOM     12  O2  UNL A   1      33.216  23.315  22.261  1.00  0.00    +0.000 O 
BRANCH   11   13
ATOM    107  H15 UNL A   1      35.676  24.983  23.892  1.00  0.00    +0.000 H 
ATOM    108  H16 UNL A   1      37.473  24.235  25.341  1.00  0.00    +0.000 H 
ATOM     13  C9  UNL A   1      34.431  23.311  24.260  1.00  0.00    +0.000 C 
ATOM     14  C10 UNL A   1      35.590  24.090  24.403  1.00  0.00    +0.000 C 
ATOM     15  C11 UNL A   1      36.623  23.661  25.231  1.00  0.00    +0.000 C 
ATOM    110  H18 UNL A   1      35.278  20.778  26.270  1.00  0.00    +0.000 H 
ATOM     17  C13 UNL A   1      35.354  21.669  25.754  1.00  0.00    +0.000 C 
ATOM     18  C14 UNL A   1      34.303  22.067  24.912  1.00  0.00    +0.000 C 
ATOM     16  C12 UNL A   1      36.503  22.453  25.911  1.00  0.00    +0.000 C 
ATOM    109  H17 UNL A   1      37.262  22.135  26.532  1.00  0.00    +0.000 H 
BRANCH   18   19
ATOM     19  N3  UNL A   1      33.152  21.266  24.761  1.00  0.00    +0.000 N 
ATOM    111  H19 UNL A   1      32.330  21.661  25.135  1.00  0.00    +0.000 H 
BRANCH   19   20
ATOM    112  H20 UNL A   1      32.128  20.786  22.403  1.00  0.00    +0.000 H 
ATOM    113  H21 UNL A   1      31.886  18.652  21.287  1.00  0.00    +0.000 H 
ATOM    114  H22 UNL A   1      32.577  16.612  22.399  1.00  0.00    +0.000 H 
ATOM    115  H23 UNL A   1      33.782  18.860  25.744  1.00  0.00    +0.000 H 
ATOM     20  C15 UNL A   1      32.970  20.004  24.172  1.00  0.00    +0.000 C 
ATOM     21  C16 UNL A   1      32.428  19.923  22.883  1.00  0.00    +0.000 C 
ATOM     22  C17 UNL A   1      32.286  18.693  22.239  1.00  0.00    +0.000 C 
ATOM     23  C18 UNL A   1      32.681  17.520  22.878  1.00  0.00    +0.000 C 
ATOM     24  C19 UNL A   1      33.221  17.568  24.171  1.00  0.00    +0.000 C 
ATOM     25  C20 UNL A   1      33.648  16.296  24.860  1.00  0.00    +0.000 C 
ATOM     26  F1  UNL A   1      32.680  15.339  24.832  1.00  0.00    +0.000 F 
ATOM     27  F2  UNL A   1      34.748  15.738  24.286  1.00  0.00    +0.000 F 
ATOM     28  F3  UNL A   1      33.958  16.469  26.175  1.00  0.00    +0.000 F 
ATOM     29  C21 UNL A   1      33.369  18.816  24.799  1.00  0.00    +0.000 C 
ENDBRANCH   19   20
ENDBRANCH   18   19
ENDBRANCH   11   13
ENDBRANCH   10   11
ENDBRANCH    9   10
ENDBRANCH    8    9
ENDBRANCH    7    8
ENDBRANCH    6    7
ENDBRANCH    5    6
ENDBRANCH    4    5
ENDBRANCH    3    4
ENDBRANCH    2    3
ENDBRANCH   30    2
ENDBRANCH   34   33
BRANCH   38   39
ATOM     39  C30 UNL A   1      39.142  31.973  35.470  1.00  0.00    +0.000 C 
ATOM     40  C31 UNL A   1      38.335  31.434  36.482  1.00  0.00    +0.000 C 
ATOM     41  F4  UNL A   1      37.931  30.157  36.415  1.00  0.00    +0.000 F 
ATOM     42  C32 UNL A   1      37.918  32.215  37.558  1.00  0.00    +0.000 C 
ATOM     43  F5  UNL A   1      37.121  31.687  38.497  1.00  0.00    +0.000 F 
ATOM     44  C33 UNL A   1      38.322  33.538  37.658  1.00  0.00    +0.000 C 
ATOM     45  F6  UNL A   1      37.931  34.283  38.701  1.00  0.00    +0.000 F 
ATOM     46  C34 UNL A   1      39.128  34.089  36.673  1.00  0.00    +0.000 C 
ATOM     47  F7  UNL A   1      39.529  35.364  36.774  1.00  0.00    +0.000 F 
ATOM     48  C35 UNL A   1      39.527  33.318  35.584  1.00  0.00    +0.000 C 
ATOM     49  F8  UNL A   1      40.304  33.880  34.646  1.00  0.00    +0.000 F 
ENDBRANCH   38   39
BRANCH   55   56
ATOM     65  C46 UNL A   1      45.957  28.363  33.965  1.00  0.00    +0.000 C 
ATOM     66  F13 UNL A   1      46.023  29.491  33.243  1.00  0.00    +0.000 F 
ATOM     56  C41 UNL A   1      44.750  27.657  34.066  1.00  0.00    +0.000 C 
ATOM     57  C42 UNL A   1      44.735  26.481  34.831  1.00  0.00    +0.000 C 
ATOM     58  F9  UNL A   1      43.599  25.781  34.971  1.00  0.00    +0.000 F 
ATOM     59  C43 UNL A   1      45.877  26.048  35.498  1.00  0.00    +0.000 C 
ATOM     60  F10 UNL A   1      45.825  24.953  36.269  1.00  0.00    +0.000 F 
ATOM     61  C44 UNL A   1      47.060  26.761  35.386  1.00  0.00    +0.000 C 
ATOM     62  F11 UNL A   1      48.158  26.348  36.034  1.00  0.00    +0.000 F 
ATOM     63  C45 UNL A   1      47.104  27.912  34.613  1.00  0.00    +0.000 C 
ATOM     64  F12 UNL A   1      48.249  28.599  34.498  1.00  0.00    +0.000 F 
ENDBRANCH   55   56
BRANCH   70   71
ATOM     71  C50 UNL A   1      42.200  26.486  27.701  1.00  0.00    +0.000 C 
ATOM     72  C51 UNL A   1      43.112  26.999  26.770  1.00  0.00    +0.000 C 
ATOM     73  F14 UNL A   1      43.566  28.255  26.897  1.00  0.00    +0.000 F 
ATOM     74  C52 UNL A   1      43.537  26.233  25.686  1.00  0.00    +0.000 C 
ATOM     75  F15 UNL A   1      44.379  26.759  24.786  1.00  0.00    +0.000 F 
ATOM     76  C53 UNL A   1      43.082  24.932  25.530  1.00  0.00    +0.000 C 
ATOM     77  F16 UNL A   1      43.498  24.193  24.493  1.00  0.00    +0.000 F 
ATOM     78  C54 UNL A   1      42.190  24.399  26.448  1.00  0.00    +0.000 C 
ATOM     79  F17 UNL A   1      41.761  23.137  26.313  1.00  0.00    +0.000 F 
ATOM     80  C55 UNL A   1      41.741  25.173  27.514  1.00  0.00    +0.000 C 
ATOM     81  F18 UNL A   1      40.871  24.636  28.382  1.00  0.00    +0.000 F 
ENDBRANCH   70   71
TORSDOF 17
ENDMDL
MODEL 9
REMARK VINA RESULT:     -11.1      1.701      2.943
ROOT
ATOM     34  C26 UNL A   1      38.037  30.539  30.041  1.00  0.00    +0.000 C 
ATOM     35  C27 UNL A   1      38.268  30.953  31.467  1.00  0.00    +0.000 C 
ATOM     36  N4  UNL A   1      39.253  30.629  32.268  1.00  0.00    +0.000 N 
ATOM     37  C28 UNL A   1      39.005  31.287  33.465  1.00  0.00    +0.000 C 
ATOM     38  C29 UNL A   1      39.721  31.244  34.616  1.00  0.00    +0.000 C 
ATOM     50  C36 UNL A   1      40.925  30.473  34.799  1.00  0.00    +0.000 C 
ATOM     51  C37 UNL A   1      41.718  30.360  35.928  1.00  0.00    +0.000 C 
ATOM     52  C38 UNL A   1      42.796  29.521  35.627  1.00  0.00    +0.000 C 
ATOM     53  C39 UNL A   1      42.654  29.076  34.324  1.00  0.00    +0.000 C 
ATOM     54  N5  UNL A   1      41.508  29.675  33.824  1.00  0.00    +0.000 N 
ATOM     55  C40 UNL A   1      43.497  28.170  33.589  1.00  0.00    +0.000 C 
ATOM     67  C47 UNL A   1      43.286  27.771  32.311  1.00  0.00    +0.000 C 
ATOM     68  N6  UNL A   1      42.277  28.144  31.437  1.00  0.00    +0.000 N 
ATOM     69  C48 UNL A   1      42.538  27.534  30.307  1.00  0.00    +0.000 C 
ATOM     70  C49 UNL A   1      41.777  27.575  29.014  1.00  0.00    +0.000 C 
ATOM     82  C56 UNL A   1      40.674  28.340  28.931  1.00  0.00    +0.000 C 
ATOM     83  C57 UNL A   1      39.827  28.463  27.749  1.00  0.00    +0.000 C 
ATOM     84  C58 UNL A   1      38.827  29.313  28.018  1.00  0.00    +0.000 C 
ATOM     85  C59 UNL A   1      38.933  29.754  29.412  1.00  0.00    +0.000 C 
ATOM     86  N7  UNL A   1      40.083  29.159  29.862  1.00  0.00    +0.000 N 
ATOM     87  C60 UNL A   1      43.743  26.696  30.338  1.00  0.00    +0.000 C 
ATOM     88  C61 UNL A   1      44.140  26.846  31.592  1.00  0.00    +0.000 C 
ATOM     89  C62 UNL A   1      37.791  32.054  33.279  1.00  0.00    +0.000 C 
ATOM     90  C63 UNL A   1      37.275  31.852  32.074  1.00  0.00    +0.000 C 
ATOM    118  H26 UNL A   1      41.543  30.817  36.837  1.00  0.00    +0.000 H 
ATOM    119  H27 UNL A   1      43.567  29.274  36.269  1.00  0.00    +0.000 H 
ATOM    120  H28 UNL A   1      41.159  29.553  32.911  1.00  0.00    +0.000 H 
ATOM    121  H29 UNL A   1      39.974  27.973  26.853  1.00  0.00    +0.000 H 
ATOM    122  H30 UNL A   1      38.100  29.611  27.350  1.00  0.00    +0.000 H 
ATOM    123  H31 UNL A   1      40.450  29.303  30.763  1.00  0.00    +0.000 H 
ATOM    124  H32 UNL A   1      44.169  26.138  29.581  1.00  0.00    +0.000 H 
ATOM    125  H33 UNL A   1      44.954  26.365  32.007  1.00  0.00    +0.000 H 
ATOM    126  H34 UNL A   1      37.381  32.677  33.992  1.00  0.00    +0.000 H 
ATOM    127  H35 UNL A   1      36.403  32.228  31.669  1.00  0.00    +0.000 H 
ENDROOT
BRANCH   34   33
ATOM    129  H37 UNL A   1      35.221  33.491  27.834  1.00  0.00    +0.000 H 
ATOM     33  C25 UNL A   1      36.801  30.916  29.309  1.00  0.00    +0.000 C 
ATOM    116  H24 UNL A   1      34.103  29.439  27.957  1.00  0.00    +0.000 H 
ATOM    117  H25 UNL A   1      36.003  28.958  29.378  1.00  0.00    +0.000 H 
ATOM     91  C64 UNL A   1      36.577  32.219  28.839  1.00  0.00    +0.000 C 
ATOM     92  C65 UNL A   1      35.399  32.525  28.148  1.00  0.00    +0.000 C 
ATOM    128  H36 UNL A   1      37.282  32.954  29.004  1.00  0.00    +0.000 H 
ATOM     30  C22 UNL A   1      34.465  31.518  27.882  1.00  0.00    +0.000 C 
ATOM     31  C23 UNL A   1      34.735  30.199  28.252  1.00  0.00    +0.000 C 
ATOM     32  C24 UNL A   1      35.859  29.915  29.018  1.00  0.00    +0.000 C 
BRANCH   30    2
ATOM      1  O1  UNL A   1      32.744  33.009  27.317  1.00  0.00    +0.000 O 
ATOM      2  C1  UNL A   1      33.189  31.870  27.218  1.00  0.00    +0.000 C 
BRANCH    2    3
ATOM      3  N1  UNL A   1      32.492  30.907  26.525  1.00  0.00    +0.000 N 
ATOM     93  H1  UNL A   1      32.597  30.926  25.547  1.00  0.00    +0.000 H 
BRANCH    3    4
ATOM      4  C2  UNL A   1      31.622  29.864  27.043  1.00  0.00    +0.000 C 
ATOM     94  H2  UNL A   1      30.624  30.248  27.087  1.00  0.00    +0.000 H 
ATOM     95  H3  UNL A   1      31.995  29.593  28.008  1.00  0.00    +0.000 H 
BRANCH    4    5
ATOM     97  H5  UNL A   1      30.705  28.093  26.433  1.00  0.00    +0.000 H 
ATOM      5  C3  UNL A   1      31.616  28.601  26.195  1.00  0.00    +0.000 C 
ATOM     96  H4  UNL A   1      31.692  28.893  25.169  1.00  0.00    +0.000 H 
BRANCH    5    6
ATOM     98  H6  UNL A   1      32.309  26.627  26.507  1.00  0.00    +0.000 H 
ATOM     99  H7  UNL A   1      33.169  27.919  27.413  1.00  0.00    +0.000 H 
ATOM      6  C4  UNL A   1      32.738  27.607  26.485  1.00  0.00    +0.000 C 
BRANCH    6    7
ATOM    100  H8  UNL A   1      34.054  26.569  25.189  1.00  0.00    +0.000 H 
ATOM    101  H9  UNL A   1      34.721  28.036  25.992  1.00  0.00    +0.000 H 
ATOM      7  C5  UNL A   1      33.895  27.587  25.481  1.00  0.00    +0.000 C 
BRANCH    7    8
ATOM    102  H10 UNL A   1      34.349  29.271  24.272  1.00  0.00    +0.000 H 
ATOM    103  H11 UNL A   1      32.665  28.653  24.164  1.00  0.00    +0.000 H 
ATOM      8  C6  UNL A   1      33.708  28.416  24.204  1.00  0.00    +0.000 C 
BRANCH    8    9
ATOM      9  C7  UNL A   1      34.020  27.700  22.892  1.00  0.00    +0.000 C 
ATOM    105  H13 UNL A   1      34.668  28.333  22.322  1.00  0.00    +0.000 H 
ATOM    104  H12 UNL A   1      34.485  26.762  23.115  1.00  0.00    +0.000 H 
BRANCH    9   10
ATOM     10  N2  UNL A   1      32.831  27.453  22.099  1.00  0.00    +0.000 N 
ATOM    106  H14 UNL A   1      32.568  28.181  21.489  1.00  0.00    +0.000 H 
BRANCH   10   11
ATOM     11  C8  UNL A   1      32.026  26.344  22.079  1.00  0.00    +0.000 C 
ATOM     12  O2  UNL A   1      31.829  25.747  21.025  1.00  0.00    +0.000 O 
BRANCH   11   13
ATOM    107  H15 UNL A   1      29.801  27.199  23.134  1.00  0.00    +0.000 H 
ATOM    108  H16 UNL A   1      28.675  26.483  25.160  1.00  0.00    +0.000 H 
ATOM     13  C9  UNL A   1      31.412  25.839  23.324  1.00  0.00    +0.000 C 
ATOM     14  C10 UNL A   1      30.209  26.447  23.713  1.00  0.00    +0.000 C 
ATOM     15  C11 UNL A   1      29.563  26.040  24.877  1.00  0.00    +0.000 C 
ATOM    110  H18 UNL A   1      31.728  23.687  25.862  1.00  0.00    +0.000 H 
ATOM     17  C13 UNL A   1      31.330  24.438  25.277  1.00  0.00    +0.000 C 
ATOM     18  C14 UNL A   1      32.013  24.839  24.117  1.00  0.00    +0.000 C 
ATOM     16  C12 UNL A   1      30.121  25.031  25.656  1.00  0.00    +0.000 C 
ATOM    109  H17 UNL A   1      29.642  24.721  26.515  1.00  0.00    +0.000 H 
BRANCH   18   19
ATOM     19  N3  UNL A   1      33.233  24.234  23.748  1.00  0.00    +0.000 N 
ATOM    111  H19 UNL A   1      33.682  24.661  22.982  1.00  0.00    +0.000 H 
BRANCH   19   20
ATOM    112  H20 UNL A   1      35.459  24.302  25.118  1.00  0.00    +0.000 H 
ATOM    113  H21 UNL A   1      36.633  22.455  26.150  1.00  0.00    +0.000 H 
ATOM    114  H22 UNL A   1      35.792  20.194  25.914  1.00  0.00    +0.000 H 
ATOM    115  H23 UNL A   1      32.573  21.645  23.628  1.00  0.00    +0.000 H 
ATOM     20  C15 UNL A   1      33.919  23.130  24.279  1.00  0.00    +0.000 C 
ATOM     21  C16 UNL A   1      35.092  23.343  25.015  1.00  0.00    +0.000 C 
ATOM     22  C17 UNL A   1      35.771  22.279  25.609  1.00  0.00    +0.000 C 
ATOM     23  C18 UNL A   1      35.289  20.979  25.473  1.00  0.00    +0.000 C 
ATOM     24  C19 UNL A   1      34.122  20.733  24.736  1.00  0.00    +0.000 C 
ATOM     25  C20 UNL A   1      33.602  19.324  24.590  1.00  0.00    +0.000 C 
ATOM     26  F1  UNL A   1      34.565  18.455  24.176  1.00  0.00    +0.000 F 
ATOM     27  F2  UNL A   1      33.120  18.824  25.760  1.00  0.00    +0.000 F 
ATOM     28  F3  UNL A   1      32.589  19.210  23.687  1.00  0.00    +0.000 F 
ATOM     29  C21 UNL A   1      33.443  21.818  24.156  1.00  0.00    +0.000 C 
ENDBRANCH   19   20
ENDBRANCH   18   19
ENDBRANCH   11   13
ENDBRANCH   10   11
ENDBRANCH    9   10
ENDBRANCH    8    9
ENDBRANCH    7    8
ENDBRANCH    6    7
ENDBRANCH    5    6
ENDBRANCH    4    5
ENDBRANCH    3    4
ENDBRANCH    2    3
ENDBRANCH   30    2
ENDBRANCH   34   33
BRANCH   38   39
ATOM     39  C30 UNL A   1      39.228  32.058  35.777  1.00  0.00    +0.000 C 
ATOM     40  C31 UNL A   1      38.371  31.512  36.743  1.00  0.00    +0.000 C 
ATOM     41  F4  UNL A   1      37.910  30.260  36.606  1.00  0.00    +0.000 F 
ATOM     42  C32 UNL A   1      37.963  32.261  37.846  1.00  0.00    +0.000 C 
ATOM     43  F5  UNL A   1      37.119  31.728  38.739  1.00  0.00    +0.000 F 
ATOM     44  C33 UNL A   1      38.425  33.557  38.017  1.00  0.00    +0.000 C 
ATOM     45  F6  UNL A   1      38.042  34.271  39.085  1.00  0.00    +0.000 F 
ATOM     46  C34 UNL A   1      39.281  34.115  37.079  1.00  0.00    +0.000 C 
ATOM     47  F7  UNL A   1      39.737  35.363  37.250  1.00  0.00    +0.000 F 
ATOM     48  C35 UNL A   1      39.671  33.377  35.964  1.00  0.00    +0.000 C 
ATOM     49  F8  UNL A   1      40.497  33.945  35.073  1.00  0.00    +0.000 F 
ENDBRANCH   38   39
BRANCH   55   56
ATOM     65  C46 UNL A   1      44.611  26.400  34.998  1.00  0.00    +0.000 C 
ATOM     66  F13 UNL A   1      43.445  25.744  35.077  1.00  0.00    +0.000 F 
ATOM     56  C41 UNL A   1      44.701  27.601  34.281  1.00  0.00    +0.000 C 
ATOM     57  C42 UNL A   1      45.943  28.251  34.232  1.00  0.00    +0.000 C 
ATOM     58  F9  UNL A   1      46.081  29.394  33.543  1.00  0.00    +0.000 F 
ATOM     59  C43 UNL A   1      47.062  27.699  34.848  1.00  0.00    +0.000 C 
ATOM     60  F10 UNL A   1      48.251  28.307  34.742  1.00  0.00    +0.000 F 
ATOM     61  C44 UNL A   1      46.953  26.510  35.553  1.00  0.00    +0.000 C 
ATOM     62  F11 UNL A   1      48.032  25.976  36.141  1.00  0.00    +0.000 F 
ATOM     63  C45 UNL A   1      45.727  25.865  35.636  1.00  0.00    +0.000 C 
ATOM     64  F12 UNL A   1      45.619  24.719  36.322  1.00  0.00    +0.000 F 
ENDBRANCH   55   56
BRANCH   70   71
ATOM     71  C50 UNL A   1      42.225  26.797  27.831  1.00  0.00    +0.000 C 
ATOM     72  C51 UNL A   1      41.795  25.481  27.623  1.00  0.00    +0.000 C 
ATOM     73  F14 UNL A   1      40.990  24.889  28.517  1.00  0.00    +0.000 F 
ATOM     74  C52 UNL A   1      42.218  24.755  26.511  1.00  0.00    +0.000 C 
ATOM     75  F15 UNL A   1      41.826  23.484  26.355  1.00  0.00    +0.000 F 
ATOM     76  C53 UNL A   1      43.052  25.343  25.572  1.00  0.00    +0.000 C 
ATOM     77  F16 UNL A   1      43.450  24.647  24.497  1.00  0.00    +0.000 F 
ATOM     78  C54 UNL A   1      43.478  26.650  25.749  1.00  0.00    +0.000 C 
ATOM     79  F17 UNL A   1      44.269  27.229  24.836  1.00  0.00    +0.000 F 
ATOM     80  C55 UNL A   1      43.081  27.365  26.875  1.00  0.00    +0.000 C 
ATOM     81  F18 UNL A   1      43.515  28.625  27.027  1.00  0.00    +0.000 F 
ENDBRANCH   70   71
TORSDOF 17
ENDMDL
MODEL 10
REMARK VINA RESULT:     -11.0     36.928     42.957
ROOT
ATOM     34  C26 UNL A   1      13.082  49.624   3.262  1.00  0.00    +0.000 C 
ATOM     35  C27 UNL A   1      13.095  51.054   3.722  1.00  0.00    +0.000 C 
ATOM     36  N4  UNL A   1      13.826  52.051   3.288  1.00  0.00    +0.000 N 
ATOM     37  C28 UNL A   1      13.443  53.160   4.030  1.00  0.00    +0.000 C 
ATOM     38  C29 UNL A   1      13.931  54.423   3.975  1.00  0.00    +0.000 C 
ATOM     50  C36 UNL A   1      14.983  54.853   3.088  1.00  0.00    +0.000 C 
ATOM     51  C37 UNL A   1      15.550  56.109   2.961  1.00  0.00    +0.000 C 
ATOM     52  C38 UNL A   1      16.518  56.057   1.952  1.00  0.00    +0.000 C 
ATOM     53  C39 UNL A   1      16.584  54.757   1.477  1.00  0.00    +0.000 C 
ATOM     54  N5  UNL A   1      15.630  54.032   2.175  1.00  0.00    +0.000 N 
ATOM     55  C40 UNL A   1      17.454  54.216   0.466  1.00  0.00    +0.000 C 
ATOM     67  C47 UNL A   1      17.467  52.924   0.059  1.00  0.00    +0.000 C 
ATOM     68  N6  UNL A   1      16.666  51.871   0.475  1.00  0.00    +0.000 N 
ATOM     69  C48 UNL A   1      17.025  50.840  -0.250  1.00  0.00    +0.000 C 
ATOM     70  C49 UNL A   1      16.492  49.438  -0.226  1.00  0.00    +0.000 C 
ATOM     82  C56 UNL A   1      15.495  49.133   0.624  1.00  0.00    +0.000 C 
ATOM     83  C57 UNL A   1      14.892  47.813   0.769  1.00  0.00    +0.000 C 
ATOM     84  C58 UNL A   1      13.924  47.877   1.694  1.00  0.00    +0.000 C 
ATOM     85  C59 UNL A   1      13.876  49.234   2.245  1.00  0.00    +0.000 C 
ATOM     86  N7  UNL A   1      14.814  49.921   1.520  1.00  0.00    +0.000 N 
ATOM     87  C60 UNL A   1      18.102  51.121  -1.208  1.00  0.00    +0.000 C 
ATOM     88  C61 UNL A   1      18.360  52.394  -0.952  1.00  0.00    +0.000 C 
ATOM     89  C62 UNL A   1      12.392  52.722   4.925  1.00  0.00    +0.000 C 
ATOM     90  C63 UNL A   1      12.166  51.421   4.802  1.00  0.00    +0.000 C 
ATOM    118  H26 UNL A   1      15.302  56.943   3.518  1.00  0.00    +0.000 H 
ATOM    119  H27 UNL A   1      17.087  56.851   1.618  1.00  0.00    +0.000 H 
ATOM    120  H28 UNL A   1      15.440  53.074   2.042  1.00  0.00    +0.000 H 
ATOM    121  H29 UNL A   1      15.168  46.966   0.247  1.00  0.00    +0.000 H 
ATOM    122  H30 UNL A   1      13.311  47.096   1.973  1.00  0.00    +0.000 H 
ATOM    123  H31 UNL A   1      14.984  50.884   1.629  1.00  0.00    +0.000 H 
ATOM    124  H32 UNL A   1      18.541  50.492  -1.899  1.00  0.00    +0.000 H 
ATOM    125  H33 UNL A   1      19.104  52.941  -1.414  1.00  0.00    +0.000 H 
ATOM    126  H34 UNL A   1      11.885  53.342   5.575  1.00  0.00    +0.000 H 
ATOM    127  H35 UNL A   1      11.510  50.822   5.327  1.00  0.00    +0.000 H 
ENDROOT
BRANCH   34   33
ATOM    129  H37 UNL A   1       9.242  47.108   3.931  1.00  0.00    +0.000 H 
ATOM     33  C25 UNL A   1      12.260  48.592   3.943  1.00  0.00    +0.000 C 
ATOM    116  H24 UNL A   1      12.615  46.198   6.274  1.00  0.00    +0.000 H 
ATOM    117  H25 UNL A   1      13.796  48.075   5.303  1.00  0.00    +0.000 H 
ATOM     91  C64 UNL A   1      10.951  48.290   3.539  1.00  0.00    +0.000 C 
ATOM     92  C65 UNL A   1      10.217  47.304   4.208  1.00  0.00    +0.000 C 
ATOM    128  H36 UNL A   1      10.527  48.797   2.746  1.00  0.00    +0.000 H 
ATOM     30  C22 UNL A   1      10.808  46.583   5.252  1.00  0.00    +0.000 C 
ATOM     31  C23 UNL A   1      12.145  46.805   5.584  1.00  0.00    +0.000 C 
ATOM     32  C24 UNL A   1      12.841  47.847   4.983  1.00  0.00    +0.000 C 
BRANCH   30    2
ATOM      1  O1  UNL A   1      10.517  44.564   6.411  1.00  0.00    +0.000 O 
ATOM      2  C1  UNL A   1       9.996  45.597   6.002  1.00  0.00    +0.000 C 
BRANCH    2    3
ATOM      3  N1  UNL A   1       8.655  45.828   6.202  1.00  0.00    +0.000 N 
ATOM     93  H1  UNL A   1       8.045  45.366   5.582  1.00  0.00    +0.000 H 
BRANCH    3    4
ATOM      4  C2  UNL A   1       8.015  46.664   7.205  1.00  0.00    +0.000 C 
ATOM     94  H2  UNL A   1       6.956  46.580   7.088  1.00  0.00    +0.000 H 
ATOM     95  H3  UNL A   1       8.363  47.664   7.049  1.00  0.00    +0.000 H 
BRANCH    4    5
ATOM     97  H5  UNL A   1       7.512  46.508   9.223  1.00  0.00    +0.000 H 
ATOM      5  C3  UNL A   1       8.376  46.282   8.632  1.00  0.00    +0.000 C 
ATOM     96  H4  UNL A   1       8.644  45.247   8.639  1.00  0.00    +0.000 H 
BRANCH    5    6
ATOM     98  H6  UNL A   1       9.186  47.460  10.191  1.00  0.00    +0.000 H 
ATOM     99  H7  UNL A   1       9.789  47.816   8.537  1.00  0.00    +0.000 H 
ATOM      6  C4  UNL A   1       9.526  47.069   9.256  1.00  0.00    +0.000 C 
BRANCH    6    7
ATOM    100  H8  UNL A   1      11.008  45.679   8.655  1.00  0.00    +0.000 H 
ATOM    101  H9  UNL A   1      10.629  45.726  10.415  1.00  0.00    +0.000 H 
ATOM      7  C5  UNL A   1      10.814  46.282   9.519  1.00  0.00    +0.000 C 
BRANCH    7    8
ATOM    102  H10 UNL A   1      12.265  47.058  10.858  1.00  0.00    +0.000 H 
ATOM    103  H11 UNL A   1      11.864  48.092   9.445  1.00  0.00    +0.000 H 
ATOM      8  C6  UNL A   1      12.075  47.107   9.806  1.00  0.00    +0.000 C 
BRANCH    8    9
ATOM      9  C7  UNL A   1      13.342  46.663   9.080  1.00  0.00    +0.000 C 
ATOM    105  H13 UNL A   1      14.018  46.275   9.812  1.00  0.00    +0.000 H 
ATOM    104  H12 UNL A   1      13.080  45.921   8.353  1.00  0.00    +0.000 H 
BRANCH    9   10
ATOM     10  N2  UNL A   1      14.007  47.761   8.403  1.00  0.00    +0.000 N 
ATOM    106  H14 UNL A   1      13.419  48.487   8.092  1.00  0.00    +0.000 H 
BRANCH   10   11
ATOM     11  C8  UNL A   1      15.342  47.926   8.139  1.00  0.00    +0.000 C 
ATOM     12  O2  UNL A   1      16.181  47.406   8.868  1.00  0.00    +0.000 O 
BRANCH   11   13
ATOM    107  H15 UNL A   1      16.088  46.929   5.850  1.00  0.00    +0.000 H 
ATOM    108  H16 UNL A   1      16.843  48.061   3.841  1.00  0.00    +0.000 H 
ATOM     13  C9  UNL A   1      15.784  48.703   6.963  1.00  0.00    +0.000 C 
ATOM     14  C10 UNL A   1      16.146  47.959   5.829  1.00  0.00    +0.000 C 
ATOM     15  C11 UNL A   1      16.582  48.607   4.676  1.00  0.00    +0.000 C 
ATOM    110  H18 UNL A   1      16.380  51.766   5.763  1.00  0.00    +0.000 H 
ATOM     17  C13 UNL A   1      16.319  50.736   5.794  1.00  0.00    +0.000 C 
ATOM     18  C14 UNL A   1      15.893  50.109   6.977  1.00  0.00    +0.000 C 
ATOM     16  C12 UNL A   1      16.663  49.996   4.658  1.00  0.00    +0.000 C 
ATOM    109  H17 UNL A   1      16.978  50.481   3.804  1.00  0.00    +0.000 H 
BRANCH   18   19
ATOM     19  N3  UNL A   1      15.551  50.868   8.117  1.00  0.00    +0.000 N 
ATOM    111  H19 UNL A   1      14.835  51.527   7.966  1.00  0.00    +0.000 H 
BRANCH   19   20
ATOM    112  H20 UNL A   1      17.973  50.197   8.842  1.00  0.00    +0.000 H 
ATOM    113  H21 UNL A   1      18.932  50.245  11.063  1.00  0.00    +0.000 H 
ATOM    114  H22 UNL A   1      17.580  50.916  12.959  1.00  0.00    +0.000 H 
ATOM    115  H23 UNL A   1      14.304  51.520  10.391  1.00  0.00    +0.000 H 
ATOM     20  C15 UNL A   1      16.054  50.849   9.428  1.00  0.00    +0.000 C 
ATOM     21  C16 UNL A   1      17.390  50.487   9.643  1.00  0.00    +0.000 C 
ATOM     22  C17 UNL A   1      17.945  50.512  10.923  1.00  0.00    +0.000 C 
ATOM     23  C18 UNL A   1      17.168  50.897  12.014  1.00  0.00    +0.000 C 
ATOM     24  C19 UNL A   1      15.825  51.257  11.831  1.00  0.00    +0.000 C 
ATOM     25  C20 UNL A   1      14.986  51.673  13.014  1.00  0.00    +0.000 C 
ATOM     26  F1  UNL A   1      15.059  50.782  14.042  1.00  0.00    +0.000 F 
ATOM     27  F2  UNL A   1      15.369  52.873  13.528  1.00  0.00    +0.000 F 
ATOM     28  F3  UNL A   1      13.661  51.794  12.724  1.00  0.00    +0.000 F 
ATOM     29  C21 UNL A   1      15.287  51.239  10.533  1.00  0.00    +0.000 C 
ENDBRANCH   19   20
ENDBRANCH   18   19
ENDBRANCH   11   13
ENDBRANCH   10   11
ENDBRANCH    9   10
ENDBRANCH    8    9
ENDBRANCH    7    8
ENDBRANCH    6    7
ENDBRANCH    5    6
ENDBRANCH    4    5
ENDBRANCH    3    4
ENDBRANCH    2    3
ENDBRANCH   30    2
ENDBRANCH   34   33
BRANCH   38   39
ATOM     39  C30 UNL A   1      13.334  55.445   4.899  1.00  0.00    +0.000 C 
ATOM     40  C31 UNL A   1      13.846  55.655   6.187  1.00  0.00    +0.000 C 
ATOM     41  F4  UNL A   1      14.843  54.887   6.651  1.00  0.00    +0.000 F 
ATOM     42  C32 UNL A   1      13.319  56.643   7.017  1.00  0.00    +0.000 C 
ATOM     43  F5  UNL A   1      13.804  56.805   8.255  1.00  0.00    +0.000 F 
ATOM     44  C33 UNL A   1      12.291  57.457   6.565  1.00  0.00    +0.000 C 
ATOM     45  F6  UNL A   1      11.794  58.415   7.358  1.00  0.00    +0.000 F 
ATOM     46  C34 UNL A   1      11.775  57.273   5.290  1.00  0.00    +0.000 C 
ATOM     47  F7  UNL A   1      10.789  58.066   4.848  1.00  0.00    +0.000 F 
ATOM     48  C35 UNL A   1      12.284  56.271   4.468  1.00  0.00    +0.000 C 
ATOM     49  F8  UNL A   1      11.762  56.116   3.242  1.00  0.00    +0.000 F 
ENDBRANCH   38   39
BRANCH   55   56
ATOM     65  C46 UNL A   1      18.264  55.539  -1.523  1.00  0.00    +0.000 C 
ATOM     66  F13 UNL A   1      17.212  55.099  -2.229  1.00  0.00    +0.000 F 
ATOM     56  C41 UNL A   1      18.438  55.138  -0.190  1.00  0.00    +0.000 C 
ATOM     57  C42 UNL A   1      19.557  55.624   0.504  1.00  0.00    +0.000 C 
ATOM     58  F9  UNL A   1      19.756  55.282   1.786  1.00  0.00    +0.000 F 
ATOM     59  C43 UNL A   1      20.446  56.505  -0.102  1.00  0.00    +0.000 C 
ATOM     60  F10 UNL A   1      21.476  57.000   0.598  1.00  0.00    +0.000 F 
ATOM     61  C44 UNL A   1      20.256  56.889  -1.420  1.00  0.00    +0.000 C 
ATOM     62  F11 UNL A   1      21.110  57.743  -2.001  1.00  0.00    +0.000 F 
ATOM     63  C45 UNL A   1      19.171  56.400  -2.133  1.00  0.00    +0.000 C 
ATOM     64  F12 UNL A   1      18.989  56.765  -3.410  1.00  0.00    +0.000 F 
ENDBRANCH   55   56
BRANCH   70   71
ATOM     71  C50 UNL A   1      17.039  48.389  -1.125  1.00  0.00    +0.000 C 
ATOM     72  C51 UNL A   1      18.173  47.649  -0.771  1.00  0.00    +0.000 C 
ATOM     73  F14 UNL A   1      18.806  47.903   0.385  1.00  0.00    +0.000 F 
ATOM     74  C52 UNL A   1      18.682  46.666  -1.618  1.00  0.00    +0.000 C 
ATOM     75  F15 UNL A   1      19.793  45.999  -1.275  1.00  0.00    +0.000 F 
ATOM     76  C53 UNL A   1      18.048  46.385  -2.819  1.00  0.00    +0.000 C 
ATOM     77  F16 UNL A   1      18.533  45.432  -3.628  1.00  0.00    +0.000 F 
ATOM     78  C54 UNL A   1      16.915  47.094  -3.183  1.00  0.00    +0.000 C 
ATOM     79  F17 UNL A   1      16.287  46.814  -4.333  1.00  0.00    +0.000 F 
ATOM     80  C55 UNL A   1      16.423  48.097  -2.352  1.00  0.00    +0.000 C 
ATOM     81  F18 UNL A   1      15.331  48.775  -2.734  1.00  0.00    +0.000 F 
ENDBRANCH   70   71
TORSDOF 17
ENDMDL
