
     RDKit          3D

123134  0  0  0  0  0  0  0  0999 V2000
   31.5570   24.2340   27.3390 O   0  0  0  0  0  0  0  0  0  0  0  0
   31.9940   25.0240   26.5410 C   0  0  0  0  0  0  0  0  0  0  0  0
   32.4400   26.2730   26.7200 O   0  0  0  0  0  0  0  0  0  0  0  0
   31.3670   27.3600   26.4120 C   0  0  0  0  0  0  0  0  0  0  0  0
   31.7170   29.4880   26.2000 C   0  0  0  0  0  0  0  0  0  0  0  0
   32.7030   30.4480   27.2860 O   0  0  0  0  0  0  0  0  0  0  0  0
   33.3620   31.6530   27.4220 C   0  0  0  0  0  0  0  0  0  0  0  0
   32.9120   32.7510   27.6930 O   0  0  0  0  0  0  0  0  0  0  0  0
   34.8210   31.3290   27.6080 C   0  0  0  0  0  0  0  0  0  0  0  0
   35.7310   32.3850   27.8150 C   0  0  0  0  0  0  0  0  0  0  0  0
   36.8650   32.1850   28.6330 C   0  0  0  0  0  0  0  0  0  0  0  0
   37.1230   30.9200   29.1810 C   0  0  0  0  0  0  0  0  0  0  0  0
   38.3240   30.6310   30.0180 C   0  0  0  0  0  0  0  0  0  0  0  0
   39.2830   29.6340   29.4440 C   0  0  0  0  0  0  0  0  0  0  0  0
   40.2860   29.0130   30.0030 N   0  0  0  0  0  0  0  0  0  0  0  0
   40.7600   28.1440   29.0330 C   0  0  0  0  0  0  0  0  0  0  0  0
   41.8160   27.3050   29.0930 C   0  0  0  0  0  0  0  0  0  0  0  0
   42.0790   26.4740   27.8780 C   0  0  0  0  0  0  0  0  0  0  0  0
   41.4070   25.2610   27.6600 C   0  0  0  0  0  0  0  0  0  0  0  0
   40.4910   24.8290   28.5410 F   0  0  0  0  0  0  0  0  0  0  0  0
   41.7360   24.4470   26.5820 C   0  0  0  0  0  0  0  0  0  0  0  0
   41.1410   23.2550   26.4410 F   0  0  0  0  0  0  0  0  0  0  0  0
   42.7030   24.8530   25.6760 C   0  0  0  0  0  0  0  0  0  0  0  0
   43.0240   24.0650   24.6410 F   0  0  0  0  0  0  0  0  0  0  0  0
   43.3520   26.0670   25.8520 C   0  0  0  0  0  0  0  0  0  0  0  0
   44.2850   26.4610   24.9740 F   0  0  0  0  0  0  0  0  0  0  0  0
   43.0530   26.8660   26.9510 C   0  0  0  0  0  0  0  0  0  0  0  0
   43.7300   28.0110   27.1210 F   0  0  0  0  0  0  0  0  0  0  0  0
   42.6590   27.1570   30.2420 C   0  0  0  0  0  0  0  0  0  0  0  0
   43.7790   26.3640   30.3870 C   0  0  0  0  0  0  0  0  0  0  0  0
   44.2310   26.4940   31.7040 C   0  0  0  0  0  0  0  0  0  0  0  0
   43.4240   27.4150   32.3570 C   0  0  0  0  0  0  0  0  0  0  0  0
   42.4600   27.8110   31.4480 N   0  0  0  0  0  0  0  0  0  0  0  0
   43.5210   27.8890   33.7130 C   0  0  0  0  0  0  0  0  0  0  0  0
   44.6390   27.3310   34.5460 C   0  0  0  0  0  0  0  0  0  0  0  0
   44.5030   26.1300   35.2550 C   0  0  0  0  0  0  0  0  0  0  0  0
   43.3150   25.5100   35.3110 F   0  0  0  0  0  0  0  0  0  0  0  0
   45.5890   25.5650   35.9190 C   0  0  0  0  0  0  0  0  0  0  0  0
   45.4320   24.4280   36.6100 F   0  0  0  0  0  0  0  0  0  0  0  0
   46.8360   26.1720   35.8610 C   0  0  0  0  0  0  0  0  0  0  0  0
   47.8860   25.6080   36.4730 F   0  0  0  0  0  0  0  0  0  0  0  0
   46.9930   27.3600   35.1650 C   0  0  0  0  0  0  0  0  0  0  0  0
   48.2010   27.9360   35.0860 F   0  0  0  0  0  0  0  0  0  0  0  0
   45.9030   27.9450   34.5280 C   0  0  0  0  0  0  0  0  0  0  0  0
   46.0900   29.0890   33.8530 F   0  0  0  0  0  0  0  0  0  0  0  0
   42.6900   28.7980   34.2800 C   0  0  0  0  0  0  0  0  0  0  0  0
   41.6170   29.4800   33.7140 N   0  0  0  0  0  0  0  0  0  0  0  0
   41.1210   30.2340   34.6660 C   0  0  0  0  0  0  0  0  0  0  0  0
   39.9620   31.2160   34.6100 C   0  0  0  0  0  0  0  0  0  0  0  0
   39.5920   31.9730   35.8480 C   0  0  0  0  0  0  0  0  0  0  0  0
   38.5490   31.5300   36.6820 C   0  0  0  0  0  0  0  0  0  0  0  0
   37.9160   30.3810   36.4060 F   0  0  0  0  0  0  0  0  0  0  0  0
   38.0890   32.3030   37.7510 C   0  0  0  0  0  0  0  0  0  0  0  0
   37.0370   31.8890   38.4710 F   0  0  0  0  0  0  0  0  0  0  0  0
   38.6880   33.5190   38.0380 C   0  0  0  0  0  0  0  0  0  0  0  0
   38.2320   34.2720   39.0490 F   0  0  0  0  0  0  0  0  0  0  0  0
   39.7410   33.9640   37.2550 C   0  0  0  0  0  0  0  0  0  0  0  0
   40.3210   35.1410   37.5280 F   0  0  0  0  0  0  0  0  0  0  0  0
   40.1810   33.2070   36.1660 C   0  0  0  0  0  0  0  0  0  0  0  0
   41.1670   33.6960   35.4000 F   0  0  0  0  0  0  0  0  0  0  0  0
   39.2840   31.3680   33.4470 C   0  0  0  0  0  0  0  0  0  0  0  0
   38.1270   32.2360   33.2290 C   0  0  0  0  0  0  0  0  0  0  0  0
   37.6660   32.0610   31.9720 C   0  0  0  0  0  0  0  0  0  0  0  0
   38.5080   31.0910   31.2770 C   0  0  0  0  0  0  0  0  0  0  0  0
   39.4670   30.7650   32.2200 N   0  0  0  0  0  0  0  0  0  0  0  0
   41.8110   30.0790   35.9590 C   0  0  0  0  0  0  0  0  0  0  0  0
   42.7860   29.2330   35.6550 C   0  0  0  0  0  0  0  0  0  0  0  0
   39.9110   28.2830   27.8730 C   0  0  0  0  0  0  0  0  0  0  0  0
   39.0290   29.2500   28.0460 C   0  0  0  0  0  0  0  0  0  0  0  0
   36.3330   29.8380   28.7530 C   0  0  0  0  0  0  0  0  0  0  0  0
   35.1920   30.0360   27.9650 C   0  0  0  0  0  0  0  0  0  0  0  0
   32.6230   24.8530   25.2520 C   0  0  0  0  0  0  0  0  0  0  0  0
   34.0510   24.6400   25.3370 C   0  0  0  0  0  0  0  0  0  0  0  0
   34.8220   23.0660   24.9980 C   0  0  0  0  0  0  0  0  0  0  0  0
   36.1600   23.0050   25.2750 C   0  0  0  0  0  0  0  0  0  0  0  0
   36.7030   21.7280   25.2300 C   0  0  0  0  0  0  0  0  0  0  0  0
   38.3870   21.5720   25.5990 Cl  0  0  0  0  0  0  0  0  0  0  0  0
   35.9470   20.5260   24.9570 C   0  0  0  0  0  0  0  0  0  0  0  0
   34.5350   20.3920   24.6720 C   0  0  0  0  0  0  0  0  0  0  0  0
   34.0310   19.0220   24.6320 C   0  0  0  0  0  0  0  0  0  0  0  0
   32.7140   18.7790   25.0890 C   0  0  0  0  0  0  0  0  0  0  0  0
   32.2740   17.4940   25.4090 C   0  0  0  0  0  0  0  0  0  0  0  0
   33.1360   16.4060   25.2670 C   0  0  0  0  0  0  0  0  0  0  0  0
   32.6790   15.0330   25.6830 C   0  0  0  0  0  0  0  0  0  0  0  0
   33.7050   14.0700   25.4670 O   0  0  0  0  0  0  0  0  0  0  0  0
   34.4280   16.6300   24.7660 C   0  0  0  0  0  0  0  0  0  0  0  0
   34.8710   17.9250   24.4490 C   0  0  0  0  0  0  0  0  0  0  0  0
   33.9200   21.6240   24.6120 C   0  0  0  0  0  0  0  0  0  0  0  0
   32.1280   21.8520   24.2880 O   0  0  0  0  0  0  0  0  0  0  0  0
   31.3280   23.6030   24.5700 C   0  0  2  0  0  0  0  0  0  0  0  0
   30.6650   24.7450   23.6450 C   0  0  0  0  0  0  0  0  0  0  0  0
   31.5590   25.2810   22.8070 F   0  0  0  0  0  0  0  0  0  0  0  0
   29.7600   24.1760   22.7850 F   0  0  0  0  0  0  0  0  0  0  0  0
   29.9140   25.6940   24.2340 F   0  0  0  0  0  0  0  0  0  0  0  0
   30.9088   27.0490   25.4615 H   0  0  0  0  0  0  0  0  0  0  0  0
   30.8241   27.3579   27.3687 H   0  0  0  0  0  0  0  0  0  0  0  0
   32.1654   29.6156   25.2037 H   0  0  0  0  0  0  0  0  0  0  0  0
   30.7168   29.8819   26.4331 H   0  0  0  0  0  0  0  0  0  0  0  0
   35.5586   33.3624   27.3408 H   0  0  0  0  0  0  0  0  0  0  0  0
   37.5469   33.0228   28.8406 H   0  0  0  0  0  0  0  0  0  0  0  0
   44.2356   25.7398   29.6048 H   0  0  0  0  0  0  0  0  0  0  0  0
   45.0824   25.9569   32.1474 H   0  0  0  0  0  0  0  0  0  0  0  0
   41.7420   28.4590   31.6310 H   0  0  0  0  0  0  0  0  0  0  0  0
   37.6992   32.9240   33.9731 H   0  0  0  0  0  0  0  0  0  0  0  0
   36.7922   32.5698   31.5389 H   0  0  0  0  0  0  0  0  0  0  0  0
   40.2160   30.1540   32.0310 H   0  0  0  0  0  0  0  0  0  0  0  0
   41.5773   30.5453   36.9275 H   0  0  0  0  0  0  0  0  0  0  0  0
   43.5661   28.9051   36.3577 H   0  0  0  0  0  0  0  0  0  0  0  0
   39.9889   27.6654   26.9661 H   0  0  0  0  0  0  0  0  0  0  0  0
   38.2978   29.6602   27.3339 H   0  0  0  0  0  0  0  0  0  0  0  0
   36.6169   28.8156   29.0429 H   0  0  0  0  0  0  0  0  0  0  0  0
   34.5935   29.1757   27.6307 H   0  0  0  0  0  0  0  0  0  0  0  0
   34.6916   25.4870   25.6238 H   0  0  0  0  0  0  0  0  0  0  0  0
   36.7582   23.8966   25.5143 H   0  0  0  0  0  0  0  0  0  0  0  0
   36.5222   19.5884   24.9674 H   0  0  0  0  0  0  0  0  0  0  0  0
   32.0190   19.6250   25.1948 H   0  0  0  0  0  0  0  0  0  0  0  0
   31.2477   17.3388   25.7732 H   0  0  0  0  0  0  0  0  0  0  0  0
   32.4184   15.0484   26.7516 H   0  0  0  0  0  0  0  0  0  0  0  0
   31.8030   14.7555   25.0784 H   0  0  0  0  0  0  0  0  0  0  0  0
   33.7480   13.4680   26.2260 H   0  0  0  0  0  0  0  0  0  0  0  0
   35.1058   15.7762   24.6190 H   0  0  0  0  0  0  0  0  0  0  0  0
   35.8868   18.0740   24.0540 H   0  0  0  0  0  0  0  0  0  0  0  0
   30.4980   23.0382   25.0195 H   0  0  0  0  0  0  0  0  0  0  0  0
  1  2  2  0
  2  3  1  0
  3  4  1  0
  4  5  1  0
  5  6  1  0
  6  7  1  0
  7  8  2  0
  7  9  1  0
  9 10  2  0
 10 11  1  0
 11 12  2  0
 12 13  1  0
 13 14  1  0
 14 15  2  0
 15 16  1  0
 16 17  2  0
 17 18  1  0
 18 19  2  0
 19 20  1  0
 19 21  1  0
 21 22  1  0
 21 23  2  0
 23 24  1  0
 23 25  1  0
 25 26  1  0
 25 27  2  0
 27 28  1  0
 17 29  1  0
 29 30  2  0
 30 31  1  0
 31 32  2  0
 32 33  1  0
 32 34  1  0
 34 35  1  0
 35 36  2  0
 36 37  1  0
 36 38  1  0
 38 39  1  0
 38 40  2  0
 40 41  1  0
 40 42  1  0
 42 43  1  0
 42 44  2  0
 44 45  1  0
 34 46  2  0
 46 47  1  0
 47 48  2  0
 48 49  1  0
 49 50  1  0
 50 51  2  0
 51 52  1  0
 51 53  1  0
 53 54  1  0
 53 55  2  0
 55 56  1  0
 55 57  1  0
 57 58  1  0
 57 59  2  0
 59 60  1  0
 49 61  2  0
 61 62  1  0
 62 63  2  0
 63 64  1  0
 64 65  1  0
 48 66  1  0
 66 67  2  0
 16 68  1  0
 68 69  2  0
 12 70  1  0
 70 71  2  0
  2 72  1  0
 72 73  2  0
 73 74  1  0
 74 75  2  0
 75 76  1  0
 76 77  1  0
 76 78  2  0
 78 79  1  0
 79 80  1  0
 80 81  2  0
 81 82  1  0
 82 83  2  0
 83 84  1  0
 84 85  1  0
 83 86  1  0
 86 87  2  0
 79 88  2  0
 88 89  1  0
 89 90  1  0
 90 91  1  0
 91 92  1  0
 91 93  1  0
 91 94  1  0
 71  9  1  0
 90 72  1  0
 64 13  2  0
 88 74  1  0
 69 14  1  0
 87 80  1  0
 27 18  1  0
 33 29  1  0
 44 35  1  0
 67 46  1  0
 59 50  1  0
 65 61  1  0
  4 95  1  0
  4 96  1  0
  5 97  1  0
  5 98  1  0
 10 99  1  0
 11100  1  0
 30101  1  0
 31102  1  0
 33103  1  0
 62104  1  0
 63105  1  0
 65106  1  0
 66107  1  0
 67108  1  0
 68109  1  0
 69110  1  0
 70111  1  0
 71112  1  0
 73113  1  0
 75114  1  0
 78115  1  0
 81116  1  0
 82117  1  0
 84118  1  0
 84119  1  0
 85120  1  0
 86121  1  0
 87122  1  0
 90123  1  1
M  END
>  <meeko>  (1) 
{"free_energy": -16.0}

$$$$

     RDKit          3D

123134  0  0  0  0  0  0  0  0999 V2000
   31.8890   24.7400   27.0710 O   0  0  0  0  0  0  0  0  0  0  0  0
   32.3510   25.4650   26.2280 C   0  0  0  0  0  0  0  0  0  0  0  0
   32.7860   26.7280   26.3200 O   0  0  0  0  0  0  0  0  0  0  0  0
   31.8910   27.6220   27.2290 C   0  0  0  0  0  0  0  0  0  0  0  0
   31.7760   29.7860   27.1910 C   0  0  0  0  0  0  0  0  0  0  0  0
   33.1480   30.8520   26.9560 O   0  0  0  0  0  0  0  0  0  0  0  0
   33.9610   31.7750   27.5810 C   0  0  0  0  0  0  0  0  0  0  0  0
   33.6540   32.7470   28.2450 O   0  0  0  0  0  0  0  0  0  0  0  0
   35.3280   31.1490   27.6810 C   0  0  0  0  0  0  0  0  0  0  0  0
   36.4260   31.9640   28.0180 C   0  0  0  0  0  0  0  0  0  0  0  0
   37.4950   31.4270   28.7700 C   0  0  0  0  0  0  0  0  0  0  0  0
   37.4970   30.0680   29.1180 C   0  0  0  0  0  0  0  0  0  0  0  0
   38.6150   29.4290   29.8730 C   0  0  0  0  0  0  0  0  0  0  0  0
   38.8660   29.9820   31.2420 C   0  0  0  0  0  0  0  0  0  0  0  0
   39.8760   29.8030   32.0480 N   0  0  0  0  0  0  0  0  0  0  0  0
   39.6230   30.6260   33.1340 C   0  0  0  0  0  0  0  0  0  0  0  0
   40.3430   30.7760   34.2670 C   0  0  0  0  0  0  0  0  0  0  0  0
   39.8180   31.7580   35.2660 C   0  0  0  0  0  0  0  0  0  0  0  0
   38.8420   31.3930   36.2090 C   0  0  0  0  0  0  0  0  0  0  0  0
   38.3710   30.1370   36.2410 F   0  0  0  0  0  0  0  0  0  0  0  0
   38.2870   32.3400   37.0620 C   0  0  0  0  0  0  0  0  0  0  0  0
   37.2970   31.9880   37.8940 F   0  0  0  0  0  0  0  0  0  0  0  0
   38.7310   33.6530   37.0250 C   0  0  0  0  0  0  0  0  0  0  0  0
   38.1890   34.5660   37.8430 F   0  0  0  0  0  0  0  0  0  0  0  0
   39.7210   34.0250   36.1270 C   0  0  0  0  0  0  0  0  0  0  0  0
   40.1530   35.2930   36.0930 F   0  0  0  0  0  0  0  0  0  0  0  0
   40.2520   33.0890   35.2450 C   0  0  0  0  0  0  0  0  0  0  0  0
   41.1730   33.4880   34.3560 F   0  0  0  0  0  0  0  0  0  0  0  0
   41.5650   30.0810   34.5390 C   0  0  0  0  0  0  0  0  0  0  0  0
   42.3470   30.1340   35.6760 C   0  0  0  0  0  0  0  0  0  0  0  0
   43.4760   29.3410   35.4580 C   0  0  0  0  0  0  0  0  0  0  0  0
   43.3650   28.7480   34.2090 C   0  0  0  0  0  0  0  0  0  0  0  0
   42.1880   29.2150   33.6540 N   0  0  0  0  0  0  0  0  0  0  0  0
   44.2700   27.8320   33.5660 C   0  0  0  0  0  0  0  0  0  0  0  0
   45.5030   27.4490   34.3350 C   0  0  0  0  0  0  0  0  0  0  0  0
   45.5440   26.3020   35.1390 C   0  0  0  0  0  0  0  0  0  0  0  0
   44.4320   25.5810   35.3450 F   0  0  0  0  0  0  0  0  0  0  0  0
   46.7310   25.8960   35.7430 C   0  0  0  0  0  0  0  0  0  0  0  0
   46.7450   24.8090   36.5260 F   0  0  0  0  0  0  0  0  0  0  0  0
   47.9030   26.6090   35.5310 C   0  0  0  0  0  0  0  0  0  0  0  0
   49.0500   26.1970   36.0870 F   0  0  0  0  0  0  0  0  0  0  0  0
   47.8850   27.7470   34.7390 C   0  0  0  0  0  0  0  0  0  0  0  0
   49.0190   28.4240   34.5120 F   0  0  0  0  0  0  0  0  0  0  0  0
   46.6930   28.1740   34.1600 C   0  0  0  0  0  0  0  0  0  0  0  0
   46.7100   29.2720   33.3890 F   0  0  0  0  0  0  0  0  0  0  0  0
   44.0870   27.2920   32.3360 C   0  0  0  0  0  0  0  0  0  0  0  0
   43.0240   27.4580   31.4540 N   0  0  0  0  0  0  0  0  0  0  0  0
   43.3160   26.7430   30.3920 C   0  0  0  0  0  0  0  0  0  0  0  0
   42.5040   26.5250   29.1270 C   0  0  0  0  0  0  0  0  0  0  0  0
   43.0600   25.6460   28.0490 C   0  0  0  0  0  0  0  0  0  0  0  0
   43.8910   26.1730   27.0440 C   0  0  0  0  0  0  0  0  0  0  0  0
   44.2450   27.4650   27.0780 F   0  0  0  0  0  0  0  0  0  0  0  0
   44.2900   25.4030   25.9480 C   0  0  0  0  0  0  0  0  0  0  0  0
   45.0100   25.9620   24.9650 F   0  0  0  0  0  0  0  0  0  0  0  0
   43.9040   24.0760   25.8530 C   0  0  0  0  0  0  0  0  0  0  0  0
   44.2690   23.3430   24.7910 F   0  0  0  0  0  0  0  0  0  0  0  0
   43.1160   23.5200   26.8480 C   0  0  0  0  0  0  0  0  0  0  0  0
   42.7390   22.2370   26.7580 F   0  0  0  0  0  0  0  0  0  0  0  0
   42.6890   24.2980   27.9280 C   0  0  0  0  0  0  0  0  0  0  0  0
   41.8830   23.7390   28.8420 F   0  0  0  0  0  0  0  0  0  0  0  0
   41.3060   27.1440   28.9990 C   0  0  0  0  0  0  0  0  0  0  0  0
   40.4170   27.0750   27.8390 C   0  0  0  0  0  0  0  0  0  0  0  0
   39.3570   27.8870   28.0370 C   0  0  0  0  0  0  0  0  0  0  0  0
   39.4680   28.5180   29.3500 C   0  0  0  0  0  0  0  0  0  0  0  0
   40.6360   27.9850   29.8640 N   0  0  0  0  0  0  0  0  0  0  0  0
   44.6270   26.0740   30.4760 C   0  0  0  0  0  0  0  0  0  0  0  0
   45.0290   26.4010   31.6970 C   0  0  0  0  0  0  0  0  0  0  0  0
   38.3940   31.3360   32.8640 C   0  0  0  0  0  0  0  0  0  0  0  0
   37.8440   30.9150   31.7410 C   0  0  0  0  0  0  0  0  0  0  0  0
   36.5120   29.2370   28.5540 C   0  0  0  0  0  0  0  0  0  0  0  0
   35.4360   29.7700   27.8330 C   0  0  0  0  0  0  0  0  0  0  0  0
   33.0270   25.1940   24.9800 C   0  0  0  0  0  0  0  0  0  0  0  0
   34.4330   24.8980   25.1440 C   0  0  0  0  0  0  0  0  0  0  0  0
   35.1180   23.2660   24.9150 C   0  0  0  0  0  0  0  0  0  0  0  0
   36.4350   23.1370   25.2610 C   0  0  0  0  0  0  0  0  0  0  0  0
   36.8970   21.8280   25.3000 C   0  0  0  0  0  0  0  0  0  0  0  0
   38.5490   21.5880   25.7580 Cl  0  0  0  0  0  0  0  0  0  0  0  0
   36.0800   20.6630   25.0450 C   0  0  0  0  0  0  0  0  0  0  0  0
   34.6770   20.6020   24.6980 C   0  0  0  0  0  0  0  0  0  0  0  0
   34.0900   19.2650   24.6950 C   0  0  0  0  0  0  0  0  0  0  0  0
   32.8780   19.0640   25.3980 C   0  0  0  0  0  0  0  0  0  0  0  0
   32.4310   17.7870   25.7390 C   0  0  0  0  0  0  0  0  0  0  0  0
   33.1770   16.6650   25.3730 C   0  0  0  0  0  0  0  0  0  0  0  0
   32.7250   15.2960   25.8070 C   0  0  0  0  0  0  0  0  0  0  0  0
   33.6760   14.3060   25.4270 O   0  0  0  0  0  0  0  0  0  0  0  0
   34.3540   16.8520   24.6330 C   0  0  0  0  0  0  0  0  0  0  0  0
   34.8060   18.1380   24.2940 C   0  0  0  0  0  0  0  0  0  0  0  0
   34.1450   21.8650   24.5510 C   0  0  0  0  0  0  0  0  0  0  0  0
   32.3880   22.1860   24.1310 O   0  0  0  0  0  0  0  0  0  0  0  0
   31.6880   23.9940   24.2930 C   0  0  2  0  0  0  0  0  0  0  0  0
   31.1420   25.1280   23.2860 C   0  0  0  0  0  0  0  0  0  0  0  0
   31.9140   25.2360   22.1990 F   0  0  0  0  0  0  0  0  0  0  0  0
   29.9400   24.7340   22.7530 F   0  0  0  0  0  0  0  0  0  0  0  0
   30.8280   26.3370   23.7870 F   0  0  0  0  0  0  0  0  0  0  0  0
   30.8625   27.2773   27.0462 H   0  0  0  0  0  0  0  0  0  0  0  0
   32.4087   27.4828   28.1896 H   0  0  0  0  0  0  0  0  0  0  0  0
   31.0708   30.0300   26.3828 H   0  0  0  0  0  0  0  0  0  0  0  0
   31.5354   29.9946   28.2439 H   0  0  0  0  0  0  0  0  0  0  0  0
   36.4514   33.0157   27.6967 H   0  0  0  0  0  0  0  0  0  0  0  0
   38.3267   32.0754   29.0829 H   0  0  0  0  0  0  0  0  0  0  0  0
   42.1208   30.7005   36.5914 H   0  0  0  0  0  0  0  0  0  0  0  0
   44.3130   29.2089   36.1594 H   0  0  0  0  0  0  0  0  0  0  0  0
   41.8440   28.9700   32.7640 H   0  0  0  0  0  0  0  0  0  0  0  0
   40.5861   26.4574   26.9446 H   0  0  0  0  0  0  0  0  0  0  0  0
   38.5374   28.0484   27.3213 H   0  0  0  0  0  0  0  0  0  0  0  0
   40.9620   28.1880   30.7710 H   0  0  0  0  0  0  0  0  0  0  0  0
   45.1400   25.4611   29.7203 H   0  0  0  0  0  0  0  0  0  0  0  0
   45.9583   26.0410   32.1627 H   0  0  0  0  0  0  0  0  0  0  0  0
   37.9733   32.1221   33.5082 H   0  0  0  0  0  0  0  0  0  0  0  0
   36.8764   31.1893   31.2954 H   0  0  0  0  0  0  0  0  0  0  0  0
   36.5883   28.1471   28.6817 H   0  0  0  0  0  0  0  0  0  0  0  0
   34.6816   29.1032   27.3900 H   0  0  0  0  0  0  0  0  0  0  0  0
   35.1121   25.7172   25.4230 H   0  0  0  0  0  0  0  0  0  0  0  0
   37.0766   24.0007   25.4900 H   0  0  0  0  0  0  0  0  0  0  0  0
   36.5937   19.6937   25.1256 H   0  0  0  0  0  0  0  0  0  0  0  0
   32.2728   19.9372   25.6829 H   0  0  0  0  0  0  0  0  0  0  0  0
   31.4906   17.6642   26.2963 H   0  0  0  0  0  0  0  0  0  0  0  0
   32.6094   15.2842   26.9008 H   0  0  0  0  0  0  0  0  0  0  0  0
   31.7657   15.0698   25.3185 H   0  0  0  0  0  0  0  0  0  0  0  0
   34.5330   14.5080   25.8350 H   0  0  0  0  0  0  0  0  0  0  0  0
   34.9343   15.9744   24.3119 H   0  0  0  0  0  0  0  0  0  0  0  0
   35.7299   18.2565   23.7089 H   0  0  0  0  0  0  0  0  0  0  0  0
   30.8038   23.5034   24.7261 H   0  0  0  0  0  0  0  0  0  0  0  0
  1  2  2  0
  2  3  1  0
  3  4  1  0
  4  5  1  0
  5  6  1  0
  6  7  1  0
  7  8  2  0
  7  9  1  0
  9 10  2  0
 10 11  1  0
 11 12  2  0
 12 13  1  0
 13 14  1  0
 14 15  2  0
 15 16  1  0
 16 17  2  0
 17 18  1  0
 18 19  2  0
 19 20  1  0
 19 21  1  0
 21 22  1  0
 21 23  2  0
 23 24  1  0
 23 25  1  0
 25 26  1  0
 25 27  2  0
 27 28  1  0
 17 29  1  0
 29 30  2  0
 30 31  1  0
 31 32  2  0
 32 33  1  0
 32 34  1  0
 34 35  1  0
 35 36  2  0
 36 37  1  0
 36 38  1  0
 38 39  1  0
 38 40  2  0
 40 41  1  0
 40 42  1  0
 42 43  1  0
 42 44  2  0
 44 45  1  0
 34 46  2  0
 46 47  1  0
 47 48  2  0
 48 49  1  0
 49 50  1  0
 50 51  2  0
 51 52  1  0
 51 53  1  0
 53 54  1  0
 53 55  2  0
 55 56  1  0
 55 57  1  0
 57 58  1  0
 57 59  2  0
 59 60  1  0
 49 61  2  0
 61 62  1  0
 62 63  2  0
 63 64  1  0
 64 65  1  0
 48 66  1  0
 66 67  2  0
 16 68  1  0
 68 69  2  0
 12 70  1  0
 70 71  2  0
  2 72  1  0
 72 73  2  0
 73 74  1  0
 74 75  2  0
 75 76  1  0
 76 77  1  0
 76 78  2  0
 78 79  1  0
 79 80  1  0
 80 81  2  0
 81 82  1  0
 82 83  2  0
 83 84  1  0
 84 85  1  0
 83 86  1  0
 86 87  2  0
 79 88  2  0
 88 89  1  0
 89 90  1  0
 90 91  1  0
 91 92  1  0
 91 93  1  0
 91 94  1  0
 71  9  1  0
 90 72  1  0
 64 13  2  0
 88 74  1  0
 69 14  1  0
 87 80  1  0
 27 18  1  0
 33 29  1  0
 44 35  1  0
 67 46  1  0
 59 50  1  0
 65 61  1  0
  4 95  1  0
  4 96  1  0
  5 97  1  0
  5 98  1  0
 10 99  1  0
 11100  1  0
 30101  1  0
 31102  1  0
 33103  1  0
 62104  1  0
 63105  1  0
 65106  1  0
 66107  1  0
 67108  1  0
 68109  1  0
 69110  1  0
 70111  1  0
 71112  1  0
 73113  1  0
 75114  1  0
 78115  1  0
 81116  1  0
 82117  1  0
 84118  1  0
 84119  1  0
 85120  1  0
 86121  1  0
 87122  1  0
 90123  1  1
M  END
>  <meeko>  (2) 
{"free_energy": -15.2}

$$$$

     RDKit          3D

123134  0  0  0  0  0  0  0  0999 V2000
   31.5820   24.9970   26.9470 O   0  0  0  0  0  0  0  0  0  0  0  0
   32.2570   25.7210   26.2610 C   0  0  0  0  0  0  0  0  0  0  0  0
   32.8950   26.8560   26.5710 O   0  0  0  0  0  0  0  0  0  0  0  0
   31.9510   27.9560   27.1440 C   0  0  0  0  0  0  0  0  0  0  0  0
   32.2010   30.0980   26.9400 C   0  0  0  0  0  0  0  0  0  0  0  0
   33.6800   30.9670   27.3030 O   0  0  0  0  0  0  0  0  0  0  0  0
   34.5460   31.3170   28.3180 C   0  0  0  0  0  0  0  0  0  0  0  0
   34.3780   32.0930   29.2410 O   0  0  0  0  0  0  0  0  0  0  0  0
   35.6080   30.2500   28.3660 C   0  0  0  0  0  0  0  0  0  0  0  0
   36.4650   30.0940   27.2590 C   0  0  0  0  0  0  0  0  0  0  0  0
   37.8010   29.6780   27.4570 C   0  0  0  0  0  0  0  0  0  0  0  0
   38.2520   29.3530   28.7450 C   0  0  0  0  0  0  0  0  0  0  0  0
   39.6370   28.8660   29.0170 C   0  0  0  0  0  0  0  0  0  0  0  0
   40.5590   29.8660   29.6440 C   0  0  0  0  0  0  0  0  0  0  0  0
   41.8540   29.8330   29.8010 N   0  0  0  0  0  0  0  0  0  0  0  0
   42.1830   31.0590   30.3560 C   0  0  0  0  0  0  0  0  0  0  0  0
   43.3920   31.5100   30.7530 C   0  0  0  0  0  0  0  0  0  0  0  0
   43.4370   32.8970   31.3120 C   0  0  0  0  0  0  0  0  0  0  0  0
   43.2900   33.1390   32.6880 C   0  0  0  0  0  0  0  0  0  0  0  0
   43.1210   32.1140   33.5380 F   0  0  0  0  0  0  0  0  0  0  0  0
   43.2280   34.4370   33.1800 C   0  0  0  0  0  0  0  0  0  0  0  0
   43.0020   34.6450   34.4840 F   0  0  0  0  0  0  0  0  0  0  0  0
   43.3640   35.5140   32.3180 C   0  0  0  0  0  0  0  0  0  0  0  0
   43.2980   36.7650   32.7940 F   0  0  0  0  0  0  0  0  0  0  0  0
   43.5490   35.2960   30.9600 C   0  0  0  0  0  0  0  0  0  0  0  0
   43.6840   36.3370   30.1270 F   0  0  0  0  0  0  0  0  0  0  0  0
   43.5720   33.9990   30.4580 C   0  0  0  0  0  0  0  0  0  0  0  0
   43.7050   33.8200   29.1350 F   0  0  0  0  0  0  0  0  0  0  0  0
   44.6050   30.7570   30.6430 C   0  0  0  0  0  0  0  0  0  0  0  0
   45.8750   31.1100   31.0550 C   0  0  0  0  0  0  0  0  0  0  0  0
   46.7490   30.0870   30.6780 C   0  0  0  0  0  0  0  0  0  0  0  0
   46.0120   29.0720   30.0850 C   0  0  0  0  0  0  0  0  0  0  0  0
   44.6970   29.4990   30.0670 N   0  0  0  0  0  0  0  0  0  0  0  0
   46.4750   27.8130   29.5650 C   0  0  0  0  0  0  0  0  0  0  0  0
   47.9480   27.5380   29.6740 C   0  0  0  0  0  0  0  0  0  0  0  0
   48.8720   28.1070   28.7880 C   0  0  0  0  0  0  0  0  0  0  0  0
   48.4480   28.8160   27.7310 F   0  0  0  0  0  0  0  0  0  0  0  0
   50.2420   27.9410   28.9800 C   0  0  0  0  0  0  0  0  0  0  0  0
   51.1080   28.4750   28.1090 F   0  0  0  0  0  0  0  0  0  0  0  0
   50.7120   27.2310   30.0760 C   0  0  0  0  0  0  0  0  0  0  0  0
   52.0300   27.1020   30.2770 F   0  0  0  0  0  0  0  0  0  0  0  0
   49.8160   26.6600   30.9650 C   0  0  0  0  0  0  0  0  0  0  0  0
   50.2660   25.9950   32.0380 F   0  0  0  0  0  0  0  0  0  0  0  0
   48.4460   26.7960   30.7580 C   0  0  0  0  0  0  0  0  0  0  0  0
   47.6030   26.2410   31.6420 F   0  0  0  0  0  0  0  0  0  0  0  0
   45.6860   26.8670   28.9990 C   0  0  0  0  0  0  0  0  0  0  0  0
   44.3060   26.8690   28.8190 N   0  0  0  0  0  0  0  0  0  0  0  0
   44.0150   25.7420   28.2130 C   0  0  0  0  0  0  0  0  0  0  0  0
   42.6600   25.1940   27.7970 C   0  0  0  0  0  0  0  0  0  0  0  0
   42.5930   23.8600   27.1190 C   0  0  0  0  0  0  0  0  0  0  0  0
   42.2470   22.7010   27.8370 C   0  0  0  0  0  0  0  0  0  0  0  0
   41.9110   22.7920   29.1310 F   0  0  0  0  0  0  0  0  0  0  0  0
   42.3300   21.4320   27.2590 C   0  0  0  0  0  0  0  0  0  0  0  0
   42.0760   20.3430   27.9970 F   0  0  0  0  0  0  0  0  0  0  0  0
   42.7200   21.2940   25.9360 C   0  0  0  0  0  0  0  0  0  0  0  0
   42.8210   20.0750   25.3870 F   0  0  0  0  0  0  0  0  0  0  0  0
   43.0320   22.4220   25.1940 C   0  0  0  0  0  0  0  0  0  0  0  0
   43.4120   22.2930   23.9150 F   0  0  0  0  0  0  0  0  0  0  0  0
   42.9800   23.6900   25.7810 C   0  0  0  0  0  0  0  0  0  0  0  0
   43.3410   24.7520   25.0460 F   0  0  0  0  0  0  0  0  0  0  0  0
   41.5510   25.9340   28.0340 C   0  0  0  0  0  0  0  0  0  0  0  0
   40.1800   25.5790   27.6670 C   0  0  0  0  0  0  0  0  0  0  0  0
   39.3520   26.5950   27.9860 C   0  0  0  0  0  0  0  0  0  0  0  0
   40.1210   27.6700   28.6090 C   0  0  0  0  0  0  0  0  0  0  0  0
   41.4110   27.1700   28.6310 N   0  0  0  0  0  0  0  0  0  0  0  0
   45.1980   24.9160   27.9090 C   0  0  0  0  0  0  0  0  0  0  0  0
   46.1790   25.6240   28.4520 C   0  0  0  0  0  0  0  0  0  0  0  0
   40.9650   31.8280   30.4640 C   0  0  0  0  0  0  0  0  0  0  0  0
   39.9180   31.1070   30.1100 C   0  0  0  0  0  0  0  0  0  0  0  0
   37.3050   29.2830   29.7820 C   0  0  0  0  0  0  0  0  0  0  0  0
   35.9880   29.7210   29.5960 C   0  0  0  0  0  0  0  0  0  0  0  0
   33.0100   25.4840   25.0510 C   0  0  0  0  0  0  0  0  0  0  0  0
   34.4130   25.2210   25.2940 C   0  0  0  0  0  0  0  0  0  0  0  0
   35.1510   23.6100   25.0850 C   0  0  0  0  0  0  0  0  0  0  0  0
   36.4490   23.5090   25.5050 C   0  0  0  0  0  0  0  0  0  0  0  0
   36.9410   22.2120   25.5550 C   0  0  0  0  0  0  0  0  0  0  0  0
   38.5700   22.0070   26.1060 Cl  0  0  0  0  0  0  0  0  0  0  0  0
   36.1710   21.0310   25.2390 C   0  0  0  0  0  0  0  0  0  0  0  0
   34.7930   20.9380   24.8100 C   0  0  0  0  0  0  0  0  0  0  0  0
   34.2410   19.5880   24.7570 C   0  0  0  0  0  0  0  0  0  0  0  0
   32.9740   19.3580   25.3420 C   0  0  0  0  0  0  0  0  0  0  0  0
   32.5280   18.0710   25.6440 C   0  0  0  0  0  0  0  0  0  0  0  0
   33.3330   16.9670   25.3540 C   0  0  0  0  0  0  0  0  0  0  0  0
   32.8760   15.5880   25.7480 C   0  0  0  0  0  0  0  0  0  0  0  0
   33.8290   14.6070   25.3520 O   0  0  0  0  0  0  0  0  0  0  0  0
   34.5700   17.1820   24.7280 C   0  0  0  0  0  0  0  0  0  0  0  0
   35.0200   18.4780   24.4280 C   0  0  0  0  0  0  0  0  0  0  0  0
   34.2370   22.1900   24.6480 C   0  0  0  0  0  0  0  0  0  0  0  0
   32.5000   22.4730   24.1300 O   0  0  0  0  0  0  0  0  0  0  0  0
   31.7460   24.2600   24.2730 C   0  0  2  0  0  0  0  0  0  0  0  0
   31.2290   25.3940   23.2490 C   0  0  0  0  0  0  0  0  0  0  0  0
   31.0820   24.9100   22.0110 F   0  0  0  0  0  0  0  0  0  0  0  0
   29.9480   25.7610   23.5750 F   0  0  0  0  0  0  0  0  0  0  0  0
   31.8550   26.5860   23.2400 F   0  0  0  0  0  0  0  0  0  0  0  0
   30.9635   27.7403   26.7101 H   0  0  0  0  0  0  0  0  0  0  0  0
   32.1722   27.8470   28.2160 H   0  0  0  0  0  0  0  0  0  0  0  0
   31.9779   30.3222   25.8865 H   0  0  0  0  0  0  0  0  0  0  0  0
   31.5512   30.4560   27.7522 H   0  0  0  0  0  0  0  0  0  0  0  0
   36.0952   30.2955   26.2428 H   0  0  0  0  0  0  0  0  0  0  0  0
   38.4878   29.6090   26.6005 H   0  0  0  0  0  0  0  0  0  0  0  0
   46.1499   32.0333   31.5861 H   0  0  0  0  0  0  0  0  0  0  0  0
   47.8389   30.0865   30.8265 H   0  0  0  0  0  0  0  0  0  0  0  0
   43.9400   28.9870   29.7000 H   0  0  0  0  0  0  0  0  0  0  0  0
   39.8721   24.6305   27.2028 H   0  0  0  0  0  0  0  0  0  0  0  0
   38.2671   26.6116   27.8053 H   0  0  0  0  0  0  0  0  0  0  0  0
   42.1650   27.6550   29.0390 H   0  0  0  0  0  0  0  0  0  0  0  0
   45.2527   23.9585   27.3702 H   0  0  0  0  0  0  0  0  0  0  0  0
   47.2316   25.3061   28.4821 H   0  0  0  0  0  0  0  0  0  0  0  0
   40.9167   32.8753   30.7970 H   0  0  0  0  0  0  0  0  0  0  0  0
   38.8495   31.3648   30.1519 H   0  0  0  0  0  0  0  0  0  0  0  0
   37.6047   28.8760   30.7590 H   0  0  0  0  0  0  0  0  0  0  0  0
   35.2588   29.6475   30.4163 H   0  0  0  0  0  0  0  0  0  0  0  0
   35.0534   26.0528   25.6226 H   0  0  0  0  0  0  0  0  0  0  0  0
   37.0542   24.3852   25.7809 H   0  0  0  0  0  0  0  0  0  0  0  0
   36.7045   20.0741   25.3380 H   0  0  0  0  0  0  0  0  0  0  0  0
   32.3232   20.2164   25.5647 H   0  0  0  0  0  0  0  0  0  0  0  0
   31.5425   17.9257   26.1105 H   0  0  0  0  0  0  0  0  0  0  0  0
   32.7500   15.5482   26.8400 H   0  0  0  0  0  0  0  0  0  0  0  0
   31.9214   15.3756   25.2443 H   0  0  0  0  0  0  0  0  0  0  0  0
   33.3680   13.7920   25.1000 H   0  0  0  0  0  0  0  0  0  0  0  0
   35.1997   16.3186   24.4671 H   0  0  0  0  0  0  0  0  0  0  0  0
   35.9913   18.6188   23.9312 H   0  0  0  0  0  0  0  0  0  0  0  0
   30.8518   23.7409   24.6483 H   0  0  0  0  0  0  0  0  0  0  0  0
  1  2  2  0
  2  3  1  0
  3  4  1  0
  4  5  1  0
  5  6  1  0
  6  7  1  0
  7  8  2  0
  7  9  1  0
  9 10  2  0
 10 11  1  0
 11 12  2  0
 12 13  1  0
 13 14  1  0
 14 15  2  0
 15 16  1  0
 16 17  2  0
 17 18  1  0
 18 19  2  0
 19 20  1  0
 19 21  1  0
 21 22  1  0
 21 23  2  0
 23 24  1  0
 23 25  1  0
 25 26  1  0
 25 27  2  0
 27 28  1  0
 17 29  1  0
 29 30  2  0
 30 31  1  0
 31 32  2  0
 32 33  1  0
 32 34  1  0
 34 35  1  0
 35 36  2  0
 36 37  1  0
 36 38  1  0
 38 39  1  0
 38 40  2  0
 40 41  1  0
 40 42  1  0
 42 43  1  0
 42 44  2  0
 44 45  1  0
 34 46  2  0
 46 47  1  0
 47 48  2  0
 48 49  1  0
 49 50  1  0
 50 51  2  0
 51 52  1  0
 51 53  1  0
 53 54  1  0
 53 55  2  0
 55 56  1  0
 55 57  1  0
 57 58  1  0
 57 59  2  0
 59 60  1  0
 49 61  2  0
 61 62  1  0
 62 63  2  0
 63 64  1  0
 64 65  1  0
 48 66  1  0
 66 67  2  0
 16 68  1  0
 68 69  2  0
 12 70  1  0
 70 71  2  0
  2 72  1  0
 72 73  2  0
 73 74  1  0
 74 75  2  0
 75 76  1  0
 76 77  1  0
 76 78  2  0
 78 79  1  0
 79 80  1  0
 80 81  2  0
 81 82  1  0
 82 83  2  0
 83 84  1  0
 84 85  1  0
 83 86  1  0
 86 87  2  0
 79 88  2  0
 88 89  1  0
 89 90  1  0
 90 91  1  0
 91 92  1  0
 91 93  1  0
 91 94  1  0
 71  9  1  0
 90 72  1  0
 64 13  2  0
 88 74  1  0
 69 14  1  0
 87 80  1  0
 27 18  1  0
 33 29  1  0
 44 35  1  0
 67 46  1  0
 59 50  1  0
 65 61  1  0
  4 95  1  0
  4 96  1  0
  5 97  1  0
  5 98  1  0
 10 99  1  0
 11100  1  0
 30101  1  0
 31102  1  0
 33103  1  0
 62104  1  0
 63105  1  0
 65106  1  0
 66107  1  0
 67108  1  0
 68109  1  0
 69110  1  0
 70111  1  0
 71112  1  0
 73113  1  0
 75114  1  0
 78115  1  0
 81116  1  0
 82117  1  0
 84118  1  0
 84119  1  0
 85120  1  0
 86121  1  0
 87122  1  0
 90123  1  1
M  END
>  <meeko>  (3) 
{"free_energy": -15.2}

$$$$

