
     RDKit          3D

121132  0  0  0  0  0  0  0  0999 V2000
   31.2960   24.8020   27.2140 O   0  0  0  0  0  0  0  0  0  0  0  0
   31.8300   25.6180   26.5100 C   0  0  0  0  0  0  0  0  0  0  0  0
   32.2220   26.8730   26.7550 O   0  0  0  0  0  0  0  0  0  0  0  0
   31.5610   27.9350   25.8120 C   0  0  0  0  0  0  0  0  0  0  0  0
   31.9150   30.0800   25.8680 C   0  0  0  0  0  0  0  0  0  0  0  0
   32.6790   30.9410   27.1140 O   0  0  0  0  0  0  0  0  0  0  0  0
   33.2810   32.1260   27.4370 C   0  0  0  0  0  0  0  0  0  0  0  0
   32.7970   33.2030   27.7190 O   0  0  0  0  0  0  0  0  0  0  0  0
   34.7020   31.7590   27.7090 C   0  0  0  0  0  0  0  0  0  0  0  0
   35.6600   32.7810   27.8120 C   0  0  0  0  0  0  0  0  0  0  0  0
   36.7580   32.6130   28.6710 C   0  0  0  0  0  0  0  0  0  0  0  0
   36.9490   31.3900   29.3270 C   0  0  0  0  0  0  0  0  0  0  0  0
   38.1560   31.0970   30.1370 C   0  0  0  0  0  0  0  0  0  0  0  0
   39.1330   30.1490   29.5200 C   0  0  0  0  0  0  0  0  0  0  0  0
   40.1050   29.4730   30.0660 N   0  0  0  0  0  0  0  0  0  0  0  0
   40.5940   28.6650   29.0530 C   0  0  0  0  0  0  0  0  0  0  0  0
   41.6290   27.7970   29.0910 C   0  0  0  0  0  0  0  0  0  0  0  0
   41.9010   27.0480   27.8220 C   0  0  0  0  0  0  0  0  0  0  0  0
   41.4380   25.7330   27.6360 C   0  0  0  0  0  0  0  0  0  0  0  0
   40.6590   25.1550   28.5630 F   0  0  0  0  0  0  0  0  0  0  0  0
   41.8740   24.9690   26.5580 C   0  0  0  0  0  0  0  0  0  0  0  0
   41.5190   23.6800   26.4680 F   0  0  0  0  0  0  0  0  0  0  0  0
   42.7270   25.5220   25.6160 C   0  0  0  0  0  0  0  0  0  0  0  0
   43.1730   24.7760   24.5970 F   0  0  0  0  0  0  0  0  0  0  0  0
   43.1440   26.8400   25.7460 C   0  0  0  0  0  0  0  0  0  0  0  0
   43.9650   27.3740   24.8330 F   0  0  0  0  0  0  0  0  0  0  0  0
   42.7440   27.5940   26.8450 C   0  0  0  0  0  0  0  0  0  0  0  0
   43.2180   28.8410   26.9790 F   0  0  0  0  0  0  0  0  0  0  0  0
   42.4100   27.5440   30.2640 C   0  0  0  0  0  0  0  0  0  0  0  0
   43.4890   26.6980   30.4180 C   0  0  0  0  0  0  0  0  0  0  0  0
   43.8830   26.7450   31.7600 C   0  0  0  0  0  0  0  0  0  0  0  0
   43.0840   27.6650   32.4250 C   0  0  0  0  0  0  0  0  0  0  0  0
   42.1730   28.1350   31.4980 N   0  0  0  0  0  0  0  0  0  0  0  0
   43.1520   28.0830   33.8040 C   0  0  0  0  0  0  0  0  0  0  0  0
   44.2740   27.5100   34.6190 C   0  0  0  0  0  0  0  0  0  0  0  0
   44.1610   26.2770   35.2740 C   0  0  0  0  0  0  0  0  0  0  0  0
   42.9860   25.6310   35.3010 F   0  0  0  0  0  0  0  0  0  0  0  0
   45.2610   25.7030   35.9080 C   0  0  0  0  0  0  0  0  0  0  0  0
   45.1280   24.5300   36.5420 F   0  0  0  0  0  0  0  0  0  0  0  0
   46.4940   26.3370   35.8770 C   0  0  0  0  0  0  0  0  0  0  0  0
   47.5580   25.7660   36.4590 F   0  0  0  0  0  0  0  0  0  0  0  0
   46.6270   27.5600   35.2380 C   0  0  0  0  0  0  0  0  0  0  0  0
   47.8220   28.1650   35.1880 F   0  0  0  0  0  0  0  0  0  0  0  0
   45.5250   28.1500   34.6280 C   0  0  0  0  0  0  0  0  0  0  0  0
   45.6860   29.3280   34.0060 F   0  0  0  0  0  0  0  0  0  0  0  0
   42.3060   28.9580   34.4020 C   0  0  0  0  0  0  0  0  0  0  0  0
   41.2430   29.6670   33.8540 N   0  0  0  0  0  0  0  0  0  0  0  0
   40.7390   30.3860   34.8290 C   0  0  0  0  0  0  0  0  0  0  0  0
   39.5860   31.3670   34.7990 C   0  0  0  0  0  0  0  0  0  0  0  0
   39.1520   32.0510   36.0520 C   0  0  0  0  0  0  0  0  0  0  0  0
   38.2600   31.4270   36.9390 C   0  0  0  0  0  0  0  0  0  0  0  0
   37.7950   30.2000   36.6630 F   0  0  0  0  0  0  0  0  0  0  0  0
   37.7950   32.0790   38.0820 C   0  0  0  0  0  0  0  0  0  0  0  0
   36.9040   31.4760   38.8800 F   0  0  0  0  0  0  0  0  0  0  0  0
   38.2330   33.3610   38.3780 C   0  0  0  0  0  0  0  0  0  0  0  0
   37.7830   33.9890   39.4730 F   0  0  0  0  0  0  0  0  0  0  0  0
   39.1270   33.9930   37.5270 C   0  0  0  0  0  0  0  0  0  0  0  0
   39.5520   35.2330   37.8100 F   0  0  0  0  0  0  0  0  0  0  0  0
   39.5730   33.3500   36.3710 C   0  0  0  0  0  0  0  0  0  0  0  0
   40.4130   34.0030   35.5550 F   0  0  0  0  0  0  0  0  0  0  0  0
   38.9660   31.6140   33.6240 C   0  0  0  0  0  0  0  0  0  0  0  0
   37.8120   32.4890   33.4210 C   0  0  0  0  0  0  0  0  0  0  0  0
   37.4050   32.3990   32.1390 C   0  0  0  0  0  0  0  0  0  0  0  0
   38.2920   31.4850   31.4210 C   0  0  0  0  0  0  0  0  0  0  0  0
   39.2170   31.1100   32.3690 N   0  0  0  0  0  0  0  0  0  0  0  0
   41.4100   30.1780   36.1240 C   0  0  0  0  0  0  0  0  0  0  0  0
   42.3760   29.3290   35.8000 C   0  0  0  0  0  0  0  0  0  0  0  0
   39.7850   28.9010   27.8800 C   0  0  0  0  0  0  0  0  0  0  0  0
   38.9250   29.8790   28.0890 C   0  0  0  0  0  0  0  0  0  0  0  0
   36.0940   30.3130   29.0310 C   0  0  0  0  0  0  0  0  0  0  0  0
   34.9720   30.4940   28.2260 C   0  0  0  0  0  0  0  0  0  0  0  0
   32.5540   25.5070   25.2720 C   0  0  0  0  0  0  0  0  0  0  0  0
   34.0080   25.4490   25.5290 C   0  0  0  0  0  0  0  0  0  0  0  0
   34.9960   23.9550   25.2790 C   0  0  0  0  0  0  0  0  0  0  0  0
   36.3060   23.9940   25.6720 C   0  0  0  0  0  0  0  0  0  0  0  0
   36.9700   22.7630   25.6180 C   0  0  0  0  0  0  0  0  0  0  0  0
   38.6270   22.7480   26.1270 Cl  0  0  0  0  0  0  0  0  0  0  0  0
   36.3720   21.5030   25.2130 C   0  0  0  0  0  0  0  0  0  0  0  0
   35.0260   21.2860   24.7870 C   0  0  0  0  0  0  0  0  0  0  0  0
   34.6210   19.9520   24.5720 C   0  0  0  0  0  0  0  0  0  0  0  0
   34.2420   18.8020   24.6930 C   0  0  0  0  0  0  0  0  0  0  0  0
   33.8250   17.4760   25.0000 C   0  0  0  0  0  0  0  0  0  0  0  0
   34.6890   16.3900   24.8130 C   0  0  0  0  0  0  0  0  0  0  0  0
   34.2620   15.0930   25.1130 C   0  0  0  0  0  0  0  0  0  0  0  0
   32.9680   14.8790   25.5890 C   0  0  0  0  0  0  0  0  0  0  0  0
   32.0980   15.9560   25.7530 C   0  0  0  0  0  0  0  0  0  0  0  0
   32.5240   17.2520   25.4550 C   0  0  0  0  0  0  0  0  0  0  0  0
   34.2910   22.4440   24.7690 C   0  0  0  0  0  0  0  0  0  0  0  0
   32.5350   22.4620   24.2850 O   0  0  0  0  0  0  0  0  0  0  0  0
   31.5010   24.0760   24.5060 C   0  0  2  0  0  0  0  0  0  0  0  0
   30.6350   24.9300   23.5150 C   0  0  0  0  0  0  0  0  0  0  0  0
   31.3750   25.5310   22.5760 F   0  0  0  0  0  0  0  0  0  0  0  0
   29.8320   24.0720   22.8140 F   0  0  0  0  0  0  0  0  0  0  0  0
   29.7530   25.7890   24.0610 F   0  0  0  0  0  0  0  0  0  0  0  0
   31.8302   27.6237   24.7919 H   0  0  0  0  0  0  0  0  0  0  0  0
   30.5269   27.9033   26.1856 H   0  0  0  0  0  0  0  0  0  0  0  0
   32.5060   30.2965   24.9659 H   0  0  0  0  0  0  0  0  0  0  0  0
   30.8825   30.4329   26.0074 H   0  0  0  0  0  0  0  0  0  0  0  0
   35.5511   33.7048   27.2249 H   0  0  0  0  0  0  0  0  0  0  0  0
   37.4664   33.4397   28.8284 H   0  0  0  0  0  0  0  0  0  0  0  0
   43.9565   26.0939   29.6265 H   0  0  0  0  0  0  0  0  0  0  0  0
   44.6912   26.1517   32.2125 H   0  0  0  0  0  0  0  0  0  0  0  0
   41.4630   28.7910   31.6850 H   0  0  0  0  0  0  0  0  0  0  0  0
   37.3489   33.1212   34.1930 H   0  0  0  0  0  0  0  0  0  0  0  0
   36.5444   32.9279   31.7034 H   0  0  0  0  0  0  0  0  0  0  0  0
   39.9890   30.5330   32.1670 H   0  0  0  0  0  0  0  0  0  0  0  0
   41.1716   30.6139   37.1054 H   0  0  0  0  0  0  0  0  0  0  0  0
   43.1339   28.9543   36.5037 H   0  0  0  0  0  0  0  0  0  0  0  0
   39.8742   28.3400   26.9380 H   0  0  0  0  0  0  0  0  0  0  0  0
   38.2359   30.3636   27.3817 H   0  0  0  0  0  0  0  0  0  0  0  0
   36.3142   29.3160   29.4402 H   0  0  0  0  0  0  0  0  0  0  0  0
   34.3065   29.6475   28.0010 H   0  0  0  0  0  0  0  0  0  0  0  0
   34.5132   26.3573   25.8893 H   0  0  0  0  0  0  0  0  0  0  0  0
   36.7985   24.9198   26.0042 H   0  0  0  0  0  0  0  0  0  0  0  0
   37.0270   20.6196   25.2369 H   0  0  0  0  0  0  0  0  0  0  0  0
   35.7061   16.5578   24.4291 H   0  0  0  0  0  0  0  0  0  0  0  0
   34.9453   14.2423   24.9740 H   0  0  0  0  0  0  0  0  0  0  0  0
   32.6341   13.8602   25.8350 H   0  0  0  0  0  0  0  0  0  0  0  0
   31.0745   15.7846   26.1177 H   0  0  0  0  0  0  0  0  0  0  0  0
   31.8329   18.0987   25.5790 H   0  0  0  0  0  0  0  0  0  0  0  0
   30.7522   23.4415   25.0027 H   0  0  0  0  0  0  0  0  0  0  0  0
  1  2  2  0
  2  3  1  0
  3  4  1  0
  4  5  1  0
  5  6  1  0
  6  7  1  0
  7  8  2  0
  7  9  1  0
  9 10  2  0
 10 11  1  0
 11 12  2  0
 12 13  1  0
 13 14  1  0
 14 15  2  0
 15 16  1  0
 16 17  2  0
 17 18  1  0
 18 19  2  0
 19 20  1  0
 19 21  1  0
 21 22  1  0
 21 23  2  0
 23 24  1  0
 23 25  1  0
 25 26  1  0
 25 27  2  0
 27 28  1  0
 17 29  1  0
 29 30  2  0
 30 31  1  0
 31 32  2  0
 32 33  1  0
 32 34  1  0
 34 35  1  0
 35 36  2  0
 36 37  1  0
 36 38  1  0
 38 39  1  0
 38 40  2  0
 40 41  1  0
 40 42  1  0
 42 43  1  0
 42 44  2  0
 44 45  1  0
 34 46  2  0
 46 47  1  0
 47 48  2  0
 48 49  1  0
 49 50  1  0
 50 51  2  0
 51 52  1  0
 51 53  1  0
 53 54  1  0
 53 55  2  0
 55 56  1  0
 55 57  1  0
 57 58  1  0
 57 59  2  0
 59 60  1  0
 49 61  2  0
 61 62  1  0
 62 63  2  0
 63 64  1  0
 64 65  1  0
 48 66  1  0
 66 67  2  0
 16 68  1  0
 68 69  2  0
 12 70  1  0
 70 71  2  0
  2 72  1  0
 72 73  2  0
 73 74  1  0
 74 75  2  0
 75 76  1  0
 76 77  1  0
 76 78  2  0
 78 79  1  0
 79 80  1  0
 80 81  3  0
 81 82  1  0
 82 83  2  0
 83 84  1  0
 84 85  2  0
 85 86  1  0
 86 87  2  0
 79 88  2  0
 88 89  1  0
 89 90  1  0
 90 91  1  0
 91 92  1  0
 91 93  1  0
 91 94  1  0
 71  9  1  0
 90 72  1  0
 64 13  2  0
 88 74  1  0
 69 14  1  0
 87 82  1  0
 27 18  1  0
 33 29  1  0
 44 35  1  0
 67 46  1  0
 59 50  1  0
 65 61  1  0
  4 95  1  0
  4 96  1  0
  5 97  1  0
  5 98  1  0
 10 99  1  0
 11100  1  0
 30101  1  0
 31102  1  0
 33103  1  0
 62104  1  0
 63105  1  0
 65106  1  0
 66107  1  0
 67108  1  0
 68109  1  0
 69110  1  0
 70111  1  0
 71112  1  0
 73113  1  0
 75114  1  0
 78115  1  0
 83116  1  0
 84117  1  0
 85118  1  0
 86119  1  0
 87120  1  0
 90121  1  1
M  END
>  <meeko>  (1) 
{"free_energy": -15.3}

$$$$

     RDKit          3D

121132  0  0  0  0  0  0  0  0999 V2000
   31.3810   24.8970   26.9130 O   0  0  0  0  0  0  0  0  0  0  0  0
   32.0050   25.6950   26.2640 C   0  0  0  0  0  0  0  0  0  0  0  0
   32.4510   26.9190   26.5630 O   0  0  0  0  0  0  0  0  0  0  0  0
   31.8440   28.0490   25.6650 C   0  0  0  0  0  0  0  0  0  0  0  0
   31.6960   30.1530   26.1950 C   0  0  0  0  0  0  0  0  0  0  0  0
   32.6610   30.9770   27.3210 O   0  0  0  0  0  0  0  0  0  0  0  0
   33.5340   32.0170   27.4840 C   0  0  0  0  0  0  0  0  0  0  0  0
   33.3250   33.1950   27.6870 O   0  0  0  0  0  0  0  0  0  0  0  0
   34.8570   31.3610   27.6990 C   0  0  0  0  0  0  0  0  0  0  0  0
   35.9680   32.1590   28.0180 C   0  0  0  0  0  0  0  0  0  0  0  0
   36.9780   31.6390   28.8430 C   0  0  0  0  0  0  0  0  0  0  0  0
   36.9270   30.2970   29.2450 C   0  0  0  0  0  0  0  0  0  0  0  0
   38.0260   29.6470   29.9990 C   0  0  0  0  0  0  0  0  0  0  0  0
   38.2450   30.1550   31.3860 C   0  0  0  0  0  0  0  0  0  0  0  0
   39.2750   30.0200   32.1760 N   0  0  0  0  0  0  0  0  0  0  0  0
   38.9820   30.7990   33.2830 C   0  0  0  0  0  0  0  0  0  0  0  0
   39.7100   30.9730   34.4080 C   0  0  0  0  0  0  0  0  0  0  0  0
   39.1260   31.9050   35.4270 C   0  0  0  0  0  0  0  0  0  0  0  0
   39.4520   33.2730   35.4380 C   0  0  0  0  0  0  0  0  0  0  0  0
   40.2260   33.7890   34.4710 F   0  0  0  0  0  0  0  0  0  0  0  0
   39.0860   34.0840   36.5060 C   0  0  0  0  0  0  0  0  0  0  0  0
   39.5120   35.3540   36.5550 F   0  0  0  0  0  0  0  0  0  0  0  0
   38.3350   33.5630   37.5480 C   0  0  0  0  0  0  0  0  0  0  0  0
   38.0120   34.3370   38.5920 F   0  0  0  0  0  0  0  0  0  0  0  0
   37.9470   32.2310   37.5250 C   0  0  0  0  0  0  0  0  0  0  0  0
   37.2190   31.7280   38.5310 F   0  0  0  0  0  0  0  0  0  0  0  0
   38.3480   31.4040   36.4790 C   0  0  0  0  0  0  0  0  0  0  0  0
   38.0170   30.1050   36.5190 F   0  0  0  0  0  0  0  0  0  0  0  0
   40.9870   30.3640   34.6300 C   0  0  0  0  0  0  0  0  0  0  0  0
   41.8090   30.4560   35.7350 C   0  0  0  0  0  0  0  0  0  0  0  0
   42.9750   29.7340   35.4630 C   0  0  0  0  0  0  0  0  0  0  0  0
   42.8510   29.1440   34.2130 C   0  0  0  0  0  0  0  0  0  0  0  0
   41.6330   29.5530   33.7060 N   0  0  0  0  0  0  0  0  0  0  0  0
   43.7780   28.2710   33.5350 C   0  0  0  0  0  0  0  0  0  0  0  0
   45.0090   27.8820   34.3020 C   0  0  0  0  0  0  0  0  0  0  0  0
   46.1800   28.6500   34.2620 C   0  0  0  0  0  0  0  0  0  0  0  0
   46.2780   29.6910   33.4230 F   0  0  0  0  0  0  0  0  0  0  0  0
   47.2600   28.3440   35.0880 C   0  0  0  0  0  0  0  0  0  0  0  0
   48.3770   29.0810   35.0250 F   0  0  0  0  0  0  0  0  0  0  0  0
   47.1780   27.2860   35.9820 C   0  0  0  0  0  0  0  0  0  0  0  0
   48.2060   27.0170   36.7990 F   0  0  0  0  0  0  0  0  0  0  0  0
   46.0300   26.5120   36.0340 C   0  0  0  0  0  0  0  0  0  0  0  0
   45.9400   25.5020   36.9110 F   0  0  0  0  0  0  0  0  0  0  0  0
   44.9600   26.7950   35.1910 C   0  0  0  0  0  0  0  0  0  0  0  0
   43.8560   26.0370   35.2720 F   0  0  0  0  0  0  0  0  0  0  0  0
   43.6120   27.7640   32.2880 C   0  0  0  0  0  0  0  0  0  0  0  0
   42.5430   27.9180   31.4130 N   0  0  0  0  0  0  0  0  0  0  0  0
   42.8470   27.2310   30.3380 C   0  0  0  0  0  0  0  0  0  0  0  0
   42.0390   27.0200   29.0740 C   0  0  0  0  0  0  0  0  0  0  0  0
   42.6050   26.2250   27.9460 C   0  0  0  0  0  0  0  0  0  0  0  0
   43.4270   26.8300   26.9820 C   0  0  0  0  0  0  0  0  0  0  0  0
   43.7130   28.1380   27.0740 F   0  0  0  0  0  0  0  0  0  0  0  0
   43.9120   26.1150   25.8860 C   0  0  0  0  0  0  0  0  0  0  0  0
   44.6500   26.7350   24.9560 F   0  0  0  0  0  0  0  0  0  0  0  0
   43.6080   24.7700   25.7450 C   0  0  0  0  0  0  0  0  0  0  0  0
   44.0700   24.0830   24.6900 F   0  0  0  0  0  0  0  0  0  0  0  0
   42.8130   24.1430   26.6920 C   0  0  0  0  0  0  0  0  0  0  0  0
   42.5170   22.8430   26.5580 F   0  0  0  0  0  0  0  0  0  0  0  0
   42.3070   24.8660   27.7750 C   0  0  0  0  0  0  0  0  0  0  0  0
   41.5170   24.2360   28.6560 F   0  0  0  0  0  0  0  0  0  0  0  0
   40.8020   27.5580   28.9900 C   0  0  0  0  0  0  0  0  0  0  0  0
   39.9070   27.4960   27.8350 C   0  0  0  0  0  0  0  0  0  0  0  0
   38.8090   28.2380   28.0830 C   0  0  0  0  0  0  0  0  0  0  0  0
   38.9070   28.7990   29.4290 C   0  0  0  0  0  0  0  0  0  0  0  0
   40.0960   28.3000   29.9100 N   0  0  0  0  0  0  0  0  0  0  0  0
   44.1740   26.5940   30.3990 C   0  0  0  0  0  0  0  0  0  0  0  0
   44.5790   26.9200   31.6190 C   0  0  0  0  0  0  0  0  0  0  0  0
   37.7080   31.4350   33.0420 C   0  0  0  0  0  0  0  0  0  0  0  0
   37.1660   30.9980   31.9230 C   0  0  0  0  0  0  0  0  0  0  0  0
   35.9180   29.4650   28.7270 C   0  0  0  0  0  0  0  0  0  0  0  0
   34.8840   29.9920   27.9580 C   0  0  0  0  0  0  0  0  0  0  0  0
   32.7970   25.5680   25.0700 C   0  0  0  0  0  0  0  0  0  0  0  0
   34.2360   25.5600   25.4060 C   0  0  0  0  0  0  0  0  0  0  0  0
   35.2770   24.0890   25.2570 C   0  0  0  0  0  0  0  0  0  0  0  0
   36.5630   24.1770   25.7170 C   0  0  0  0  0  0  0  0  0  0  0  0
   37.2610   22.9650   25.7380 C   0  0  0  0  0  0  0  0  0  0  0  0
   38.8890   23.0130   26.3340 Cl  0  0  0  0  0  0  0  0  0  0  0  0
   36.7210   21.6760   25.3420 C   0  0  0  0  0  0  0  0  0  0  0  0
   35.4060   21.4080   24.8520 C   0  0  0  0  0  0  0  0  0  0  0  0
   35.0510   20.0560   24.6570 C   0  0  0  0  0  0  0  0  0  0  0  0
   34.5760   18.9400   24.7430 C   0  0  0  0  0  0  0  0  0  0  0  0
   33.9680   17.6770   24.9970 C   0  0  0  0  0  0  0  0  0  0  0  0
   32.6540   17.5960   25.4730 C   0  0  0  0  0  0  0  0  0  0  0  0
   32.0740   16.3480   25.7230 C   0  0  0  0  0  0  0  0  0  0  0  0
   32.8090   15.1830   25.5080 C   0  0  0  0  0  0  0  0  0  0  0  0
   34.1270   15.2630   25.0570 C   0  0  0  0  0  0  0  0  0  0  0  0
   34.7060   16.5070   24.8050 C   0  0  0  0  0  0  0  0  0  0  0  0
   34.6430   22.5420   24.7580 C   0  0  0  0  0  0  0  0  0  0  0  0
   32.9150   22.4950   24.1800 O   0  0  0  0  0  0  0  0  0  0  0  0
   31.8270   24.0850   24.2940 C   0  0  2  0  0  0  0  0  0  0  0  0
   30.9930   24.8830   23.2330 C   0  0  0  0  0  0  0  0  0  0  0  0
   31.6700   25.0840   22.0970 F   0  0  0  0  0  0  0  0  0  0  0  0
   29.9330   24.1010   22.8590 F   0  0  0  0  0  0  0  0  0  0  0  0
   30.3990   26.0170   23.6510 F   0  0  0  0  0  0  0  0  0  0  0  0
   32.4303   28.0255   24.7346 H   0  0  0  0  0  0  0  0  0  0  0  0
   30.7808   27.7691   25.7007 H   0  0  0  0  0  0  0  0  0  0  0  0
   31.8319   30.6971   25.2487 H   0  0  0  0  0  0  0  0  0  0  0  0
   30.7441   30.1369   26.7461 H   0  0  0  0  0  0  0  0  0  0  0  0
   36.0461   33.1833   27.6246 H   0  0  0  0  0  0  0  0  0  0  0  0
   37.8068   32.2826   29.1729 H   0  0  0  0  0  0  0  0  0  0  0  0
   41.5863   31.0006   36.6644 H   0  0  0  0  0  0  0  0  0  0  0  0
   43.8461   29.6479   36.1292 H   0  0  0  0  0  0  0  0  0  0  0  0
   41.2760   29.3070   32.8220 H   0  0  0  0  0  0  0  0  0  0  0  0
   40.0993   26.9328   26.9099 H   0  0  0  0  0  0  0  0  0  0  0  0
   37.9738   28.3958   27.3847 H   0  0  0  0  0  0  0  0  0  0  0  0
   40.4130   28.4590   30.8280 H   0  0  0  0  0  0  0  0  0  0  0  0
   44.6940   26.0017   29.6317 H   0  0  0  0  0  0  0  0  0  0  0  0
   45.5288   26.5909   32.0656 H   0  0  0  0  0  0  0  0  0  0  0  0
   37.2507   32.1847   33.7045 H   0  0  0  0  0  0  0  0  0  0  0  0
   36.1714   31.2079   31.5026 H   0  0  0  0  0  0  0  0  0  0  0  0
   35.9463   28.3846   28.9320 H   0  0  0  0  0  0  0  0  0  0  0  0
   34.0970   29.3350   27.5592 H   0  0  0  0  0  0  0  0  0  0  0  0
   34.6957   26.4931   25.7637 H   0  0  0  0  0  0  0  0  0  0  0  0
   37.0123   25.1262   26.0444 H   0  0  0  0  0  0  0  0  0  0  0  0
   37.3976   20.8130   25.4287 H   0  0  0  0  0  0  0  0  0  0  0  0
   32.0767   18.5153   25.6507 H   0  0  0  0  0  0  0  0  0  0  0  0
   31.0386   16.2858   26.0890 H   0  0  0  0  0  0  0  0  0  0  0  0
   32.3499   14.2008   25.6939 H   0  0  0  0  0  0  0  0  0  0  0  0
   34.7104   14.3438   24.8999 H   0  0  0  0  0  0  0  0  0  0  0  0
   35.7468   16.5665   24.4541 H   0  0  0  0  0  0  0  0  0  0  0  0
   31.0700   23.4437   24.7691 H   0  0  0  0  0  0  0  0  0  0  0  0
  1  2  2  0
  2  3  1  0
  3  4  1  0
  4  5  1  0
  5  6  1  0
  6  7  1  0
  7  8  2  0
  7  9  1  0
  9 10  2  0
 10 11  1  0
 11 12  2  0
 12 13  1  0
 13 14  1  0
 14 15  2  0
 15 16  1  0
 16 17  2  0
 17 18  1  0
 18 19  2  0
 19 20  1  0
 19 21  1  0
 21 22  1  0
 21 23  2  0
 23 24  1  0
 23 25  1  0
 25 26  1  0
 25 27  2  0
 27 28  1  0
 17 29  1  0
 29 30  2  0
 30 31  1  0
 31 32  2  0
 32 33  1  0
 32 34  1  0
 34 35  1  0
 35 36  2  0
 36 37  1  0
 36 38  1  0
 38 39  1  0
 38 40  2  0
 40 41  1  0
 40 42  1  0
 42 43  1  0
 42 44  2  0
 44 45  1  0
 34 46  2  0
 46 47  1  0
 47 48  2  0
 48 49  1  0
 49 50  1  0
 50 51  2  0
 51 52  1  0
 51 53  1  0
 53 54  1  0
 53 55  2  0
 55 56  1  0
 55 57  1  0
 57 58  1  0
 57 59  2  0
 59 60  1  0
 49 61  2  0
 61 62  1  0
 62 63  2  0
 63 64  1  0
 64 65  1  0
 48 66  1  0
 66 67  2  0
 16 68  1  0
 68 69  2  0
 12 70  1  0
 70 71  2  0
  2 72  1  0
 72 73  2  0
 73 74  1  0
 74 75  2  0
 75 76  1  0
 76 77  1  0
 76 78  2  0
 78 79  1  0
 79 80  1  0
 80 81  3  0
 81 82  1  0
 82 83  2  0
 83 84  1  0
 84 85  2  0
 85 86  1  0
 86 87  2  0
 79 88  2  0
 88 89  1  0
 89 90  1  0
 90 91  1  0
 91 92  1  0
 91 93  1  0
 91 94  1  0
 71  9  1  0
 90 72  1  0
 64 13  2  0
 88 74  1  0
 69 14  1  0
 87 82  1  0
 27 18  1  0
 33 29  1  0
 44 35  1  0
 67 46  1  0
 59 50  1  0
 65 61  1  0
  4 95  1  0
  4 96  1  0
  5 97  1  0
  5 98  1  0
 10 99  1  0
 11100  1  0
 30101  1  0
 31102  1  0
 33103  1  0
 62104  1  0
 63105  1  0
 65106  1  0
 66107  1  0
 67108  1  0
 68109  1  0
 69110  1  0
 70111  1  0
 71112  1  0
 73113  1  0
 75114  1  0
 78115  1  0
 83116  1  0
 84117  1  0
 85118  1  0
 86119  1  0
 87120  1  0
 90121  1  1
M  END
>  <meeko>  (2) 
{"free_energy": -15.2}

$$$$

     RDKit          3D

121132  0  0  0  0  0  0  0  0999 V2000
   31.7560   24.8080   27.3590 O   0  0  0  0  0  0  0  0  0  0  0  0
   31.8170   25.5010   26.3790 C   0  0  0  0  0  0  0  0  0  0  0  0
   31.4480   26.7690   26.1700 O   0  0  0  0  0  0  0  0  0  0  0  0
   31.8510   27.7420   27.3280 C   0  0  0  0  0  0  0  0  0  0  0  0
   32.3510   29.8480   27.1040 C   0  0  0  0  0  0  0  0  0  0  0  0
   33.8710   30.5530   27.3630 O   0  0  0  0  0  0  0  0  0  0  0  0
   34.6940   31.1020   28.3090 C   0  0  0  0  0  0  0  0  0  0  0  0
   34.4970   32.0070   29.0930 O   0  0  0  0  0  0  0  0  0  0  0  0
   35.8200   30.1300   28.4300 C   0  0  0  0  0  0  0  0  0  0  0  0
   36.7710   30.0600   27.3990 C   0  0  0  0  0  0  0  0  0  0  0  0
   38.1010   29.7300   27.7080 C   0  0  0  0  0  0  0  0  0  0  0  0
   38.4410   29.3640   29.0170 C   0  0  0  0  0  0  0  0  0  0  0  0
   39.7920   28.8720   29.3830 C   0  0  0  0  0  0  0  0  0  0  0  0
   40.6680   29.8560   30.0870 C   0  0  0  0  0  0  0  0  0  0  0  0
   41.9590   29.8490   30.2700 N   0  0  0  0  0  0  0  0  0  0  0  0
   42.2430   31.0630   30.8730 C   0  0  0  0  0  0  0  0  0  0  0  0
   43.4340   31.5340   31.3020 C   0  0  0  0  0  0  0  0  0  0  0  0
   43.4170   32.9080   31.9000 C   0  0  0  0  0  0  0  0  0  0  0  0
   43.1990   33.1040   33.2760 C   0  0  0  0  0  0  0  0  0  0  0  0
   43.0930   32.0490   34.0980 F   0  0  0  0  0  0  0  0  0  0  0  0
   42.9680   34.3760   33.7870 C   0  0  0  0  0  0  0  0  0  0  0  0
   42.6390   34.5260   35.0780 F   0  0  0  0  0  0  0  0  0  0  0  0
   43.0120   35.4800   32.9490 C   0  0  0  0  0  0  0  0  0  0  0  0
   42.7560   36.7010   33.4360 F   0  0  0  0  0  0  0  0  0  0  0  0
   43.2920   35.3150   31.5990 C   0  0  0  0  0  0  0  0  0  0  0  0
   43.3380   36.3820   30.7910 F   0  0  0  0  0  0  0  0  0  0  0  0
   43.4820   34.0390   31.0760 C   0  0  0  0  0  0  0  0  0  0  0  0
   43.6810   33.9060   29.7560 F   0  0  0  0  0  0  0  0  0  0  0  0
   44.6670   30.8170   31.1660 C   0  0  0  0  0  0  0  0  0  0  0  0
   45.9320   31.1880   31.5750 C   0  0  0  0  0  0  0  0  0  0  0  0
   46.8220   30.1870   31.1730 C   0  0  0  0  0  0  0  0  0  0  0  0
   46.1010   29.1690   30.5650 C   0  0  0  0  0  0  0  0  0  0  0  0
   44.7810   29.5760   30.5540 N   0  0  0  0  0  0  0  0  0  0  0  0
   46.5850   27.9160   30.0380 C   0  0  0  0  0  0  0  0  0  0  0  0
   48.0460   27.6320   30.2300 C   0  0  0  0  0  0  0  0  0  0  0  0
   48.5200   26.8830   31.3150 C   0  0  0  0  0  0  0  0  0  0  0  0
   47.6830   26.5080   32.2940 F   0  0  0  0  0  0  0  0  0  0  0  0
   49.8610   26.5170   31.3970 C   0  0  0  0  0  0  0  0  0  0  0  0
   50.2980   25.8130   32.4500 F   0  0  0  0  0  0  0  0  0  0  0  0
   50.7450   26.8720   30.3880 C   0  0  0  0  0  0  0  0  0  0  0  0
   52.0270   26.4890   30.4530 F   0  0  0  0  0  0  0  0  0  0  0  0
   50.2980   27.6170   29.3080 C   0  0  0  0  0  0  0  0  0  0  0  0
   51.1440   27.9430   28.3210 F   0  0  0  0  0  0  0  0  0  0  0  0
   48.9650   28.0090   29.2360 C   0  0  0  0  0  0  0  0  0  0  0  0
   48.5570   28.7180   28.1730 F   0  0  0  0  0  0  0  0  0  0  0  0
   45.8260   26.9810   29.4140 C   0  0  0  0  0  0  0  0  0  0  0  0
   44.4570   26.9770   29.1760 N   0  0  0  0  0  0  0  0  0  0  0  0
   44.1960   25.8550   28.5490 C   0  0  0  0  0  0  0  0  0  0  0  0
   42.8660   25.3110   28.0700 C   0  0  0  0  0  0  0  0  0  0  0  0
   42.8080   24.0150   27.3330 C   0  0  0  0  0  0  0  0  0  0  0  0
   42.3870   22.8400   27.9770 C   0  0  0  0  0  0  0  0  0  0  0  0
   42.0280   22.8800   29.2680 F   0  0  0  0  0  0  0  0  0  0  0  0
   42.3900   21.6090   27.3200 C   0  0  0  0  0  0  0  0  0  0  0  0
   42.0330   20.4980   27.9780 F   0  0  0  0  0  0  0  0  0  0  0  0
   42.7860   21.5300   25.9940 C   0  0  0  0  0  0  0  0  0  0  0  0
   42.7920   20.3470   25.3630 F   0  0  0  0  0  0  0  0  0  0  0  0
   43.1890   22.6780   25.3290 C   0  0  0  0  0  0  0  0  0  0  0  0
   43.5740   22.6040   24.0460 F   0  0  0  0  0  0  0  0  0  0  0  0
   43.2110   23.9050   25.9940 C   0  0  0  0  0  0  0  0  0  0  0  0
   43.6360   24.9900   25.3300 F   0  0  0  0  0  0  0  0  0  0  0  0
   41.7410   26.0130   28.3250 C   0  0  0  0  0  0  0  0  0  0  0  0
   40.3860   25.6650   27.8970 C   0  0  0  0  0  0  0  0  0  0  0  0
   39.5420   26.6570   28.2420 C   0  0  0  0  0  0  0  0  0  0  0  0
   40.2890   27.6970   28.9460 C   0  0  0  0  0  0  0  0  0  0  0  0
   41.5740   27.2040   28.9940 N   0  0  0  0  0  0  0  0  0  0  0  0
   45.3910   25.0350   28.2830 C   0  0  0  0  0  0  0  0  0  0  0  0
   46.3480   25.7490   28.8610 C   0  0  0  0  0  0  0  0  0  0  0  0
   41.0020   31.7950   30.9800 C   0  0  0  0  0  0  0  0  0  0  0  0
   39.9820   31.0550   30.5930 C   0  0  0  0  0  0  0  0  0  0  0  0
   37.4230   29.2300   29.9780 C   0  0  0  0  0  0  0  0  0  0  0  0
   36.1160   29.6130   29.6890 C   0  0  0  0  0  0  0  0  0  0  0  0
   32.5780   25.3970   25.1620 C   0  0  0  0  0  0  0  0  0  0  0  0
   34.0250   25.4260   25.4560 C   0  0  0  0  0  0  0  0  0  0  0  0
   35.0990   23.9830   25.2730 C   0  0  0  0  0  0  0  0  0  0  0  0
   36.3950   24.1050   25.6970 C   0  0  0  0  0  0  0  0  0  0  0  0
   37.1260   22.9110   25.6950 C   0  0  0  0  0  0  0  0  0  0  0  0
   38.7680   23.0010   26.2440 Cl  0  0  0  0  0  0  0  0  0  0  0  0
   36.6090   21.6100   25.3110 C   0  0  0  0  0  0  0  0  0  0  0  0
   35.2880   21.3070   24.8580 C   0  0  0  0  0  0  0  0  0  0  0  0
   34.9620   19.9470   24.6700 C   0  0  0  0  0  0  0  0  0  0  0  0
   34.5020   18.8250   24.7550 C   0  0  0  0  0  0  0  0  0  0  0  0
   33.9050   17.5560   25.0030 C   0  0  0  0  0  0  0  0  0  0  0  0
   32.5820   17.4610   25.4520 C   0  0  0  0  0  0  0  0  0  0  0  0
   32.0130   16.2070   25.6970 C   0  0  0  0  0  0  0  0  0  0  0  0
   32.7680   15.0500   25.5050 C   0  0  0  0  0  0  0  0  0  0  0  0
   34.0930   15.1440   25.0820 C   0  0  0  0  0  0  0  0  0  0  0  0
   34.6620   16.3950   24.8350 C   0  0  0  0  0  0  0  0  0  0  0  0
   34.4920   22.4220   24.7890 C   0  0  0  0  0  0  0  0  0  0  0  0
   32.7500   22.3300   24.2610 O   0  0  0  0  0  0  0  0  0  0  0  0
   31.6250   23.8900   24.4110 C   0  0  2  0  0  0  0  0  0  0  0  0
   30.7400   24.6680   23.3760 C   0  0  0  0  0  0  0  0  0  0  0  0
   31.4600   25.1870   22.3750 F   0  0  0  0  0  0  0  0  0  0  0  0
   29.9160   23.7620   22.7640 F   0  0  0  0  0  0  0  0  0  0  0  0
   29.8750   25.5740   23.8720 F   0  0  0  0  0  0  0  0  0  0  0  0
   31.0069   27.7183   28.0329 H   0  0  0  0  0  0  0  0  0  0  0  0
   32.8423   27.3372   27.5798 H   0  0  0  0  0  0  0  0  0  0  0  0
   32.0944   30.0943   26.0631 H   0  0  0  0  0  0  0  0  0  0  0  0
   31.8084   30.2585   27.9683 H   0  0  0  0  0  0  0  0  0  0  0  0
   36.4769   30.2618   26.3584 H   0  0  0  0  0  0  0  0  0  0  0  0
   38.8730   29.7588   26.9249 H   0  0  0  0  0  0  0  0  0  0  0  0
   46.1934   32.1071   32.1199 H   0  0  0  0  0  0  0  0  0  0  0  0
   47.9126   30.2038   31.3152 H   0  0  0  0  0  0  0  0  0  0  0  0
   44.0330   29.0640   30.1680 H   0  0  0  0  0  0  0  0  0  0  0  0
   40.1011   24.7393   27.3756 H   0  0  0  0  0  0  0  0  0  0  0  0
   38.4633   26.6803   28.0280 H   0  0  0  0  0  0  0  0  0  0  0  0
   42.3080   27.6630   29.4640 H   0  0  0  0  0  0  0  0  0  0  0  0
   45.4692   24.0789   27.7448 H   0  0  0  0  0  0  0  0  0  0  0  0
   47.4035   25.4439   28.9134 H   0  0  0  0  0  0  0  0  0  0  0  0
   40.9193   32.8322   31.3370 H   0  0  0  0  0  0  0  0  0  0  0  0
   38.9052   31.2753   30.6367 H   0  0  0  0  0  0  0  0  0  0  0  0
   37.6621   28.8178   30.9694 H   0  0  0  0  0  0  0  0  0  0  0  0
   35.3256   29.5084   30.4469 H   0  0  0  0  0  0  0  0  0  0  0  0
   34.4704   26.3701   25.8027 H   0  0  0  0  0  0  0  0  0  0  0  0
   36.8278   25.0653   26.0142 H   0  0  0  0  0  0  0  0  0  0  0  0
   37.3106   20.7653   25.3758 H   0  0  0  0  0  0  0  0  0  0  0  0
   31.9895   18.3738   25.6122 H   0  0  0  0  0  0  0  0  0  0  0  0
   30.9707   16.1333   26.0409 H   0  0  0  0  0  0  0  0  0  0  0  0
   32.3178   14.0631   25.6874 H   0  0  0  0  0  0  0  0  0  0  0  0
   34.6911   14.2314   24.9426 H   0  0  0  0  0  0  0  0  0  0  0  0
   35.7096   16.4660   24.5071 H   0  0  0  0  0  0  0  0  0  0  0  0
   30.8994   23.2284   24.9069 H   0  0  0  0  0  0  0  0  0  0  0  0
  1  2  2  0
  2  3  1  0
  3  4  1  0
  4  5  1  0
  5  6  1  0
  6  7  1  0
  7  8  2  0
  7  9  1  0
  9 10  2  0
 10 11  1  0
 11 12  2  0
 12 13  1  0
 13 14  1  0
 14 15  2  0
 15 16  1  0
 16 17  2  0
 17 18  1  0
 18 19  2  0
 19 20  1  0
 19 21  1  0
 21 22  1  0
 21 23  2  0
 23 24  1  0
 23 25  1  0
 25 26  1  0
 25 27  2  0
 27 28  1  0
 17 29  1  0
 29 30  2  0
 30 31  1  0
 31 32  2  0
 32 33  1  0
 32 34  1  0
 34 35  1  0
 35 36  2  0
 36 37  1  0
 36 38  1  0
 38 39  1  0
 38 40  2  0
 40 41  1  0
 40 42  1  0
 42 43  1  0
 42 44  2  0
 44 45  1  0
 34 46  2  0
 46 47  1  0
 47 48  2  0
 48 49  1  0
 49 50  1  0
 50 51  2  0
 51 52  1  0
 51 53  1  0
 53 54  1  0
 53 55  2  0
 55 56  1  0
 55 57  1  0
 57 58  1  0
 57 59  2  0
 59 60  1  0
 49 61  2  0
 61 62  1  0
 62 63  2  0
 63 64  1  0
 64 65  1  0
 48 66  1  0
 66 67  2  0
 16 68  1  0
 68 69  2  0
 12 70  1  0
 70 71  2  0
  2 72  1  0
 72 73  2  0
 73 74  1  0
 74 75  2  0
 75 76  1  0
 76 77  1  0
 76 78  2  0
 78 79  1  0
 79 80  1  0
 80 81  3  0
 81 82  1  0
 82 83  2  0
 83 84  1  0
 84 85  2  0
 85 86  1  0
 86 87  2  0
 79 88  2  0
 88 89  1  0
 89 90  1  0
 90 91  1  0
 91 92  1  0
 91 93  1  0
 91 94  1  0
 71  9  1  0
 90 72  1  0
 64 13  2  0
 88 74  1  0
 69 14  1  0
 87 82  1  0
 27 18  1  0
 33 29  1  0
 44 35  1  0
 67 46  1  0
 59 50  1  0
 65 61  1  0
  4 95  1  0
  4 96  1  0
  5 97  1  0
  5 98  1  0
 10 99  1  0
 11100  1  0
 30101  1  0
 31102  1  0
 33103  1  0
 62104  1  0
 63105  1  0
 65106  1  0
 66107  1  0
 67108  1  0
 68109  1  0
 69110  1  0
 70111  1  0
 71112  1  0
 73113  1  0
 75114  1  0
 78115  1  0
 83116  1  0
 84117  1  0
 85118  1  0
 86119  1  0
 87120  1  0
 90121  1  1
M  END
>  <meeko>  (3) 
{"free_energy": -15.1}

$$$$

