
     RDKit          3D

119130  0  0  0  0  0  0  0  0999 V2000
   31.6900   24.6440   27.1180 O   0  0  0  0  0  0  0  0  0  0  0  0
   32.2280   25.3290   26.2890 C   0  0  0  0  0  0  0  0  0  0  0  0
   32.7090   26.5750   26.3430 O   0  0  0  0  0  0  0  0  0  0  0  0
   31.7450   27.6540   25.7270 C   0  0  0  0  0  0  0  0  0  0  0  0
   31.9230   29.8000   25.9700 C   0  0  0  0  0  0  0  0  0  0  0  0
   32.8410   30.6200   27.1130 O   0  0  0  0  0  0  0  0  0  0  0  0
   33.3940   31.8260   27.4280 C   0  0  0  0  0  0  0  0  0  0  0  0
   32.8710   32.8890   27.6900 O   0  0  0  0  0  0  0  0  0  0  0  0
   34.8310   31.5090   27.6790 C   0  0  0  0  0  0  0  0  0  0  0  0
   35.7480   32.5620   27.8200 C   0  0  0  0  0  0  0  0  0  0  0  0
   36.8640   32.4000   28.6560 C   0  0  0  0  0  0  0  0  0  0  0  0
   37.1190   31.1540   29.2470 C   0  0  0  0  0  0  0  0  0  0  0  0
   38.3470   30.8770   30.0310 C   0  0  0  0  0  0  0  0  0  0  0  0
   39.2980   29.8940   29.4310 C   0  0  0  0  0  0  0  0  0  0  0  0
   40.2780   29.2320   29.9840 N   0  0  0  0  0  0  0  0  0  0  0  0
   40.7420   28.3810   28.9940 C   0  0  0  0  0  0  0  0  0  0  0  0
   41.7660   27.4990   29.0490 C   0  0  0  0  0  0  0  0  0  0  0  0
   42.0050   26.6980   27.8060 C   0  0  0  0  0  0  0  0  0  0  0  0
   41.3770   25.4580   27.6030 C   0  0  0  0  0  0  0  0  0  0  0  0
   40.4730   25.0070   28.4870 F   0  0  0  0  0  0  0  0  0  0  0  0
   41.7640   24.6250   26.5590 C   0  0  0  0  0  0  0  0  0  0  0  0
   41.2370   23.3970   26.4540 F   0  0  0  0  0  0  0  0  0  0  0  0
   42.7390   25.0410   25.6640 C   0  0  0  0  0  0  0  0  0  0  0  0
   43.1340   24.2240   24.6770 F   0  0  0  0  0  0  0  0  0  0  0  0
   43.3250   26.2900   25.8080 C   0  0  0  0  0  0  0  0  0  0  0  0
   44.2650   26.6910   24.9420 F   0  0  0  0  0  0  0  0  0  0  0  0
   42.9700   27.1090   26.8770 C   0  0  0  0  0  0  0  0  0  0  0  0
   43.6030   28.2820   27.0290 F   0  0  0  0  0  0  0  0  0  0  0  0
   42.5610   27.2770   30.2190 C   0  0  0  0  0  0  0  0  0  0  0  0
   43.6270   26.4160   30.3900 C   0  0  0  0  0  0  0  0  0  0  0  0
   44.0490   26.5130   31.7200 C   0  0  0  0  0  0  0  0  0  0  0  0
   43.2790   27.4750   32.3610 C   0  0  0  0  0  0  0  0  0  0  0  0
   42.3600   27.9230   31.4310 N   0  0  0  0  0  0  0  0  0  0  0  0
   43.3790   27.9460   33.7190 C   0  0  0  0  0  0  0  0  0  0  0  0
   44.5070   27.3880   34.5380 C   0  0  0  0  0  0  0  0  0  0  0  0
   45.7310   28.0560   34.6660 C   0  0  0  0  0  0  0  0  0  0  0  0
   45.9780   29.1600   33.9440 F   0  0  0  0  0  0  0  0  0  0  0  0
   46.7110   27.5870   35.5380 C   0  0  0  0  0  0  0  0  0  0  0  0
   47.8810   28.2330   35.6380 F   0  0  0  0  0  0  0  0  0  0  0  0
   46.4750   26.4600   36.3140 C   0  0  0  0  0  0  0  0  0  0  0  0
   47.4050   26.0310   37.1760 F   0  0  0  0  0  0  0  0  0  0  0  0
   45.2710   25.7820   36.1980 C   0  0  0  0  0  0  0  0  0  0  0  0
   45.0320   24.7050   36.9590 F   0  0  0  0  0  0  0  0  0  0  0  0
   44.3010   26.2320   35.3070 C   0  0  0  0  0  0  0  0  0  0  0  0
   43.1410   25.5630   35.2260 F   0  0  0  0  0  0  0  0  0  0  0  0
   42.5590   28.8580   34.2970 C   0  0  0  0  0  0  0  0  0  0  0  0
   41.4970   29.5600   33.7390 N   0  0  0  0  0  0  0  0  0  0  0  0
   41.0220   30.3260   34.6930 C   0  0  0  0  0  0  0  0  0  0  0  0
   39.8840   31.3230   34.6440 C   0  0  0  0  0  0  0  0  0  0  0  0
   39.4840   32.0630   35.8750 C   0  0  0  0  0  0  0  0  0  0  0  0
   38.4830   31.5620   36.7210 C   0  0  0  0  0  0  0  0  0  0  0  0
   37.8810   30.3990   36.4250 F   0  0  0  0  0  0  0  0  0  0  0  0
   38.0510   32.2750   37.8390 C   0  0  0  0  0  0  0  0  0  0  0  0
   37.0550   31.7930   38.5950 F   0  0  0  0  0  0  0  0  0  0  0  0
   38.6300   33.4940   38.1520 C   0  0  0  0  0  0  0  0  0  0  0  0
   38.2110   34.1830   39.2220 F   0  0  0  0  0  0  0  0  0  0  0  0
   39.6350   34.0050   37.3440 C   0  0  0  0  0  0  0  0  0  0  0  0
   40.1970   35.1840   37.6440 F   0  0  0  0  0  0  0  0  0  0  0  0
   40.0500   33.3020   36.2110 C   0  0  0  0  0  0  0  0  0  0  0  0
   41.0030   33.8390   35.4350 F   0  0  0  0  0  0  0  0  0  0  0  0
   39.2440   31.5320   33.4730 C   0  0  0  0  0  0  0  0  0  0  0  0
   38.0980   32.4150   33.2570 C   0  0  0  0  0  0  0  0  0  0  0  0
   37.6610   32.2760   31.9900 C   0  0  0  0  0  0  0  0  0  0  0  0
   38.5190   31.3190   31.2930 C   0  0  0  0  0  0  0  0  0  0  0  0
   39.4630   30.9720   32.2340 N   0  0  0  0  0  0  0  0  0  0  0  0
   41.7110   30.1590   35.9830 C   0  0  0  0  0  0  0  0  0  0  0  0
   42.6590   29.2820   35.6770 C   0  0  0  0  0  0  0  0  0  0  0  0
   39.9160   28.5850   27.8250 C   0  0  0  0  0  0  0  0  0  0  0  0
   39.0590   29.5680   28.0170 C   0  0  0  0  0  0  0  0  0  0  0  0
   36.3000   30.0600   28.9180 C   0  0  0  0  0  0  0  0  0  0  0  0
   35.1560   30.2340   28.1420 C   0  0  0  0  0  0  0  0  0  0  0  0
   32.8250   25.0280   25.0180 C   0  0  0  0  0  0  0  0  0  0  0  0
   34.2820   24.8210   25.1930 C   0  0  0  0  0  0  0  0  0  0  0  0
   35.0800   23.2030   25.0140 C   0  0  0  0  0  0  0  0  0  0  0  0
   36.4070   23.1280   25.3390 C   0  0  0  0  0  0  0  0  0  0  0  0
   36.9270   21.8340   25.3600 C   0  0  0  0  0  0  0  0  0  0  0  0
   38.5970   21.6600   25.7910 Cl  0  0  0  0  0  0  0  0  0  0  0  0
   36.1680   20.6280   25.1020 C   0  0  0  0  0  0  0  0  0  0  0  0
   34.7700   20.5070   24.7800 C   0  0  0  0  0  0  0  0  0  0  0  0
   34.2250   19.1560   24.7470 C   0  0  0  0  0  0  0  0  0  0  0  0
   33.0080   18.9060   25.4200 C   0  0  0  0  0  0  0  0  0  0  0  0
   32.5780   17.6070   25.6910 C   0  0  0  0  0  0  0  0  0  0  0  0
   33.3550   16.5290   25.2830 C   0  0  0  0  0  0  0  0  0  0  0  0
   34.5470   16.7550   24.5920 C   0  0  0  0  0  0  0  0  0  0  0  0
   34.9800   18.0600   24.3210 C   0  0  0  0  0  0  0  0  0  0  0  0
   34.1760   21.7440   24.6760 C   0  0  0  0  0  0  0  0  0  0  0  0
   32.4030   21.9330   24.2980 O   0  0  0  0  0  0  0  0  0  0  0  0
   31.5720   23.6650   24.4560 C   0  0  2  0  0  0  0  0  0  0  0  0
   30.6850   24.4990   23.4740 C   0  0  0  0  0  0  0  0  0  0  0  0
   31.4020   25.0730   22.4980 F   0  0  0  0  0  0  0  0  0  0  0  0
   29.8520   23.6300   22.8250 F   0  0  0  0  0  0  0  0  0  0  0  0
   29.8320   25.3800   24.0310 F   0  0  0  0  0  0  0  0  0  0  0  0
   31.7752   27.4824   24.6409 H   0  0  0  0  0  0  0  0  0  0  0  0
   30.8438   27.4692   26.3301 H   0  0  0  0  0  0  0  0  0  0  0  0
   32.2895   30.1647   24.9991 H   0  0  0  0  0  0  0  0  0  0  0  0
   30.9193   30.0147   26.3656 H   0  0  0  0  0  0  0  0  0  0  0  0
   35.5934   33.5074   27.2794 H   0  0  0  0  0  0  0  0  0  0  0  0
   37.5372   33.2487   28.8472 H   0  0  0  0  0  0  0  0  0  0  0  0
   44.0665   25.7684   29.6170 H   0  0  0  0  0  0  0  0  0  0  0  0
   44.8562   25.9253   32.1815 H   0  0  0  0  0  0  0  0  0  0  0  0
   41.6660   28.6000   31.6030 H   0  0  0  0  0  0  0  0  0  0  0  0
   37.6615   33.0870   34.0106 H   0  0  0  0  0  0  0  0  0  0  0  0
   36.7981   32.7982   31.5509 H   0  0  0  0  0  0  0  0  0  0  0  0
   40.2250   30.3800   32.0390 H   0  0  0  0  0  0  0  0  0  0  0  0
   41.4959   30.6371   36.9500 H   0  0  0  0  0  0  0  0  0  0  0  0
   43.4231   28.9233   36.3823 H   0  0  0  0  0  0  0  0  0  0  0  0
   39.9926   27.9977   26.8981 H   0  0  0  0  0  0  0  0  0  0  0  0
   38.3524   30.0236   27.3077 H   0  0  0  0  0  0  0  0  0  0  0  0
   36.5654   29.0548   29.2774 H   0  0  0  0  0  0  0  0  0  0  0  0
   34.5153   29.3742   27.8968 H   0  0  0  0  0  0  0  0  0  0  0  0
   34.9086   25.6898   25.4432 H   0  0  0  0  0  0  0  0  0  0  0  0
   37.0147   24.0165   25.5654 H   0  0  0  0  0  0  0  0  0  0  0  0
   36.7310   19.6847   25.1593 H   0  0  0  0  0  0  0  0  0  0  0  0
   32.3853   19.7554   25.7375 H   0  0  0  0  0  0  0  0  0  0  0  0
   31.6308   17.4369   26.2238 H   0  0  0  0  0  0  0  0  0  0  0  0
   33.0317   15.5010   25.5039 H   0  0  0  0  0  0  0  0  0  0  0  0
   35.1525   15.8999   24.2569 H   0  0  0  0  0  0  0  0  0  0  0  0
   35.9184   18.2223   23.7705 H   0  0  0  0  0  0  0  0  0  0  0  0
   30.8149   23.1632   25.0765 H   0  0  0  0  0  0  0  0  0  0  0  0
  1  2  2  0
  2  3  1  0
  3  4  1  0
  4  5  1  0
  5  6  1  0
  6  7  1  0
  7  8  2  0
  7  9  1  0
  9 10  2  0
 10 11  1  0
 11 12  2  0
 12 13  1  0
 13 14  1  0
 14 15  2  0
 15 16  1  0
 16 17  2  0
 17 18  1  0
 18 19  2  0
 19 20  1  0
 19 21  1  0
 21 22  1  0
 21 23  2  0
 23 24  1  0
 23 25  1  0
 25 26  1  0
 25 27  2  0
 27 28  1  0
 17 29  1  0
 29 30  2  0
 30 31  1  0
 31 32  2  0
 32 33  1  0
 32 34  1  0
 34 35  1  0
 35 36  2  0
 36 37  1  0
 36 38  1  0
 38 39  1  0
 38 40  2  0
 40 41  1  0
 40 42  1  0
 42 43  1  0
 42 44  2  0
 44 45  1  0
 34 46  2  0
 46 47  1  0
 47 48  2  0
 48 49  1  0
 49 50  1  0
 50 51  2  0
 51 52  1  0
 51 53  1  0
 53 54  1  0
 53 55  2  0
 55 56  1  0
 55 57  1  0
 57 58  1  0
 57 59  2  0
 59 60  1  0
 49 61  2  0
 61 62  1  0
 62 63  2  0
 63 64  1  0
 64 65  1  0
 48 66  1  0
 66 67  2  0
 16 68  1  0
 68 69  2  0
 12 70  1  0
 70 71  2  0
  2 72  1  0
 72 73  2  0
 73 74  1  0
 74 75  2  0
 75 76  1  0
 76 77  1  0
 76 78  2  0
 78 79  1  0
 79 80  1  0
 80 81  2  0
 81 82  1  0
 82 83  2  0
 83 84  1  0
 84 85  2  0
 79 86  2  0
 86 87  1  0
 87 88  1  0
 88 89  1  0
 89 90  1  0
 89 91  1  0
 89 92  1  0
 71  9  1  0
 88 72  1  0
 64 13  2  0
 86 74  1  0
 69 14  1  0
 85 80  1  0
 27 18  1  0
 33 29  1  0
 44 35  1  0
 67 46  1  0
 59 50  1  0
 65 61  1  0
  4 93  1  0
  4 94  1  0
  5 95  1  0
  5 96  1  0
 10 97  1  0
 11 98  1  0
 30 99  1  0
 31100  1  0
 33101  1  0
 62102  1  0
 63103  1  0
 65104  1  0
 66105  1  0
 67106  1  0
 68107  1  0
 69108  1  0
 70109  1  0
 71110  1  0
 73111  1  0
 75112  1  0
 78113  1  0
 81114  1  0
 82115  1  0
 83116  1  0
 84117  1  0
 85118  1  0
 88119  1  1
M  END
>  <meeko>  (1) 
{"free_energy": -16.0}

$$$$

     RDKit          3D

119130  0  0  0  0  0  0  0  0999 V2000
   31.6770   24.4060   27.2020 O   0  0  0  0  0  0  0  0  0  0  0  0
   32.2060   25.1140   26.3860 C   0  0  0  0  0  0  0  0  0  0  0  0
   32.6640   26.3680   26.4620 O   0  0  0  0  0  0  0  0  0  0  0  0
   31.5310   27.4580   26.4550 C   0  0  0  0  0  0  0  0  0  0  0  0
   31.8300   29.5980   26.2820 C   0  0  0  0  0  0  0  0  0  0  0  0
   32.7010   30.5890   27.3220 O   0  0  0  0  0  0  0  0  0  0  0  0
   33.2760   31.8180   27.4550 C   0  0  0  0  0  0  0  0  0  0  0  0
   32.7710   32.9140   27.5890 O   0  0  0  0  0  0  0  0  0  0  0  0
   34.7170   31.5180   27.6980 C   0  0  0  0  0  0  0  0  0  0  0  0
   35.6220   32.5820   27.8420 C   0  0  0  0  0  0  0  0  0  0  0  0
   36.7430   32.4290   28.6730 C   0  0  0  0  0  0  0  0  0  0  0  0
   37.0150   31.1830   29.2550 C   0  0  0  0  0  0  0  0  0  0  0  0
   38.2500   30.9170   30.0330 C   0  0  0  0  0  0  0  0  0  0  0  0
   39.2070   29.9430   29.4280 C   0  0  0  0  0  0  0  0  0  0  0  0
   40.1960   29.2900   29.9760 N   0  0  0  0  0  0  0  0  0  0  0  0
   40.6620   28.4420   28.9830 C   0  0  0  0  0  0  0  0  0  0  0  0
   41.6940   27.5700   29.0320 C   0  0  0  0  0  0  0  0  0  0  0  0
   41.9350   26.7720   27.7880 C   0  0  0  0  0  0  0  0  0  0  0  0
   41.3080   25.5320   27.5830 C   0  0  0  0  0  0  0  0  0  0  0  0
   40.4050   25.0780   28.4660 F   0  0  0  0  0  0  0  0  0  0  0  0
   41.6960   24.7010   26.5370 C   0  0  0  0  0  0  0  0  0  0  0  0
   41.1710   23.4720   26.4300 F   0  0  0  0  0  0  0  0  0  0  0  0
   42.6700   25.1200   25.6430 C   0  0  0  0  0  0  0  0  0  0  0  0
   43.0670   24.3040   24.6550 F   0  0  0  0  0  0  0  0  0  0  0  0
   43.2550   26.3690   25.7900 C   0  0  0  0  0  0  0  0  0  0  0  0
   44.1940   26.7730   24.9240 F   0  0  0  0  0  0  0  0  0  0  0  0
   42.8990   27.1850   26.8590 C   0  0  0  0  0  0  0  0  0  0  0  0
   43.5300   28.3590   27.0140 F   0  0  0  0  0  0  0  0  0  0  0  0
   42.4980   27.3550   30.1980 C   0  0  0  0  0  0  0  0  0  0  0  0
   43.5720   26.5040   30.3640 C   0  0  0  0  0  0  0  0  0  0  0  0
   44.0000   26.6040   31.6920 C   0  0  0  0  0  0  0  0  0  0  0  0
   43.2250   27.5580   32.3370 C   0  0  0  0  0  0  0  0  0  0  0  0
   42.2960   27.9990   31.4120 N   0  0  0  0  0  0  0  0  0  0  0  0
   43.3270   28.0310   33.6950 C   0  0  0  0  0  0  0  0  0  0  0  0
   44.4640   27.4830   34.5080 C   0  0  0  0  0  0  0  0  0  0  0  0
   44.3580   26.2760   35.2100 C   0  0  0  0  0  0  0  0  0  0  0  0
   43.1810   25.6370   35.2830 F   0  0  0  0  0  0  0  0  0  0  0  0
   45.4670   25.7220   35.8460 C   0  0  0  0  0  0  0  0  0  0  0  0
   45.3430   24.5720   36.5230 F   0  0  0  0  0  0  0  0  0  0  0  0
   46.7020   26.3500   35.7690 C   0  0  0  0  0  0  0  0  0  0  0  0
   47.7740   25.7980   36.3530 F   0  0  0  0  0  0  0  0  0  0  0  0
   46.8270   27.5490   35.0830 C   0  0  0  0  0  0  0  0  0  0  0  0
   48.0220   28.1480   34.9920 F   0  0  0  0  0  0  0  0  0  0  0  0
   45.7150   28.1190   34.4710 C   0  0  0  0  0  0  0  0  0  0  0  0
   45.8680   29.2720   33.8030 F   0  0  0  0  0  0  0  0  0  0  0  0
   42.5010   28.9350   34.2770 C   0  0  0  0  0  0  0  0  0  0  0  0
   41.4300   29.6280   33.7240 N   0  0  0  0  0  0  0  0  0  0  0  0
   40.9540   30.3890   34.6810 C   0  0  0  0  0  0  0  0  0  0  0  0
   39.8060   31.3760   34.6390 C   0  0  0  0  0  0  0  0  0  0  0  0
   39.4060   32.1120   35.8710 C   0  0  0  0  0  0  0  0  0  0  0  0
   38.4810   31.5570   36.7700 C   0  0  0  0  0  0  0  0  0  0  0  0
   37.9550   30.3480   36.5240 F   0  0  0  0  0  0  0  0  0  0  0  0
   38.0460   32.2620   37.8930 C   0  0  0  0  0  0  0  0  0  0  0  0
   37.1220   31.7260   38.7020 F   0  0  0  0  0  0  0  0  0  0  0  0
   38.5470   33.5270   38.1570 C   0  0  0  0  0  0  0  0  0  0  0  0
   38.1240   34.2060   39.2310 F   0  0  0  0  0  0  0  0  0  0  0  0
   39.4750   34.0910   37.2950 C   0  0  0  0  0  0  0  0  0  0  0  0
   39.9610   35.3140   37.5480 F   0  0  0  0  0  0  0  0  0  0  0  0
   39.8930   33.3960   36.1590 C   0  0  0  0  0  0  0  0  0  0  0  0
   40.7700   33.9830   35.3310 F   0  0  0  0  0  0  0  0  0  0  0  0
   39.1580   31.5790   33.4710 C   0  0  0  0  0  0  0  0  0  0  0  0
   38.0030   32.4520   33.2610 C   0  0  0  0  0  0  0  0  0  0  0  0
   37.5620   32.3090   31.9960 C   0  0  0  0  0  0  0  0  0  0  0  0
   38.4250   31.3600   31.2950 C   0  0  0  0  0  0  0  0  0  0  0  0
   39.3760   31.0220   32.2310 N   0  0  0  0  0  0  0  0  0  0  0  0
   41.6510   30.2280   35.9680 C   0  0  0  0  0  0  0  0  0  0  0  0
   42.6050   29.3600   35.6570 C   0  0  0  0  0  0  0  0  0  0  0  0
   39.8290   28.6400   27.8180 C   0  0  0  0  0  0  0  0  0  0  0  0
   38.9630   29.6150   28.0150 C   0  0  0  0  0  0  0  0  0  0  0  0
   36.2090   30.0800   28.9220 C   0  0  0  0  0  0  0  0  0  0  0  0
   35.0600   30.2450   28.1530 C   0  0  0  0  0  0  0  0  0  0  0  0
   32.8150   24.8440   25.1140 C   0  0  0  0  0  0  0  0  0  0  0  0
   34.2670   24.6140   25.2990 C   0  0  0  0  0  0  0  0  0  0  0  0
   35.0480   22.9930   25.0800 C   0  0  0  0  0  0  0  0  0  0  0  0
   36.3700   22.8910   25.4190 C   0  0  0  0  0  0  0  0  0  0  0  0
   36.8740   21.5910   25.4070 C   0  0  0  0  0  0  0  0  0  0  0  0
   38.5370   21.3840   25.8520 Cl  0  0  0  0  0  0  0  0  0  0  0  0
   36.1040   20.4030   25.1030 C   0  0  0  0  0  0  0  0  0  0  0  0
   34.7090   20.3090   24.7610 C   0  0  0  0  0  0  0  0  0  0  0  0
   34.1480   18.9670   24.6820 C   0  0  0  0  0  0  0  0  0  0  0  0
   32.9550   18.6930   25.3880 C   0  0  0  0  0  0  0  0  0  0  0  0
   32.5210   17.3860   25.6100 C   0  0  0  0  0  0  0  0  0  0  0  0
   33.2700   16.3240   25.1170 C   0  0  0  0  0  0  0  0  0  0  0  0
   34.4380   16.5740   24.3930 C   0  0  0  0  0  0  0  0  0  0  0  0
   34.8740   17.8860   24.1720 C   0  0  0  0  0  0  0  0  0  0  0  0
   34.1300   21.5550   24.6890 C   0  0  0  0  0  0  0  0  0  0  0  0
   32.3650   21.7780   24.2950 O   0  0  0  0  0  0  0  0  0  0  0  0
   31.5530   23.5140   24.4960 C   0  0  2  0  0  0  0  0  0  0  0  0
   30.6880   24.3880   23.5300 C   0  0  0  0  0  0  0  0  0  0  0  0
   31.4250   24.9970   22.5910 F   0  0  0  0  0  0  0  0  0  0  0  0
   29.8650   23.5470   22.8310 F   0  0  0  0  0  0  0  0  0  0  0  0
   29.8260   25.2490   24.1030 F   0  0  0  0  0  0  0  0  0  0  0  0
   30.8758   27.1886   25.6135 H   0  0  0  0  0  0  0  0  0  0  0  0
   31.2030   27.3968   27.5032 H   0  0  0  0  0  0  0  0  0  0  0  0
   32.3004   29.7388   25.2977 H   0  0  0  0  0  0  0  0  0  0  0  0
   30.8130   29.9369   26.5286 H   0  0  0  0  0  0  0  0  0  0  0  0
   35.4537   33.5286   27.3075 H   0  0  0  0  0  0  0  0  0  0  0  0
   37.4064   33.2847   28.8670 H   0  0  0  0  0  0  0  0  0  0  0  0
   44.0135   25.8606   29.5887 H   0  0  0  0  0  0  0  0  0  0  0  0
   44.8149   26.0234   32.1490 H   0  0  0  0  0  0  0  0  0  0  0  0
   41.5970   28.6690   31.5880 H   0  0  0  0  0  0  0  0  0  0  0  0
   37.5639   33.1198   34.0167 H   0  0  0  0  0  0  0  0  0  0  0  0
   36.6926   32.8235   31.5608 H   0  0  0  0  0  0  0  0  0  0  0  0
   40.1420   30.4360   32.0310 H   0  0  0  0  0  0  0  0  0  0  0  0
   41.4364   30.7039   36.9362 H   0  0  0  0  0  0  0  0  0  0  0  0
   43.3763   29.0083   36.3580 H   0  0  0  0  0  0  0  0  0  0  0  0
   39.9072   28.0547   26.8899 H   0  0  0  0  0  0  0  0  0  0  0  0
   38.2480   30.0638   27.3098 H   0  0  0  0  0  0  0  0  0  0  0  0
   36.4892   29.0758   29.2728 H   0  0  0  0  0  0  0  0  0  0  0  0
   34.4283   29.3789   27.9065 H   0  0  0  0  0  0  0  0  0  0  0  0
   34.9008   25.4671   25.5826 H   0  0  0  0  0  0  0  0  0  0  0  0
   36.9855   23.7645   25.6800 H   0  0  0  0  0  0  0  0  0  0  0  0
   36.6551   19.4516   25.1378 H   0  0  0  0  0  0  0  0  0  0  0  0
   32.3540   19.5306   25.7718 H   0  0  0  0  0  0  0  0  0  0  0  0
   31.5936   17.1974   26.1706 H   0  0  0  0  0  0  0  0  0  0  0  0
   32.9437   15.2890   25.2966 H   0  0  0  0  0  0  0  0  0  0  0  0
   35.0211   15.7317   23.9924 H   0  0  0  0  0  0  0  0  0  0  0  0
   35.7923   18.0674   23.5943 H   0  0  0  0  0  0  0  0  0  0  0  0
   30.7827   23.0027   25.0919 H   0  0  0  0  0  0  0  0  0  0  0  0
  1  2  2  0
  2  3  1  0
  3  4  1  0
  4  5  1  0
  5  6  1  0
  6  7  1  0
  7  8  2  0
  7  9  1  0
  9 10  2  0
 10 11  1  0
 11 12  2  0
 12 13  1  0
 13 14  1  0
 14 15  2  0
 15 16  1  0
 16 17  2  0
 17 18  1  0
 18 19  2  0
 19 20  1  0
 19 21  1  0
 21 22  1  0
 21 23  2  0
 23 24  1  0
 23 25  1  0
 25 26  1  0
 25 27  2  0
 27 28  1  0
 17 29  1  0
 29 30  2  0
 30 31  1  0
 31 32  2  0
 32 33  1  0
 32 34  1  0
 34 35  1  0
 35 36  2  0
 36 37  1  0
 36 38  1  0
 38 39  1  0
 38 40  2  0
 40 41  1  0
 40 42  1  0
 42 43  1  0
 42 44  2  0
 44 45  1  0
 34 46  2  0
 46 47  1  0
 47 48  2  0
 48 49  1  0
 49 50  1  0
 50 51  2  0
 51 52  1  0
 51 53  1  0
 53 54  1  0
 53 55  2  0
 55 56  1  0
 55 57  1  0
 57 58  1  0
 57 59  2  0
 59 60  1  0
 49 61  2  0
 61 62  1  0
 62 63  2  0
 63 64  1  0
 64 65  1  0
 48 66  1  0
 66 67  2  0
 16 68  1  0
 68 69  2  0
 12 70  1  0
 70 71  2  0
  2 72  1  0
 72 73  2  0
 73 74  1  0
 74 75  2  0
 75 76  1  0
 76 77  1  0
 76 78  2  0
 78 79  1  0
 79 80  1  0
 80 81  2  0
 81 82  1  0
 82 83  2  0
 83 84  1  0
 84 85  2  0
 79 86  2  0
 86 87  1  0
 87 88  1  0
 88 89  1  0
 89 90  1  0
 89 91  1  0
 89 92  1  0
 71  9  1  0
 88 72  1  0
 64 13  2  0
 86 74  1  0
 69 14  1  0
 85 80  1  0
 27 18  1  0
 33 29  1  0
 44 35  1  0
 67 46  1  0
 59 50  1  0
 65 61  1  0
  4 93  1  0
  4 94  1  0
  5 95  1  0
  5 96  1  0
 10 97  1  0
 11 98  1  0
 30 99  1  0
 31100  1  0
 33101  1  0
 62102  1  0
 63103  1  0
 65104  1  0
 66105  1  0
 67106  1  0
 68107  1  0
 69108  1  0
 70109  1  0
 71110  1  0
 73111  1  0
 75112  1  0
 78113  1  0
 81114  1  0
 82115  1  0
 83116  1  0
 84117  1  0
 85118  1  0
 88119  1  1
M  END
>  <meeko>  (2) 
{"free_energy": -15.9}

$$$$

     RDKit          3D

119130  0  0  0  0  0  0  0  0999 V2000
   31.6770   24.7760   27.1770 O   0  0  0  0  0  0  0  0  0  0  0  0
   32.2050   25.4670   26.3460 C   0  0  0  0  0  0  0  0  0  0  0  0
   32.6690   26.7200   26.3970 O   0  0  0  0  0  0  0  0  0  0  0  0
   31.6780   27.7880   25.8060 C   0  0  0  0  0  0  0  0  0  0  0  0
   31.8960   29.9390   25.9540 C   0  0  0  0  0  0  0  0  0  0  0  0
   32.6730   30.8000   27.1700 O   0  0  0  0  0  0  0  0  0  0  0  0
   33.4860   31.8640   27.4250 C   0  0  0  0  0  0  0  0  0  0  0  0
   33.2170   33.0250   27.6520 O   0  0  0  0  0  0  0  0  0  0  0  0
   34.8250   31.2460   27.6600 C   0  0  0  0  0  0  0  0  0  0  0  0
   35.9090   32.0740   27.9930 C   0  0  0  0  0  0  0  0  0  0  0  0
   36.9280   31.5780   28.8220 C   0  0  0  0  0  0  0  0  0  0  0  0
   36.9170   30.2310   29.2120 C   0  0  0  0  0  0  0  0  0  0  0  0
   38.0280   29.6110   29.9750 C   0  0  0  0  0  0  0  0  0  0  0  0
   38.2490   30.1410   31.3540 C   0  0  0  0  0  0  0  0  0  0  0  0
   39.2870   30.0290   32.1380 N   0  0  0  0  0  0  0  0  0  0  0  0
   38.9910   30.8120   33.2430 C   0  0  0  0  0  0  0  0  0  0  0  0
   39.7300   31.0160   34.3560 C   0  0  0  0  0  0  0  0  0  0  0  0
   39.1400   31.9470   35.3700 C   0  0  0  0  0  0  0  0  0  0  0  0
   39.4780   33.3100   35.3960 C   0  0  0  0  0  0  0  0  0  0  0  0
   40.2750   33.8250   34.4470 F   0  0  0  0  0  0  0  0  0  0  0  0
   39.0990   34.1190   36.4620 C   0  0  0  0  0  0  0  0  0  0  0  0
   39.5330   35.3850   36.5260 F   0  0  0  0  0  0  0  0  0  0  0  0
   38.3240   33.5980   37.4870 C   0  0  0  0  0  0  0  0  0  0  0  0
   37.9880   34.3700   38.5300 F   0  0  0  0  0  0  0  0  0  0  0  0
   37.9240   32.2700   37.4480 C   0  0  0  0  0  0  0  0  0  0  0  0
   37.1740   31.7690   38.4380 F   0  0  0  0  0  0  0  0  0  0  0  0
   38.3370   31.4470   36.4040 C   0  0  0  0  0  0  0  0  0  0  0  0
   37.9900   30.1510   36.4280 F   0  0  0  0  0  0  0  0  0  0  0  0
   41.0240   30.4390   34.5680 C   0  0  0  0  0  0  0  0  0  0  0  0
   41.8610   30.5690   35.6590 C   0  0  0  0  0  0  0  0  0  0  0  0
   43.0370   29.8630   35.3840 C   0  0  0  0  0  0  0  0  0  0  0  0
   42.9080   29.2500   34.1450 C   0  0  0  0  0  0  0  0  0  0  0  0
   41.6730   29.6260   33.6490 N   0  0  0  0  0  0  0  0  0  0  0  0
   43.8420   28.3860   33.4690 C   0  0  0  0  0  0  0  0  0  0  0  0
   45.0910   28.0330   34.2230 C   0  0  0  0  0  0  0  0  0  0  0  0
   46.2290   28.8500   34.1950 C   0  0  0  0  0  0  0  0  0  0  0  0
   46.2790   29.9130   33.3790 F   0  0  0  0  0  0  0  0  0  0  0  0
   47.3250   28.5720   35.0080 C   0  0  0  0  0  0  0  0  0  0  0  0
   48.4100   29.3580   34.9590 F   0  0  0  0  0  0  0  0  0  0  0  0
   47.2940   27.4910   35.8790 C   0  0  0  0  0  0  0  0  0  0  0  0
   48.3360   27.2450   36.6830 F   0  0  0  0  0  0  0  0  0  0  0  0
   46.1790   26.6670   35.9170 C   0  0  0  0  0  0  0  0  0  0  0  0
   46.1380   25.6340   36.7690 F   0  0  0  0  0  0  0  0  0  0  0  0
   45.0930   26.9260   35.0850 C   0  0  0  0  0  0  0  0  0  0  0  0
   44.0230   26.1200   35.1540 F   0  0  0  0  0  0  0  0  0  0  0  0
   43.6710   27.8580   32.2320 C   0  0  0  0  0  0  0  0  0  0  0  0
   42.5870   27.9790   31.3690 N   0  0  0  0  0  0  0  0  0  0  0  0
   42.8920   27.2820   30.2990 C   0  0  0  0  0  0  0  0  0  0  0  0
   42.0730   27.0380   29.0500 C   0  0  0  0  0  0  0  0  0  0  0  0
   42.6400   26.2380   27.9270 C   0  0  0  0  0  0  0  0  0  0  0  0
   43.4300   26.8470   26.9400 C   0  0  0  0  0  0  0  0  0  0  0  0
   43.6860   28.1630   27.0080 F   0  0  0  0  0  0  0  0  0  0  0  0
   43.9120   26.1260   25.8470 C   0  0  0  0  0  0  0  0  0  0  0  0
   44.6190   26.7490   24.8940 F   0  0  0  0  0  0  0  0  0  0  0  0
   43.6380   24.7730   25.7320 C   0  0  0  0  0  0  0  0  0  0  0  0
   44.0960   24.0810   24.6790 F   0  0  0  0  0  0  0  0  0  0  0  0
   42.8750   24.1410   26.7030 C   0  0  0  0  0  0  0  0  0  0  0  0
   42.6080   22.8330   26.5930 F   0  0  0  0  0  0  0  0  0  0  0  0
   42.3720   24.8680   27.7830 C   0  0  0  0  0  0  0  0  0  0  0  0
   41.6130   24.2340   28.6890 F   0  0  0  0  0  0  0  0  0  0  0  0
   40.8250   27.5500   28.9720 C   0  0  0  0  0  0  0  0  0  0  0  0
   39.9190   27.4550   27.8280 C   0  0  0  0  0  0  0  0  0  0  0  0
   38.8120   28.1830   28.0760 C   0  0  0  0  0  0  0  0  0  0  0  0
   38.9150   28.7670   29.4120 C   0  0  0  0  0  0  0  0  0  0  0  0
   40.1160   28.2930   29.8900 N   0  0  0  0  0  0  0  0  0  0  0  0
   44.2320   26.6740   30.3510 C   0  0  0  0  0  0  0  0  0  0  0  0
   44.6470   27.0260   31.5610 C   0  0  0  0  0  0  0  0  0  0  0  0
   37.6990   31.4170   33.0110 C   0  0  0  0  0  0  0  0  0  0  0  0
   37.1610   30.9710   31.8920 C   0  0  0  0  0  0  0  0  0  0  0  0
   35.9320   29.3750   28.6900 C   0  0  0  0  0  0  0  0  0  0  0  0
   34.8850   29.8780   27.9220 C   0  0  0  0  0  0  0  0  0  0  0  0
   32.8040   25.1720   25.0750 C   0  0  0  0  0  0  0  0  0  0  0  0
   34.2610   24.9640   25.2520 C   0  0  0  0  0  0  0  0  0  0  0  0
   35.0590   23.3470   25.0660 C   0  0  0  0  0  0  0  0  0  0  0  0
   36.3850   23.2690   25.3940 C   0  0  0  0  0  0  0  0  0  0  0  0
   36.9040   21.9750   25.4090 C   0  0  0  0  0  0  0  0  0  0  0  0
   38.5730   21.7980   25.8430 Cl  0  0  0  0  0  0  0  0  0  0  0  0
   36.1450   20.7700   25.1430 C   0  0  0  0  0  0  0  0  0  0  0  0
   34.7480   20.6520   24.8180 C   0  0  0  0  0  0  0  0  0  0  0  0
   34.2030   19.3020   24.7780 C   0  0  0  0  0  0  0  0  0  0  0  0
   32.9980   19.0420   25.4690 C   0  0  0  0  0  0  0  0  0  0  0  0
   32.5720   17.7390   25.7310 C   0  0  0  0  0  0  0  0  0  0  0  0
   33.3420   16.6670   25.2940 C   0  0  0  0  0  0  0  0  0  0  0  0
   34.5210   16.9030   24.5850 C   0  0  0  0  0  0  0  0  0  0  0  0
   34.9490   18.2110   24.3240 C   0  0  0  0  0  0  0  0  0  0  0  0
   34.1540   21.8890   24.7190 C   0  0  0  0  0  0  0  0  0  0  0  0
   32.3830   22.0820   24.3380 O   0  0  0  0  0  0  0  0  0  0  0  0
   31.5520   23.8120   24.5030 C   0  0  2  0  0  0  0  0  0  0  0  0
   30.6680   24.6520   23.5240 C   0  0  0  0  0  0  0  0  0  0  0  0
   31.3950   25.3050   22.6080 F   0  0  0  0  0  0  0  0  0  0  0  0
   29.9040   23.7780   22.7990 F   0  0  0  0  0  0  0  0  0  0  0  0
   29.7510   25.4650   24.0830 F   0  0  0  0  0  0  0  0  0  0  0  0
   31.6330   27.5754   24.7277 H   0  0  0  0  0  0  0  0  0  0  0  0
   30.8174   27.6384   26.4746 H   0  0  0  0  0  0  0  0  0  0  0  0
   32.4080   30.2354   25.0267 H   0  0  0  0  0  0  0  0  0  0  0  0
   30.8549   30.2042   26.1902 H   0  0  0  0  0  0  0  0  0  0  0  0
   35.9595   33.1030   27.6075 H   0  0  0  0  0  0  0  0  0  0  0  0
   37.7331   32.2445   29.1648 H   0  0  0  0  0  0  0  0  0  0  0  0
   41.6418   31.1283   36.5805 H   0  0  0  0  0  0  0  0  0  0  0  0
   43.9177   29.8034   36.0404 H   0  0  0  0  0  0  0  0  0  0  0  0
   41.3090   29.3570   32.7750 H   0  0  0  0  0  0  0  0  0  0  0  0
   40.1107   26.8801   26.9100 H   0  0  0  0  0  0  0  0  0  0  0  0
   37.9671   28.3162   27.3843 H   0  0  0  0  0  0  0  0  0  0  0  0
   40.4380   28.4680   30.8040 H   0  0  0  0  0  0  0  0  0  0  0  0
   44.7538   26.0815   29.5851 H   0  0  0  0  0  0  0  0  0  0  0  0
   45.6100   26.7240   31.9985 H   0  0  0  0  0  0  0  0  0  0  0  0
   37.2267   32.1522   33.6792 H   0  0  0  0  0  0  0  0  0  0  0  0
   36.1633   31.1678   31.4727 H   0  0  0  0  0  0  0  0  0  0  0  0
   35.9889   28.2949   28.8905 H   0  0  0  0  0  0  0  0  0  0  0  0
   34.1126   29.2024   27.5258 H   0  0  0  0  0  0  0  0  0  0  0  0
   34.8872   25.8314   25.5082 H   0  0  0  0  0  0  0  0  0  0  0  0
   36.9927   24.1558   25.6271 H   0  0  0  0  0  0  0  0  0  0  0  0
   36.7075   19.8262   25.1961 H   0  0  0  0  0  0  0  0  0  0  0  0
   32.3809   19.8869   25.8086 H   0  0  0  0  0  0  0  0  0  0  0  0
   31.6347   17.5616   26.2788 H   0  0  0  0  0  0  0  0  0  0  0  0
   33.0230   15.6359   25.5064 H   0  0  0  0  0  0  0  0  0  0  0  0
   35.1204   16.0528   24.2274 H   0  0  0  0  0  0  0  0  0  0  0  0
   35.8773   18.3803   23.7586 H   0  0  0  0  0  0  0  0  0  0  0  0
   30.7932   23.3064   25.1183 H   0  0  0  0  0  0  0  0  0  0  0  0
  1  2  2  0
  2  3  1  0
  3  4  1  0
  4  5  1  0
  5  6  1  0
  6  7  1  0
  7  8  2  0
  7  9  1  0
  9 10  2  0
 10 11  1  0
 11 12  2  0
 12 13  1  0
 13 14  1  0
 14 15  2  0
 15 16  1  0
 16 17  2  0
 17 18  1  0
 18 19  2  0
 19 20  1  0
 19 21  1  0
 21 22  1  0
 21 23  2  0
 23 24  1  0
 23 25  1  0
 25 26  1  0
 25 27  2  0
 27 28  1  0
 17 29  1  0
 29 30  2  0
 30 31  1  0
 31 32  2  0
 32 33  1  0
 32 34  1  0
 34 35  1  0
 35 36  2  0
 36 37  1  0
 36 38  1  0
 38 39  1  0
 38 40  2  0
 40 41  1  0
 40 42  1  0
 42 43  1  0
 42 44  2  0
 44 45  1  0
 34 46  2  0
 46 47  1  0
 47 48  2  0
 48 49  1  0
 49 50  1  0
 50 51  2  0
 51 52  1  0
 51 53  1  0
 53 54  1  0
 53 55  2  0
 55 56  1  0
 55 57  1  0
 57 58  1  0
 57 59  2  0
 59 60  1  0
 49 61  2  0
 61 62  1  0
 62 63  2  0
 63 64  1  0
 64 65  1  0
 48 66  1  0
 66 67  2  0
 16 68  1  0
 68 69  2  0
 12 70  1  0
 70 71  2  0
  2 72  1  0
 72 73  2  0
 73 74  1  0
 74 75  2  0
 75 76  1  0
 76 77  1  0
 76 78  2  0
 78 79  1  0
 79 80  1  0
 80 81  2  0
 81 82  1  0
 82 83  2  0
 83 84  1  0
 84 85  2  0
 79 86  2  0
 86 87  1  0
 87 88  1  0
 88 89  1  0
 89 90  1  0
 89 91  1  0
 89 92  1  0
 71  9  1  0
 88 72  1  0
 64 13  2  0
 86 74  1  0
 69 14  1  0
 85 80  1  0
 27 18  1  0
 33 29  1  0
 44 35  1  0
 67 46  1  0
 59 50  1  0
 65 61  1  0
  4 93  1  0
  4 94  1  0
  5 95  1  0
  5 96  1  0
 10 97  1  0
 11 98  1  0
 30 99  1  0
 31100  1  0
 33101  1  0
 62102  1  0
 63103  1  0
 65104  1  0
 66105  1  0
 67106  1  0
 68107  1  0
 69108  1  0
 70109  1  0
 71110  1  0
 73111  1  0
 75112  1  0
 78113  1  0
 81114  1  0
 82115  1  0
 83116  1  0
 84117  1  0
 85118  1  0
 88119  1  1
M  END
>  <meeko>  (3) 
{"free_energy": -15.6}

$$$$

