MODEL 1
REMARK VINA RESULT:      -6.2      0.000      0.000
ROOT
ATOM    142  H40 UNL A   1      13.387  46.642   3.070  1.00  0.00    +0.000 H 
ATOM    143  H41 UNL A   1      15.054  46.637   1.066  1.00  0.00    +0.000 H 
ATOM    144  H42 UNL A   1      14.970  50.450   2.679  1.00  0.00    +0.000 H 
ATOM    145  H43 UNL A   1      16.749  56.575   2.448  1.00  0.00    +0.000 H 
ATOM    146  H44 UNL A   1      15.170  56.560   4.438  1.00  0.00    +0.000 H 
ATOM    147  H45 UNL A   1      15.294  52.706   2.885  1.00  0.00    +0.000 H 
ATOM    148  H46 UNL A   1      18.571  52.856  -0.925  1.00  0.00    +0.000 H 
ATOM    149  H47 UNL A   1      18.003  50.395  -1.341  1.00  0.00    +0.000 H 
ATOM    150  H48 UNL A   1      11.955  50.350   6.683  1.00  0.00    +0.000 H 
ATOM    151  H49 UNL A   1      12.133  52.900   6.828  1.00  0.00    +0.000 H 
ATOM     38  C31 UNL A   1      13.977  54.026   4.970  1.00  0.00    +0.000 C 
ATOM     39  C32 UNL A   1      13.538  52.593   5.074  1.00  0.00    +0.000 C 
ATOM     40  N4  UNL A   1      13.894  51.562   4.348  1.00  0.00    +0.000 N 
ATOM     41  C33 UNL A   1      13.231  50.470   4.892  1.00  0.00    +0.000 C 
ATOM     42  C34 UNL A   1      13.223  49.185   4.460  1.00  0.00    +0.000 C 
ATOM     54  C41 UNL A   1      13.939  48.715   3.303  1.00  0.00    +0.000 C 
ATOM     55  C42 UNL A   1      13.941  47.449   2.743  1.00  0.00    +0.000 C 
ATOM     56  C43 UNL A   1      14.823  47.452   1.657  1.00  0.00    +0.000 C 
ATOM     57  C44 UNL A   1      15.335  48.730   1.510  1.00  0.00    +0.000 C 
ATOM     58  N5  UNL A   1      14.786  49.494   2.528  1.00  0.00    +0.000 N 
ATOM     59  C45 UNL A   1      16.255  49.221   0.517  1.00  0.00    +0.000 C 
ATOM     71  C52 UNL A   1      16.697  50.500   0.428  1.00  0.00    +0.000 C 
ATOM     72  N6  UNL A   1      16.385  51.587   1.233  1.00  0.00    +0.000 N 
ATOM     73  C53 UNL A   1      17.072  52.596   0.756  1.00  0.00    +0.000 C 
ATOM     74  C54 UNL A   1      17.104  54.027   1.220  1.00  0.00    +0.000 C 
ATOM     86  C61 UNL A   1      16.327  54.399   2.255  1.00  0.00    +0.000 C 
ATOM     87  C62 UNL A   1      16.243  55.749   2.805  1.00  0.00    +0.000 C 
ATOM     88  C63 UNL A   1      15.400  55.743   3.850  1.00  0.00    +0.000 C 
ATOM     89  C64 UNL A   1      14.858  54.394   4.021  1.00  0.00    +0.000 C 
ATOM     90  N7  UNL A   1      15.464  53.665   3.029  1.00  0.00    +0.000 N 
ATOM     91  C65 UNL A   1      17.918  52.256  -0.397  1.00  0.00    +0.000 C 
ATOM     92  C66 UNL A   1      17.622  50.978  -0.579  1.00  0.00    +0.000 C 
ATOM     93  C67 UNL A   1      12.492  50.952   6.039  1.00  0.00    +0.000 C 
ATOM     94  C68 UNL A   1      12.595  52.268   6.155  1.00  0.00    +0.000 C 
ENDROOT
BRANCH   38   37
ATOM     34  C27 UNL A   1      12.662  56.998   7.766  1.00  0.00    +0.000 C 
ATOM     35  C28 UNL A   1      11.812  56.601   6.728  1.00  0.00    +0.000 C 
ATOM     36  C29 UNL A   1      12.223  55.608   5.835  1.00  0.00    +0.000 C 
ATOM     37  C30 UNL A   1      13.498  55.032   5.952  1.00  0.00    +0.000 C 
ATOM    140  H38 UNL A   1      10.885  57.039   6.622  1.00  0.00    +0.000 H 
ATOM    141  H39 UNL A   1      11.586  55.296   5.085  1.00  0.00    +0.000 H 
ATOM    152  H50 UNL A   1      15.273  55.010   7.101  1.00  0.00    +0.000 H 
ATOM    153  H51 UNL A   1      14.481  56.592   8.758  1.00  0.00    +0.000 H 
ATOM     95  C69 UNL A   1      14.331  55.422   7.011  1.00  0.00    +0.000 C 
ATOM     96  C70 UNL A   1      13.895  56.363   7.940  1.00  0.00    +0.000 C 
BRANCH   34   32
ATOM     33  O4  UNL A   1      11.675  57.749   9.756  1.00  0.00    +0.000 O 
ATOM     32  C26 UNL A   1      12.207  58.058   8.694  1.00  0.00    +0.000 C 
BRANCH   32   31
ATOM    139  H37 UNL A   1      11.746  60.004   8.798  1.00  0.00    +0.000 H 
ATOM     31  N3  UNL A   1      12.381  59.381   8.376  1.00  0.00    +0.000 N 
BRANCH   31   30
ATOM    137  H35 UNL A   1      13.499  61.019   7.795  1.00  0.00    +0.000 H 
ATOM    138  H36 UNL A   1      14.283  59.450   7.599  1.00  0.00    +0.000 H 
ATOM     30  C25 UNL A   1      13.369  59.998   7.503  1.00  0.00    +0.000 C 
BRANCH   30   29
ATOM     29  C24 UNL A   1      12.943  59.955   6.037  1.00  0.00    +0.000 C 
ATOM    135  H33 UNL A   1      12.005  59.445   5.977  1.00  0.00    +0.000 H 
ATOM    136  H34 UNL A   1      12.893  60.973   5.708  1.00  0.00    +0.000 H 
BRANCH   29   28
ATOM     28  C23 UNL A   1      13.931  59.249   5.101  1.00  0.00    +0.000 C 
ATOM    133  H31 UNL A   1      14.625  59.981   4.742  1.00  0.00    +0.000 H 
ATOM    134  H32 UNL A   1      14.381  58.474   5.682  1.00  0.00    +0.000 H 
BRANCH   28   27
ATOM     27  C22 UNL A   1      13.307  58.554   3.883  1.00  0.00    +0.000 C 
ATOM    132  H30 UNL A   1      13.349  57.504   4.087  1.00  0.00    +0.000 H 
ATOM    131  H29 UNL A   1      13.865  58.842   3.017  1.00  0.00    +0.000 H 
BRANCH   27   26
ATOM    129  H27 UNL A   1      11.394  59.194   4.556  1.00  0.00    +0.000 H 
ATOM     26  C21 UNL A   1      11.833  58.881   3.630  1.00  0.00    +0.000 C 
ATOM    130  H28 UNL A   1      11.807  59.647   2.884  1.00  0.00    +0.000 H 
BRANCH   26   25
ATOM     25  C20 UNL A   1      11.020  57.703   3.086  1.00  0.00    +0.000 C 
ATOM    127  H25 UNL A   1      11.248  56.830   3.661  1.00  0.00    +0.000 H 
ATOM    128  H26 UNL A   1       9.982  57.953   3.161  1.00  0.00    +0.000 H 
BRANCH   25   24
ATOM    126  H24 UNL A   1      11.210  58.218   1.102  1.00  0.00    +0.000 H 
ATOM     24  N2  UNL A   1      11.320  57.439   1.694  1.00  0.00    +0.000 N 
BRANCH   24   22
ATOM     22  C19 UNL A   1      11.727  56.306   1.060  1.00  0.00    +0.000 C 
ATOM     23  O3  UNL A   1      10.843  55.484   0.789  1.00  0.00    +0.000 O 
BRANCH   22   20
ATOM    122  H20 UNL A   1      13.623  55.620   1.606  1.00  0.00    +0.000 H 
ATOM     20  C17 UNL A   1      13.191  56.000   0.704  1.00  0.00    +0.000 C 
BRANCH   20   19
ATOM     97  C71 UNL A   1      13.403  55.117  -1.655  1.00  0.00    +0.000 C 
ATOM     98  C72 UNL A   1      13.615  54.086  -2.592  1.00  0.00    +0.000 C 
ATOM     16  C13 UNL A   1      13.882  52.767  -2.177  1.00  0.00    +0.000 C 
ATOM     17  C14 UNL A   1      13.783  52.511  -0.799  1.00  0.00    +0.000 C 
ATOM     18  C15 UNL A   1      13.484  53.520   0.123  1.00  0.00    +0.000 C 
ATOM     19  C16 UNL A   1      13.356  54.850  -0.278  1.00  0.00    +0.000 C 
ATOM    120  H18 UNL A   1      13.935  51.550  -0.457  1.00  0.00    +0.000 H 
ATOM    121  H19 UNL A   1      13.355  53.275   1.117  1.00  0.00    +0.000 H 
ATOM    154  H52 UNL A   1      13.280  56.086  -1.987  1.00  0.00    +0.000 H 
BRANCH   16   15
ATOM    102  C73 UNL A   1      13.374  50.754  -3.595  1.00  0.00    +0.000 C 
ATOM     11  C8  UNL A   1      13.795  49.725  -4.440  1.00  0.00    +0.000 C 
ATOM     12  C9  UNL A   1      15.130  49.595  -4.810  1.00  0.00    +0.000 C 
ATOM     13  C10 UNL A   1      16.059  50.512  -4.331  1.00  0.00    +0.000 C 
ATOM     14  C11 UNL A   1      15.651  51.532  -3.465  1.00  0.00    +0.000 C 
ATOM     15  C12 UNL A   1      14.305  51.671  -3.077  1.00  0.00    +0.000 C 
ATOM    117  H15 UNL A   1      15.428  48.827  -5.432  1.00  0.00    +0.000 H 
ATOM    118  H16 UNL A   1      17.049  50.440  -4.614  1.00  0.00    +0.000 H 
ATOM    119  H17 UNL A   1      16.352  52.197  -3.103  1.00  0.00    +0.000 H 
ATOM    155  H53 UNL A   1      12.376  50.841  -3.351  1.00  0.00    +0.000 H 
BRANCH   11   10
ATOM     10  O2  UNL A   1      12.931  48.684  -4.825  1.00  0.00    +0.000 O 
BRANCH   10    8
ATOM      9  O1  UNL A   1      13.499  47.012  -6.339  1.00  0.00    +0.000 O 
ATOM      8  C7  UNL A   1      13.052  48.123  -6.087  1.00  0.00    +0.000 C 
BRANCH    8    7
ATOM    116  H14 UNL A   1      11.826  49.520  -6.860  1.00  0.00    +0.000 H 
ATOM      7  N1  UNL A   1      12.599  48.951  -7.079  1.00  0.00    +0.000 N 
BRANCH    7    6
ATOM    114  H12 UNL A   1      13.180  48.100  -8.864  1.00  0.00    +0.000 H 
ATOM    115  H13 UNL A   1      12.498  49.725  -8.975  1.00  0.00    +0.000 H 
ATOM      6  C6  UNL A   1      13.139  49.072  -8.419  1.00  0.00    +0.000 C 
BRANCH    6    5
ATOM    113  H11 UNL A   1      14.732  49.997  -7.418  1.00  0.00    +0.000 H 
ATOM      5  C5  UNL A   1      14.543  49.677  -8.421  1.00  0.00    +0.000 C 
ATOM    112  H10 UNL A   1      14.560  50.476  -9.131  1.00  0.00    +0.000 H 
BRANCH    5    4
ATOM      4  C4  UNL A   1      15.667  48.698  -8.779  1.00  0.00    +0.000 C 
ATOM    110  H8  UNL A   1      15.268  47.707  -8.735  1.00  0.00    +0.000 H 
ATOM    111  H9  UNL A   1      16.006  48.983  -9.753  1.00  0.00    +0.000 H 
BRANCH    4    3
ATOM      3  C3  UNL A   1      16.902  48.751  -7.873  1.00  0.00    +0.000 C 
ATOM    108  H6  UNL A   1      17.593  49.448  -8.296  1.00  0.00    +0.000 H 
ATOM    109  H7  UNL A   1      16.545  49.032  -6.904  1.00  0.00    +0.000 H 
BRANCH    3    2
ATOM      2  C2  UNL A   1      17.633  47.420  -7.681  1.00  0.00    +0.000 C 
ATOM    107  H5  UNL A   1      18.682  47.631  -7.680  1.00  0.00    +0.000 H 
ATOM    106  H4  UNL A   1      17.355  46.761  -8.477  1.00  0.00    +0.000 H 
BRANCH    2    1
ATOM      1  C1  UNL A   1      17.310  46.741  -6.358  1.00  0.00    +0.000 C 
ATOM    105  H3  UNL A   1      17.991  45.932  -6.197  1.00  0.00    +0.000 H 
ATOM    103  H1  UNL A   1      16.309  46.363  -6.387  1.00  0.00    +0.000 H 
ATOM    104  H2  UNL A   1      17.400  47.449  -5.562  1.00  0.00    +0.000 H 
ENDBRANCH    2    1
ENDBRANCH    3    2
ENDBRANCH    4    3
ENDBRANCH    5    4
ENDBRANCH    6    5
ENDBRANCH    7    6
ENDBRANCH    8    7
ENDBRANCH   10    8
ENDBRANCH   11   10
ENDBRANCH   16   15
BRANCH   98   99
ATOM     99  N8  UNL A   1      13.490  54.424  -3.993  1.00  0.00    +0.000 N 
ATOM    100  O5  UNL A   1      14.354  55.066  -4.555  1.00  0.00    +0.000 O 
ATOM    101  O6  UNL A   1      12.335  54.161  -4.689  1.00  0.00    +0.000 O 
ENDBRANCH   98   99
ENDBRANCH   20   19
BRANCH   20   21
ATOM    125  H23 UNL A   1      14.027  57.883   1.278  1.00  0.00    +0.000 H 
ATOM    123  H21 UNL A   1      13.657  57.756  -0.425  1.00  0.00    +0.000 H 
ATOM    124  H22 UNL A   1      15.054  56.937   0.229  1.00  0.00    +0.000 H 
ATOM     21  C18 UNL A   1      14.046  57.237   0.426  1.00  0.00    +0.000 C 
ENDBRANCH   20   21
ENDBRANCH   22   20
ENDBRANCH   24   22
ENDBRANCH   25   24
ENDBRANCH   26   25
ENDBRANCH   27   26
ENDBRANCH   28   27
ENDBRANCH   29   28
ENDBRANCH   30   29
ENDBRANCH   31   30
ENDBRANCH   32   31
ENDBRANCH   34   32
ENDBRANCH   38   37
BRANCH   42   43
ATOM     43  C35 UNL A   1      12.410  48.196   5.244  1.00  0.00    +0.000 C 
ATOM     44  C36 UNL A   1      11.080  47.902   4.906  1.00  0.00    +0.000 C 
ATOM     45  F1  UNL A   1      10.488  48.537   3.884  1.00  0.00    +0.000 F 
ATOM     46  C37 UNL A   1      10.339  46.984   5.645  1.00  0.00    +0.000 C 
ATOM     47  F2  UNL A   1       9.054  46.758   5.335  1.00  0.00    +0.000 F 
ATOM     48  C38 UNL A   1      10.920  46.316   6.711  1.00  0.00    +0.000 C 
ATOM     49  F3  UNL A   1      10.206  45.429   7.418  1.00  0.00    +0.000 F 
ATOM     50  C39 UNL A   1      12.241  46.571   7.048  1.00  0.00    +0.000 C 
ATOM     51  F4  UNL A   1      12.810  45.916   8.070  1.00  0.00    +0.000 F 
ATOM     52  C40 UNL A   1      12.977  47.511   6.330  1.00  0.00    +0.000 C 
ATOM     53  F5  UNL A   1      14.247  47.749   6.692  1.00  0.00    +0.000 F 
ENDBRANCH   42   43
BRANCH   59   60
ATOM     65  C49 UNL A   1      17.631  46.405  -2.442  1.00  0.00    +0.000 C 
ATOM     66  F8  UNL A   1      18.056  45.532  -3.366  1.00  0.00    +0.000 F 
ATOM     67  C50 UNL A   1      16.358  46.947  -2.533  1.00  0.00    +0.000 C 
ATOM     68  F9  UNL A   1      15.544  46.580  -3.532  1.00  0.00    +0.000 F 
ATOM     69  C51 UNL A   1      15.924  47.871  -1.587  1.00  0.00    +0.000 C 
ATOM     70  F10 UNL A   1      14.692  48.388  -1.708  1.00  0.00    +0.000 F 
ATOM     60  C46 UNL A   1      16.750  48.253  -0.519  1.00  0.00    +0.000 C 
ATOM     61  C47 UNL A   1      18.027  47.678  -0.436  1.00  0.00    +0.000 C 
ATOM     62  F6  UNL A   1      18.859  48.023   0.558  1.00  0.00    +0.000 F 
ATOM     63  C48 UNL A   1      18.468  46.775  -1.400  1.00  0.00    +0.000 C 
ATOM     64  F7  UNL A   1      19.709  46.275  -1.327  1.00  0.00    +0.000 F 
ENDBRANCH   59   60
BRANCH   74   75
ATOM     75  C55 UNL A   1      17.952  55.034   0.534  1.00  0.00    +0.000 C 
ATOM     76  C56 UNL A   1      19.135  55.498   1.126  1.00  0.00    +0.000 C 
ATOM     77  F11 UNL A   1      19.495  55.054   2.339  1.00  0.00    +0.000 F 
ATOM     78  C57 UNL A   1      19.934  56.446   0.489  1.00  0.00    +0.000 C 
ATOM     79  F12 UNL A   1      21.039  56.901   1.095  1.00  0.00    +0.000 F 
ATOM     80  C58 UNL A   1      19.580  56.927  -0.761  1.00  0.00    +0.000 C 
ATOM     81  F13 UNL A   1      20.352  57.833  -1.376  1.00  0.00    +0.000 F 
ATOM     82  C59 UNL A   1      18.422  56.471  -1.373  1.00  0.00    +0.000 C 
ATOM     83  F14 UNL A   1      18.085  56.923  -2.589  1.00  0.00    +0.000 F 
ATOM     84  C60 UNL A   1      17.608  55.544  -0.726  1.00  0.00    +0.000 C 
ATOM     85  F15 UNL A   1      16.489  55.126  -1.337  1.00  0.00    +0.000 F 
ENDBRANCH   74   75
TORSDOF 28
ENDMDL
MODEL 2
REMARK VINA RESULT:      -6.1      4.134     10.135
ROOT
ATOM    142  H40 UNL A   1      13.498  46.936   3.151  1.00  0.00    +0.000 H 
ATOM    143  H41 UNL A   1      15.120  46.941   1.110  1.00  0.00    +0.000 H 
ATOM    144  H42 UNL A   1      15.003  50.768   2.688  1.00  0.00    +0.000 H 
ATOM    145  H43 UNL A   1      16.665  56.921   2.359  1.00  0.00    +0.000 H 
ATOM    146  H44 UNL A   1      15.131  56.897   4.384  1.00  0.00    +0.000 H 
ATOM    147  H45 UNL A   1      15.290  53.031   2.865  1.00  0.00    +0.000 H 
ATOM    148  H46 UNL A   1      18.477  53.202  -1.019  1.00  0.00    +0.000 H 
ATOM    149  H47 UNL A   1      17.945  50.728  -1.400  1.00  0.00    +0.000 H 
ATOM    150  H48 UNL A   1      12.081  50.652   6.760  1.00  0.00    +0.000 H 
ATOM    151  H49 UNL A   1      12.215  53.207   6.877  1.00  0.00    +0.000 H 
ATOM     38  C31 UNL A   1      13.997  54.348   4.967  1.00  0.00    +0.000 C 
ATOM     39  C32 UNL A   1      13.586  52.908   5.095  1.00  0.00    +0.000 C 
ATOM     40  N4  UNL A   1      13.944  51.876   4.370  1.00  0.00    +0.000 N 
ATOM     41  C33 UNL A   1      13.314  50.778   4.939  1.00  0.00    +0.000 C 
ATOM     42  C34 UNL A   1      13.319  49.489   4.520  1.00  0.00    +0.000 C 
ATOM     54  C41 UNL A   1      14.018  49.020   3.351  1.00  0.00    +0.000 C 
ATOM     55  C42 UNL A   1      14.030  47.750   2.804  1.00  0.00    +0.000 C 
ATOM     56  C43 UNL A   1      14.888  47.757   1.698  1.00  0.00    +0.000 C 
ATOM     57  C44 UNL A   1      15.372  49.043   1.527  1.00  0.00    +0.000 C 
ATOM     58  N5  UNL A   1      14.833  49.808   2.550  1.00  0.00    +0.000 N 
ATOM     59  C45 UNL A   1      16.261  49.541   0.509  1.00  0.00    +0.000 C 
ATOM     71  C52 UNL A   1      16.677  50.826   0.398  1.00  0.00    +0.000 C 
ATOM     72  N6  UNL A   1      16.364  51.916   1.200  1.00  0.00    +0.000 N 
ATOM     73  C53 UNL A   1      17.022  52.933   0.697  1.00  0.00    +0.000 C 
ATOM     74  C54 UNL A   1      17.037  54.368   1.147  1.00  0.00    +0.000 C 
ATOM     86  C61 UNL A   1      16.277  54.737   2.196  1.00  0.00    +0.000 C 
ATOM     87  C62 UNL A   1      16.181  56.090   2.735  1.00  0.00    +0.000 C 
ATOM     88  C63 UNL A   1      15.363  56.079   3.799  1.00  0.00    +0.000 C 
ATOM     89  C64 UNL A   1      14.850  54.722   3.995  1.00  0.00    +0.000 C 
ATOM     90  N7  UNL A   1      15.445  53.994   2.996  1.00  0.00    +0.000 N 
ATOM     91  C65 UNL A   1      17.848  52.596  -0.471  1.00  0.00    +0.000 C 
ATOM     92  C66 UNL A   1      17.571  51.311  -0.634  1.00  0.00    +0.000 C 
ATOM     93  C67 UNL A   1      12.592  51.258   6.098  1.00  0.00    +0.000 C 
ATOM     94  C68 UNL A   1      12.674  52.577   6.200  1.00  0.00    +0.000 C 
ENDROOT
BRANCH   38   37
ATOM     34  C27 UNL A   1      12.701  57.317   7.774  1.00  0.00    +0.000 C 
ATOM     35  C28 UNL A   1      11.910  57.030   6.657  1.00  0.00    +0.000 C 
ATOM     36  C29 UNL A   1      12.311  56.039   5.758  1.00  0.00    +0.000 C 
ATOM     37  C30 UNL A   1      13.522  55.354   5.950  1.00  0.00    +0.000 C 
ATOM    140  H38 UNL A   1      11.033  57.548   6.497  1.00  0.00    +0.000 H 
ATOM    141  H39 UNL A   1      11.714  55.809   4.948  1.00  0.00    +0.000 H 
ATOM    152  H50 UNL A   1      15.189  55.143   7.233  1.00  0.00    +0.000 H 
ATOM    153  H51 UNL A   1      14.394  56.725   8.888  1.00  0.00    +0.000 H 
ATOM     95  C69 UNL A   1      14.294  55.635   7.087  1.00  0.00    +0.000 C 
ATOM     96  C70 UNL A   1      13.860  56.576   8.018  1.00  0.00    +0.000 C 
BRANCH   34   32
ATOM     33  O4  UNL A   1      11.684  58.071   9.748  1.00  0.00    +0.000 O 
ATOM     32  C26 UNL A   1      12.259  58.378   8.708  1.00  0.00    +0.000 C 
BRANCH   32   31
ATOM    139  H37 UNL A   1      11.760  60.166   7.957  1.00  0.00    +0.000 H 
ATOM     31  N3  UNL A   1      12.492  59.699   8.419  1.00  0.00    +0.000 N 
BRANCH   31   30
ATOM    137  H35 UNL A   1      14.394  59.906   9.201  1.00  0.00    +0.000 H 
ATOM    138  H36 UNL A   1      14.049  60.870   7.763  1.00  0.00    +0.000 H 
ATOM     30  C25 UNL A   1      13.669  60.510   8.697  1.00  0.00    +0.000 C 
BRANCH   30   29
ATOM     29  C24 UNL A   1      13.339  61.717   9.571  1.00  0.00    +0.000 C 
ATOM    135  H33 UNL A   1      14.163  62.398   9.522  1.00  0.00    +0.000 H 
ATOM    136  H34 UNL A   1      12.428  62.127   9.186  1.00  0.00    +0.000 H 
BRANCH   29   28
ATOM     28  C23 UNL A   1      13.075  61.392  11.045  1.00  0.00    +0.000 C 
ATOM    133  H31 UNL A   1      13.511  60.437  11.254  1.00  0.00    +0.000 H 
ATOM    134  H32 UNL A   1      13.505  62.195  11.604  1.00  0.00    +0.000 H 
BRANCH   28   27
ATOM     27  C22 UNL A   1      11.597  61.336  11.457  1.00  0.00    +0.000 C 
ATOM    132  H30 UNL A   1      11.086  60.830  10.664  1.00  0.00    +0.000 H 
ATOM    131  H29 UNL A   1      11.259  62.340  11.610  1.00  0.00    +0.000 H 
BRANCH   27   26
ATOM    129  H27 UNL A   1      10.354  60.059  12.618  1.00  0.00    +0.000 H 
ATOM     26  C21 UNL A   1      11.306  60.537  12.731  1.00  0.00    +0.000 C 
ATOM    130  H28 UNL A   1      12.106  59.836  12.848  1.00  0.00    +0.000 H 
BRANCH   26   25
ATOM     25  C20 UNL A   1      11.271  61.388  14.003  1.00  0.00    +0.000 C 
ATOM    127  H25 UNL A   1      12.052  62.117  13.954  1.00  0.00    +0.000 H 
ATOM    128  H26 UNL A   1      10.310  61.856  14.063  1.00  0.00    +0.000 H 
BRANCH   25   24
ATOM    126  H24 UNL A   1      12.313  60.729  15.651  1.00  0.00    +0.000 H 
ATOM     24  N2  UNL A   1      11.454  60.584  15.193  1.00  0.00    +0.000 N 
BRANCH   24   22
ATOM     22  C19 UNL A   1      10.649  59.663  15.792  1.00  0.00    +0.000 C 
ATOM     23  O3  UNL A   1       9.433  59.817  15.634  1.00  0.00    +0.000 O 
BRANCH   22   20
ATOM    122  H20 UNL A   1      10.432  58.369  17.417  1.00  0.00    +0.000 H 
ATOM     20  C17 UNL A   1      11.168  58.498  16.651  1.00  0.00    +0.000 C 
BRANCH   20   19
ATOM     97  C71 UNL A   1      10.617  56.033  16.564  1.00  0.00    +0.000 C 
ATOM     98  C72 UNL A   1      10.543  54.788  15.907  1.00  0.00    +0.000 C 
ATOM     16  C13 UNL A   1      10.933  54.650  14.561  1.00  0.00    +0.000 C 
ATOM     17  C14 UNL A   1      11.526  55.774  13.962  1.00  0.00    +0.000 C 
ATOM     18  C15 UNL A   1      11.680  56.985  14.645  1.00  0.00    +0.000 C 
ATOM     19  C16 UNL A   1      11.168  57.158  15.931  1.00  0.00    +0.000 C 
ATOM    120  H18 UNL A   1      11.859  55.704  12.988  1.00  0.00    +0.000 H 
ATOM    121  H19 UNL A   1      12.181  57.764  14.190  1.00  0.00    +0.000 H 
ATOM    154  H52 UNL A   1      10.258  56.119  17.528  1.00  0.00    +0.000 H 
BRANCH   16   15
ATOM    102  C73 UNL A   1      11.624  52.370  13.757  1.00  0.00    +0.000 C 
ATOM     11  C8  UNL A   1      11.397  51.238  12.972  1.00  0.00    +0.000 C 
ATOM     12  C9  UNL A   1      10.259  51.125  12.180  1.00  0.00    +0.000 C 
ATOM     13  C10 UNL A   1       9.330  52.160  12.176  1.00  0.00    +0.000 C 
ATOM     14  C11 UNL A   1       9.561  53.308  12.940  1.00  0.00    +0.000 C 
ATOM     15  C12 UNL A   1      10.711  53.439  13.741  1.00  0.00    +0.000 C 
ATOM    117  H15 UNL A   1      10.106  50.284  11.602  1.00  0.00    +0.000 H 
ATOM    118  H16 UNL A   1       8.471  52.080  11.609  1.00  0.00    +0.000 H 
ATOM    119  H17 UNL A   1       8.872  54.076  12.916  1.00  0.00    +0.000 H 
ATOM    155  H53 UNL A   1      12.466  52.423  14.351  1.00  0.00    +0.000 H 
BRANCH   11   10
ATOM     10  O2  UNL A   1      12.373  50.238  12.818  1.00  0.00    +0.000 O 
BRANCH   10    8
ATOM      9  O1  UNL A   1      12.696  49.937  10.534  1.00  0.00    +0.000 O 
ATOM      8  C7  UNL A   1      13.124  50.185  11.654  1.00  0.00    +0.000 C 
BRANCH    8    7
ATOM    116  H14 UNL A   1      15.088  50.057  11.234  1.00  0.00    +0.000 H 
ATOM      7  N1  UNL A   1      14.449  50.457  11.865  1.00  0.00    +0.000 N 
BRANCH    7    6
ATOM    114  H12 UNL A   1      14.268  51.396  13.692  1.00  0.00    +0.000 H 
ATOM    115  H13 UNL A   1      15.877  50.777  13.302  1.00  0.00    +0.000 H 
ATOM      6  C6  UNL A   1      15.006  51.274  12.925  1.00  0.00    +0.000 C 
BRANCH    6    5
ATOM    113  H11 UNL A   1      15.818  52.509  11.438  1.00  0.00    +0.000 H 
ATOM      5  C5  UNL A   1      15.432  52.655  12.426  1.00  0.00    +0.000 C 
ATOM    112  H10 UNL A   1      16.153  53.048  13.110  1.00  0.00    +0.000 H 
BRANCH    5    4
ATOM      4  C4  UNL A   1      14.294  53.674  12.296  1.00  0.00    +0.000 C 
ATOM    110  H8  UNL A   1      13.425  53.259  12.759  1.00  0.00    +0.000 H 
ATOM    111  H9  UNL A   1      14.646  54.569  12.764  1.00  0.00    +0.000 H 
BRANCH    4    3
ATOM      3  C3  UNL A   1      13.922  54.069  10.863  1.00  0.00    +0.000 C 
ATOM    108  H6  UNL A   1      14.552  54.882  10.569  1.00  0.00    +0.000 H 
ATOM    109  H7  UNL A   1      14.051  53.187  10.271  1.00  0.00    +0.000 H 
BRANCH    3    2
ATOM      2  C2  UNL A   1      12.468  54.503  10.657  1.00  0.00    +0.000 C 
ATOM    107  H5  UNL A   1      12.486  55.504  10.281  1.00  0.00    +0.000 H 
ATOM    106  H4  UNL A   1      11.957  54.433  11.595  1.00  0.00    +0.000 H 
BRANCH    2    1
ATOM      1  C1  UNL A   1      11.724  53.652   9.639  1.00  0.00    +0.000 C 
ATOM    105  H3  UNL A   1      11.020  54.261   9.112  1.00  0.00    +0.000 H 
ATOM    103  H1  UNL A   1      11.206  52.863  10.143  1.00  0.00    +0.000 H 
ATOM    104  H2  UNL A   1      12.423  53.232   8.946  1.00  0.00    +0.000 H 
ENDBRANCH    2    1
ENDBRANCH    3    2
ENDBRANCH    4    3
ENDBRANCH    5    4
ENDBRANCH    6    5
ENDBRANCH    7    6
ENDBRANCH    8    7
ENDBRANCH   10    8
ENDBRANCH   11   10
ENDBRANCH   16   15
BRANCH   98   99
ATOM     99  N8  UNL A   1      10.109  53.650  16.686  1.00  0.00    +0.000 N 
ATOM    100  O5  UNL A   1      10.911  52.981  17.307  1.00  0.00    +0.000 O 
ATOM    101  O6  UNL A   1       8.810  53.203  16.634  1.00  0.00    +0.000 O 
ENDBRANCH   98   99
ENDBRANCH   20   19
BRANCH   20   21
ATOM    125  H23 UNL A   1      12.947  57.910  17.681  1.00  0.00    +0.000 H 
ATOM    123  H21 UNL A   1      12.155  59.309  18.367  1.00  0.00    +0.000 H 
ATOM    124  H22 UNL A   1      13.064  59.460  16.882  1.00  0.00    +0.000 H 
ATOM     21  C18 UNL A   1      12.428  58.818  17.456  1.00  0.00    +0.000 C 
ENDBRANCH   20   21
ENDBRANCH   22   20
ENDBRANCH   24   22
ENDBRANCH   25   24
ENDBRANCH   26   25
ENDBRANCH   27   26
ENDBRANCH   28   27
ENDBRANCH   29   28
ENDBRANCH   30   29
ENDBRANCH   31   30
ENDBRANCH   32   31
ENDBRANCH   34   32
ENDBRANCH   38   37
BRANCH   42   43
ATOM     43  C35 UNL A   1      12.543  48.493   5.332  1.00  0.00    +0.000 C 
ATOM     44  C36 UNL A   1      11.193  48.217   5.065  1.00  0.00    +0.000 C 
ATOM     45  F1  UNL A   1      10.550  48.876   4.089  1.00  0.00    +0.000 F 
ATOM     46  C37 UNL A   1      10.485  47.293   5.828  1.00  0.00    +0.000 C 
ATOM     47  F2  UNL A   1       9.183  47.084   5.588  1.00  0.00    +0.000 F 
ATOM     48  C38 UNL A   1      11.120  46.600   6.848  1.00  0.00    +0.000 C 
ATOM     49  F3  UNL A   1      10.438  45.708   7.579  1.00  0.00    +0.000 F 
ATOM     50  C39 UNL A   1      12.460  46.838   7.113  1.00  0.00    +0.000 C 
ATOM     51  F4  UNL A   1      13.079  46.159   8.090  1.00  0.00    +0.000 F 
ATOM     52  C40 UNL A   1      13.163  47.784   6.371  1.00  0.00    +0.000 C 
ATOM     53  F5  UNL A   1      14.454  48.003   6.665  1.00  0.00    +0.000 F 
ENDBRANCH   42   43
BRANCH   59   60
ATOM     65  C49 UNL A   1      17.712  46.794  -2.479  1.00  0.00    +0.000 C 
ATOM     66  F8  UNL A   1      18.166  45.937  -3.405  1.00  0.00    +0.000 F 
ATOM     67  C50 UNL A   1      18.484  47.085  -1.365  1.00  0.00    +0.000 C 
ATOM     68  F9  UNL A   1      19.693  46.526  -1.224  1.00  0.00    +0.000 F 
ATOM     69  C51 UNL A   1      18.004  47.957  -0.392  1.00  0.00    +0.000 C 
ATOM     70  F10 UNL A   1      18.767  48.209   0.682  1.00  0.00    +0.000 F 
ATOM     60  C46 UNL A   1      16.750  48.571  -0.529  1.00  0.00    +0.000 C 
ATOM     61  C47 UNL A   1      15.994  48.278  -1.674  1.00  0.00    +0.000 C 
ATOM     62  F6  UNL A   1      14.782  48.828  -1.842  1.00  0.00    +0.000 F 
ATOM     63  C48 UNL A   1      16.465  47.383  -2.631  1.00  0.00    +0.000 C 
ATOM     64  F7  UNL A   1      15.706  47.081  -3.692  1.00  0.00    +0.000 F 
ENDBRANCH   59   60
BRANCH   74   75
ATOM     75  C55 UNL A   1      17.852  55.384   0.432  1.00  0.00    +0.000 C 
ATOM     76  C56 UNL A   1      19.101  55.782   0.930  1.00  0.00    +0.000 C 
ATOM     77  F11 UNL A   1      19.557  55.265   2.081  1.00  0.00    +0.000 F 
ATOM     78  C57 UNL A   1      19.868  56.737   0.267  1.00  0.00    +0.000 C 
ATOM     79  F12 UNL A   1      21.040  57.128   0.786  1.00  0.00    +0.000 F 
ATOM     80  C58 UNL A   1      19.415  57.291  -0.919  1.00  0.00    +0.000 C 
ATOM     81  F13 UNL A   1      20.156  58.205  -1.561  1.00  0.00    +0.000 F 
ATOM     82  C59 UNL A   1      18.190  56.902  -1.439  1.00  0.00    +0.000 C 
ATOM     83  F14 UNL A   1      17.755  57.425  -2.594  1.00  0.00    +0.000 F 
ATOM     84  C60 UNL A   1      17.409  55.967  -0.763  1.00  0.00    +0.000 C 
ATOM     85  F15 UNL A   1      16.224  55.614  -1.284  1.00  0.00    +0.000 F 
ENDBRANCH   74   75
TORSDOF 28
ENDMDL
MODEL 3
REMARK VINA RESULT:      -6.1     46.332     52.694
ROOT
ATOM    142  H40 UNL A   1      11.407   9.463  29.342  1.00  0.00    +0.000 H 
ATOM    143  H41 UNL A   1      12.347   7.095  29.896  1.00  0.00    +0.000 H 
ATOM    144  H42 UNL A   1       9.048   6.642  27.434  1.00  0.00    +0.000 H 
ATOM    145  H43 UNL A   1       4.835   2.849  24.504  1.00  0.00    +0.000 H 
ATOM    146  H44 UNL A   1       3.960   5.160  23.917  1.00  0.00    +0.000 H 
ATOM    147  H45 UNL A   1       7.313   5.645  26.325  1.00  0.00    +0.000 H 
ATOM    148  H46 UNL A   1       9.022   1.011  27.264  1.00  0.00    +0.000 H 
ATOM    149  H47 UNL A   1      10.804   2.106  28.739  1.00  0.00    +0.000 H 
ATOM    150  H48 UNL A   1       7.433  11.221  26.185  1.00  0.00    +0.000 H 
ATOM    151  H49 UNL A   1       5.372  10.153  25.104  1.00  0.00    +0.000 H 
ATOM     38  C31 UNL A   1       5.449   7.305  25.062  1.00  0.00    +0.000 C 
ATOM     39  C32 UNL A   1       6.422   8.240  25.723  1.00  0.00    +0.000 C 
ATOM     40  N4  UNL A   1       7.498   7.962  26.417  1.00  0.00    +0.000 N 
ATOM     41  C33 UNL A   1       8.054   9.187  26.759  1.00  0.00    +0.000 C 
ATOM     42  C34 UNL A   1       9.142   9.436  27.526  1.00  0.00    +0.000 C 
ATOM     54  C41 UNL A   1       9.948   8.416  28.146  1.00  0.00    +0.000 C 
ATOM     55  C42 UNL A   1      11.029   8.567  28.996  1.00  0.00    +0.000 C 
ATOM     56  C43 UNL A   1      11.523   7.295  29.306  1.00  0.00    +0.000 C 
ATOM     57  C44 UNL A   1      10.721   6.350  28.689  1.00  0.00    +0.000 C 
ATOM     58  N5  UNL A   1       9.760   7.052  27.978  1.00  0.00    +0.000 N 
ATOM     59  C45 UNL A   1      10.820   4.914  28.742  1.00  0.00    +0.000 C 
ATOM     71  C52 UNL A   1       9.979   4.051  28.121  1.00  0.00    +0.000 C 
ATOM     72  N6  UNL A   1       8.877   4.330  27.324  1.00  0.00    +0.000 N 
ATOM     73  C53 UNL A   1       8.403   3.168  26.946  1.00  0.00    +0.000 C 
ATOM     74  C54 UNL A   1       7.202   2.865  26.092  1.00  0.00    +0.000 C 
ATOM     86  C61 UNL A   1       6.449   3.883  25.632  1.00  0.00    +0.000 C 
ATOM     87  C62 UNL A   1       5.254   3.743  24.806  1.00  0.00    +0.000 C 
ATOM     88  C63 UNL A   1       4.785   4.964  24.505  1.00  0.00    +0.000 C 
ATOM     89  C64 UNL A   1       5.630   5.973  25.145  1.00  0.00    +0.000 C 
ATOM     90  N7  UNL A   1       6.591   5.238  25.794  1.00  0.00    +0.000 N 
ATOM     91  C65 UNL A   1       9.168   2.016  27.444  1.00  0.00    +0.000 C 
ATOM     92  C66 UNL A   1      10.092   2.609  28.185  1.00  0.00    +0.000 C 
ATOM     93  C67 UNL A   1       7.226  10.210  26.156  1.00  0.00    +0.000 C 
ATOM     94  C68 UNL A   1       6.168   9.679  25.561  1.00  0.00    +0.000 C 
ENDROOT
BRANCH   38   37
ATOM     34  C27 UNL A   1       2.181   8.753  22.695  1.00  0.00    +0.000 C 
ATOM     35  C28 UNL A   1       2.041   8.660  24.083  1.00  0.00    +0.000 C 
ATOM     36  C29 UNL A   1       3.115   8.221  24.862  1.00  0.00    +0.000 C 
ATOM     37  C30 UNL A   1       4.322   7.839  24.256  1.00  0.00    +0.000 C 
ATOM    140  H38 UNL A   1       1.148   8.915  24.531  1.00  0.00    +0.000 H 
ATOM    141  H39 UNL A   1       3.020   8.178  25.889  1.00  0.00    +0.000 H 
ATOM    152  H50 UNL A   1       5.338   7.674  22.409  1.00  0.00    +0.000 H 
ATOM    153  H51 UNL A   1       3.540   8.617  21.084  1.00  0.00    +0.000 H 
ATOM     95  C69 UNL A   1       4.457   7.959  22.865  1.00  0.00    +0.000 C 
ATOM     96  C70 UNL A   1       3.410   8.460  22.096  1.00  0.00    +0.000 C 
BRANCH   34   32
ATOM     33  O4  UNL A   1      -0.043   8.614  21.967  1.00  0.00    +0.000 O 
ATOM     32  C26 UNL A   1       1.026   9.212  21.890  1.00  0.00    +0.000 C 
BRANCH   32   31
ATOM    139  H37 UNL A   1       1.608  10.140  20.214  1.00  0.00    +0.000 H 
ATOM     31  N3  UNL A   1       1.142  10.303  21.066  1.00  0.00    +0.000 N 
BRANCH   31   30
ATOM    137  H35 UNL A   1       1.425  12.343  20.912  1.00  0.00    +0.000 H 
ATOM    138  H36 UNL A   1      -0.240  11.787  20.732  1.00  0.00    +0.000 H 
ATOM     30  C25 UNL A   1       0.678  11.667  21.270  1.00  0.00    +0.000 C 
BRANCH   30   29
ATOM     29  C24 UNL A   1       0.405  11.965  22.742  1.00  0.00    +0.000 C 
ATOM    135  H33 UNL A   1      -0.322  12.748  22.794  1.00  0.00    +0.000 H 
ATOM    136  H34 UNL A   1       0.070  11.047  23.178  1.00  0.00    +0.000 H 
BRANCH   29   28
ATOM     28  C23 UNL A   1       1.634  12.402  23.548  1.00  0.00    +0.000 C 
ATOM    133  H31 UNL A   1       1.363  13.266  24.119  1.00  0.00    +0.000 H 
ATOM    134  H32 UNL A   1       1.908  11.558  24.143  1.00  0.00    +0.000 H 
BRANCH   28   27
ATOM     27  C22 UNL A   1       2.878  12.754  22.720  1.00  0.00    +0.000 C 
ATOM    132  H30 UNL A   1       3.075  13.790  22.905  1.00  0.00    +0.000 H 
ATOM    131  H29 UNL A   1       2.664  12.537  21.694  1.00  0.00    +0.000 H 
BRANCH   27   26
ATOM    129  H27 UNL A   1       4.230  11.998  24.177  1.00  0.00    +0.000 H 
ATOM     26  C21 UNL A   1       4.154  12.001  23.110  1.00  0.00    +0.000 C 
ATOM    130  H28 UNL A   1       4.070  11.016  22.700  1.00  0.00    +0.000 H 
BRANCH   26   25
ATOM     25  C20 UNL A   1       5.435  12.613  22.537  1.00  0.00    +0.000 C 
ATOM    127  H25 UNL A   1       5.201  13.115  21.621  1.00  0.00    +0.000 H 
ATOM    128  H26 UNL A   1       5.829  13.297  23.261  1.00  0.00    +0.000 H 
BRANCH   25   24
ATOM    126  H24 UNL A   1       6.131  10.859  21.716  1.00  0.00    +0.000 H 
ATOM     24  N2  UNL A   1       6.442  11.606  22.275  1.00  0.00    +0.000 N 
BRANCH   24   22
ATOM     22  C19 UNL A   1       7.743  11.510  22.665  1.00  0.00    +0.000 C 
ATOM     23  O3  UNL A   1       8.080  12.219  23.621  1.00  0.00    +0.000 O 
BRANCH   22   20
ATOM    122  H20 UNL A   1       9.622  10.599  22.637  1.00  0.00    +0.000 H 
ATOM     20  C17 UNL A   1       8.783  10.613  21.974  1.00  0.00    +0.000 C 
BRANCH   20   19
ATOM     97  C71 UNL A   1       7.822   8.649  20.705  1.00  0.00    +0.000 C 
ATOM     98  C72 UNL A   1       7.486   7.286  20.572  1.00  0.00    +0.000 C 
ATOM     16  C13 UNL A   1       7.778   6.361  21.592  1.00  0.00    +0.000 C 
ATOM     17  C14 UNL A   1       8.284   6.889  22.792  1.00  0.00    +0.000 C 
ATOM     18  C15 UNL A   1       8.534   8.256  22.954  1.00  0.00    +0.000 C 
ATOM     19  C16 UNL A   1       8.373   9.150  21.895  1.00  0.00    +0.000 C 
ATOM    120  H18 UNL A   1       8.478   6.249  23.578  1.00  0.00    +0.000 H 
ATOM    121  H19 UNL A   1       8.842   8.609  23.873  1.00  0.00    +0.000 H 
ATOM    154  H52 UNL A   1       7.660   9.290  19.913  1.00  0.00    +0.000 H 
BRANCH   16   15
ATOM    102  C73 UNL A   1       8.767   4.053  21.459  1.00  0.00    +0.000 C 
ATOM     11  C8  UNL A   1       8.613   2.671  21.331  1.00  0.00    +0.000 C 
ATOM     12  C9  UNL A   1       7.353   2.090  21.229  1.00  0.00    +0.000 C 
ATOM     13  C10 UNL A   1       6.226   2.905  21.260  1.00  0.00    +0.000 C 
ATOM     14  C11 UNL A   1       6.370   4.292  21.363  1.00  0.00    +0.000 C 
ATOM     15  C12 UNL A   1       7.640   4.893  21.461  1.00  0.00    +0.000 C 
ATOM    117  H15 UNL A   1       7.255   1.068  21.131  1.00  0.00    +0.000 H 
ATOM    118  H16 UNL A   1       5.284   2.486  21.206  1.00  0.00    +0.000 H 
ATOM    119  H17 UNL A   1       5.528   4.888  21.369  1.00  0.00    +0.000 H 
ATOM    155  H53 UNL A   1       9.710   4.458  21.553  1.00  0.00    +0.000 H 
BRANCH   11   10
ATOM     10  O2  UNL A   1       9.715   1.819  21.137  1.00  0.00    +0.000 O 
BRANCH   10    8
ATOM      9  O1  UNL A   1      11.244   2.113  22.865  1.00  0.00    +0.000 O 
ATOM      8  C7  UNL A   1      10.946   2.156  21.679  1.00  0.00    +0.000 C 
BRANCH    8    7
ATOM    116  H14 UNL A   1      12.449   3.295  20.974  1.00  0.00    +0.000 H 
ATOM      7  N1  UNL A   1      11.851   2.552  20.731  1.00  0.00    +0.000 N 
BRANCH    7    6
ATOM    114  H12 UNL A   1      13.012   1.597  19.321  1.00  0.00    +0.000 H 
ATOM    115  H13 UNL A   1      11.287   1.218  19.279  1.00  0.00    +0.000 H 
ATOM      6  C6  UNL A   1      12.019   1.989  19.406  1.00  0.00    +0.000 C 
BRANCH    6    5
ATOM    113  H11 UNL A   1      12.022   2.537  17.382  1.00  0.00    +0.000 H 
ATOM      5  C5  UNL A   1      11.802   3.029  18.307  1.00  0.00    +0.000 C 
ATOM    112  H10 UNL A   1      12.442   3.862  18.506  1.00  0.00    +0.000 H 
BRANCH    5    4
ATOM      4  C4  UNL A   1      10.366   3.550  18.184  1.00  0.00    +0.000 C 
ATOM    110  H8  UNL A   1      10.064   3.912  19.144  1.00  0.00    +0.000 H 
ATOM    111  H9  UNL A   1      10.391   4.306  17.427  1.00  0.00    +0.000 H 
BRANCH    4    3
ATOM      3  C3  UNL A   1       9.328   2.524  17.718  1.00  0.00    +0.000 C 
ATOM    108  H6  UNL A   1       9.825   1.812  17.093  1.00  0.00    +0.000 H 
ATOM    109  H7  UNL A   1       8.912   2.100  18.608  1.00  0.00    +0.000 H 
BRANCH    3    2
ATOM      2  C2  UNL A   1       8.145   3.096  16.932  1.00  0.00    +0.000 C 
ATOM    107  H5  UNL A   1       8.065   2.534  16.026  1.00  0.00    +0.000 H 
ATOM    106  H4  UNL A   1       8.329   4.134  16.749  1.00  0.00    +0.000 H 
BRANCH    2    1
ATOM      1  C1  UNL A   1       6.817   2.964  17.663  1.00  0.00    +0.000 C 
ATOM    105  H3  UNL A   1       6.436   1.973  17.533  1.00  0.00    +0.000 H 
ATOM    103  H1  UNL A   1       6.119   3.669  17.263  1.00  0.00    +0.000 H 
ATOM    104  H2  UNL A   1       6.962   3.158  18.705  1.00  0.00    +0.000 H 
ENDBRANCH    2    1
ENDBRANCH    3    2
ENDBRANCH    4    3
ENDBRANCH    5    4
ENDBRANCH    6    5
ENDBRANCH    7    6
ENDBRANCH    8    7
ENDBRANCH   10    8
ENDBRANCH   11   10
ENDBRANCH   16   15
BRANCH   98   99
ATOM     99  N8  UNL A   1       6.779   6.890  19.375  1.00  0.00    +0.000 N 
ATOM    100  O5  UNL A   1       5.568   6.964  19.317  1.00  0.00    +0.000 O 
ATOM    101  O6  UNL A   1       7.433   6.285  18.328  1.00  0.00    +0.000 O 
ENDBRANCH   98   99
ENDBRANCH   20   19
BRANCH   20   21
ATOM    125  H23 UNL A   1       9.907  12.104  20.933  1.00  0.00    +0.000 H 
ATOM    123  H21 UNL A   1       8.594  11.422  20.003  1.00  0.00    +0.000 H 
ATOM    124  H22 UNL A   1      10.055  10.499  20.260  1.00  0.00    +0.000 H 
ATOM     21  C18 UNL A   1       9.379  11.204  20.697  1.00  0.00    +0.000 C 
ENDBRANCH   20   21
ENDBRANCH   22   20
ENDBRANCH   24   22
ENDBRANCH   25   24
ENDBRANCH   26   25
ENDBRANCH   27   26
ENDBRANCH   28   27
ENDBRANCH   29   28
ENDBRANCH   30   29
ENDBRANCH   31   30
ENDBRANCH   32   31
ENDBRANCH   34   32
ENDBRANCH   38   37
BRANCH   42   43
ATOM     43  C35 UNL A   1       9.526  10.872  27.738  1.00  0.00    +0.000 C 
ATOM     44  C36 UNL A   1      10.595  11.459  27.044  1.00  0.00    +0.000 C 
ATOM     45  F1  UNL A   1      11.330  10.728  26.194  1.00  0.00    +0.000 F 
ATOM     46  C37 UNL A   1      10.941  12.792  27.254  1.00  0.00    +0.000 C 
ATOM     47  F2  UNL A   1      11.999  13.316  26.618  1.00  0.00    +0.000 F 
ATOM     48  C38 UNL A   1      10.204  13.573  28.131  1.00  0.00    +0.000 C 
ATOM     49  F3  UNL A   1      10.535  14.856  28.327  1.00  0.00    +0.000 F 
ATOM     50  C39 UNL A   1       9.127  13.021  28.808  1.00  0.00    +0.000 C 
ATOM     51  F4  UNL A   1       8.405  13.779  29.646  1.00  0.00    +0.000 F 
ATOM     52  C40 UNL A   1       8.797  11.681  28.624  1.00  0.00    +0.000 C 
ATOM     53  F5  UNL A   1       7.761  11.173  29.308  1.00  0.00    +0.000 F 
ENDBRANCH   42   43
BRANCH   59   60
ATOM     65  C49 UNL A   1      14.000   3.257  31.134  1.00  0.00    +0.000 C 
ATOM     66  F8  UNL A   1      14.986   2.741  31.881  1.00  0.00    +0.000 F 
ATOM     67  C50 UNL A   1      12.898   3.839  31.743  1.00  0.00    +0.000 C 
ATOM     68  F9  UNL A   1      12.830   3.904  33.079  1.00  0.00    +0.000 F 
ATOM     69  C51 UNL A   1      11.864   4.355  30.968  1.00  0.00    +0.000 C 
ATOM     70  F10 UNL A   1      10.805   4.899  31.585  1.00  0.00    +0.000 F 
ATOM     60  C46 UNL A   1      11.925   4.318  29.567  1.00  0.00    +0.000 C 
ATOM     61  C47 UNL A   1      13.057   3.743  28.972  1.00  0.00    +0.000 C 
ATOM     62  F6  UNL A   1      13.154   3.670  27.635  1.00  0.00    +0.000 F 
ATOM     63  C48 UNL A   1      14.077   3.202  29.750  1.00  0.00    +0.000 C 
ATOM     64  F7  UNL A   1      15.127   2.615  29.161  1.00  0.00    +0.000 F 
ENDBRANCH   59   60
BRANCH   74   75
ATOM     75  C55 UNL A   1       6.821   1.465  25.779  1.00  0.00    +0.000 C 
ATOM     76  C56 UNL A   1       7.544   0.717  24.839  1.00  0.00    +0.000 C 
ATOM     77  F11 UNL A   1       8.575   1.277  24.190  1.00  0.00    +0.000 F 
ATOM     78  C57 UNL A   1       7.189  -0.596  24.538  1.00  0.00    +0.000 C 
ATOM     79  F12 UNL A   1       7.873  -1.275  23.607  1.00  0.00    +0.000 F 
ATOM     80  C58 UNL A   1       6.123  -1.195  25.190  1.00  0.00    +0.000 C 
ATOM     81  F13 UNL A   1       5.786  -2.461  24.906  1.00  0.00    +0.000 F 
ATOM     82  C59 UNL A   1       5.402  -0.481  26.135  1.00  0.00    +0.000 C 
ATOM     83  F14 UNL A   1       4.380  -1.062  26.778  1.00  0.00    +0.000 F 
ATOM     84  C60 UNL A   1       5.738   0.842  26.417  1.00  0.00    +0.000 C 
ATOM     85  F15 UNL A   1       5.020   1.513  27.329  1.00  0.00    +0.000 F 
ENDBRANCH   74   75
TORSDOF 28
ENDMDL
MODEL 4
REMARK VINA RESULT:      -5.6      3.958      8.802
ROOT
ATOM    142  H40 UNL A   1      13.424  46.470   2.832  1.00  0.00    +0.000 H 
ATOM    143  H41 UNL A   1      15.081  46.634   0.825  1.00  0.00    +0.000 H 
ATOM    144  H42 UNL A   1      14.847  50.355   2.627  1.00  0.00    +0.000 H 
ATOM    145  H43 UNL A   1      16.370  56.552   2.697  1.00  0.00    +0.000 H 
ATOM    146  H44 UNL A   1      14.802  56.373   4.688  1.00  0.00    +0.000 H 
ATOM    147  H45 UNL A   1      15.078  52.609   2.944  1.00  0.00    +0.000 H 
ATOM    148  H46 UNL A   1      18.328  53.085  -0.862  1.00  0.00    +0.000 H 
ATOM    149  H47 UNL A   1      17.860  50.627  -1.400  1.00  0.00    +0.000 H 
ATOM    150  H48 UNL A   1      11.858  49.931   6.629  1.00  0.00    +0.000 H 
ATOM    151  H49 UNL A   1      11.930  52.475   6.901  1.00  0.00    +0.000 H 
ATOM     38  C31 UNL A   1      13.718  53.768   5.097  1.00  0.00    +0.000 C 
ATOM     39  C32 UNL A   1      13.339  52.315   5.130  1.00  0.00    +0.000 C 
ATOM     40  N4  UNL A   1      13.733  51.337   4.352  1.00  0.00    +0.000 N 
ATOM     41  C33 UNL A   1      13.119  50.192   4.842  1.00  0.00    +0.000 C 
ATOM     42  C34 UNL A   1      13.162  48.932   4.347  1.00  0.00    +0.000 C 
ATOM     54  C41 UNL A   1      13.892  48.550   3.166  1.00  0.00    +0.000 C 
ATOM     55  C42 UNL A   1      13.942  47.315   2.544  1.00  0.00    +0.000 C 
ATOM     56  C43 UNL A   1      14.819  47.408   1.457  1.00  0.00    +0.000 C 
ATOM     57  C44 UNL A   1      15.277  48.712   1.372  1.00  0.00    +0.000 C 
ATOM     58  N5  UNL A   1      14.702  49.402   2.429  1.00  0.00    +0.000 N 
ATOM     59  C45 UNL A   1      16.171  49.290   0.402  1.00  0.00    +0.000 C 
ATOM     71  C52 UNL A   1      16.559  50.589   0.377  1.00  0.00    +0.000 C 
ATOM     72  N6  UNL A   1      16.207  51.620   1.236  1.00  0.00    +0.000 N 
ATOM     73  C53 UNL A   1      16.849  52.680   0.808  1.00  0.00    +0.000 C 
ATOM     74  C54 UNL A   1      16.823  54.086   1.342  1.00  0.00    +0.000 C 
ATOM     86  C61 UNL A   1      16.037  54.374   2.396  1.00  0.00    +0.000 C 
ATOM     87  C62 UNL A   1      15.900  55.690   3.014  1.00  0.00    +0.000 C 
ATOM     88  C63 UNL A   1      15.063  55.597   4.059  1.00  0.00    +0.000 C 
ATOM     89  C64 UNL A   1      14.578  54.220   4.165  1.00  0.00    +0.000 C 
ATOM     90  N7  UNL A   1      15.208  53.566   3.135  1.00  0.00    +0.000 N 
ATOM     91  C65 UNL A   1      17.703  52.433  -0.363  1.00  0.00    +0.000 C 
ATOM     92  C66 UNL A   1      17.459  51.154  -0.608  1.00  0.00    +0.000 C 
ATOM     93  C67 UNL A   1      12.366  50.586   6.014  1.00  0.00    +0.000 C 
ATOM     94  C68 UNL A   1      12.416  51.898   6.196  1.00  0.00    +0.000 C 
ENDROOT
BRANCH   38   37
ATOM     34  C27 UNL A   1      12.303  56.535   8.050  1.00  0.00    +0.000 C 
ATOM     35  C28 UNL A   1      11.535  56.291   6.907  1.00  0.00    +0.000 C 
ATOM     36  C29 UNL A   1      11.975  55.364   5.959  1.00  0.00    +0.000 C 
ATOM     37  C30 UNL A   1      13.202  54.703   6.128  1.00  0.00    +0.000 C 
ATOM    140  H38 UNL A   1      10.646  56.793   6.765  1.00  0.00    +0.000 H 
ATOM    141  H39 UNL A   1      11.396  55.165   5.128  1.00  0.00    +0.000 H 
ATOM    152  H50 UNL A   1      14.858  54.464   7.421  1.00  0.00    +0.000 H 
ATOM    153  H51 UNL A   1      13.998  55.926   9.153  1.00  0.00    +0.000 H 
ATOM     95  C69 UNL A   1      13.952  54.940   7.290  1.00  0.00    +0.000 C 
ATOM     96  C70 UNL A   1      13.480  55.812   8.267  1.00  0.00    +0.000 C 
BRANCH   34   32
ATOM     33  O4  UNL A   1      12.290  58.662   9.036  1.00  0.00    +0.000 O 
ATOM     32  C26 UNL A   1      11.820  57.528   9.036  1.00  0.00    +0.000 C 
BRANCH   32   31
ATOM    139  H37 UNL A   1       9.951  57.543   9.753  1.00  0.00    +0.000 H 
ATOM     31  N3  UNL A   1      10.849  57.190   9.945  1.00  0.00    +0.000 N 
BRANCH   31   30
ATOM    137  H35 UNL A   1      11.971  56.067  11.267  1.00  0.00    +0.000 H 
ATOM    138  H36 UNL A   1      10.645  56.989  11.980  1.00  0.00    +0.000 H 
ATOM     30  C25 UNL A   1      10.956  56.385  11.152  1.00  0.00    +0.000 C 
BRANCH   30   29
ATOM     29  C24 UNL A   1      10.055  55.153  11.101  1.00  0.00    +0.000 C 
ATOM    135  H33 UNL A   1      10.142  54.638  12.035  1.00  0.00    +0.000 H 
ATOM    136  H34 UNL A   1       9.066  55.512  10.907  1.00  0.00    +0.000 H 
BRANCH   29   28
ATOM     28  C23 UNL A   1      10.382  54.164   9.977  1.00  0.00    +0.000 C 
ATOM    133  H31 UNL A   1      11.260  54.513   9.475  1.00  0.00    +0.000 H 
ATOM    134  H32 UNL A   1      10.504  53.213  10.451  1.00  0.00    +0.000 H 
BRANCH   28   27
ATOM     27  C22 UNL A   1       9.282  53.970   8.924  1.00  0.00    +0.000 C 
ATOM    132  H30 UNL A   1       9.168  54.917   8.437  1.00  0.00    +0.000 H 
ATOM    131  H29 UNL A   1       8.398  53.640   9.427  1.00  0.00    +0.000 H 
BRANCH   27   26
ATOM    129  H27 UNL A   1      10.636  53.078   7.548  1.00  0.00    +0.000 H 
ATOM     26  C21 UNL A   1       9.608  52.959   7.821  1.00  0.00    +0.000 C 
ATOM    130  H28 UNL A   1       9.397  51.988   8.217  1.00  0.00    +0.000 H 
BRANCH   26   25
ATOM     25  C20 UNL A   1       8.754  53.119   6.560  1.00  0.00    +0.000 C 
ATOM    127  H25 UNL A   1       7.892  53.708   6.797  1.00  0.00    +0.000 H 
ATOM    128  H26 UNL A   1       9.352  53.596   5.812  1.00  0.00    +0.000 H 
BRANCH   25   24
ATOM    126  H24 UNL A   1       9.051  51.231   5.796  1.00  0.00    +0.000 H 
ATOM     24  N2  UNL A   1       8.318  51.840   6.039  1.00  0.00    +0.000 N 
BRANCH   24   22
ATOM     22  C19 UNL A   1       7.073  51.331   5.827  1.00  0.00    +0.000 C 
ATOM     23  O3  UNL A   1       6.793  51.045   4.657  1.00  0.00    +0.000 O 
BRANCH   22   20
ATOM    122  H20 UNL A   1       5.364  50.380   6.559  1.00  0.00    +0.000 H 
ATOM     20  C17 UNL A   1       6.027  51.131   6.935  1.00  0.00    +0.000 C 
BRANCH   20   19
ATOM     97  C71 UNL A   1       6.881  49.131   8.223  1.00  0.00    +0.000 C 
ATOM     98  C72 UNL A   1       7.458  48.524   9.357  1.00  0.00    +0.000 C 
ATOM     16  C13 UNL A   1       7.848  49.287  10.473  1.00  0.00    +0.000 C 
ATOM     17  C14 UNL A   1       7.501  50.649  10.454  1.00  0.00    +0.000 C 
ATOM     18  C15 UNL A   1       6.848  51.233   9.363  1.00  0.00    +0.000 C 
ATOM     19  C16 UNL A   1       6.588  50.503   8.202  1.00  0.00    +0.000 C 
ATOM    120  H18 UNL A   1       7.736  51.237  11.268  1.00  0.00    +0.000 H 
ATOM    121  H19 UNL A   1       6.553  52.220   9.417  1.00  0.00    +0.000 H 
ATOM    154  H52 UNL A   1       6.671  48.555   7.392  1.00  0.00    +0.000 H 
BRANCH   16   15
ATOM    102  C73 UNL A   1      10.029  48.904  11.665  1.00  0.00    +0.000 C 
ATOM     11  C8  UNL A   1      10.747  48.402  12.752  1.00  0.00    +0.000 C 
ATOM     12  C9  UNL A   1      10.105  47.784  13.820  1.00  0.00    +0.000 C 
ATOM     13  C10 UNL A   1       8.719  47.669  13.803  1.00  0.00    +0.000 C 
ATOM     14  C11 UNL A   1       7.992  48.146  12.707  1.00  0.00    +0.000 C 
ATOM     15  C12 UNL A   1       8.630  48.768  11.617  1.00  0.00    +0.000 C 
ATOM    117  H15 UNL A   1      10.649  47.415  14.614  1.00  0.00    +0.000 H 
ATOM    118  H16 UNL A   1       8.227  47.231  14.598  1.00  0.00    +0.000 H 
ATOM    119  H17 UNL A   1       6.966  48.040  12.698  1.00  0.00    +0.000 H 
ATOM    155  H53 UNL A   1      10.526  49.375  10.894  1.00  0.00    +0.000 H 
BRANCH   11   10
ATOM     10  O2  UNL A   1      12.153  48.351  12.748  1.00  0.00    +0.000 O 
BRANCH   10    8
ATOM      9  O1  UNL A   1      12.683  46.328  11.729  1.00  0.00    +0.000 O 
ATOM      8  C7  UNL A   1      12.807  47.542  11.832  1.00  0.00    +0.000 C 
BRANCH    8    7
ATOM    116  H14 UNL A   1      13.792  49.191  11.230  1.00  0.00    +0.000 H 
ATOM      7  N1  UNL A   1      13.639  48.245  11.004  1.00  0.00    +0.000 N 
BRANCH    7    6
ATOM    114  H12 UNL A   1      14.225  46.674   9.805  1.00  0.00    +0.000 H 
ATOM    115  H13 UNL A   1      13.864  48.186   8.966  1.00  0.00    +0.000 H 
ATOM      6  C6  UNL A   1      14.319  47.740   9.827  1.00  0.00    +0.000 C 
BRANCH    6    5
ATOM    113  H11 UNL A   1      16.086  48.181   8.788  1.00  0.00    +0.000 H 
ATOM      5  C5  UNL A   1      15.803  48.105   9.818  1.00  0.00    +0.000 C 
ATOM    112  H10 UNL A   1      16.336  47.345  10.349  1.00  0.00    +0.000 H 
BRANCH    5    4
ATOM      4  C4  UNL A   1      16.140  49.458  10.456  1.00  0.00    +0.000 C 
ATOM    110  H8  UNL A   1      15.288  49.779  11.016  1.00  0.00    +0.000 H 
ATOM    111  H9  UNL A   1      17.011  49.291  11.055  1.00  0.00    +0.000 H 
BRANCH    4    3
ATOM      3  C3  UNL A   1      16.511  50.576   9.477  1.00  0.00    +0.000 C 
ATOM    108  H6  UNL A   1      16.560  51.493  10.025  1.00  0.00    +0.000 H 
ATOM    109  H7  UNL A   1      17.443  50.286   9.038  1.00  0.00    +0.000 H 
BRANCH    3    2
ATOM      2  C2  UNL A   1      15.541  50.777   8.309  1.00  0.00    +0.000 C 
ATOM    107  H5  UNL A   1      15.101  51.745   8.426  1.00  0.00    +0.000 H 
ATOM    106  H4  UNL A   1      14.810  49.995   8.337  1.00  0.00    +0.000 H 
BRANCH    2    1
ATOM      1  C1  UNL A   1      16.222  50.752   6.950  1.00  0.00    +0.000 C 
ATOM    105  H3  UNL A   1      16.456  49.742   6.686  1.00  0.00    +0.000 H 
ATOM    103  H1  UNL A   1      17.124  51.327   6.992  1.00  0.00    +0.000 H 
ATOM    104  H2  UNL A   1      15.567  51.171   6.214  1.00  0.00    +0.000 H 
ENDBRANCH    2    1
ENDBRANCH    3    2
ENDBRANCH    4    3
ENDBRANCH    5    4
ENDBRANCH    6    5
ENDBRANCH    7    6
ENDBRANCH    8    7
ENDBRANCH   10    8
ENDBRANCH   11   10
ENDBRANCH   16   15
BRANCH   98   99
ATOM     99  N8  UNL A   1       7.579  47.082   9.351  1.00  0.00    +0.000 N 
ATOM    100  O5  UNL A   1       8.648  46.551   9.128  1.00  0.00    +0.000 O 
ATOM    101  O6  UNL A   1       6.472  46.274   9.450  1.00  0.00    +0.000 O 
ENDBRANCH   98   99
ENDBRANCH   20   19
BRANCH   20   21
ATOM    125  H23 UNL A   1       4.145  52.117   6.691  1.00  0.00    +0.000 H 
ATOM    123  H21 UNL A   1       5.520  53.195   6.697  1.00  0.00    +0.000 H 
ATOM    124  H22 UNL A   1       4.956  52.490   8.193  1.00  0.00    +0.000 H 
ATOM     21  C18 UNL A   1       5.092  52.322   7.145  1.00  0.00    +0.000 C 
ENDBRANCH   20   21
ENDBRANCH   22   20
ENDBRANCH   24   22
ENDBRANCH   25   24
ENDBRANCH   26   25
ENDBRANCH   27   26
ENDBRANCH   28   27
ENDBRANCH   29   28
ENDBRANCH   30   29
ENDBRANCH   31   30
ENDBRANCH   32   31
ENDBRANCH   34   32
ENDBRANCH   38   37
BRANCH   42   43
ATOM     43  C35 UNL A   1      12.395  47.872   5.083  1.00  0.00    +0.000 C 
ATOM     44  C36 UNL A   1      12.942  47.200   6.187  1.00  0.00    +0.000 C 
ATOM     45  F1  UNL A   1      14.193  47.468   6.588  1.00  0.00    +0.000 F 
ATOM     46  C37 UNL A   1      12.219  46.217   6.859  1.00  0.00    +0.000 C 
ATOM     47  F2  UNL A   1      12.782  45.552   7.878  1.00  0.00    +0.000 F 
ATOM     48  C38 UNL A   1      10.925  45.913   6.465  1.00  0.00    +0.000 C 
ATOM     49  F3  UNL A   1      10.230  44.970   7.115  1.00  0.00    +0.000 F 
ATOM     50  C39 UNL A   1      10.354  46.582   5.393  1.00  0.00    +0.000 C 
ATOM     51  F4  UNL A   1       9.099  46.299   5.019  1.00  0.00    +0.000 F 
ATOM     52  C40 UNL A   1      11.085  47.544   4.700  1.00  0.00    +0.000 C 
ATOM     53  F5  UNL A   1      10.511  48.161   3.656  1.00  0.00    +0.000 F 
ENDBRANCH   42   43
BRANCH   59   60
ATOM     65  C49 UNL A   1      17.648  46.685  -2.698  1.00  0.00    +0.000 C 
ATOM     66  F8  UNL A   1      18.104  45.877  -3.665  1.00  0.00    +0.000 F 
ATOM     67  C50 UNL A   1      16.361  47.199  -2.771  1.00  0.00    +0.000 C 
ATOM     68  F9  UNL A   1      15.567  46.870  -3.799  1.00  0.00    +0.000 F 
ATOM     69  C51 UNL A   1      15.895  48.056  -1.779  1.00  0.00    +0.000 C 
ATOM     70  F10 UNL A   1      14.652  48.548  -1.883  1.00  0.00    +0.000 F 
ATOM     60  C46 UNL A   1      16.701  48.396  -0.682  1.00  0.00    +0.000 C 
ATOM     61  C47 UNL A   1      17.991  47.849  -0.618  1.00  0.00    +0.000 C 
ATOM     62  F6  UNL A   1      18.805  48.158   0.403  1.00  0.00    +0.000 F 
ATOM     63  C48 UNL A   1      18.465  47.015  -1.627  1.00  0.00    +0.000 C 
ATOM     64  F7  UNL A   1      19.717  46.543  -1.569  1.00  0.00    +0.000 F 
ENDBRANCH   59   60
BRANCH   74   75
ATOM     75  C55 UNL A   1      17.626  55.160   0.705  1.00  0.00    +0.000 C 
ATOM     76  C56 UNL A   1      17.158  55.825  -0.437  1.00  0.00    +0.000 C 
ATOM     77  F11 UNL A   1      15.986  55.471  -0.983  1.00  0.00    +0.000 F 
ATOM     78  C57 UNL A   1      17.908  56.832  -1.041  1.00  0.00    +0.000 C 
ATOM     79  F12 UNL A   1      17.455  57.424  -2.155  1.00  0.00    +0.000 F 
ATOM     80  C58 UNL A   1      19.127  57.211  -0.501  1.00  0.00    +0.000 C 
ATOM     81  F13 UNL A   1      19.845  58.184  -1.079  1.00  0.00    +0.000 F 
ATOM     82  C59 UNL A   1      19.603  56.578   0.637  1.00  0.00    +0.000 C 
ATOM     83  F14 UNL A   1      20.774  56.952   1.171  1.00  0.00    +0.000 F 
ATOM     84  C60 UNL A   1      18.868  55.553   1.227  1.00  0.00    +0.000 C 
ATOM     85  F15 UNL A   1      19.355  54.952   2.322  1.00  0.00    +0.000 F 
ENDBRANCH   74   75
TORSDOF 28
ENDMDL
MODEL 5
REMARK VINA RESULT:      -5.4     43.180     50.846
ROOT
ATOM    142  H40 UNL A   1      11.330   9.367  29.213  1.00  0.00    +0.000 H 
ATOM    143  H41 UNL A   1      12.324   7.012  29.727  1.00  0.00    +0.000 H 
ATOM    144  H42 UNL A   1       8.932   6.514  27.406  1.00  0.00    +0.000 H 
ATOM    145  H43 UNL A   1       4.650   2.662  24.655  1.00  0.00    +0.000 H 
ATOM    146  H44 UNL A   1       3.720   4.962  24.105  1.00  0.00    +0.000 H 
ATOM    147  H45 UNL A   1       7.165   5.493  26.371  1.00  0.00    +0.000 H 
ATOM    148  H46 UNL A   1       8.973   0.882  27.238  1.00  0.00    +0.000 H 
ATOM    149  H47 UNL A   1      10.801   2.002  28.636  1.00  0.00    +0.000 H 
ATOM    150  H48 UNL A   1       7.205  11.069  26.225  1.00  0.00    +0.000 H 
ATOM    151  H49 UNL A   1       5.115   9.974  25.232  1.00  0.00    +0.000 H 
ATOM     38  C31 UNL A   1       5.227   7.126  25.187  1.00  0.00    +0.000 C 
ATOM     39  C32 UNL A   1       6.214   8.075  25.806  1.00  0.00    +0.000 C 
ATOM     40  N4  UNL A   1       7.322   7.812  26.454  1.00  0.00    +0.000 N 
ATOM     41  C33 UNL A   1       7.876   9.044  26.773  1.00  0.00    +0.000 C 
ATOM     42  C34 UNL A   1       8.992   9.309  27.494  1.00  0.00    +0.000 C 
ATOM     54  C41 UNL A   1       9.837   8.300  28.079  1.00  0.00    +0.000 C 
ATOM     55  C42 UNL A   1      10.950   8.466  28.883  1.00  0.00    +0.000 C 
ATOM     56  C43 UNL A   1      11.474   7.201  29.173  1.00  0.00    +0.000 C 
ATOM     57  C44 UNL A   1      10.659   6.245  28.590  1.00  0.00    +0.000 C 
ATOM     58  N5  UNL A   1       9.660   6.933  27.920  1.00  0.00    +0.000 N 
ATOM     59  C45 UNL A   1      10.780   4.810  28.639  1.00  0.00    +0.000 C 
ATOM     71  C52 UNL A   1       9.925   3.936  28.053  1.00  0.00    +0.000 C 
ATOM     72  N6  UNL A   1       8.787   4.200  27.303  1.00  0.00    +0.000 N 
ATOM     73  C53 UNL A   1       8.313   3.031  26.946  1.00  0.00    +0.000 C 
ATOM     74  C54 UNL A   1       7.081   2.712  26.143  1.00  0.00    +0.000 C 
ATOM     86  C61 UNL A   1       6.297   3.719  25.715  1.00  0.00    +0.000 C 
ATOM     87  C62 UNL A   1       5.069   3.562  24.940  1.00  0.00    +0.000 C 
ATOM     88  C63 UNL A   1       4.572   4.776  24.659  1.00  0.00    +0.000 C 
ATOM     89  C64 UNL A   1       5.429   5.797  25.263  1.00  0.00    +0.000 C 
ATOM     90  N7  UNL A   1       6.427   5.076  25.870  1.00  0.00    +0.000 N 
ATOM     91  C65 UNL A   1       9.113   1.890  27.412  1.00  0.00    +0.000 C 
ATOM     92  C66 UNL A   1      10.060   2.495  28.113  1.00  0.00    +0.000 C 
ATOM     93  C67 UNL A   1       7.010  10.056  26.205  1.00  0.00    +0.000 C 
ATOM     94  C68 UNL A   1       5.935   9.510  25.655  1.00  0.00    +0.000 C 
ENDROOT
BRANCH   38   37
ATOM     34  C27 UNL A   1       1.833   8.527  22.975  1.00  0.00    +0.000 C 
ATOM     35  C28 UNL A   1       1.850   8.653  24.368  1.00  0.00    +0.000 C 
ATOM     36  C29 UNL A   1       2.969   8.229  25.090  1.00  0.00    +0.000 C 
ATOM     37  C30 UNL A   1       4.061   7.645  24.429  1.00  0.00    +0.000 C 
ATOM    140  H38 UNL A   1       1.040   9.057  24.861  1.00  0.00    +0.000 H 
ATOM    141  H39 UNL A   1       2.992   8.346  26.115  1.00  0.00    +0.000 H 
ATOM    152  H50 UNL A   1       4.836   7.112  22.535  1.00  0.00    +0.000 H 
ATOM    153  H51 UNL A   1       2.977   8.023  21.273  1.00  0.00    +0.000 H 
ATOM     95  C69 UNL A   1       4.041   7.547  23.029  1.00  0.00    +0.000 C 
ATOM     96  C70 UNL A   1       2.954   8.030  22.305  1.00  0.00    +0.000 C 
BRANCH   34   32
ATOM     33  O4  UNL A   1      -0.422   8.357  22.354  1.00  0.00    +0.000 O 
ATOM     32  C26 UNL A   1       0.632   8.975  22.233  1.00  0.00    +0.000 C 
BRANCH   32   31
ATOM    139  H37 UNL A   1       1.233   9.972  20.605  1.00  0.00    +0.000 H 
ATOM     31  N3  UNL A   1       0.689  10.077  21.418  1.00  0.00    +0.000 N 
BRANCH   31   30
ATOM    137  H35 UNL A   1       0.736  12.134  21.234  1.00  0.00    +0.000 H 
ATOM    138  H36 UNL A   1      -0.847  11.383  21.018  1.00  0.00    +0.000 H 
ATOM     30  C25 UNL A   1       0.063  11.380  21.583  1.00  0.00    +0.000 C 
BRANCH   30   29
ATOM     29  C24 UNL A   1      -0.286  11.667  23.042  1.00  0.00    +0.000 C 
ATOM    135  H33 UNL A   1      -1.066  12.400  23.060  1.00  0.00    +0.000 H 
ATOM    136  H34 UNL A   1      -0.577  10.731  23.472  1.00  0.00    +0.000 H 
BRANCH   29   28
ATOM     28  C23 UNL A   1       0.878  12.188  23.891  1.00  0.00    +0.000 C 
ATOM    133  H31 UNL A   1       0.497  12.943  24.546  1.00  0.00    +0.000 H 
ATOM    134  H32 UNL A   1       1.275  11.335  24.399  1.00  0.00    +0.000 H 
BRANCH   28   27
ATOM     27  C22 UNL A   1       2.051  12.793  23.107  1.00  0.00    +0.000 C 
ATOM    132  H30 UNL A   1       2.298  13.709  23.602  1.00  0.00    +0.000 H 
ATOM    131  H29 UNL A   1       1.737  12.927  22.093  1.00  0.00    +0.000 H 
BRANCH   27   26
ATOM    129  H27 UNL A   1       3.624  11.775  24.115  1.00  0.00    +0.000 H 
ATOM     26  C21 UNL A   1       3.332  11.953  23.100  1.00  0.00    +0.000 C 
ATOM    130  H28 UNL A   1       3.109  11.050  22.573  1.00  0.00    +0.000 H 
BRANCH   26   25
ATOM     25  C20 UNL A   1       4.505  12.615  22.371  1.00  0.00    +0.000 C 
ATOM    127  H25 UNL A   1       4.274  13.648  22.210  1.00  0.00    +0.000 H 
ATOM    128  H26 UNL A   1       5.379  12.506  22.980  1.00  0.00    +0.000 H 
BRANCH   25   24
ATOM    126  H24 UNL A   1       4.335  12.434  20.328  1.00  0.00    +0.000 H 
ATOM     24  N2  UNL A   1       4.767  11.989  21.092  1.00  0.00    +0.000 N 
BRANCH   24   22
ATOM     22  C19 UNL A   1       5.503  10.893  20.759  1.00  0.00    +0.000 C 
ATOM     23  O3  UNL A   1       4.872   9.923  20.324  1.00  0.00    +0.000 O 
BRANCH   22   20
ATOM    122  H20 UNL A   1       7.323   9.961  20.332  1.00  0.00    +0.000 H 
ATOM     20  C17 UNL A   1       7.029  10.802  20.925  1.00  0.00    +0.000 C 
BRANCH   20   19
ATOM     97  C71 UNL A   1       8.332  12.961  21.110  1.00  0.00    +0.000 C 
ATOM     98  C72 UNL A   1       9.090  14.018  20.566  1.00  0.00    +0.000 C 
ATOM     16  C13 UNL A   1       9.405  14.057  19.194  1.00  0.00    +0.000 C 
ATOM     17  C14 UNL A   1       8.808  13.076  18.385  1.00  0.00    +0.000 C 
ATOM     18  C15 UNL A   1       7.983  12.078  18.915  1.00  0.00    +0.000 C 
ATOM     19  C16 UNL A   1       7.785  11.961  20.291  1.00  0.00    +0.000 C 
ATOM    120  H18 UNL A   1       8.984  13.091  17.368  1.00  0.00    +0.000 H 
ATOM    121  H19 UNL A   1       7.512  11.418  18.277  1.00  0.00    +0.000 H 
ATOM    154  H52 UNL A   1       8.177  12.921  22.129  1.00  0.00    +0.000 H 
BRANCH   16   15
ATOM    102  C73 UNL A   1      11.713  14.707  18.438  1.00  0.00    +0.000 C 
ATOM     11  C8  UNL A   1      12.586  15.627  17.854  1.00  0.00    +0.000 C 
ATOM     12  C9  UNL A   1      12.131  16.850  17.373  1.00  0.00    +0.000 C 
ATOM     13  C10 UNL A   1      10.778  17.158  17.473  1.00  0.00    +0.000 C 
ATOM     14  C11 UNL A   1       9.900  16.253  18.079  1.00  0.00    +0.000 C 
ATOM     15  C12 UNL A   1      10.348  15.015  18.575  1.00  0.00    +0.000 C 
ATOM    117  H15 UNL A   1      12.788  17.522  16.948  1.00  0.00    +0.000 H 
ATOM    118  H16 UNL A   1      10.423  18.053  17.102  1.00  0.00    +0.000 H 
ATOM    119  H17 UNL A   1       8.901  16.500  18.162  1.00  0.00    +0.000 H 
ATOM    155  H53 UNL A   1      12.071  13.799  18.770  1.00  0.00    +0.000 H 
BRANCH   11   10
ATOM     10  O2  UNL A   1      13.979  15.436  17.869  1.00  0.00    +0.000 O 
BRANCH   10    8
ATOM      9  O1  UNL A   1      14.453  13.646  16.460  1.00  0.00    +0.000 O 
ATOM      8  C7  UNL A   1      14.505  14.192  17.555  1.00  0.00    +0.000 C 
BRANCH    8    7
ATOM    116  H14 UNL A   1      16.108  13.672  18.656  1.00  0.00    +0.000 H 
ATOM      7  N1  UNL A   1      15.127  13.596  18.618  1.00  0.00    +0.000 N 
BRANCH    7    6
ATOM    114  H12 UNL A   1      15.211  12.688  20.467  1.00  0.00    +0.000 H 
ATOM    115  H13 UNL A   1      13.672  13.451  20.056  1.00  0.00    +0.000 H 
ATOM      6  C6  UNL A   1      14.491  12.863  19.695  1.00  0.00    +0.000 C 
BRANCH    6    5
ATOM    113  H11 UNL A   1      14.500  10.767  19.733  1.00  0.00    +0.000 H 
ATOM      5  C5  UNL A   1      13.933  11.519  19.226  1.00  0.00    +0.000 C 
ATOM    112  H10 UNL A   1      14.024  11.474  18.161  1.00  0.00    +0.000 H 
BRANCH    5    4
ATOM      4  C4  UNL A   1      12.464  11.267  19.588  1.00  0.00    +0.000 C 
ATOM    110  H8  UNL A   1      11.859  11.642  18.791  1.00  0.00    +0.000 H 
ATOM    111  H9  UNL A   1      12.375  10.211  19.737  1.00  0.00    +0.000 H 
BRANCH    4    3
ATOM      3  C3  UNL A   1      11.985  11.916  20.891  1.00  0.00    +0.000 C 
ATOM    108  H6  UNL A   1      12.811  12.440  21.323  1.00  0.00    +0.000 H 
ATOM    109  H7  UNL A   1      11.167  12.550  20.620  1.00  0.00    +0.000 H 
BRANCH    3    2
ATOM      2  C2  UNL A   1      11.436  10.949  21.944  1.00  0.00    +0.000 C 
ATOM    107  H5  UNL A   1      10.899  10.185  21.422  1.00  0.00    +0.000 H 
ATOM    106  H4  UNL A   1      10.809  11.498  22.615  1.00  0.00    +0.000 H 
BRANCH    2    1
ATOM      1  C1  UNL A   1      12.525  10.261  22.753  1.00  0.00    +0.000 C 
ATOM    105  H3  UNL A   1      12.922   9.441  22.193  1.00  0.00    +0.000 H 
ATOM    103  H1  UNL A   1      12.111   9.898  23.671  1.00  0.00    +0.000 H 
ATOM    104  H2  UNL A   1      13.307  10.960  22.967  1.00  0.00    +0.000 H 
ENDBRANCH    2    1
ENDBRANCH    3    2
ENDBRANCH    4    3
ENDBRANCH    5    4
ENDBRANCH    6    5
ENDBRANCH    7    6
ENDBRANCH    8    7
ENDBRANCH   10    8
ENDBRANCH   11   10
ENDBRANCH   16   15
BRANCH   98   99
ATOM     99  N8  UNL A   1       9.479  15.086  21.460  1.00  0.00    +0.000 N 
ATOM    100  O5  UNL A   1       8.786  16.076  21.580  1.00  0.00    +0.000 O 
ATOM    101  O6  UNL A   1      10.703  15.081  22.085  1.00  0.00    +0.000 O 
ENDBRANCH   98   99
ENDBRANCH   20   19
BRANCH   20   21
ATOM    125  H23 UNL A   1       8.484  10.004  22.273  1.00  0.00    +0.000 H 
ATOM    123  H21 UNL A   1       6.831   9.651  22.716  1.00  0.00    +0.000 H 
ATOM    124  H22 UNL A   1       7.479  11.254  22.966  1.00  0.00    +0.000 H 
ATOM     21  C18 UNL A   1       7.491  10.397  22.325  1.00  0.00    +0.000 C 
ENDBRANCH   20   21
ENDBRANCH   22   20
ENDBRANCH   24   22
ENDBRANCH   25   24
ENDBRANCH   26   25
ENDBRANCH   27   26
ENDBRANCH   28   27
ENDBRANCH   29   28
ENDBRANCH   30   29
ENDBRANCH   31   30
ENDBRANCH   32   31
ENDBRANCH   34   32
ENDBRANCH   38   37
BRANCH   42   43
ATOM     43  C35 UNL A   1       9.365  10.750  27.690  1.00  0.00    +0.000 C 
ATOM     44  C36 UNL A   1      10.368  11.362  26.922  1.00  0.00    +0.000 C 
ATOM     45  F1  UNL A   1      11.049  10.651  26.012  1.00  0.00    +0.000 F 
ATOM     46  C37 UNL A   1      10.705  12.699  27.117  1.00  0.00    +0.000 C 
ATOM     47  F2  UNL A   1      11.702  13.248  26.408  1.00  0.00    +0.000 F 
ATOM     48  C38 UNL A   1      10.023  13.460  28.055  1.00  0.00    +0.000 C 
ATOM     49  F3  UNL A   1      10.345  14.747  28.238  1.00  0.00    +0.000 F 
ATOM     50  C39 UNL A   1       9.010  12.883  28.807  1.00  0.00    +0.000 C 
ATOM     51  F4  UNL A   1       8.340  13.620  29.704  1.00  0.00    +0.000 F 
ATOM     52  C40 UNL A   1       8.691  11.538  28.635  1.00  0.00    +0.000 C 
ATOM     53  F5  UNL A   1       7.719  11.005  29.391  1.00  0.00    +0.000 F 
ENDBRANCH   42   43
BRANCH   59   60
ATOM     65  C49 UNL A   1      14.079   3.197  30.897  1.00  0.00    +0.000 C 
ATOM     66  F8  UNL A   1      15.101   2.695  31.602  1.00  0.00    +0.000 F 
ATOM     67  C50 UNL A   1      12.986   3.745  31.552  1.00  0.00    +0.000 C 
ATOM     68  F9  UNL A   1      12.962   3.792  32.890  1.00  0.00    +0.000 F 
ATOM     69  C51 UNL A   1      11.913   4.247  30.819  1.00  0.00    +0.000 C 
ATOM     70  F10 UNL A   1      10.864   4.758  31.480  1.00  0.00    +0.000 F 
ATOM     60  C46 UNL A   1      11.926   4.230  29.417  1.00  0.00    +0.000 C 
ATOM     61  C47 UNL A   1      13.050   3.689  28.775  1.00  0.00    +0.000 C 
ATOM     62  F6  UNL A   1      13.101   3.636  27.435  1.00  0.00    +0.000 F 
ATOM     63  C48 UNL A   1      14.108   3.162  29.510  1.00  0.00    +0.000 C 
ATOM     64  F7  UNL A   1      15.150   2.607  28.876  1.00  0.00    +0.000 F 
ENDBRANCH   59   60
BRANCH   74   75
ATOM     75  C55 UNL A   1       6.706   1.306  25.847  1.00  0.00    +0.000 C 
ATOM     76  C56 UNL A   1       7.386   0.573  24.864  1.00  0.00    +0.000 C 
ATOM     77  F11 UNL A   1       8.368   1.153  24.158  1.00  0.00    +0.000 F 
ATOM     78  C57 UNL A   1       7.036  -0.744  24.578  1.00  0.00    +0.000 C 
ATOM     79  F12 UNL A   1       7.677  -1.408  23.606  1.00  0.00    +0.000 F 
ATOM     80  C58 UNL A   1       6.020  -1.364  25.287  1.00  0.00    +0.000 C 
ATOM     81  F13 UNL A   1       5.688  -2.634  25.017  1.00  0.00    +0.000 F 
ATOM     82  C59 UNL A   1       5.343  -0.664  26.275  1.00  0.00    +0.000 C 
ATOM     83  F14 UNL A   1       4.369  -1.265  26.973  1.00  0.00    +0.000 F 
ATOM     84  C60 UNL A   1       5.673   0.663  26.543  1.00  0.00    +0.000 C 
ATOM     85  F15 UNL A   1       4.997   1.318  27.498  1.00  0.00    +0.000 F 
ENDBRANCH   74   75
TORSDOF 28
ENDMDL
MODEL 6
REMARK VINA RESULT:      -5.4     46.650     50.061
ROOT
ATOM    142  H40 UNL A   1      28.853  34.169  43.019  1.00  0.00    +0.000 H 
ATOM    143  H41 UNL A   1      26.397  34.135  43.892  1.00  0.00    +0.000 H 
ATOM    144  H42 UNL A   1      28.257  37.526  45.372  1.00  0.00    +0.000 H 
ATOM    145  H43 UNL A   1      28.131  42.697  49.110  1.00  0.00    +0.000 H 
ATOM    146  H44 UNL A   1      30.505  42.757  48.207  1.00  0.00    +0.000 H 
ATOM    147  H45 UNL A   1      28.638  39.386  46.647  1.00  0.00    +0.000 H 
ATOM    148  H46 UNL A   1      23.920  39.492  48.383  1.00  0.00    +0.000 H 
ATOM    149  H47 UNL A   1      23.566  37.258  47.185  1.00  0.00    +0.000 H 
ATOM    150  H48 UNL A   1      32.889  37.685  43.460  1.00  0.00    +0.000 H 
ATOM    151  H49 UNL A   1      33.418  39.647  45.017  1.00  0.00    +0.000 H 
ATOM     38  C31 UNL A   1      31.166  40.574  46.497  1.00  0.00    +0.000 C 
ATOM     39  C32 UNL A   1      31.242  39.375  45.595  1.00  0.00    +0.000 C 
ATOM     40  N4  UNL A   1      30.311  38.503  45.295  1.00  0.00    +0.000 N 
ATOM     41  C33 UNL A   1      30.891  37.628  44.387  1.00  0.00    +0.000 C 
ATOM     42  C34 UNL A   1      30.357  36.517  43.824  1.00  0.00    +0.000 C 
ATOM     54  C41 UNL A   1      29.026  36.035  44.086  1.00  0.00    +0.000 C 
ATOM     55  C42 UNL A   1      28.416  34.885  43.620  1.00  0.00    +0.000 C 
ATOM     56  C43 UNL A   1      27.102  34.859  44.102  1.00  0.00    +0.000 C 
ATOM     57  C44 UNL A   1      26.909  35.968  44.909  1.00  0.00    +0.000 C 
ATOM     58  N5  UNL A   1      28.096  36.683  44.888  1.00  0.00    +0.000 N 
ATOM     59  C45 UNL A   1      25.731  36.349  45.645  1.00  0.00    +0.000 C 
ATOM     71  C52 UNL A   1      25.626  37.448  46.432  1.00  0.00    +0.000 C 
ATOM     72  N6  UNL A   1      26.580  38.420  46.703  1.00  0.00    +0.000 N 
ATOM     73  C53 UNL A   1      25.999  39.281  47.503  1.00  0.00    +0.000 C 
ATOM     74  C54 UNL A   1      26.567  40.521  48.136  1.00  0.00    +0.000 C 
ATOM     86  C61 UNL A   1      27.854  40.845  47.909  1.00  0.00    +0.000 C 
ATOM     87  C62 UNL A   1      28.544  42.007  48.462  1.00  0.00    +0.000 C 
ATOM     88  C63 UNL A   1      29.801  42.033  47.994  1.00  0.00    +0.000 C 
ATOM     89  C64 UNL A   1      30.016  40.869  47.132  1.00  0.00    +0.000 C 
ATOM     90  N7  UNL A   1      28.806  40.221  47.142  1.00  0.00    +0.000 N 
ATOM     91  C65 UNL A   1      24.598  38.962  47.813  1.00  0.00    +0.000 C 
ATOM     92  C66 UNL A   1      24.434  37.817  47.167  1.00  0.00    +0.000 C 
ATOM     93  C67 UNL A   1      32.238  38.101  44.145  1.00  0.00    +0.000 C 
ATOM     94  C68 UNL A   1      32.525  39.139  44.917  1.00  0.00    +0.000 C 
ENDROOT
BRANCH   38   37
ATOM     34  C27 UNL A   1      34.475  43.261  46.961  1.00  0.00    +0.000 C 
ATOM     35  C28 UNL A   1      34.415  42.097  47.735  1.00  0.00    +0.000 C 
ATOM     36  C29 UNL A   1      33.356  41.201  47.563  1.00  0.00    +0.000 C 
ATOM     37  C30 UNL A   1      32.333  41.480  46.643  1.00  0.00    +0.000 C 
ATOM    140  H38 UNL A   1      35.150  41.901  48.430  1.00  0.00    +0.000 H 
ATOM    141  H39 UNL A   1      33.326  40.330  48.115  1.00  0.00    +0.000 H 
ATOM    152  H50 UNL A   1      31.667  42.856  45.182  1.00  0.00    +0.000 H 
ATOM    153  H51 UNL A   1      33.601  44.307  45.348  1.00  0.00    +0.000 H 
ATOM     95  C69 UNL A   1      32.417  42.639  45.856  1.00  0.00    +0.000 C 
ATOM     96  C70 UNL A   1      33.507  43.497  45.980  1.00  0.00    +0.000 C 
BRANCH   34   32
ATOM     33  O4  UNL A   1      36.122  44.287  48.276  1.00  0.00    +0.000 O 
ATOM     32  C26 UNL A   1      35.601  44.198  47.168  1.00  0.00    +0.000 C 
BRANCH   32   31
ATOM    139  H37 UNL A   1      35.943  45.934  46.230  1.00  0.00    +0.000 H 
ATOM     31  N3  UNL A   1      36.069  44.963  46.130  1.00  0.00    +0.000 N 
BRANCH   31   30
ATOM    137  H35 UNL A   1      36.200  43.705  44.496  1.00  0.00    +0.000 H 
ATOM    138  H36 UNL A   1      36.708  45.373  44.219  1.00  0.00    +0.000 H 
ATOM     30  C25 UNL A   1      36.725  44.546  44.899  1.00  0.00    +0.000 C 
BRANCH   30   29
ATOM     29  C24 UNL A   1      38.182  44.154  45.131  1.00  0.00    +0.000 C 
ATOM    135  H33 UNL A   1      38.701  44.236  44.199  1.00  0.00    +0.000 H 
ATOM    136  H34 UNL A   1      38.556  44.818  45.882  1.00  0.00    +0.000 H 
BRANCH   29   28
ATOM     28  C23 UNL A   1      38.389  42.734  45.669  1.00  0.00    +0.000 C 
ATOM    133  H31 UNL A   1      39.377  42.421  45.402  1.00  0.00    +0.000 H 
ATOM    134  H32 UNL A   1      38.224  42.794  46.723  1.00  0.00    +0.000 H 
BRANCH   28   27
ATOM     27  C22 UNL A   1      37.403  41.679  45.148  1.00  0.00    +0.000 C 
ATOM    132  H30 UNL A   1      37.716  41.446  44.152  1.00  0.00    +0.000 H 
ATOM    131  H29 UNL A   1      36.418  42.093  45.200  1.00  0.00    +0.000 H 
BRANCH   27   26
ATOM    129  H27 UNL A   1      36.831  40.484  46.813  1.00  0.00    +0.000 H 
ATOM     26  C21 UNL A   1      37.402  40.354  45.917  1.00  0.00    +0.000 C 
ATOM    130  H28 UNL A   1      36.982  39.617  45.265  1.00  0.00    +0.000 H 
BRANCH   26   25
ATOM     25  C20 UNL A   1      38.799  39.860  46.304  1.00  0.00    +0.000 C 
ATOM    127  H25 UNL A   1      39.489  40.673  46.223  1.00  0.00    +0.000 H 
ATOM    128  H26 UNL A   1      38.755  39.491  47.307  1.00  0.00    +0.000 H 
BRANCH   25   24
ATOM    126  H24 UNL A   1      38.664  37.986  45.461  1.00  0.00    +0.000 H 
ATOM     24  N2  UNL A   1      39.245  38.781  45.447  1.00  0.00    +0.000 N 
BRANCH   24   22
ATOM     22  C19 UNL A   1      40.325  38.670  44.625  1.00  0.00    +0.000 C 
ATOM     23  O3  UNL A   1      41.359  38.228  45.141  1.00  0.00    +0.000 O 
BRANCH   22   20
ATOM    122  H20 UNL A   1      39.377  38.759  42.766  1.00  0.00    +0.000 H 
ATOM     20  C17 UNL A   1      40.324  39.084  43.145  1.00  0.00    +0.000 C 
BRANCH   20   19
ATOM     97  C71 UNL A   1      41.203  41.406  43.616  1.00  0.00    +0.000 C 
ATOM     98  C72 UNL A   1      41.244  42.799  43.398  1.00  0.00    +0.000 C 
ATOM     16  C13 UNL A   1      40.440  43.407  42.416  1.00  0.00    +0.000 C 
ATOM     17  C14 UNL A   1      39.501  42.581  41.775  1.00  0.00    +0.000 C 
ATOM     18  C15 UNL A   1      39.400  41.214  42.057  1.00  0.00    +0.000 C 
ATOM     19  C16 UNL A   1      40.291  40.590  42.929  1.00  0.00    +0.000 C 
ATOM    120  H18 UNL A   1      38.867  42.995  41.074  1.00  0.00    +0.000 H 
ATOM    121  H19 UNL A   1      38.653  40.659  41.612  1.00  0.00    +0.000 H 
ATOM    154  H52 UNL A   1      41.854  40.980  44.293  1.00  0.00    +0.000 H 
BRANCH   16   15
ATOM    102  C73 UNL A   1      39.467  45.702  42.085  1.00  0.00    +0.000 C 
ATOM     11  C8  UNL A   1      39.598  47.029  41.672  1.00  0.00    +0.000 C 
ATOM     12  C9  UNL A   1      40.806  47.517  41.183  1.00  0.00    +0.000 C 
ATOM     13  C10 UNL A   1      41.902  46.665  41.111  1.00  0.00    +0.000 C 
ATOM     14  C11 UNL A   1      41.774  45.328  41.499  1.00  0.00    +0.000 C 
ATOM     15  C12 UNL A   1      40.556  44.819  41.989  1.00  0.00    +0.000 C 
ATOM    117  H15 UNL A   1      40.887  48.499  40.878  1.00  0.00    +0.000 H 
ATOM    118  H16 UNL A   1      42.810  47.020  40.770  1.00  0.00    +0.000 H 
ATOM    119  H17 UNL A   1      42.591  44.701  41.425  1.00  0.00    +0.000 H 
ATOM    155  H53 UNL A   1      38.567  45.368  42.461  1.00  0.00    +0.000 H 
BRANCH   11   10
ATOM     10  O2  UNL A   1      38.487  47.886  41.577  1.00  0.00    +0.000 O 
BRANCH   10    8
ATOM      9  O1  UNL A   1      39.119  50.120  41.423  1.00  0.00    +0.000 O 
ATOM      8  C7  UNL A   1      38.590  49.194  42.025  1.00  0.00    +0.000 C 
BRANCH    8    7
ATOM    116  H14 UNL A   1      37.692  50.287  43.457  1.00  0.00    +0.000 H 
ATOM      7  N1  UNL A   1      38.014  49.380  43.253  1.00  0.00    +0.000 N 
BRANCH    7    6
ATOM    114  H12 UNL A   1      38.150  47.428  43.903  1.00  0.00    +0.000 H 
ATOM    115  H13 UNL A   1      38.415  48.667  45.134  1.00  0.00    +0.000 H 
ATOM      6  C6  UNL A   1      37.832  48.377  44.284  1.00  0.00    +0.000 C 
BRANCH    6    5
ATOM    113  H11 UNL A   1      36.077  49.251  45.028  1.00  0.00    +0.000 H 
ATOM      5  C5  UNL A   1      36.374  48.267  44.729  1.00  0.00    +0.000 C 
ATOM    112  H10 UNL A   1      36.320  47.550  45.520  1.00  0.00    +0.000 H 
BRANCH    5    4
ATOM      4  C4  UNL A   1      35.393  47.838  43.630  1.00  0.00    +0.000 C 
ATOM    110  H8  UNL A   1      35.718  48.274  42.710  1.00  0.00    +0.000 H 
ATOM    111  H9  UNL A   1      35.405  46.768  43.628  1.00  0.00    +0.000 H 
BRANCH    4    3
ATOM      3  C3  UNL A   1      33.932  48.242  43.855  1.00  0.00    +0.000 C 
ATOM    108  H6  UNL A   1      33.377  47.974  42.981  1.00  0.00    +0.000 H 
ATOM    109  H7  UNL A   1      33.618  47.731  44.740  1.00  0.00    +0.000 H 
BRANCH    3    2
ATOM      2  C2  UNL A   1      33.696  49.731  44.123  1.00  0.00    +0.000 C 
ATOM    107  H5  UNL A   1      33.213  50.137  43.259  1.00  0.00    +0.000 H 
ATOM    106  H4  UNL A   1      34.641  50.196  44.313  1.00  0.00    +0.000 H 
BRANCH    2    1
ATOM      1  C1  UNL A   1      32.783  49.991  45.312  1.00  0.00    +0.000 C 
ATOM    105  H3  UNL A   1      33.277  50.638  46.006  1.00  0.00    +0.000 H 
ATOM    103  H1  UNL A   1      32.552  49.063  45.793  1.00  0.00    +0.000 H 
ATOM    104  H2  UNL A   1      31.879  50.451  44.974  1.00  0.00    +0.000 H 
ENDBRANCH    2    1
ENDBRANCH    3    2
ENDBRANCH    4    3
ENDBRANCH    5    4
ENDBRANCH    6    5
ENDBRANCH    7    6
ENDBRANCH    8    7
ENDBRANCH   10    8
ENDBRANCH   11   10
ENDBRANCH   16   15
BRANCH   98   99
ATOM     99  N8  UNL A   1      42.101  43.581  44.262  1.00  0.00    +0.000 N 
ATOM    100  O5  UNL A   1      43.309  43.491  44.182  1.00  0.00    +0.000 O 
ATOM    101  O6  UNL A   1      41.582  44.335  45.287  1.00  0.00    +0.000 O 
ENDBRANCH   98   99
ENDBRANCH   20   19
BRANCH   20   21
ATOM    125  H23 UNL A   1      41.128  37.261  42.368  1.00  0.00    +0.000 H 
ATOM    123  H21 UNL A   1      42.312  38.529  42.584  1.00  0.00    +0.000 H 
ATOM    124  H22 UNL A   1      41.187  38.601  41.249  1.00  0.00    +0.000 H 
ATOM     21  C18 UNL A   1      41.312  38.311  42.271  1.00  0.00    +0.000 C 
ENDBRANCH   20   21
ENDBRANCH   22   20
ENDBRANCH   24   22
ENDBRANCH   25   24
ENDBRANCH   26   25
ENDBRANCH   27   26
ENDBRANCH   28   27
ENDBRANCH   29   28
ENDBRANCH   30   29
ENDBRANCH   31   30
ENDBRANCH   32   31
ENDBRANCH   34   32
ENDBRANCH   38   37
BRANCH   42   43
ATOM     43  C35 UNL A   1      31.217  35.745  42.864  1.00  0.00    +0.000 C 
ATOM     44  C36 UNL A   1      31.916  34.596  43.263  1.00  0.00    +0.000 C 
ATOM     45  F1  UNL A   1      31.860  34.180  44.537  1.00  0.00    +0.000 F 
ATOM     46  C37 UNL A   1      32.711  33.892  42.363  1.00  0.00    +0.000 C 
ATOM     47  F2  UNL A   1      33.411  32.827  42.780  1.00  0.00    +0.000 F 
ATOM     48  C38 UNL A   1      32.795  34.299  41.040  1.00  0.00    +0.000 C 
ATOM     49  F3  UNL A   1      33.557  33.618  40.174  1.00  0.00    +0.000 F 
ATOM     50  C39 UNL A   1      32.091  35.418  40.617  1.00  0.00    +0.000 C 
ATOM     51  F4  UNL A   1      32.160  35.805  39.336  1.00  0.00    +0.000 F 
ATOM     52  C40 UNL A   1      31.319  36.142  41.522  1.00  0.00    +0.000 C 
ATOM     53  F5  UNL A   1      30.666  37.229  41.086  1.00  0.00    +0.000 F 
ENDBRANCH   42   43
BRANCH   59   60
ATOM     65  C49 UNL A   1      22.316  33.733  45.373  1.00  0.00    +0.000 C 
ATOM     66  F8  UNL A   1      21.255  32.919  45.294  1.00  0.00    +0.000 F 
ATOM     67  C50 UNL A   1      23.376  33.413  46.209  1.00  0.00    +0.000 C 
ATOM     68  F9  UNL A   1      23.349  32.279  46.919  1.00  0.00    +0.000 F 
ATOM     69  C51 UNL A   1      24.469  34.271  46.309  1.00  0.00    +0.000 C 
ATOM     70  F10 UNL A   1      25.472  33.942  47.135  1.00  0.00    +0.000 F 
ATOM     60  C46 UNL A   1      24.529  35.453  45.557  1.00  0.00    +0.000 C 
ATOM     61  C47 UNL A   1      23.455  35.747  44.704  1.00  0.00    +0.000 C 
ATOM     62  F6  UNL A   1      23.460  36.875  43.977  1.00  0.00    +0.000 F 
ATOM     63  C48 UNL A   1      22.351  34.902  44.627  1.00  0.00    +0.000 C 
ATOM     64  F7  UNL A   1      21.315  35.227  43.842  1.00  0.00    +0.000 F 
ENDBRANCH   59   60
BRANCH   74   75
ATOM     75  C55 UNL A   1      25.739  41.371  49.030  1.00  0.00    +0.000 C 
ATOM     76  C56 UNL A   1      24.964  42.418  48.509  1.00  0.00    +0.000 C 
ATOM     77  F11 UNL A   1      24.990  42.679  47.194  1.00  0.00    +0.000 F 
ATOM     78  C57 UNL A   1      24.189  43.221  49.342  1.00  0.00    +0.000 C 
ATOM     79  F12 UNL A   1      23.489  44.239  48.823  1.00  0.00    +0.000 F 
ATOM     80  C58 UNL A   1      24.151  42.977  50.706  1.00  0.00    +0.000 C 
ATOM     81  F13 UNL A   1      23.399  43.745  51.506  1.00  0.00    +0.000 F 
ATOM     82  C59 UNL A   1      24.896  41.938  51.241  1.00  0.00    +0.000 C 
ATOM     83  F14 UNL A   1      24.850  41.689  52.558  1.00  0.00    +0.000 F 
ATOM     84  C60 UNL A   1      25.694  41.150  50.414  1.00  0.00    +0.000 C 
ATOM     85  F15 UNL A   1      26.412  40.157  50.958  1.00  0.00    +0.000 F 
ENDBRANCH   74   75
TORSDOF 28
ENDMDL
MODEL 7
REMARK VINA RESULT:      -5.4     39.131     42.858
ROOT
ATOM    142  H40 UNL A   1      44.100  44.441  22.790  1.00  0.00    +0.000 H 
ATOM    143  H41 UNL A   1      43.436  45.469  20.488  1.00  0.00    +0.000 H 
ATOM    144  H42 UNL A   1      47.483  44.598  20.405  1.00  0.00    +0.000 H 
ATOM    145  H43 UNL A   1      53.114  44.841  17.411  1.00  0.00    +0.000 H 
ATOM    146  H44 UNL A   1      53.745  43.784  19.634  1.00  0.00    +0.000 H 
ATOM    147  H45 UNL A   1      49.665  44.578  19.716  1.00  0.00    +0.000 H 
ATOM    148  H46 UNL A   1      48.542  46.506  15.210  1.00  0.00    +0.000 H 
ATOM    149  H47 UNL A   1      46.149  46.793  16.073  1.00  0.00    +0.000 H 
ATOM    150  H48 UNL A   1      48.661  42.389  24.747  1.00  0.00    +0.000 H 
ATOM    151  H49 UNL A   1      51.134  42.527  24.099  1.00  0.00    +0.000 H 
ATOM     38  C31 UNL A   1      51.571  43.501  21.457  1.00  0.00    +0.000 C 
ATOM     39  C32 UNL A   1      50.267  43.410  22.198  1.00  0.00    +0.000 C 
ATOM     40  N4  UNL A   1      49.065  43.753  21.806  1.00  0.00    +0.000 N 
ATOM     41  C33 UNL A   1      48.216  43.420  22.853  1.00  0.00    +0.000 C 
ATOM     42  C34 UNL A   1      46.882  43.631  22.959  1.00  0.00    +0.000 C 
ATOM     54  C41 UNL A   1      46.080  44.270  21.949  1.00  0.00    +0.000 C 
ATOM     55  C42 UNL A   1      44.735  44.592  21.991  1.00  0.00    +0.000 C 
ATOM     56  C43 UNL A   1      44.382  45.160  20.760  1.00  0.00    +0.000 C 
ATOM     57  C44 UNL A   1      45.518  45.235  19.971  1.00  0.00    +0.000 C 
ATOM     58  N5  UNL A   1      46.551  44.684  20.711  1.00  0.00    +0.000 N 
ATOM     59  C45 UNL A   1      45.652  45.770  18.640  1.00  0.00    +0.000 C 
ATOM     71  C52 UNL A   1      46.810  45.825  17.936  1.00  0.00    +0.000 C 
ATOM     72  N6  UNL A   1      48.078  45.400  18.309  1.00  0.00    +0.000 N 
ATOM     73  C53 UNL A   1      48.857  45.653  17.286  1.00  0.00    +0.000 C 
ATOM     74  C54 UNL A   1      50.337  45.424  17.141  1.00  0.00    +0.000 C 
ATOM     86  C61 UNL A   1      51.026  44.905  18.176  1.00  0.00    +0.000 C 
ATOM     87  C62 UNL A   1      52.462  44.639  18.185  1.00  0.00    +0.000 C 
ATOM     88  C63 UNL A   1      52.797  44.091  19.363  1.00  0.00    +0.000 C 
ATOM     89  C64 UNL A   1      51.603  43.997  20.205  1.00  0.00    +0.000 C 
ATOM     90  N7  UNL A   1      50.600  44.506  19.418  1.00  0.00    +0.000 N 
ATOM     91  C65 UNL A   1      48.165  46.249  16.136  1.00  0.00    +0.000 C 
ATOM     92  C66 UNL A   1      46.929  46.368  16.599  1.00  0.00    +0.000 C 
ATOM     93  C67 UNL A   1      49.031  42.801  23.876  1.00  0.00    +0.000 C 
ATOM     94  C68 UNL A   1      50.315  42.830  23.548  1.00  0.00    +0.000 C 
ENDROOT
BRANCH   38   37
ATOM     34  C27 UNL A   1      55.131  41.995  23.311  1.00  0.00    +0.000 C 
ATOM     35  C28 UNL A   1      54.478  41.227  22.341  1.00  0.00    +0.000 C 
ATOM     36  C29 UNL A   1      53.337  41.728  21.709  1.00  0.00    +0.000 C 
ATOM     37  C30 UNL A   1      52.821  42.984  22.068  1.00  0.00    +0.000 C 
ATOM    140  H38 UNL A   1      54.838  40.293  22.093  1.00  0.00    +0.000 H 
ATOM    141  H39 UNL A   1      52.871  41.172  20.975  1.00  0.00    +0.000 H 
ATOM    152  H50 UNL A   1      53.123  44.675  23.301  1.00  0.00    +0.000 H 
ATOM    153  H51 UNL A   1      55.207  43.883  24.254  1.00  0.00    +0.000 H 
ATOM     95  C69 UNL A   1      53.498  43.754  23.026  1.00  0.00    +0.000 C 
ATOM     96  C70 UNL A   1      54.673  43.282  23.606  1.00  0.00    +0.000 C 
BRANCH   34   32
ATOM     33  O4  UNL A   1      56.945  42.117  24.792  1.00  0.00    +0.000 O 
ATOM     32  C26 UNL A   1      56.332  41.437  23.973  1.00  0.00    +0.000 C 
BRANCH   32   31
ATOM    139  H37 UNL A   1      56.863  39.966  22.724  1.00  0.00    +0.000 H 
ATOM     31  N3  UNL A   1      56.760  40.167  23.682  1.00  0.00    +0.000 N 
BRANCH   31   30
ATOM    137  H35 UNL A   1      58.081  38.744  24.388  1.00  0.00    +0.000 H 
ATOM    138  H36 UNL A   1      56.985  39.433  25.589  1.00  0.00    +0.000 H 
ATOM     30  C25 UNL A   1      57.082  39.072  24.585  1.00  0.00    +0.000 C 
BRANCH   30   29
ATOM     29  C24 UNL A   1      56.131  37.890  24.414  1.00  0.00    +0.000 C 
ATOM    135  H33 UNL A   1      56.258  37.501  23.426  1.00  0.00    +0.000 H 
ATOM    136  H34 UNL A   1      56.383  37.187  25.181  1.00  0.00    +0.000 H 
BRANCH   29   28
ATOM     28  C23 UNL A   1      54.648  38.224  24.607  1.00  0.00    +0.000 C 
ATOM    133  H31 UNL A   1      54.361  38.908  23.836  1.00  0.00    +0.000 H 
ATOM    134  H32 UNL A   1      54.130  37.290  24.573  1.00  0.00    +0.000 H 
BRANCH   28   27
ATOM     27  C22 UNL A   1      54.282  38.857  25.958  1.00  0.00    +0.000 C 
ATOM    132  H30 UNL A   1      55.210  39.099  26.433  1.00  0.00    +0.000 H 
ATOM    131  H29 UNL A   1      53.694  38.150  26.505  1.00  0.00    +0.000 H 
BRANCH   27   26
ATOM    129  H27 UNL A   1      53.389  40.564  26.859  1.00  0.00    +0.000 H 
ATOM     26  C21 UNL A   1      53.493  40.167  25.870  1.00  0.00    +0.000 C 
ATOM    130  H28 UNL A   1      54.041  40.818  25.222  1.00  0.00    +0.000 H 
BRANCH   26   25
ATOM     25  C20 UNL A   1      52.095  40.010  25.266  1.00  0.00    +0.000 C 
ATOM    127  H25 UNL A   1      52.001  40.676  24.433  1.00  0.00    +0.000 H 
ATOM    128  H26 UNL A   1      51.978  38.992  24.959  1.00  0.00    +0.000 H 
BRANCH   25   24
ATOM    126  H24 UNL A   1      50.819  41.267  26.280  1.00  0.00    +0.000 H 
ATOM     24  N2  UNL A   1      51.055  40.313  26.227  1.00  0.00    +0.000 N 
BRANCH   24   22
ATOM     22  C19 UNL A   1      50.347  39.513  27.070  1.00  0.00    +0.000 C 
ATOM     23  O3  UNL A   1      51.010  38.818  27.848  1.00  0.00    +0.000 O 
BRANCH   22   20
ATOM    122  H20 UNL A   1      48.598  38.425  27.414  1.00  0.00    +0.000 H 
ATOM     20  C17 UNL A   1      48.812  39.416  27.076  1.00  0.00    +0.000 C 
BRANCH   20   19
ATOM     97  C71 UNL A   1      48.479  41.660  28.192  1.00  0.00    +0.000 C 
ATOM     98  C72 UNL A   1      47.840  42.521  29.107  1.00  0.00    +0.000 C 
ATOM     16  C13 UNL A   1      46.781  42.069  29.916  1.00  0.00    +0.000 C 
ATOM     17  C14 UNL A   1      46.496  40.694  29.866  1.00  0.00    +0.000 C 
ATOM     18  C15 UNL A   1      47.192  39.822  29.021  1.00  0.00    +0.000 C 
ATOM     19  C16 UNL A   1      48.147  40.298  28.122  1.00  0.00    +0.000 C 
ATOM    120  H18 UNL A   1      45.751  40.315  30.471  1.00  0.00    +0.000 H 
ATOM    121  H19 UNL A   1      46.997  38.810  29.065  1.00  0.00    +0.000 H 
ATOM    154  H52 UNL A   1      49.204  42.037  27.562  1.00  0.00    +0.000 H 
BRANCH   16   15
ATOM    102  C73 UNL A   1      46.058  42.953  32.156  1.00  0.00    +0.000 C 
ATOM     11  C8  UNL A   1      45.244  43.782  32.930  1.00  0.00    +0.000 C 
ATOM     12  C9  UNL A   1      44.312  44.632  32.342  1.00  0.00    +0.000 C 
ATOM     13  C10 UNL A   1      44.195  44.656  30.957  1.00  0.00    +0.000 C 
ATOM     14  C11 UNL A   1      44.989  43.812  30.174  1.00  0.00    +0.000 C 
ATOM     15  C12 UNL A   1      45.932  42.942  30.756  1.00  0.00    +0.000 C 
ATOM    117  H15 UNL A   1      43.714  45.236  32.927  1.00  0.00    +0.000 H 
ATOM    118  H16 UNL A   1      43.523  45.297  30.506  1.00  0.00    +0.000 H 
ATOM    119  H17 UNL A   1      44.882  43.827  29.148  1.00  0.00    +0.000 H 
ATOM    155  H53 UNL A   1      46.755  42.346  32.614  1.00  0.00    +0.000 H 
BRANCH   11   10
ATOM     10  O2  UNL A   1      45.210  43.684  34.333  1.00  0.00    +0.000 O 
BRANCH   10    8
ATOM      9  O1  UNL A   1      43.253  42.861  35.283  1.00  0.00    +0.000 O 
ATOM      8  C7  UNL A   1      44.417  42.718  34.934  1.00  0.00    +0.000 C 
BRANCH    8    7
ATOM    116  H14 UNL A   1      46.027  41.512  34.871  1.00  0.00    +0.000 H 
ATOM      7  N1  UNL A   1      45.071  41.528  35.104  1.00  0.00    +0.000 N 
BRANCH    7    6
ATOM    114  H12 UNL A   1      45.223  39.793  36.207  1.00  0.00    +0.000 H 
ATOM    115  H13 UNL A   1      43.617  40.528  36.148  1.00  0.00    +0.000 H 
ATOM      6  C6  UNL A   1      44.500  40.288  35.592  1.00  0.00    +0.000 C 
BRANCH    6    5
ATOM    113  H11 UNL A   1      43.027  39.340  34.439  1.00  0.00    +0.000 H 
ATOM      5  C5  UNL A   1      44.097  39.352  34.452  1.00  0.00    +0.000 C 
ATOM    112  H10 UNL A   1      44.530  38.393  34.641  1.00  0.00    +0.000 H 
BRANCH    5    4
ATOM      4  C4  UNL A   1      44.538  39.807  33.056  1.00  0.00    +0.000 C 
ATOM    110  H8  UNL A   1      44.754  40.853  33.103  1.00  0.00    +0.000 H 
ATOM    111  H9  UNL A   1      45.385  39.203  32.804  1.00  0.00    +0.000 H 
BRANCH    4    3
ATOM      3  C3  UNL A   1      43.516  39.586  31.936  1.00  0.00    +0.000 C 
ATOM    108  H6  UNL A   1      43.957  38.936  31.210  1.00  0.00    +0.000 H 
ATOM    109  H7  UNL A   1      42.646  39.179  32.407  1.00  0.00    +0.000 H 
BRANCH    3    2
ATOM      2  C2  UNL A   1      43.049  40.852  31.213  1.00  0.00    +0.000 C 
ATOM    107  H5  UNL A   1      42.491  40.540  30.355  1.00  0.00    +0.000 H 
ATOM    106  H4  UNL A   1      43.910  41.429  30.947  1.00  0.00    +0.000 H 
BRANCH    2    1
ATOM      1  C1  UNL A   1      42.128  41.721  32.056  1.00  0.00    +0.000 C 
ATOM    105  H3  UNL A   1      42.044  41.303  33.037  1.00  0.00    +0.000 H 
ATOM    103  H1  UNL A   1      41.160  41.760  31.601  1.00  0.00    +0.000 H 
ATOM    104  H2  UNL A   1      42.531  42.710  32.122  1.00  0.00    +0.000 H 
ENDBRANCH    2    1
ENDBRANCH    3    2
ENDBRANCH    4    3
ENDBRANCH    5    4
ENDBRANCH    6    5
ENDBRANCH    7    6
ENDBRANCH    8    7
ENDBRANCH   10    8
ENDBRANCH   11   10
ENDBRANCH   16   15
BRANCH   98   99
ATOM     99  N8  UNL A   1      48.354  43.868  29.222  1.00  0.00    +0.000 N 
ATOM    100  O5  UNL A   1      48.008  44.732  28.442  1.00  0.00    +0.000 O 
ATOM    101  O6  UNL A   1      49.351  44.177  30.116  1.00  0.00    +0.000 O 
ENDBRANCH   98   99
ENDBRANCH   20   19
BRANCH   20   21
ATOM    125  H23 UNL A   1      47.395  38.703  25.642  1.00  0.00    +0.000 H 
ATOM    123  H21 UNL A   1      48.915  39.217  24.949  1.00  0.00    +0.000 H 
ATOM    124  H22 UNL A   1      47.759  40.406  25.499  1.00  0.00    +0.000 H 
ATOM     21  C18 UNL A   1      48.172  39.437  25.687  1.00  0.00    +0.000 C 
ENDBRANCH   20   21
ENDBRANCH   22   20
ENDBRANCH   24   22
ENDBRANCH   25   24
ENDBRANCH   26   25
ENDBRANCH   27   26
ENDBRANCH   28   27
ENDBRANCH   29   28
ENDBRANCH   30   29
ENDBRANCH   31   30
ENDBRANCH   32   31
ENDBRANCH   34   32
ENDBRANCH   38   37
BRANCH   42   43
ATOM     43  C35 UNL A   1      46.206  43.165  24.216  1.00  0.00    +0.000 C 
ATOM     44  C36 UNL A   1      45.890  41.813  24.425  1.00  0.00    +0.000 C 
ATOM     45  F1  UNL A   1      46.156  40.904  23.476  1.00  0.00    +0.000 F 
ATOM     46  C37 UNL A   1      45.260  41.396  25.595  1.00  0.00    +0.000 C 
ATOM     47  F2  UNL A   1      44.922  40.108  25.749  1.00  0.00    +0.000 F 
ATOM     48  C38 UNL A   1      44.967  42.313  26.593  1.00  0.00    +0.000 C 
ATOM     49  F3  UNL A   1      44.364  41.909  27.719  1.00  0.00    +0.000 F 
ATOM     50  C39 UNL A   1      45.292  43.650  26.419  1.00  0.00    +0.000 C 
ATOM     51  F4  UNL A   1      45.022  44.536  27.388  1.00  0.00    +0.000 F 
ATOM     52  C40 UNL A   1      45.895  44.075  25.238  1.00  0.00    +0.000 C 
ATOM     53  F5  UNL A   1      46.181  45.378  25.093  1.00  0.00    +0.000 F 
ENDBRANCH   42   43
BRANCH   59   60
ATOM     65  C49 UNL A   1      42.105  47.398  16.810  1.00  0.00    +0.000 C 
ATOM     66  F8  UNL A   1      41.005  47.908  16.241  1.00  0.00    +0.000 F 
ATOM     67  C50 UNL A   1      42.873  48.178  17.661  1.00  0.00    +0.000 C 
ATOM     68  F9  UNL A   1      42.502  49.437  17.931  1.00  0.00    +0.000 F 
ATOM     69  C51 UNL A   1      44.029  47.656  18.235  1.00  0.00    +0.000 C 
ATOM     70  F10 UNL A   1      44.759  48.439  19.043  1.00  0.00    +0.000 F 
ATOM     60  C46 UNL A   1      44.425  46.334  17.984  1.00  0.00    +0.000 C 
ATOM     61  C47 UNL A   1      43.623  45.556  17.135  1.00  0.00    +0.000 C 
ATOM     62  F6  UNL A   1      43.969  44.291  16.853  1.00  0.00    +0.000 F 
ATOM     63  C48 UNL A   1      42.483  46.090  16.541  1.00  0.00    +0.000 C 
ATOM     64  F7  UNL A   1      41.759  45.344  15.696  1.00  0.00    +0.000 F 
ENDBRANCH   59   60
BRANCH   74   75
ATOM     75  C55 UNL A   1      51.048  45.788  15.889  1.00  0.00    +0.000 C 
ATOM     76  C56 UNL A   1      51.684  47.031  15.761  1.00  0.00    +0.000 C 
ATOM     77  F11 UNL A   1      51.628  47.917  16.766  1.00  0.00    +0.000 F 
ATOM     78  C57 UNL A   1      52.349  47.381  14.588  1.00  0.00    +0.000 C 
ATOM     79  F12 UNL A   1      52.915  48.591  14.478  1.00  0.00    +0.000 F 
ATOM     80  C58 UNL A   1      52.414  46.486  13.532  1.00  0.00    +0.000 C 
ATOM     81  F13 UNL A   1      53.060  46.820  12.406  1.00  0.00    +0.000 F 
ATOM     82  C59 UNL A   1      51.805  45.245  13.641  1.00  0.00    +0.000 C 
ATOM     83  F14 UNL A   1      51.878  44.371  12.628  1.00  0.00    +0.000 F 
ATOM     84  C60 UNL A   1      51.116  44.904  14.803  1.00  0.00    +0.000 C 
ATOM     85  F15 UNL A   1      50.529  43.700  14.880  1.00  0.00    +0.000 F 
ENDBRANCH   74   75
TORSDOF 28
ENDMDL
MODEL 8
REMARK VINA RESULT:      -5.4      7.211     13.312
ROOT
ATOM    142  H40 UNL A   1      13.821  53.985   6.988  1.00  0.00    +0.000 H 
ATOM    143  H41 UNL A   1      13.813  51.382   7.127  1.00  0.00    +0.000 H 
ATOM    144  H42 UNL A   1      15.369  52.483   3.451  1.00  0.00    +0.000 H 
ATOM    145  H43 UNL A   1      17.529  50.861  -2.331  1.00  0.00    +0.000 H 
ATOM    146  H44 UNL A   1      17.593  53.398  -2.438  1.00  0.00    +0.000 H 
ATOM    147  H45 UNL A   1      16.098  52.320   1.289  1.00  0.00    +0.000 H 
ATOM    148  H46 UNL A   1      16.187  47.295   1.412  1.00  0.00    +0.000 H 
ATOM    149  H47 UNL A   1      15.108  47.461   3.727  1.00  0.00    +0.000 H 
ATOM    150  H48 UNL A   1      15.609  57.488   3.330  1.00  0.00    +0.000 H 
ATOM    151  H49 UNL A   1      16.235  57.357   0.851  1.00  0.00    +0.000 H 
ATOM     38  C31 UNL A   1      16.630  54.696  -0.089  1.00  0.00    +0.000 C 
ATOM     39  C32 UNL A   1      16.139  55.128   1.263  1.00  0.00    +0.000 C 
ATOM     40  N4  UNL A   1      15.786  54.396   2.291  1.00  0.00    +0.000 N 
ATOM     41  C33 UNL A   1      15.458  55.291   3.299  1.00  0.00    +0.000 C 
ATOM     42  C34 UNL A   1      14.977  55.030   4.538  1.00  0.00    +0.000 C 
ATOM     54  C41 UNL A   1      14.712  53.707   5.043  1.00  0.00    +0.000 C 
ATOM     55  C42 UNL A   1      14.160  53.340   6.257  1.00  0.00    +0.000 C 
ATOM     56  C43 UNL A   1      14.140  51.942   6.324  1.00  0.00    +0.000 C 
ATOM     57  C44 UNL A   1      14.634  51.438   5.133  1.00  0.00    +0.000 C 
ATOM     58  N5  UNL A   1      14.984  52.532   4.357  1.00  0.00    +0.000 N 
ATOM     59  C45 UNL A   1      14.778  50.063   4.730  1.00  0.00    +0.000 C 
ATOM     71  C52 UNL A   1      15.257  49.649   3.531  1.00  0.00    +0.000 C 
ATOM     72  N6  UNL A   1      15.702  50.411   2.460  1.00  0.00    +0.000 N 
ATOM     73  C53 UNL A   1      16.078  49.555   1.540  1.00  0.00    +0.000 C 
ATOM     74  C54 UNL A   1      16.619  49.819   0.162  1.00  0.00    +0.000 C 
ATOM     86  C61 UNL A   1      16.745  51.092  -0.262  1.00  0.00    +0.000 C 
ATOM     87  C62 UNL A   1      17.243  51.500  -1.572  1.00  0.00    +0.000 C 
ATOM     88  C63 UNL A   1      17.266  52.840  -1.633  1.00  0.00    +0.000 C 
ATOM     89  C64 UNL A   1      16.753  53.386  -0.375  1.00  0.00    +0.000 C 
ATOM     90  N7  UNL A   1      16.468  52.274   0.378  1.00  0.00    +0.000 N 
ATOM     91  C65 UNL A   1      15.934  48.147   1.936  1.00  0.00    +0.000 C 
ATOM     92  C66 UNL A   1      15.394  48.260   3.140  1.00  0.00    +0.000 C 
ATOM     93  C67 UNL A   1      15.701  56.620   2.780  1.00  0.00    +0.000 C 
ATOM     94  C68 UNL A   1      16.059  56.577   1.505  1.00  0.00    +0.000 C 
ENDROOT
BRANCH   38   37
ATOM     34  C27 UNL A   1      17.877  57.534  -3.050  1.00  0.00    +0.000 C 
ATOM     35  C28 UNL A   1      16.517  57.243  -2.901  1.00  0.00    +0.000 C 
ATOM     36  C29 UNL A   1      16.103  56.345  -1.914  1.00  0.00    +0.000 C 
ATOM     37  C30 UNL A   1      17.047  55.705  -1.095  1.00  0.00    +0.000 C 
ATOM    140  H38 UNL A   1      15.822  57.690  -3.517  1.00  0.00    +0.000 H 
ATOM    141  H39 UNL A   1      15.097  56.150  -1.787  1.00  0.00    +0.000 H 
ATOM    152  H50 UNL A   1      19.108  55.553  -0.647  1.00  0.00    +0.000 H 
ATOM    153  H51 UNL A   1      19.802  57.254  -2.229  1.00  0.00    +0.000 H 
ATOM     95  C69 UNL A   1      18.406  56.023  -1.240  1.00  0.00    +0.000 C 
ATOM     96  C70 UNL A   1      18.812  56.969  -2.178  1.00  0.00    +0.000 C 
BRANCH   34   32
ATOM     33  O4  UNL A   1      19.285  58.238  -4.788  1.00  0.00    +0.000 O 
ATOM     32  C26 UNL A   1      18.292  58.482  -4.109  1.00  0.00    +0.000 C 
BRANCH   32   31
ATOM    139  H37 UNL A   1      16.898  59.565  -5.055  1.00  0.00    +0.000 H 
ATOM     31  N3  UNL A   1      17.571  59.626  -4.339  1.00  0.00    +0.000 N 
BRANCH   31   30
ATOM    137  H35 UNL A   1      18.688  61.159  -3.520  1.00  0.00    +0.000 H 
ATOM    138  H36 UNL A   1      17.186  61.646  -4.309  1.00  0.00    +0.000 H 
ATOM     30  C25 UNL A   1      17.657  60.920  -3.678  1.00  0.00    +0.000 C 
BRANCH   30   29
ATOM     29  C24 UNL A   1      16.937  60.925  -2.332  1.00  0.00    +0.000 C 
ATOM    135  H33 UNL A   1      16.339  61.811  -2.278  1.00  0.00    +0.000 H 
ATOM    136  H34 UNL A   1      16.362  60.024  -2.295  1.00  0.00    +0.000 H 
BRANCH   29   28
ATOM     28  C23 UNL A   1      17.860  60.897  -1.109  1.00  0.00    +0.000 C 
ATOM    133  H31 UNL A   1      18.868  60.813  -1.458  1.00  0.00    +0.000 H 
ATOM    134  H32 UNL A   1      17.661  61.799  -0.571  1.00  0.00    +0.000 H 
BRANCH   28   27
ATOM     27  C22 UNL A   1      17.609  59.753  -0.116  1.00  0.00    +0.000 C 
ATOM    132  H30 UNL A   1      17.400  58.886  -0.708  1.00  0.00    +0.000 H 
ATOM    131  H29 UNL A   1      16.799  60.040   0.521  1.00  0.00    +0.000 H 
BRANCH   27   26
ATOM    129  H27 UNL A   1      18.545  59.598   1.787  1.00  0.00    +0.000 H 
ATOM     26  C21 UNL A   1      18.803  59.386   0.770  1.00  0.00    +0.000 C 
ATOM    130  H28 UNL A   1      19.006  58.349   0.606  1.00  0.00    +0.000 H 
BRANCH   26   25
ATOM     25  C20 UNL A   1      20.087  60.149   0.430  1.00  0.00    +0.000 C 
ATOM    127  H25 UNL A   1      19.825  61.087  -0.014  1.00  0.00    +0.000 H 
ATOM    128  H26 UNL A   1      20.638  60.293   1.336  1.00  0.00    +0.000 H 
BRANCH   25   24
ATOM    126  H24 UNL A   1      20.546  59.323  -1.399  1.00  0.00    +0.000 H 
ATOM     24  N2  UNL A   1      20.923  59.411  -0.494  1.00  0.00    +0.000 N 
BRANCH   24   22
ATOM     22  C19 UNL A   1      22.137  58.818  -0.333  1.00  0.00    +0.000 C 
ATOM     23  O3  UNL A   1      22.128  57.676   0.143  1.00  0.00    +0.000 O 
BRANCH   22   20
ATOM    122  H20 UNL A   1      23.243  60.187  -1.456  1.00  0.00    +0.000 H 
ATOM     20  C17 UNL A   1      23.475  59.492  -0.677  1.00  0.00    +0.000 C 
BRANCH   20   19
ATOM     97  C71 UNL A   1      24.949  61.382   0.126  1.00  0.00    +0.000 C 
ATOM     98  C72 UNL A   1      25.431  62.261   1.118  1.00  0.00    +0.000 C 
ATOM     16  C13 UNL A   1      24.925  62.226   2.431  1.00  0.00    +0.000 C 
ATOM     17  C14 UNL A   1      24.031  61.183   2.731  1.00  0.00    +0.000 C 
ATOM     18  C15 UNL A   1      23.622  60.256   1.767  1.00  0.00    +0.000 C 
ATOM     19  C16 UNL A   1      24.019  60.378   0.435  1.00  0.00    +0.000 C 
ATOM    120  H18 UNL A   1      23.665  61.099   3.692  1.00  0.00    +0.000 H 
ATOM    121  H19 UNL A   1      23.018  59.468   2.046  1.00  0.00    +0.000 H 
ATOM    154  H52 UNL A   1      25.287  61.479  -0.844  1.00  0.00    +0.000 H 
BRANCH   16   15
ATOM    102  C73 UNL A   1      24.352  64.297   3.736  1.00  0.00    +0.000 C 
ATOM     11  C8  UNL A   1      24.660  65.234   4.725  1.00  0.00    +0.000 C 
ATOM     12  C9  UNL A   1      25.816  65.123   5.491  1.00  0.00    +0.000 C 
ATOM     13  C10 UNL A   1      26.677  64.054   5.268  1.00  0.00    +0.000 C 
ATOM     14  C11 UNL A   1      26.391  63.124   4.263  1.00  0.00    +0.000 C 
ATOM     15  C12 UNL A   1      25.228  63.228   3.477  1.00  0.00    +0.000 C 
ATOM    117  H15 UNL A   1      26.032  65.824   6.216  1.00  0.00    +0.000 H 
ATOM    118  H16 UNL A   1      27.527  63.947   5.843  1.00  0.00    +0.000 H 
ATOM    119  H17 UNL A   1      27.045  62.344   4.096  1.00  0.00    +0.000 H 
ATOM    155  H53 UNL A   1      23.480  64.390   3.194  1.00  0.00    +0.000 H 
BRANCH   11   10
ATOM     10  O2  UNL A   1      23.910  66.413   4.885  1.00  0.00    +0.000 O 
BRANCH   10    8
ATOM      9  O1  UNL A   1      24.538  68.052   3.359  1.00  0.00    +0.000 O 
ATOM      8  C7  UNL A   1      24.455  67.629   4.505  1.00  0.00    +0.000 C 
BRANCH    8    7
ATOM    116  H14 UNL A   1      24.563  68.112   6.456  1.00  0.00    +0.000 H 
ATOM      7  N1  UNL A   1      24.907  68.363   5.569  1.00  0.00    +0.000 N 
BRANCH    7    6
ATOM    114  H12 UNL A   1      26.304  69.491   4.558  1.00  0.00    +0.000 H 
ATOM    115  H13 UNL A   1      25.292  70.372   5.707  1.00  0.00    +0.000 H 
ATOM      6  C6  UNL A   1      25.840  69.471   5.522  1.00  0.00    +0.000 C 
BRANCH    6    5
ATOM    113  H11 UNL A   1      27.502  68.487   6.339  1.00  0.00    +0.000 H 
ATOM      5  C5  UNL A   1      26.927  69.354   6.591  1.00  0.00    +0.000 C 
ATOM    112  H10 UNL A   1      26.449  69.283   7.545  1.00  0.00    +0.000 H 
BRANCH    5    4
ATOM      4  C4  UNL A   1      27.915  70.526   6.639  1.00  0.00    +0.000 C 
ATOM    110  H8  UNL A   1      27.711  71.163   5.805  1.00  0.00    +0.000 H 
ATOM    111  H9  UNL A   1      27.765  70.997   7.588  1.00  0.00    +0.000 H 
BRANCH    4    3
ATOM      3  C3  UNL A   1      29.397  70.142   6.590  1.00  0.00    +0.000 C 
ATOM    108  H6  UNL A   1      29.483  69.117   6.882  1.00  0.00    +0.000 H 
ATOM    109  H7  UNL A   1      29.719  70.334   5.588  1.00  0.00    +0.000 H 
BRANCH    3    2
ATOM      2  C2  UNL A   1      30.319  70.967   7.493  1.00  0.00    +0.000 C 
ATOM    107  H5  UNL A   1      29.736  71.770   7.892  1.00  0.00    +0.000 H 
ATOM    106  H4  UNL A   1      31.143  71.318   6.907  1.00  0.00    +0.000 H 
BRANCH    2    1
ATOM      1  C1  UNL A   1      30.867  70.179   8.673  1.00  0.00    +0.000 C 
ATOM    105  H3  UNL A   1      31.924  70.332   8.744  1.00  0.00    +0.000 H 
ATOM    103  H1  UNL A   1      30.667  69.138   8.531  1.00  0.00    +0.000 H 
ATOM    104  H2  UNL A   1      30.396  70.512   9.574  1.00  0.00    +0.000 H 
ENDBRANCH    2    1
ENDBRANCH    3    2
ENDBRANCH    4    3
ENDBRANCH    5    4
ENDBRANCH    6    5
ENDBRANCH    7    6
ENDBRANCH    8    7
ENDBRANCH   10    8
ENDBRANCH   11   10
ENDBRANCH   16   15
BRANCH   98   99
ATOM     99  N8  UNL A   1      26.502  63.159   0.747  1.00  0.00    +0.000 N 
ATOM    100  O5  UNL A   1      26.261  64.276   0.338  1.00  0.00    +0.000 O 
ATOM    101  O6  UNL A   1      27.808  62.731   0.707  1.00  0.00    +0.000 O 
ENDBRANCH   98   99
ENDBRANCH   20   19
BRANCH   20   21
ATOM    125  H23 UNL A   1      24.593  57.673  -0.776  1.00  0.00    +0.000 H 
ATOM    123  H21 UNL A   1      25.441  59.066  -1.403  1.00  0.00    +0.000 H 
ATOM    124  H22 UNL A   1      24.161  58.330  -2.336  1.00  0.00    +0.000 H 
ATOM     21  C18 UNL A   1      24.494  58.571  -1.348  1.00  0.00    +0.000 C 
ENDBRANCH   20   21
ENDBRANCH   22   20
ENDBRANCH   24   22
ENDBRANCH   25   24
ENDBRANCH   26   25
ENDBRANCH   27   26
ENDBRANCH   28   27
ENDBRANCH   29   28
ENDBRANCH   30   29
ENDBRANCH   31   30
ENDBRANCH   32   31
ENDBRANCH   34   32
ENDBRANCH   38   37
BRANCH   42   43
ATOM     43  C35 UNL A   1      14.704  56.202   5.437  1.00  0.00    +0.000 C 
ATOM     44  C36 UNL A   1      13.441  56.812   5.489  1.00  0.00    +0.000 C 
ATOM     45  F1  UNL A   1      12.449  56.378   4.698  1.00  0.00    +0.000 F 
ATOM     46  C37 UNL A   1      13.204  57.899   6.326  1.00  0.00    +0.000 C 
ATOM     47  F2  UNL A   1      12.005  58.498   6.320  1.00  0.00    +0.000 F 
ATOM     48  C38 UNL A   1      14.211  58.375   7.153  1.00  0.00    +0.000 C 
ATOM     49  F3  UNL A   1      13.980  59.418   7.960  1.00  0.00    +0.000 F 
ATOM     50  C39 UNL A   1      15.459  57.771   7.137  1.00  0.00    +0.000 C 
ATOM     51  F4  UNL A   1      16.430  58.220   7.945  1.00  0.00    +0.000 F 
ATOM     52  C40 UNL A   1      15.709  56.703   6.279  1.00  0.00    +0.000 C 
ATOM     53  F5  UNL A   1      16.932  56.152   6.275  1.00  0.00    +0.000 F 
ENDBRANCH   42   43
BRANCH   59   60
ATOM     65  C49 UNL A   1      13.492  47.049   7.530  1.00  0.00    +0.000 C 
ATOM     66  F8  UNL A   1      13.088  46.110   8.396  1.00  0.00    +0.000 F 
ATOM     67  C50 UNL A   1      12.609  47.543   6.581  1.00  0.00    +0.000 C 
ATOM     68  F9  UNL A   1      11.346  47.097   6.545  1.00  0.00    +0.000 F 
ATOM     69  C51 UNL A   1      13.034  48.502   5.665  1.00  0.00    +0.000 C 
ATOM     70  F10 UNL A   1      12.162  48.951   4.751  1.00  0.00    +0.000 F 
ATOM     60  C46 UNL A   1      14.345  49.000   5.698  1.00  0.00    +0.000 C 
ATOM     61  C47 UNL A   1      15.215  48.501   6.678  1.00  0.00    +0.000 C 
ATOM     62  F6  UNL A   1      16.483  48.934   6.739  1.00  0.00    +0.000 F 
ATOM     63  C48 UNL A   1      14.795  47.521   7.574  1.00  0.00    +0.000 C 
ATOM     64  F7  UNL A   1      15.657  47.024   8.471  1.00  0.00    +0.000 F 
ENDBRANCH   59   60
BRANCH   74   75
ATOM     75  C55 UNL A   1      16.985  48.700  -0.743  1.00  0.00    +0.000 C 
ATOM     76  C56 UNL A   1      18.258  48.116  -0.684  1.00  0.00    +0.000 C 
ATOM     77  F11 UNL A   1      19.171  48.589   0.177  1.00  0.00    +0.000 F 
ATOM     78  C57 UNL A   1      18.608  47.068  -1.532  1.00  0.00    +0.000 C 
ATOM     79  F12 UNL A   1      19.845  46.555  -1.482  1.00  0.00    +0.000 F 
ATOM     80  C58 UNL A   1      17.685  46.567  -2.436  1.00  0.00    +0.000 C 
ATOM     81  F13 UNL A   1      18.020  45.554  -3.248  1.00  0.00    +0.000 F 
ATOM     82  C59 UNL A   1      16.415  47.118  -2.502  1.00  0.00    +0.000 C 
ATOM     83  F14 UNL A   1      15.515  46.626  -3.365  1.00  0.00    +0.000 F 
ATOM     84  C60 UNL A   1      16.071  48.184  -1.673  1.00  0.00    +0.000 C 
ATOM     85  F15 UNL A   1      14.838  48.705  -1.763  1.00  0.00    +0.000 F 
ENDBRANCH   74   75
TORSDOF 28
ENDMDL
MODEL 9
REMARK VINA RESULT:      -5.3     47.120     50.571
ROOT
ATOM    142  H40 UNL A   1      18.138  36.459  48.479  1.00  0.00    +0.000 H 
ATOM    143  H41 UNL A   1      18.630  34.490  46.843  1.00  0.00    +0.000 H 
ATOM    144  H42 UNL A   1      22.227  36.283  47.839  1.00  0.00    +0.000 H 
ATOM    145  H43 UNL A   1      28.540  36.789  47.053  1.00  0.00    +0.000 H 
ATOM    146  H44 UNL A   1      28.062  38.667  48.695  1.00  0.00    +0.000 H 
ATOM    147  H45 UNL A   1      24.446  36.836  47.771  1.00  0.00    +0.000 H 
ATOM    148  H46 UNL A   1      25.570  33.053  44.656  1.00  0.00    +0.000 H 
ATOM    149  H47 UNL A   1      23.055  32.601  44.504  1.00  0.00    +0.000 H 
ATOM    150  H48 UNL A   1      21.261  39.891  51.183  1.00  0.00    +0.000 H 
ATOM    151  H49 UNL A   1      23.693  40.667  50.986  1.00  0.00    +0.000 H 
ATOM     38  C31 UNL A   1      25.306  38.972  49.359  1.00  0.00    +0.000 C 
ATOM     39  C32 UNL A   1      23.823  38.885  49.588  1.00  0.00    +0.000 C 
ATOM     40  N4  UNL A   1      22.958  38.033  49.098  1.00  0.00    +0.000 N 
ATOM     41  C33 UNL A   1      21.735  38.370  49.662  1.00  0.00    +0.000 C 
ATOM     42  C34 UNL A   1      20.517  37.824  49.428  1.00  0.00    +0.000 C 
ATOM     54  C41 UNL A   1      20.276  36.745  48.506  1.00  0.00    +0.000 C 
ATOM     55  C42 UNL A   1      19.071  36.168  48.147  1.00  0.00    +0.000 C 
ATOM     56  C43 UNL A   1      19.334  35.122  47.255  1.00  0.00    +0.000 C 
ATOM     57  C44 UNL A   1      20.698  35.078  47.021  1.00  0.00    +0.000 C 
ATOM     58  N5  UNL A   1      21.265  36.077  47.797  1.00  0.00    +0.000 N 
ATOM     59  C45 UNL A   1      21.433  34.192  46.156  1.00  0.00    +0.000 C 
ATOM     71  C52 UNL A   1      22.776  34.224  45.966  1.00  0.00    +0.000 C 
ATOM     72  N6  UNL A   1      23.715  35.075  46.531  1.00  0.00    +0.000 N 
ATOM     73  C53 UNL A   1      24.875  34.701  46.048  1.00  0.00    +0.000 C 
ATOM     74  C54 UNL A   1      26.239  35.285  46.296  1.00  0.00    +0.000 C 
ATOM     86  C61 UNL A   1      26.358  36.357  47.103  1.00  0.00    +0.000 C 
ATOM     87  C62 UNL A   1      27.610  37.036  47.426  1.00  0.00    +0.000 C 
ATOM     88  C63 UNL A   1      27.355  38.035  48.285  1.00  0.00    +0.000 C 
ATOM     89  C64 UNL A   1      25.916  38.088  48.548  1.00  0.00    +0.000 C 
ATOM     90  N7  UNL A   1      25.405  37.055  47.802  1.00  0.00    +0.000 N 
ATOM     91  C65 UNL A   1      24.804  33.552  45.135  1.00  0.00    +0.000 C 
ATOM     92  C66 UNL A   1      23.499  33.326  45.090  1.00  0.00    +0.000 C 
ATOM     93  C67 UNL A   1      21.977  39.471  50.569  1.00  0.00    +0.000 C 
ATOM     94  C68 UNL A   1      23.239  39.871  50.510  1.00  0.00    +0.000 C 
ENDROOT
BRANCH   38   37
ATOM     34  C27 UNL A   1      27.569  41.954  51.449  1.00  0.00    +0.000 C 
ATOM     35  C28 UNL A   1      27.386  40.693  52.027  1.00  0.00    +0.000 C 
ATOM     36  C29 UNL A   1      26.678  39.707  51.335  1.00  0.00    +0.000 C 
ATOM     37  C30 UNL A   1      26.119  39.985  50.077  1.00  0.00    +0.000 C 
ATOM    140  H38 UNL A   1      27.771  40.493  52.962  1.00  0.00    +0.000 H 
ATOM    141  H39 UNL A   1      26.565  38.770  51.751  1.00  0.00    +0.000 H 
ATOM    152  H50 UNL A   1      25.919  41.462  48.577  1.00  0.00    +0.000 H 
ATOM    153  H51 UNL A   1      27.308  43.103  49.697  1.00  0.00    +0.000 H 
ATOM     95  C69 UNL A   1      26.331  41.245  49.498  1.00  0.00    +0.000 C 
ATOM     96  C70 UNL A   1      27.093  42.205  50.159  1.00  0.00    +0.000 C 
BRANCH   34   32
ATOM     33  O4  UNL A   1      29.426  43.337  51.820  1.00  0.00    +0.000 O 
ATOM     32  C26 UNL A   1      28.315  42.985  52.206  1.00  0.00    +0.000 C 
BRANCH   32   31
ATOM    139  H37 UNL A   1      28.401  43.720  54.066  1.00  0.00    +0.000 H 
ATOM     31  N3  UNL A   1      27.770  43.551  53.330  1.00  0.00    +0.000 N 
BRANCH   31   30
ATOM    137  H35 UNL A   1      25.740  43.199  53.174  1.00  0.00    +0.000 H 
ATOM    138  H36 UNL A   1      26.264  44.003  54.655  1.00  0.00    +0.000 H 
ATOM     30  C25 UNL A   1      26.391  43.936  53.594  1.00  0.00    +0.000 C 
BRANCH   30   29
ATOM     29  C24 UNL A   1      26.051  45.297  52.990  1.00  0.00    +0.000 C 
ATOM    135  H33 UNL A   1      25.233  45.711  53.542  1.00  0.00    +0.000 H 
ATOM    136  H34 UNL A   1      26.943  45.885  53.052  1.00  0.00    +0.000 H 
BRANCH   29   28
ATOM     28  C23 UNL A   1      25.659  45.263  51.509  1.00  0.00    +0.000 C 
ATOM    133  H31 UNL A   1      25.613  44.239  51.203  1.00  0.00    +0.000 H 
ATOM    134  H32 UNL A   1      24.725  45.778  51.442  1.00  0.00    +0.000 H 
BRANCH   28   27
ATOM     27  C22 UNL A   1      26.613  45.996  50.555  1.00  0.00    +0.000 C 
ATOM    132  H30 UNL A   1      25.992  46.569  49.896  1.00  0.00    +0.000 H 
ATOM    131  H29 UNL A   1      27.205  45.262  50.051  1.00  0.00    +0.000 H 
BRANCH   27   26
ATOM    129  H27 UNL A   1      26.981  47.648  51.843  1.00  0.00    +0.000 H 
ATOM     26  C21 UNL A   1      27.562  46.996  51.223  1.00  0.00    +0.000 C 
ATOM    130  H28 UNL A   1      28.273  46.424  51.781  1.00  0.00    +0.000 H 
BRANCH   26   25
ATOM     25  C20 UNL A   1      28.357  47.853  50.235  1.00  0.00    +0.000 C 
ATOM    127  H25 UNL A   1      28.367  48.865  50.584  1.00  0.00    +0.000 H 
ATOM    128  H26 UNL A   1      29.350  47.457  50.176  1.00  0.00    +0.000 H 
BRANCH   25   24
ATOM    126  H24 UNL A   1      27.788  46.932  48.485  1.00  0.00    +0.000 H 
ATOM     24  N2  UNL A   1      27.780  47.821  48.908  1.00  0.00    +0.000 N 
BRANCH   24   22
ATOM     22  C19 UNL A   1      27.228  48.801  48.141  1.00  0.00    +0.000 C 
ATOM     23  O3  UNL A   1      27.917  49.211  47.200  1.00  0.00    +0.000 O 
BRANCH   22   20
ATOM    122  H20 UNL A   1      25.561  49.869  47.475  1.00  0.00    +0.000 H 
ATOM     20  C17 UNL A   1      25.845  49.420  48.403  1.00  0.00    +0.000 C 
BRANCH   20   19
ATOM     97  C71 UNL A   1      24.610  47.308  47.768  1.00  0.00    +0.000 C 
ATOM     98  C72 UNL A   1      23.647  46.303  47.993  1.00  0.00    +0.000 C 
ATOM     16  C13 UNL A   1      22.855  46.301  49.157  1.00  0.00    +0.000 C 
ATOM     17  C14 UNL A   1      22.975  47.420  49.999  1.00  0.00    +0.000 C 
ATOM     18  C15 UNL A   1      23.869  48.461  49.727  1.00  0.00    +0.000 C 
ATOM     19  C16 UNL A   1      24.750  48.393  48.647  1.00  0.00    +0.000 C 
ATOM    120  H18 UNL A   1      22.386  47.475  50.844  1.00  0.00    +0.000 H 
ATOM    121  H19 UNL A   1      23.877  49.294  50.336  1.00  0.00    +0.000 H 
ATOM    154  H52 UNL A   1      25.224  47.244  46.941  1.00  0.00    +0.000 H 
BRANCH   16   15
ATOM    102  C73 UNL A   1      20.650  45.096  49.078  1.00  0.00    +0.000 C 
ATOM     11  C8  UNL A   1      19.825  44.044  49.481  1.00  0.00    +0.000 C 
ATOM     12  C9  UNL A   1      20.285  43.057  50.348  1.00  0.00    +0.000 C 
ATOM     13  C10 UNL A   1      21.592  43.121  50.816  1.00  0.00    +0.000 C 
ATOM     14  C11 UNL A   1      22.418  44.184  50.438  1.00  0.00    +0.000 C 
ATOM     15  C12 UNL A   1      21.965  45.193  49.567  1.00  0.00    +0.000 C 
ATOM    117  H15 UNL A   1      19.663  42.288  50.639  1.00  0.00    +0.000 H 
ATOM    118  H16 UNL A   1      21.953  42.385  51.443  1.00  0.00    +0.000 H 
ATOM    119  H17 UNL A   1      23.382  44.230  50.805  1.00  0.00    +0.000 H 
ATOM    155  H53 UNL A   1      20.293  45.805  48.420  1.00  0.00    +0.000 H 
BRANCH   11   10
ATOM     10  O2  UNL A   1      18.455  44.016  49.165  1.00  0.00    +0.000 O 
BRANCH   10    8
ATOM      9  O1  UNL A   1      17.325  46.017  48.808  1.00  0.00    +0.000 O 
ATOM      8  C7  UNL A   1      17.646  45.081  49.528  1.00  0.00    +0.000 C 
BRANCH    8    7
ATOM    116  H14 UNL A   1      16.450  44.382  50.988  1.00  0.00    +0.000 H 
ATOM      7  N1  UNL A   1      17.203  44.993  50.820  1.00  0.00    +0.000 N 
BRANCH    7    6
ATOM    114  H12 UNL A   1      18.329  46.524  51.619  1.00  0.00    +0.000 H 
ATOM    115  H13 UNL A   1      16.900  46.057  52.547  1.00  0.00    +0.000 H 
ATOM      6  C6  UNL A   1      17.729  45.708  51.967  1.00  0.00    +0.000 C 
BRANCH    6    5
ATOM    113  H11 UNL A   1      18.993  44.055  52.223  1.00  0.00    +0.000 H 
ATOM      5  C5  UNL A   1      18.586  44.811  52.861  1.00  0.00    +0.000 C 
ATOM    112  H10 UNL A   1      17.962  44.421  53.636  1.00  0.00    +0.000 H 
BRANCH    5    4
ATOM      4  C4  UNL A   1      19.782  45.509  53.518  1.00  0.00    +0.000 C 
ATOM    110  H8  UNL A   1      19.448  45.940  54.438  1.00  0.00    +0.000 H 
ATOM    111  H9  UNL A   1      20.530  44.754  53.643  1.00  0.00    +0.000 H 
BRANCH    4    3
ATOM      3  C3  UNL A   1      20.439  46.617  52.688  1.00  0.00    +0.000 C 
ATOM    108  H6  UNL A   1      21.437  46.310  52.458  1.00  0.00    +0.000 H 
ATOM    109  H7  UNL A   1      19.819  46.747  51.827  1.00  0.00    +0.000 H 
BRANCH    3    2
ATOM      2  C2  UNL A   1      20.512  47.989  53.365  1.00  0.00    +0.000 C 
ATOM    107  H5  UNL A   1      21.250  47.923  54.136  1.00  0.00    +0.000 H 
ATOM    106  H4  UNL A   1      19.544  48.229  53.751  1.00  0.00    +0.000 H 
BRANCH    2    1
ATOM      1  C1  UNL A   1      20.945  49.102  52.422  1.00  0.00    +0.000 C 
ATOM    105  H3  UNL A   1      20.175  49.276  51.700  1.00  0.00    +0.000 H 
ATOM    103  H1  UNL A   1      21.845  48.815  51.921  1.00  0.00    +0.000 H 
ATOM    104  H2  UNL A   1      21.119  49.997  52.982  1.00  0.00    +0.000 H 
ENDBRANCH    2    1
ENDBRANCH    3    2
ENDBRANCH    4    3
ENDBRANCH    5    4
ENDBRANCH    6    5
ENDBRANCH    7    6
ENDBRANCH    8    7
ENDBRANCH   10    8
ENDBRANCH   11   10
ENDBRANCH   16   15
BRANCH   98   99
ATOM     99  N8  UNL A   1      23.465  45.312  46.956  1.00  0.00    +0.000 N 
ATOM    100  O5  UNL A   1      24.046  44.246  47.009  1.00  0.00    +0.000 O 
ATOM    101  O6  UNL A   1      22.753  45.596  45.815  1.00  0.00    +0.000 O 
ENDBRANCH   98   99
ENDBRANCH   20   19
BRANCH   20   21
ATOM    125  H23 UNL A   1      24.908  50.692  49.845  1.00  0.00    +0.000 H 
ATOM    123  H21 UNL A   1      26.050  51.511  48.806  1.00  0.00    +0.000 H 
ATOM    124  H22 UNL A   1      26.624  50.477  50.091  1.00  0.00    +0.000 H 
ATOM     21  C18 UNL A   1      25.858  50.614  49.358  1.00  0.00    +0.000 C 
ENDBRANCH   20   21
ENDBRANCH   22   20
ENDBRANCH   24   22
ENDBRANCH   25   24
ENDBRANCH   26   25
ENDBRANCH   27   26
ENDBRANCH   28   27
ENDBRANCH   29   28
ENDBRANCH   30   29
ENDBRANCH   31   30
ENDBRANCH   32   31
ENDBRANCH   34   32
ENDBRANCH   38   37
BRANCH   42   43
ATOM     43  C35 UNL A   1      19.348  38.388  50.184  1.00  0.00    +0.000 C 
ATOM     44  C36 UNL A   1      18.718  39.577  49.785  1.00  0.00    +0.000 C 
ATOM     45  F1  UNL A   1      19.178  40.263  48.728  1.00  0.00    +0.000 F 
ATOM     46  C37 UNL A   1      17.637  40.089  50.497  1.00  0.00    +0.000 C 
ATOM     47  F2  UNL A   1      17.084  41.254  50.128  1.00  0.00    +0.000 F 
ATOM     48  C38 UNL A   1      17.141  39.407  51.598  1.00  0.00    +0.000 C 
ATOM     49  F3  UNL A   1      16.098  39.899  52.279  1.00  0.00    +0.000 F 
ATOM     50  C39 UNL A   1      17.732  38.217  51.995  1.00  0.00    +0.000 C 
ATOM     51  F4  UNL A   1      17.246  37.549  53.050  1.00  0.00    +0.000 F 
ATOM     52  C40 UNL A   1      18.833  37.718  51.303  1.00  0.00    +0.000 C 
ATOM     53  F5  UNL A   1      19.393  36.573  51.724  1.00  0.00    +0.000 F 
ENDBRANCH   42   43
BRANCH   59   60
ATOM     65  C49 UNL A   1      19.156  31.273  43.948  1.00  0.00    +0.000 C 
ATOM     66  F8  UNL A   1      18.449  30.369  43.257  1.00  0.00    +0.000 F 
ATOM     67  C50 UNL A   1      19.154  32.603  43.555  1.00  0.00    +0.000 C 
ATOM     68  F9  UNL A   1      18.427  32.987  42.498  1.00  0.00    +0.000 F 
ATOM     69  C51 UNL A   1      19.907  33.540  44.258  1.00  0.00    +0.000 C 
ATOM     70  F10 UNL A   1      19.896  34.816  43.847  1.00  0.00    +0.000 F 
ATOM     60  C46 UNL A   1      20.657  33.164  45.382  1.00  0.00    +0.000 C 
ATOM     61  C47 UNL A   1      20.629  31.817  45.774  1.00  0.00    +0.000 C 
ATOM     62  F6  UNL A   1      21.344  31.407  46.833  1.00  0.00    +0.000 F 
ATOM     63  C48 UNL A   1      19.898  30.879  45.051  1.00  0.00    +0.000 C 
ATOM     64  F7  UNL A   1      19.924  29.589  45.414  1.00  0.00    +0.000 F 
ENDBRANCH   59   60
BRANCH   74   75
ATOM     75  C55 UNL A   1      27.445  34.717  45.641  1.00  0.00    +0.000 C 
ATOM     76  C56 UNL A   1      27.760  35.040  44.314  1.00  0.00    +0.000 C 
ATOM     77  F11 UNL A   1      26.951  35.847  43.612  1.00  0.00    +0.000 F 
ATOM     78  C57 UNL A   1      28.887  34.507  43.692  1.00  0.00    +0.000 C 
ATOM     79  F12 UNL A   1      29.143  34.802  42.410  1.00  0.00    +0.000 F 
ATOM     80  C58 UNL A   1      29.734  33.664  44.393  1.00  0.00    +0.000 C 
ATOM     81  F13 UNL A   1      30.822  33.157  43.797  1.00  0.00    +0.000 F 
ATOM     82  C59 UNL A   1      29.451  33.342  45.711  1.00  0.00    +0.000 C 
ATOM     83  F14 UNL A   1      30.277  32.539  46.397  1.00  0.00    +0.000 F 
ATOM     84  C60 UNL A   1      28.310  33.852  46.327  1.00  0.00    +0.000 C 
ATOM     85  F15 UNL A   1      28.056  33.519  47.600  1.00  0.00    +0.000 F 
ENDBRANCH   74   75
TORSDOF 28
ENDMDL
MODEL 10
REMARK VINA RESULT:      -5.3     47.613     54.892
ROOT
ATOM    142  H40 UNL A   1       6.538   9.210  22.658  1.00  0.00    +0.000 H 
ATOM    143  H41 UNL A   1       7.067  10.455  20.430  1.00  0.00    +0.000 H 
ATOM    144  H42 UNL A   1       9.052   6.822  20.393  1.00  0.00    +0.000 H 
ATOM    145  H43 UNL A   1      13.145   2.804  17.594  1.00  0.00    +0.000 H 
ATOM    146  H44 UNL A   1      12.578   1.568  19.740  1.00  0.00    +0.000 H 
ATOM    147  H45 UNL A   1      10.514   5.176  19.768  1.00  0.00    +0.000 H 
ATOM    148  H46 UNL A   1      11.602   7.425  15.405  1.00  0.00    +0.000 H 
ATOM    149  H47 UNL A   1      10.190   9.399  16.218  1.00  0.00    +0.000 H 
ATOM    150  H48 UNL A   1       7.801   4.354  24.573  1.00  0.00    +0.000 H 
ATOM    151  H49 UNL A   1       9.569   2.589  24.010  1.00  0.00    +0.000 H 
ATOM     38  C31 UNL A   1      10.802   2.974  21.470  1.00  0.00    +0.000 C 
ATOM     39  C32 UNL A   1       9.824   3.881  22.163  1.00  0.00    +0.000 C 
ATOM     40  N4  UNL A   1       9.332   5.028  21.766  1.00  0.00    +0.000 N 
ATOM     41  C33 UNL A   1       8.443   5.422  22.756  1.00  0.00    +0.000 C 
ATOM     42  C34 UNL A   1       7.725   6.567  22.841  1.00  0.00    +0.000 C 
ATOM     54  C41 UNL A   1       7.766   7.624  21.864  1.00  0.00    +0.000 C 
ATOM     55  C42 UNL A   1       7.130   8.852  21.893  1.00  0.00    +0.000 C 
ATOM     56  C43 UNL A   1       7.428   9.528  20.703  1.00  0.00    +0.000 C 
ATOM     57  C44 UNL A   1       8.288   8.741  19.956  1.00  0.00    +0.000 C 
ATOM     58  N5  UNL A   1       8.485   7.575  20.678  1.00  0.00    +0.000 N 
ATOM     59  C45 UNL A   1       8.887   9.029  18.678  1.00  0.00    +0.000 C 
ATOM     71  C52 UNL A   1       9.740   8.209  18.015  1.00  0.00    +0.000 C 
ATOM     72  N6  UNL A   1      10.214   6.959  18.388  1.00  0.00    +0.000 N 
ATOM     73  C53 UNL A   1      10.996   6.564  17.412  1.00  0.00    +0.000 C 
ATOM     74  C54 UNL A   1      11.798   5.298  17.292  1.00  0.00    +0.000 C 
ATOM     86  C61 UNL A   1      11.772   4.405  18.300  1.00  0.00    +0.000 C 
ATOM     87  C62 UNL A   1      12.505   3.143  18.330  1.00  0.00    +0.000 C 
ATOM     88  C63 UNL A   1      12.214   2.495  19.468  1.00  0.00    +0.000 C 
ATOM     89  C64 UNL A   1      11.298   3.313  20.264  1.00  0.00    +0.000 C 
ATOM     90  N7  UNL A   1      11.093   4.429  19.492  1.00  0.00    +0.000 N 
ATOM     91  C65 UNL A   1      11.087   7.514  16.295  1.00  0.00    +0.000 C 
ATOM     92  C66 UNL A   1      10.335   8.514  16.730  1.00  0.00    +0.000 C 
ATOM     93  C67 UNL A   1       8.423   4.368  23.749  1.00  0.00    +0.000 C 
ATOM     94  C68 UNL A   1       9.308   3.425  23.462  1.00  0.00    +0.000 C 
ENDROOT
BRANCH   38   37
ATOM     34  C27 UNL A   1      11.861  -0.753  23.304  1.00  0.00    +0.000 C 
ATOM     35  C28 UNL A   1      10.698  -0.668  22.532  1.00  0.00    +0.000 C 
ATOM     36  C29 UNL A   1      10.367   0.535  21.904  1.00  0.00    +0.000 C 
ATOM     37  C30 UNL A   1      11.176   1.671  22.073  1.00  0.00    +0.000 C 
ATOM    140  H38 UNL A   1      10.087  -1.491  22.426  1.00  0.00    +0.000 H 
ATOM    141  H39 UNL A   1       9.523   0.590  21.313  1.00  0.00    +0.000 H 
ATOM    152  H50 UNL A   1      12.950   2.396  22.966  1.00  0.00    +0.000 H 
ATOM    153  H51 UNL A   1      13.618   0.259  23.894  1.00  0.00    +0.000 H 
ATOM     95  C69 UNL A   1      12.352   1.566  22.831  1.00  0.00    +0.000 C 
ATOM     96  C70 UNL A   1      12.716   0.349  23.401  1.00  0.00    +0.000 C 
BRANCH   34   32
ATOM     33  O4  UNL A   1      12.105  -3.085  23.333  1.00  0.00    +0.000 O 
ATOM     32  C26 UNL A   1      12.186  -2.036  23.967  1.00  0.00    +0.000 C 
BRANCH   32   31
ATOM    139  H37 UNL A   1      13.332  -1.467  25.506  1.00  0.00    +0.000 H 
ATOM     31  N3  UNL A   1      12.580  -2.060  25.281  1.00  0.00    +0.000 N 
BRANCH   31   30
ATOM    137  H35 UNL A   1      12.115  -3.876  26.148  1.00  0.00    +0.000 H 
ATOM    138  H36 UNL A   1      12.623  -2.604  27.262  1.00  0.00    +0.000 H 
ATOM     30  C25 UNL A   1      12.047  -2.836  26.390  1.00  0.00    +0.000 C 
BRANCH   30   29
ATOM     29  C24 UNL A   1      10.588  -2.492  26.682  1.00  0.00    +0.000 C 
ATOM    135  H33 UNL A   1      10.211  -1.917  25.862  1.00  0.00    +0.000 H 
ATOM    136  H34 UNL A   1      10.079  -3.424  26.813  1.00  0.00    +0.000 H 
BRANCH   29   28
ATOM     28  C23 UNL A   1      10.361  -1.692  27.969  1.00  0.00    +0.000 C 
ATOM    133  H31 UNL A   1       9.749  -2.282  28.619  1.00  0.00    +0.000 H 
ATOM    134  H32 UNL A   1      11.334  -1.485  28.360  1.00  0.00    +0.000 H 
BRANCH   28   27
ATOM     27  C22 UNL A   1       9.681  -0.328  27.790  1.00  0.00    +0.000 C 
ATOM    132  H30 UNL A   1      10.068   0.301  28.565  1.00  0.00    +0.000 H 
ATOM    131  H29 UNL A   1       8.623  -0.475  27.850  1.00  0.00    +0.000 H 
BRANCH   27   26
ATOM    129  H27 UNL A   1      10.430   1.333  26.692  1.00  0.00    +0.000 H 
ATOM     26  C21 UNL A   1       9.987   0.384  26.469  1.00  0.00    +0.000 C 
ATOM    130  H28 UNL A   1      10.643  -0.255  25.916  1.00  0.00    +0.000 H 
BRANCH   26   25
ATOM     25  C20 UNL A   1       8.755   0.622  25.591  1.00  0.00    +0.000 C 
ATOM    127  H25 UNL A   1       8.698   1.663  25.349  1.00  0.00    +0.000 H 
ATOM    128  H26 UNL A   1       8.856   0.027  24.708  1.00  0.00    +0.000 H 
BRANCH   25   24
ATOM    126  H24 UNL A   1       7.491   0.488  27.210  1.00  0.00    +0.000 H 
ATOM     24  N2  UNL A   1       7.533   0.229  26.261  1.00  0.00    +0.000 N 
BRANCH   24   22
ATOM     22  C19 UNL A   1       6.432  -0.434  25.812  1.00  0.00    +0.000 C 
ATOM     23  O3  UNL A   1       5.464   0.268  25.497  1.00  0.00    +0.000 O 
BRANCH   22   20
ATOM    122  H20 UNL A   1       5.330  -2.158  25.394  1.00  0.00    +0.000 H 
ATOM     20  C17 UNL A   1       6.333  -1.965  25.712  1.00  0.00    +0.000 C 
BRANCH   20   19
ATOM     97  C71 UNL A   1       7.839  -3.782  24.807  1.00  0.00    +0.000 C 
ATOM     98  C72 UNL A   1       8.581  -4.398  23.778  1.00  0.00    +0.000 C 
ATOM     16  C13 UNL A   1       8.608  -3.860  22.478  1.00  0.00    +0.000 C 
ATOM     17  C14 UNL A   1       7.982  -2.615  22.300  1.00  0.00    +0.000 C 
ATOM     18  C15 UNL A   1       7.320  -1.962  23.345  1.00  0.00    +0.000 C 
ATOM     19  C16 UNL A   1       7.178  -2.562  24.596  1.00  0.00    +0.000 C 
ATOM    120  H18 UNL A   1       8.010  -2.169  21.370  1.00  0.00    +0.000 H 
ATOM    121  H19 UNL A   1       6.932  -1.019  23.188  1.00  0.00    +0.000 H 
ATOM    154  H52 UNL A   1       7.780  -4.237  25.731  1.00  0.00    +0.000 H 
BRANCH   16   15
ATOM    102  C73 UNL A   1       8.434  -5.412  20.507  1.00  0.00    +0.000 C 
ATOM     11  C8  UNL A   1       9.010  -6.043  19.402  1.00  0.00    +0.000 C 
ATOM     12  C9  UNL A   1      10.333  -5.806  19.044  1.00  0.00    +0.000 C 
ATOM     13  C10 UNL A   1      11.092  -4.919  19.799  1.00  0.00    +0.000 C 
ATOM     14  C11 UNL A   1      10.532  -4.301  20.922  1.00  0.00    +0.000 C 
ATOM     15  C12 UNL A   1       9.196  -4.537  21.300  1.00  0.00    +0.000 C 
ATOM    117  H15 UNL A   1      10.746  -6.282  18.227  1.00  0.00    +0.000 H 
ATOM    118  H16 UNL A   1      12.068  -4.717  19.532  1.00  0.00    +0.000 H 
ATOM    119  H17 UNL A   1      11.110  -3.657  21.484  1.00  0.00    +0.000 H 
ATOM    155  H53 UNL A   1       7.446  -5.590  20.742  1.00  0.00    +0.000 H 
BRANCH   11   10
ATOM     10  O2  UNL A   1       8.341  -7.062  18.701  1.00  0.00    +0.000 O 
BRANCH   10    8
ATOM      9  O1  UNL A   1       6.021  -6.908  18.627  1.00  0.00    +0.000 O 
ATOM      8  C7  UNL A   1       7.049  -7.410  19.063  1.00  0.00    +0.000 C 
BRANCH    8    7
ATOM    116  H14 UNL A   1       7.834  -8.573  20.506  1.00  0.00    +0.000 H 
ATOM      7  N1  UNL A   1       7.012  -8.418  19.988  1.00  0.00    +0.000 N 
BRANCH    7    6
ATOM    114  H12 UNL A   1       5.158  -9.179  19.504  1.00  0.00    +0.000 H 
ATOM    115  H13 UNL A   1       6.248 -10.288  20.342  1.00  0.00    +0.000 H 
ATOM      6  C6  UNL A   1       5.886  -9.282  20.283  1.00  0.00    +0.000 C 
BRANCH    6    5
ATOM    113  H11 UNL A   1       5.260  -9.833  22.206  1.00  0.00    +0.000 H 
ATOM      5  C5  UNL A   1       5.229  -8.938  21.620  1.00  0.00    +0.000 C 
ATOM    112  H10 UNL A   1       4.236  -8.593  21.424  1.00  0.00    +0.000 H 
BRANCH    5    4
ATOM      4  C4  UNL A   1       5.954  -7.863  22.438  1.00  0.00    +0.000 C 
ATOM    110  H8  UNL A   1       6.822  -8.310  22.874  1.00  0.00    +0.000 H 
ATOM    111  H9  UNL A   1       6.175  -7.072  21.753  1.00  0.00    +0.000 H 
BRANCH    4    3
ATOM      3  C3  UNL A   1       5.135  -7.226  23.565  1.00  0.00    +0.000 C 
ATOM    108  H6  UNL A   1       5.269  -6.166  23.513  1.00  0.00    +0.000 H 
ATOM    109  H7  UNL A   1       4.124  -7.541  23.409  1.00  0.00    +0.000 H 
BRANCH    3    2
ATOM      2  C2  UNL A   1       5.502  -7.678  24.981  1.00  0.00    +0.000 C 
ATOM    107  H5  UNL A   1       6.405  -8.248  24.908  1.00  0.00    +0.000 H 
ATOM    106  H4  UNL A   1       4.692  -8.255  25.374  1.00  0.00    +0.000 H 
BRANCH    2    1
ATOM      1  C1  UNL A   1       5.776  -6.521  25.930  1.00  0.00    +0.000 C 
ATOM    105  H3  UNL A   1       6.826  -6.317  25.948  1.00  0.00    +0.000 H 
ATOM    103  H1  UNL A   1       5.446  -6.782  26.914  1.00  0.00    +0.000 H 
ATOM    104  H2  UNL A   1       5.248  -5.653  25.596  1.00  0.00    +0.000 H 
ENDBRANCH    2    1
ENDBRANCH    3    2
ENDBRANCH    4    3
ENDBRANCH    5    4
ENDBRANCH    6    5
ENDBRANCH    7    6
ENDBRANCH    8    7
ENDBRANCH   10    8
ENDBRANCH   11   10
ENDBRANCH   16   15
BRANCH   98   99
ATOM     99  N8  UNL A   1       9.358  -5.566  24.127  1.00  0.00    +0.000 N 
ATOM    100  O5  UNL A   1      10.538  -5.468  24.397  1.00  0.00    +0.000 O 
ATOM    101  O6  UNL A   1       8.829  -6.831  24.025  1.00  0.00    +0.000 O 
ENDBRANCH   98   99
ENDBRANCH   20   19
BRANCH   20   21
ATOM    125  H23 UNL A   1       6.509  -1.977  27.843  1.00  0.00    +0.000 H 
ATOM    123  H21 UNL A   1       7.237  -3.359  27.059  1.00  0.00    +0.000 H 
ATOM    124  H22 UNL A   1       5.499  -3.250  27.203  1.00  0.00    +0.000 H 
ATOM     21  C18 UNL A   1       6.399  -2.692  27.055  1.00  0.00    +0.000 C 
ENDBRANCH   20   21
ENDBRANCH   22   20
ENDBRANCH   24   22
ENDBRANCH   25   24
ENDBRANCH   26   25
ENDBRANCH   27   26
ENDBRANCH   28   27
ENDBRANCH   29   28
ENDBRANCH   30   29
ENDBRANCH   31   30
ENDBRANCH   32   31
ENDBRANCH   34   32
ENDBRANCH   38   37
BRANCH   42   43
ATOM     43  C35 UNL A   1       6.831   6.738  24.036  1.00  0.00    +0.000 C 
ATOM     44  C36 UNL A   1       5.529   6.214  24.062  1.00  0.00    +0.000 C 
ATOM     45  F1  UNL A   1       5.037   5.576  22.990  1.00  0.00    +0.000 F 
ATOM     46  C37 UNL A   1       4.710   6.382  25.175  1.00  0.00    +0.000 C 
ATOM     47  F2  UNL A   1       3.452   5.919  25.157  1.00  0.00    +0.000 F 
ATOM     48  C38 UNL A   1       5.187   7.043  26.297  1.00  0.00    +0.000 C 
ATOM     49  F3  UNL A   1       4.400   7.200  27.370  1.00  0.00    +0.000 F 
ATOM     50  C39 UNL A   1       6.480   7.546  26.304  1.00  0.00    +0.000 C 
ATOM     51  F4  UNL A   1       6.947   8.173  27.392  1.00  0.00    +0.000 F 
ATOM     52  C40 UNL A   1       7.290   7.406  25.180  1.00  0.00    +0.000 C 
ATOM     53  F5  UNL A   1       8.530   7.920  25.212  1.00  0.00    +0.000 F 
ENDBRANCH   42   43
BRANCH   59   60
ATOM     65  C49 UNL A   1       7.958  12.837  16.885  1.00  0.00    +0.000 C 
ATOM     66  F8  UNL A   1       7.674  14.022  16.328  1.00  0.00    +0.000 F 
ATOM     67  C50 UNL A   1       9.040  12.715  17.745  1.00  0.00    +0.000 C 
ATOM     68  F9  UNL A   1       9.788  13.787  18.035  1.00  0.00    +0.000 F 
ATOM     69  C51 UNL A   1       9.349  11.479  18.306  1.00  0.00    +0.000 C 
ATOM     70  F10 UNL A   1      10.409  11.389  19.123  1.00  0.00    +0.000 F 
ATOM     60  C46 UNL A   1       8.566  10.347  18.034  1.00  0.00    +0.000 C 
ATOM     61  C47 UNL A   1       7.466  10.497  17.178  1.00  0.00    +0.000 C 
ATOM     62  F6  UNL A   1       6.697   9.440  16.875  1.00  0.00    +0.000 F 
ATOM     63  C48 UNL A   1       7.176  11.728  16.595  1.00  0.00    +0.000 C 
ATOM     64  F7  UNL A   1       6.148  11.838  15.743  1.00  0.00    +0.000 F 
ENDBRANCH   59   60
BRANCH   74   75
ATOM     75  C55 UNL A   1      12.637   5.036  16.095  1.00  0.00    +0.000 C 
ATOM     76  C56 UNL A   1      12.101   4.395  14.969  1.00  0.00    +0.000 C 
ATOM     77  F11 UNL A   1      10.825   3.984  14.978  1.00  0.00    +0.000 F 
ATOM     78  C57 UNL A   1      12.884   4.143  13.845  1.00  0.00    +0.000 C 
ATOM     79  F12 UNL A   1      12.358   3.493  12.798  1.00  0.00    +0.000 F 
ATOM     80  C58 UNL A   1      14.209   4.550  13.814  1.00  0.00    +0.000 C 
ATOM     81  F13 UNL A   1      14.960   4.314  12.730  1.00  0.00    +0.000 F 
ATOM     82  C59 UNL A   1      14.756   5.199  14.910  1.00  0.00    +0.000 C 
ATOM     83  F14 UNL A   1      16.032   5.608  14.878  1.00  0.00    +0.000 F 
ATOM     84  C60 UNL A   1      13.983   5.428  16.046  1.00  0.00    +0.000 C 
ATOM     85  F15 UNL A   1      14.539   6.051  17.095  1.00  0.00    +0.000 F 
ENDBRANCH   74   75
TORSDOF 28
ENDMDL
