MODEL 1
REMARK VINA RESULT:      -8.9      0.000      0.000
ROOT
ATOM    130  H32 UNL A   1      28.680  26.221  -7.614  1.00  0.00    +0.000 H 
ATOM    131  H33 UNL A   1      26.431  27.591  -7.789  1.00  0.00    +0.000 H 
ATOM    132  H34 UNL A   1      25.566  23.830  -6.337  1.00  0.00    +0.000 H 
ATOM    133  H35 UNL A   1      25.958  26.664 -11.067  1.00  0.00    +0.000 H 
ATOM    134  H36 UNL A   1      27.498  24.774 -10.308  1.00  0.00    +0.000 H 
ATOM    135  H37 UNL A   1      25.045  23.355 -13.340  1.00  0.00    +0.000 H 
ATOM    136  H38 UNL A   1      20.841  25.737 -10.313  1.00  0.00    +0.000 H 
ATOM    137  H39 UNL A   1      21.202  26.052  -7.782  1.00  0.00    +0.000 H 
ATOM    138  H40 UNL A   1      28.305  20.357  -7.315  1.00  0.00    +0.000 H 
ATOM    139  H41 UNL A   1      27.595  19.807  -9.725  1.00  0.00    +0.000 H 
ATOM     36  C29 UNL A   1      26.404  22.165 -11.029  1.00  0.00    +0.000 C 
ATOM     37  C30 UNL A   1      26.974  21.979  -9.681  1.00  0.00    +0.000 C 
ATOM     38  N6  UNL A   1      26.952  22.883  -8.760  1.00  0.00    +0.000 N 
ATOM     39  C31 UNL A   1      27.705  22.428  -7.706  1.00  0.00    +0.000 C 
ATOM     40  C32 UNL A   1      28.154  23.331  -6.788  1.00  0.00    +0.000 C 
ATOM     52  C39 UNL A   1      27.435  24.605  -6.908  1.00  0.00    +0.000 C 
ATOM     53  C40 UNL A   1      27.738  25.873  -7.374  1.00  0.00    +0.000 C 
ATOM     54  C41 UNL A   1      26.521  26.615  -7.466  1.00  0.00    +0.000 C 
ATOM     55  C42 UNL A   1      25.486  25.800  -7.046  1.00  0.00    +0.000 C 
ATOM     56  N7  UNL A   1      26.065  24.599  -6.695  1.00  0.00    +0.000 N 
ATOM     57  C43 UNL A   1      24.041  25.929  -6.983  1.00  0.00    +0.000 C 
ATOM     69  C50 UNL A   1      23.364  25.897  -8.165  1.00  0.00    +0.000 C 
ATOM     70  N8  UNL A   1      23.996  25.743  -9.368  1.00  0.00    +0.000 N 
ATOM     71  C51 UNL A   1      23.100  25.603 -10.305  1.00  0.00    +0.000 C 
ATOM     72  C52 UNL A   1      23.417  25.213 -11.729  1.00  0.00    +0.000 C 
ATOM     84  C59 UNL A   1      24.743  25.056 -12.004  1.00  0.00    +0.000 C 
ATOM     85  C60 UNL A   1      25.837  25.659 -11.270  1.00  0.00    +0.000 C 
ATOM     86  C61 UNL A   1      26.662  24.670 -10.905  1.00  0.00    +0.000 C 
ATOM     87  C62 UNL A   1      26.184  23.420 -11.491  1.00  0.00    +0.000 C 
ATOM     88  N9  UNL A   1      25.268  23.819 -12.500  1.00  0.00    +0.000 N 
ATOM     89  C63 UNL A   1      21.734  25.755  -9.796  1.00  0.00    +0.000 C 
ATOM     90  C64 UNL A   1      21.950  25.922  -8.480  1.00  0.00    +0.000 C 
ATOM     91  C65 UNL A   1      27.909  21.030  -7.989  1.00  0.00    +0.000 C 
ATOM     92  C66 UNL A   1      27.523  20.708  -9.228  1.00  0.00    +0.000 C 
ENDROOT
BRANCH   36   35
ATOM     33  C26 UNL A   1      26.916  19.434 -13.509  1.00  0.00    +0.000 C 
ATOM     34  C27 UNL A   1      26.892  20.737 -13.026  1.00  0.00    +0.000 C 
ATOM    129  H31 UNL A   1      27.420  21.485 -13.502  1.00  0.00    +0.000 H 
ATOM     35  C28 UNL A   1      26.138  21.013 -11.885  1.00  0.00    +0.000 C 
ATOM    140  H42 UNL A   1      24.533  20.360 -10.666  1.00  0.00    +0.000 H 
ATOM    141  H43 UNL A   1      24.419  18.144 -11.675  1.00  0.00    +0.000 H 
ATOM    128  H30 UNL A   1      27.484  19.187 -14.334  1.00  0.00    +0.000 H 
ATOM     93  C67 UNL A   1      25.195  20.089 -11.409  1.00  0.00    +0.000 C 
ATOM     94  C68 UNL A   1      25.157  18.814 -11.942  1.00  0.00    +0.000 C 
ATOM     32  C25 UNL A   1      26.153  18.467 -12.850  1.00  0.00    +0.000 C 
BRANCH   32   30
ATOM     30  C24 UNL A   1      26.730  17.104 -12.766  1.00  0.00    +0.000 C 
ATOM     31  O2  UNL A   1      26.094  16.143 -13.131  1.00  0.00    +0.000 O 
BRANCH   30   29
ATOM     29  N5  UNL A   1      28.054  17.016 -12.331  1.00  0.00    +0.000 N 
ATOM    127  H29 UNL A   1      28.193  17.041 -11.357  1.00  0.00    +0.000 H 
BRANCH   29   28
ATOM     28  C23 UNL A   1      29.268  16.889 -13.154  1.00  0.00    +0.000 C 
ATOM    125  H27 UNL A   1      28.966  16.811 -14.178  1.00  0.00    +0.000 H 
ATOM    126  H28 UNL A   1      29.858  17.757 -12.945  1.00  0.00    +0.000 H 
BRANCH   28   27
ATOM     27  C22 UNL A   1      30.155  15.687 -12.831  1.00  0.00    +0.000 C 
ATOM    124  H26 UNL A   1      29.872  14.949 -13.551  1.00  0.00    +0.000 H 
ATOM    123  H25 UNL A   1      29.980  15.432 -11.806  1.00  0.00    +0.000 H 
BRANCH   27   26
ATOM    121  H23 UNL A   1      32.129  15.078 -12.412  1.00  0.00    +0.000 H 
ATOM     26  C21 UNL A   1      31.666  15.834 -13.011  1.00  0.00    +0.000 C 
ATOM    122  H24 UNL A   1      31.813  15.754 -14.067  1.00  0.00    +0.000 H 
BRANCH   26   25
ATOM     25  C20 UNL A   1      32.322  17.174 -12.639  1.00  0.00    +0.000 C 
ATOM    119  H21 UNL A   1      31.619  17.676 -12.007  1.00  0.00    +0.000 H 
ATOM    120  H22 UNL A   1      33.263  16.841 -12.254  1.00  0.00    +0.000 H 
BRANCH   25   24
ATOM    117  H19 UNL A   1      33.505  18.838 -13.180  1.00  0.00    +0.000 H 
ATOM    118  H20 UNL A   1      33.088  17.610 -14.496  1.00  0.00    +0.000 H 
ATOM     24  C19 UNL A   1      32.781  18.226 -13.678  1.00  0.00    +0.000 C 
BRANCH   24   23
ATOM    115  H17 UNL A   1      31.708  18.881 -15.377  1.00  0.00    +0.000 H 
ATOM    116  H18 UNL A   1      30.907  19.125 -13.778  1.00  0.00    +0.000 H 
ATOM     23  C18 UNL A   1      31.805  19.187 -14.356  1.00  0.00    +0.000 C 
BRANCH   23   22
ATOM    114  H16 UNL A   1      31.990  21.104 -13.526  1.00  0.00    +0.000 H 
ATOM     22  N4  UNL A   1      32.156  20.600 -14.355  1.00  0.00    +0.000 N 
BRANCH   22   20
ATOM     20  C17 UNL A   1      32.699  21.292 -15.415  1.00  0.00    +0.000 C 
ATOM     21  O1  UNL A   1      32.570  20.748 -16.523  1.00  0.00    +0.000 O 
BRANCH   20   19
ATOM    110  H12 UNL A   1      32.211  25.479 -13.747  1.00  0.00    +0.000 H 
ATOM    111  H13 UNL A   1      32.408  24.552 -15.856  1.00  0.00    +0.000 H 
ATOM    112  H14 UNL A   1      31.353  23.464 -15.147  1.00  0.00    +0.000 H 
ATOM     17  C15 UNL A   1      32.536  24.462 -13.818  1.00  0.00    +0.000 C 
ATOM     18  N3  UNL A   1      32.299  23.845 -15.129  1.00  0.00    +0.000 N 
ATOM     19  C16 UNL A   1      33.265  22.744 -15.367  1.00  0.00    +0.000 C 
ATOM    142  H44 UNL A   1      35.392  22.821 -15.004  1.00  0.00    +0.000 H 
ATOM    143  H45 UNL A   1      34.526  22.019 -13.751  1.00  0.00    +0.000 H 
ATOM    113  H15 UNL A   1      33.567  22.917 -16.379  1.00  0.00    +0.000 H 
ATOM     95  C69 UNL A   1      34.485  22.842 -14.435  1.00  0.00    +0.000 C 
ATOM     96  S1  UNL A   1      34.318  24.422 -13.571  1.00  0.00    +0.000 S 
BRANCH   17   16
ATOM      6  C6  UNL A   1      30.313  23.683 -12.613  1.00  0.00    +0.000 C 
ATOM      7  N1  UNL A   1      29.990  22.909 -11.550  1.00  0.00    +0.000 N 
ATOM      8  N2  UNL A   1      31.152  22.299 -11.202  1.00  0.00    +0.000 N 
ATOM    109  H11 UNL A   1      33.217  22.654 -11.631  1.00  0.00    +0.000 H 
ATOM     15  C13 UNL A   1      32.225  22.851 -11.833  1.00  0.00    +0.000 C 
ATOM     16  C14 UNL A   1      31.746  23.721 -12.790  1.00  0.00    +0.000 C 
BRANCH    6    5
ATOM     97  C70 UNL A   1      28.536  23.579 -14.388  1.00  0.00    +0.000 C 
ATOM      2  C2  UNL A   1      27.230  25.548 -15.020  1.00  0.00    +0.000 C 
ATOM      3  C3  UNL A   1      27.996  26.305 -14.139  1.00  0.00    +0.000 C 
ATOM      4  C4  UNL A   1      29.000  25.696 -13.379  1.00  0.00    +0.000 C 
ATOM     98  C71 UNL A   1      27.520  24.184 -15.153  1.00  0.00    +0.000 C 
ATOM    102  H4  UNL A   1      27.825  27.319 -14.048  1.00  0.00    +0.000 H 
ATOM      5  C5  UNL A   1      29.275  24.320 -13.461  1.00  0.00    +0.000 C 
ATOM    103  H5  UNL A   1      29.557  26.278 -12.733  1.00  0.00    +0.000 H 
ATOM    144  H46 UNL A   1      28.737  22.574 -14.512  1.00  0.00    +0.000 H 
ATOM    145  H47 UNL A   1      26.982  23.615 -15.824  1.00  0.00    +0.000 H 
BRANCH    2    1
ATOM      1  C1  UNL A   1      26.129  26.213 -15.792  1.00  0.00    +0.000 C 
ATOM     99  H1  UNL A   1      25.568  26.848 -15.139  1.00  0.00    +0.000 H 
ATOM    100  H2  UNL A   1      25.484  25.468 -16.208  1.00  0.00    +0.000 H 
ATOM    101  H3  UNL A   1      26.552  26.799 -16.582  1.00  0.00    +0.000 H 
ENDBRANCH    2    1
ENDBRANCH    6    5
BRANCH    8    9
ATOM    104  H6  UNL A   1      29.937  20.044 -11.808  1.00  0.00    +0.000 H 
ATOM      9  C7  UNL A   1      31.206  21.090 -10.468  1.00  0.00    +0.000 C 
ATOM     10  C8  UNL A   1      30.460  19.984 -10.920  1.00  0.00    +0.000 C 
ATOM     11  C9  UNL A   1      30.425  18.810 -10.170  1.00  0.00    +0.000 C 
ATOM    108  H10 UNL A   1      32.517  21.804  -8.973  1.00  0.00    +0.000 H 
ATOM     13  C11 UNL A   1      32.005  19.779  -8.616  1.00  0.00    +0.000 C 
ATOM     14  C12 UNL A   1      31.976  20.993  -9.312  1.00  0.00    +0.000 C 
ATOM    105  H7  UNL A   1      29.822  18.024 -10.461  1.00  0.00    +0.000 H 
ATOM    107  H9  UNL A   1      32.617  19.678  -7.793  1.00  0.00    +0.000 H 
ATOM     12  C10 UNL A   1      31.211  18.703  -9.027  1.00  0.00    +0.000 C 
ATOM    106  H8  UNL A   1      31.208  17.827  -8.480  1.00  0.00    +0.000 H 
ENDBRANCH    8    9
ENDBRANCH   17   16
ENDBRANCH   20   19
ENDBRANCH   22   20
ENDBRANCH   23   22
ENDBRANCH   24   23
ENDBRANCH   25   24
ENDBRANCH   26   25
ENDBRANCH   27   26
ENDBRANCH   28   27
ENDBRANCH   29   28
ENDBRANCH   30   29
ENDBRANCH   32   30
ENDBRANCH   36   35
BRANCH   40   41
ATOM     41  C33 UNL A   1      29.350  23.143  -5.867  1.00  0.00    +0.000 C 
ATOM     42  C34 UNL A   1      30.659  23.134  -6.402  1.00  0.00    +0.000 C 
ATOM     43  F1  UNL A   1      30.890  23.414  -7.693  1.00  0.00    +0.000 F 
ATOM     44  C35 UNL A   1      31.789  22.812  -5.640  1.00  0.00    +0.000 C 
ATOM     45  F2  UNL A   1      32.994  22.763  -6.227  1.00  0.00    +0.000 F 
ATOM     46  C36 UNL A   1      31.673  22.524  -4.298  1.00  0.00    +0.000 C 
ATOM     47  F3  UNL A   1      32.749  22.202  -3.568  1.00  0.00    +0.000 F 
ATOM     48  C37 UNL A   1      30.427  22.561  -3.719  1.00  0.00    +0.000 C 
ATOM     49  F4  UNL A   1      30.285  22.291  -2.413  1.00  0.00    +0.000 F 
ATOM     50  C38 UNL A   1      29.295  22.850  -4.487  1.00  0.00    +0.000 C 
ATOM     51  F5  UNL A   1      28.152  22.784  -3.806  1.00  0.00    +0.000 F 
ENDBRANCH   40   41
BRANCH   57   58
ATOM     65  C48 UNL A   1      22.372  25.036  -3.672  1.00  0.00    +0.000 C 
ATOM     66  F9  UNL A   1      21.956  23.930  -3.039  1.00  0.00    +0.000 F 
ATOM     67  C49 UNL A   1      22.865  24.945  -4.973  1.00  0.00    +0.000 C 
ATOM     68  F10 UNL A   1      22.834  23.737  -5.555  1.00  0.00    +0.000 F 
ATOM     58  C44 UNL A   1      23.358  26.070  -5.660  1.00  0.00    +0.000 C 
ATOM     59  C45 UNL A   1      23.287  27.300  -4.988  1.00  0.00    +0.000 C 
ATOM     60  F6  UNL A   1      23.747  28.420  -5.567  1.00  0.00    +0.000 F 
ATOM     61  C46 UNL A   1      22.752  27.396  -3.703  1.00  0.00    +0.000 C 
ATOM     62  F7  UNL A   1      22.672  28.592  -3.102  1.00  0.00    +0.000 F 
ATOM     63  C47 UNL A   1      22.312  26.263  -3.039  1.00  0.00    +0.000 C 
ATOM     64  F8  UNL A   1      21.828  26.354  -1.793  1.00  0.00    +0.000 F 
ENDBRANCH   57   58
BRANCH   72   73
ATOM     73  C53 UNL A   1      22.549  24.390 -12.605  1.00  0.00    +0.000 C 
ATOM     74  C54 UNL A   1      22.251  24.874 -13.893  1.00  0.00    +0.000 C 
ATOM     75  F11 UNL A   1      22.433  26.173 -14.180  1.00  0.00    +0.000 F 
ATOM     76  C55 UNL A   1      21.879  24.011 -14.919  1.00  0.00    +0.000 C 
ATOM     77  F12 UNL A   1      21.707  24.484 -16.161  1.00  0.00    +0.000 F 
ATOM     78  C56 UNL A   1      21.761  22.654 -14.669  1.00  0.00    +0.000 C 
ATOM     79  F13 UNL A   1      21.492  21.808 -15.672  1.00  0.00    +0.000 F 
ATOM     80  C57 UNL A   1      21.960  22.170 -13.384  1.00  0.00    +0.000 C 
ATOM     81  F14 UNL A   1      21.869  20.854 -13.148  1.00  0.00    +0.000 F 
ATOM     82  C58 UNL A   1      22.345  23.030 -12.356  1.00  0.00    +0.000 C 
ATOM     83  F15 UNL A   1      22.630  22.511 -11.152  1.00  0.00    +0.000 F 
ENDBRANCH   72   73
TORSDOF 19
ENDMDL
MODEL 2
REMARK VINA RESULT:      -8.7      2.369      4.902
ROOT
ATOM    130  H32 UNL A   1      28.774  26.289  -7.721  1.00  0.00    +0.000 H 
ATOM    131  H33 UNL A   1      26.697  27.916  -7.705  1.00  0.00    +0.000 H 
ATOM    132  H34 UNL A   1      25.438  24.172  -6.525  1.00  0.00    +0.000 H 
ATOM    133  H35 UNL A   1      26.030  27.324 -11.027  1.00  0.00    +0.000 H 
ATOM    134  H36 UNL A   1      27.358  25.214 -10.476  1.00  0.00    +0.000 H 
ATOM    135  H37 UNL A   1      24.676  24.340 -13.519  1.00  0.00    +0.000 H 
ATOM    136  H38 UNL A   1      20.863  26.928 -10.162  1.00  0.00    +0.000 H 
ATOM    137  H39 UNL A   1      21.326  26.989  -7.629  1.00  0.00    +0.000 H 
ATOM    138  H40 UNL A   1      27.726  20.501  -7.873  1.00  0.00    +0.000 H 
ATOM    139  H41 UNL A   1      26.891  20.237 -10.292  1.00  0.00    +0.000 H 
ATOM     36  C29 UNL A   1      25.949  22.816 -11.360  1.00  0.00    +0.000 C 
ATOM     37  C30 UNL A   1      26.529  22.455 -10.053  1.00  0.00    +0.000 C 
ATOM     38  N6  UNL A   1      26.638  23.276  -9.063  1.00  0.00    +0.000 N 
ATOM     39  C31 UNL A   1      27.360  22.653  -8.076  1.00  0.00    +0.000 C 
ATOM     40  C32 UNL A   1      27.937  23.419  -7.107  1.00  0.00    +0.000 C 
ATOM     52  C39 UNL A   1      27.368  24.772  -7.100  1.00  0.00    +0.000 C 
ATOM     53  C40 UNL A   1      27.805  26.032  -7.476  1.00  0.00    +0.000 C 
ATOM     54  C41 UNL A   1      26.681  26.913  -7.464  1.00  0.00    +0.000 C 
ATOM     55  C42 UNL A   1      25.569  26.190  -7.073  1.00  0.00    +0.000 C 
ATOM     56  N7  UNL A   1      26.014  24.905  -6.839  1.00  0.00    +0.000 N 
ATOM     57  C43 UNL A   1      24.151  26.477  -6.946  1.00  0.00    +0.000 C 
ATOM     69  C50 UNL A   1      23.444  26.620  -8.102  1.00  0.00    +0.000 C 
ATOM     70  N8  UNL A   1      24.020  26.496  -9.336  1.00  0.00    +0.000 N 
ATOM     71  C51 UNL A   1      23.089  26.537 -10.247  1.00  0.00    +0.000 C 
ATOM     72  C52 UNL A   1      23.320  26.232 -11.708  1.00  0.00    +0.000 C 
ATOM     84  C59 UNL A   1      24.611  25.948 -12.043  1.00  0.00    +0.000 C 
ATOM     85  C60 UNL A   1      25.787  26.359 -11.304  1.00  0.00    +0.000 C 
ATOM     86  C61 UNL A   1      26.501  25.255 -11.049  1.00  0.00    +0.000 C 
ATOM     87  C62 UNL A   1      25.864  24.121 -11.714  1.00  0.00    +0.000 C 
ATOM     88  N9  UNL A   1      24.974  24.704 -12.654  1.00  0.00    +0.000 N 
ATOM     89  C63 UNL A   1      21.765  26.801  -9.679  1.00  0.00    +0.000 C 
ATOM     90  C64 UNL A   1      22.034  26.833  -8.363  1.00  0.00    +0.000 C 
ATOM     91  C65 UNL A   1      27.392  21.268  -8.477  1.00  0.00    +0.000 C 
ATOM     92  C66 UNL A   1      26.938  21.097  -9.722  1.00  0.00    +0.000 C 
ENDROOT
BRANCH   36   35
ATOM     33  C26 UNL A   1      23.816  20.820 -13.670  1.00  0.00    +0.000 C 
ATOM     34  C27 UNL A   1      24.187  21.436 -12.481  1.00  0.00    +0.000 C 
ATOM    129  H31 UNL A   1      23.486  21.636 -11.751  1.00  0.00    +0.000 H 
ATOM     35  C28 UNL A   1      25.527  21.777 -12.295  1.00  0.00    +0.000 C 
ATOM    140  H42 UNL A   1      27.519  21.379 -12.899  1.00  0.00    +0.000 H 
ATOM    141  H43 UNL A   1      26.867  20.095 -14.865  1.00  0.00    +0.000 H 
ATOM    128  H30 UNL A   1      22.830  20.578 -13.855  1.00  0.00    +0.000 H 
ATOM     93  C67 UNL A   1      26.523  21.253 -13.135  1.00  0.00    +0.000 C 
ATOM     94  C68 UNL A   1      26.161  20.567 -14.279  1.00  0.00    +0.000 C 
ATOM     32  C25 UNL A   1      24.809  20.536 -14.611  1.00  0.00    +0.000 C 
BRANCH   32   30
ATOM     30  C24 UNL A   1      24.439  20.678 -16.039  1.00  0.00    +0.000 C 
ATOM     31  O2  UNL A   1      24.737  19.823 -16.840  1.00  0.00    +0.000 O 
BRANCH   30   29
ATOM     29  N5  UNL A   1      23.665  21.791 -16.372  1.00  0.00    +0.000 N 
ATOM    127  H29 UNL A   1      22.698  21.713 -16.206  1.00  0.00    +0.000 H 
BRANCH   29   28
ATOM     28  C23 UNL A   1      24.121  23.070 -16.943  1.00  0.00    +0.000 C 
ATOM    125  H27 UNL A   1      24.712  22.853 -17.808  1.00  0.00    +0.000 H 
ATOM    126  H28 UNL A   1      23.235  23.630 -17.157  1.00  0.00    +0.000 H 
BRANCH   28   27
ATOM     27  C22 UNL A   1      24.956  23.942 -16.007  1.00  0.00    +0.000 C 
ATOM    124  H26 UNL A   1      24.683  23.614 -15.026  1.00  0.00    +0.000 H 
ATOM    123  H25 UNL A   1      24.728  24.963 -16.238  1.00  0.00    +0.000 H 
BRANCH   27   26
ATOM    121  H23 UNL A   1      26.885  24.783 -16.130  1.00  0.00    +0.000 H 
ATOM     26  C21 UNL A   1      26.477  23.797 -16.047  1.00  0.00    +0.000 C 
ATOM    122  H24 UNL A   1      26.713  23.264 -15.150  1.00  0.00    +0.000 H 
BRANCH   26   25
ATOM     25  C20 UNL A   1      27.103  22.950 -17.166  1.00  0.00    +0.000 C 
ATOM    119  H21 UNL A   1      26.314  22.330 -17.537  1.00  0.00    +0.000 H 
ATOM    120  H22 UNL A   1      27.535  23.712 -17.782  1.00  0.00    +0.000 H 
BRANCH   25   24
ATOM    117  H19 UNL A   1      29.107  22.411 -17.564  1.00  0.00    +0.000 H 
ATOM    118  H20 UNL A   1      28.418  22.011 -15.896  1.00  0.00    +0.000 H 
ATOM     24  C19 UNL A   1      28.317  22.012 -16.961  1.00  0.00    +0.000 C 
BRANCH   24   23
ATOM    115  H17 UNL A   1      27.225  20.241 -17.335  1.00  0.00    +0.000 H 
ATOM    116  H18 UNL A   1      28.812  20.400 -18.180  1.00  0.00    +0.000 H 
ATOM     23  C18 UNL A   1      28.257  20.516 -17.273  1.00  0.00    +0.000 C 
BRANCH   23   22
ATOM    114  H16 UNL A   1      29.654  19.967 -15.808  1.00  0.00    +0.000 H 
ATOM     22  N4  UNL A   1      28.894  19.614 -16.325  1.00  0.00    +0.000 N 
BRANCH   22   20
ATOM     20  C17 UNL A   1      28.526  18.308 -16.089  1.00  0.00    +0.000 C 
ATOM     21  O1  UNL A   1      27.378  18.009 -16.453  1.00  0.00    +0.000 O 
BRANCH   20   19
ATOM    110  H12 UNL A   1      30.108  15.974 -12.540  1.00  0.00    +0.000 H 
ATOM    111  H13 UNL A   1      31.045  17.174 -14.281  1.00  0.00    +0.000 H 
ATOM    112  H14 UNL A   1      29.788  18.193 -13.855  1.00  0.00    +0.000 H 
ATOM     17  C15 UNL A   1      29.477  16.238 -13.362  1.00  0.00    +0.000 C 
ATOM     18  N3  UNL A   1      30.032  17.279 -14.236  1.00  0.00    +0.000 N 
ATOM     19  C16 UNL A   1      29.467  17.164 -15.604  1.00  0.00    +0.000 C 
ATOM    142  H44 UNL A   1      29.252  15.340 -16.738  1.00  0.00    +0.000 H 
ATOM    143  H45 UNL A   1      27.785  15.843 -15.991  1.00  0.00    +0.000 H 
ATOM    113  H15 UNL A   1      30.333  17.288 -16.221  1.00  0.00    +0.000 H 
ATOM     95  C69 UNL A   1      28.844  15.779 -15.851  1.00  0.00    +0.000 C 
ATOM     96  S1  UNL A   1      29.269  14.784 -14.401  1.00  0.00    +0.000 S 
BRANCH   17   16
ATOM      6  C6  UNL A   1      28.057  17.815 -11.782  1.00  0.00    +0.000 C 
ATOM      7  N1  UNL A   1      26.752  17.964 -11.455  1.00  0.00    +0.000 N 
ATOM      8  N2  UNL A   1      26.084  17.179 -12.341  1.00  0.00    +0.000 N 
ATOM    109  H11 UNL A   1      26.648  15.585 -13.652  1.00  0.00    +0.000 H 
ATOM     15  C13 UNL A   1      26.926  16.360 -13.029  1.00  0.00    +0.000 C 
ATOM     16  C14 UNL A   1      28.218  16.751 -12.745  1.00  0.00    +0.000 C 
BRANCH    6    5
ATOM     97  C70 UNL A   1      29.591  18.532  -9.923  1.00  0.00    +0.000 C 
ATOM      2  C2  UNL A   1      31.182  20.368 -10.202  1.00  0.00    +0.000 C 
ATOM      3  C3  UNL A   1      30.671  20.582 -11.479  1.00  0.00    +0.000 C 
ATOM      4  C4  UNL A   1      29.651  19.762 -11.973  1.00  0.00    +0.000 C 
ATOM     98  C71 UNL A   1      30.621  19.351  -9.421  1.00  0.00    +0.000 C 
ATOM    102  H4  UNL A   1      31.044  21.347 -12.062  1.00  0.00    +0.000 H 
ATOM      5  C5  UNL A   1      29.108  18.704 -11.224  1.00  0.00    +0.000 C 
ATOM    103  H5  UNL A   1      29.285  19.940 -12.922  1.00  0.00    +0.000 H 
ATOM    144  H46 UNL A   1      29.188  17.795  -9.324  1.00  0.00    +0.000 H 
ATOM    145  H47 UNL A   1      30.968  19.199  -8.461  1.00  0.00    +0.000 H 
BRANCH    2    1
ATOM      1  C1  UNL A   1      32.307  21.231  -9.710  1.00  0.00    +0.000 C 
ATOM     99  H1  UNL A   1      33.114  21.201 -10.412  1.00  0.00    +0.000 H 
ATOM    100  H2  UNL A   1      32.645  20.870  -8.761  1.00  0.00    +0.000 H 
ATOM    101  H3  UNL A   1      31.963  22.239  -9.605  1.00  0.00    +0.000 H 
ENDBRANCH    2    1
ENDBRANCH    6    5
BRANCH    8    9
ATOM    104  H6  UNL A   1      24.153  17.883 -10.697  1.00  0.00    +0.000 H 
ATOM      9  C7  UNL A   1      24.722  17.369 -12.675  1.00  0.00    +0.000 C 
ATOM     10  C8  UNL A   1      23.812  17.711 -11.655  1.00  0.00    +0.000 C 
ATOM     11  C9  UNL A   1      22.452  17.817 -11.939  1.00  0.00    +0.000 C 
ATOM    108  H10 UNL A   1      24.944  16.951 -14.733  1.00  0.00    +0.000 H 
ATOM     13  C11 UNL A   1      22.927  17.408 -14.275  1.00  0.00    +0.000 C 
ATOM     14  C12 UNL A   1      24.282  17.210 -13.986  1.00  0.00    +0.000 C 
ATOM    105  H7  UNL A   1      21.774  17.997 -11.180  1.00  0.00    +0.000 H 
ATOM    107  H9  UNL A   1      22.600  17.351 -15.251  1.00  0.00    +0.000 H 
ATOM     12  C10 UNL A   1      22.012  17.681 -13.252  1.00  0.00    +0.000 C 
ATOM    106  H8  UNL A   1      21.009  17.783 -13.473  1.00  0.00    +0.000 H 
ENDBRANCH    8    9
ENDBRANCH   17   16
ENDBRANCH   20   19
ENDBRANCH   22   20
ENDBRANCH   23   22
ENDBRANCH   24   23
ENDBRANCH   25   24
ENDBRANCH   26   25
ENDBRANCH   27   26
ENDBRANCH   28   27
ENDBRANCH   29   28
ENDBRANCH   30   29
ENDBRANCH   32   30
ENDBRANCH   36   35
BRANCH   40   41
ATOM     41  C33 UNL A   1      29.127  23.021  -6.248  1.00  0.00    +0.000 C 
ATOM     42  C34 UNL A   1      28.960  22.831  -4.856  1.00  0.00    +0.000 C 
ATOM     43  F1  UNL A   1      27.748  22.870  -4.284  1.00  0.00    +0.000 F 
ATOM     44  C35 UNL A   1      30.035  22.618  -3.984  1.00  0.00    +0.000 C 
ATOM     45  F2  UNL A   1      29.811  22.508  -2.667  1.00  0.00    +0.000 F 
ATOM     46  C36 UNL A   1      31.325  22.543  -4.464  1.00  0.00    +0.000 C 
ATOM     47  F3  UNL A   1      32.357  22.353  -3.633  1.00  0.00    +0.000 F 
ATOM     48  C37 UNL A   1      31.537  22.677  -5.816  1.00  0.00    +0.000 C 
ATOM     49  F4  UNL A   1      32.780  22.602  -6.311  1.00  0.00    +0.000 F 
ATOM     50  C38 UNL A   1      30.466  22.923  -6.681  1.00  0.00    +0.000 C 
ATOM     51  F5  UNL A   1      30.831  23.097  -7.951  1.00  0.00    +0.000 F 
ENDBRANCH   40   41
BRANCH   57   58
ATOM     65  C48 UNL A   1      22.551  25.504  -3.625  1.00  0.00    +0.000 C 
ATOM     66  F9  UNL A   1      22.093  24.391  -3.034  1.00  0.00    +0.000 F 
ATOM     67  C49 UNL A   1      22.991  25.455  -4.946  1.00  0.00    +0.000 C 
ATOM     68  F10 UNL A   1      22.867  24.284  -5.589  1.00  0.00    +0.000 F 
ATOM     58  C44 UNL A   1      23.525  26.586  -5.593  1.00  0.00    +0.000 C 
ATOM     59  C45 UNL A   1      23.551  27.780  -4.856  1.00  0.00    +0.000 C 
ATOM     60  F6  UNL A   1      24.056  28.901  -5.393  1.00  0.00    +0.000 F 
ATOM     61  C46 UNL A   1      23.069  27.837  -3.548  1.00  0.00    +0.000 C 
ATOM     62  F7  UNL A   1      23.082  29.000  -2.883  1.00  0.00    +0.000 F 
ATOM     63  C47 UNL A   1      22.587  26.696  -2.927  1.00  0.00    +0.000 C 
ATOM     64  F8  UNL A   1      22.154  26.747  -1.660  1.00  0.00    +0.000 F 
ENDBRANCH   57   58
BRANCH   72   73
ATOM     73  C53 UNL A   1      22.339  25.589 -12.614  1.00  0.00    +0.000 C 
ATOM     74  C54 UNL A   1      22.157  26.137 -13.899  1.00  0.00    +0.000 C 
ATOM     75  F11 UNL A   1      22.572  27.388 -14.159  1.00  0.00    +0.000 F 
ATOM     76  C55 UNL A   1      21.660  25.369 -14.947  1.00  0.00    +0.000 C 
ATOM     77  F12 UNL A   1      21.600  25.884 -16.183  1.00  0.00    +0.000 F 
ATOM     78  C56 UNL A   1      21.299  24.051 -14.724  1.00  0.00    +0.000 C 
ATOM     79  F13 UNL A   1      20.906  23.280 -15.747  1.00  0.00    +0.000 F 
ATOM     80  C57 UNL A   1      21.383  23.520 -13.445  1.00  0.00    +0.000 C 
ATOM     81  F14 UNL A   1      21.056  22.237 -13.234  1.00  0.00    +0.000 F 
ATOM     82  C58 UNL A   1      21.893  24.283 -12.394  1.00  0.00    +0.000 C 
ATOM     83  F15 UNL A   1      22.057  23.704 -11.196  1.00  0.00    +0.000 F 
ENDBRANCH   72   73
TORSDOF 19
ENDMDL
MODEL 3
REMARK VINA RESULT:      -8.6     13.475     20.014
ROOT
ATOM    130  H32 UNL A   1       7.243  28.091   4.609  1.00  0.00    +0.000 H 
ATOM    131  H33 UNL A   1       7.099  30.654   3.998  1.00  0.00    +0.000 H 
ATOM    132  H34 UNL A   1       6.205  28.452   0.629  1.00  0.00    +0.000 H 
ATOM    133  H35 UNL A   1      10.455  30.812   3.261  1.00  0.00    +0.000 H 
ATOM    134  H36 UNL A   1      10.069  28.305   2.960  1.00  0.00    +0.000 H 
ATOM    135  H37 UNL A   1      13.165  29.485   0.460  1.00  0.00    +0.000 H 
ATOM    136  H38 UNL A   1       9.611  33.676  -1.062  1.00  0.00    +0.000 H 
ATOM    137  H39 UNL A   1       7.082  33.280  -0.778  1.00  0.00    +0.000 H 
ATOM    138  H40 UNL A   1       7.834  24.247   0.194  1.00  0.00    +0.000 H 
ATOM    139  H41 UNL A   1      10.264  24.710  -0.512  1.00  0.00    +0.000 H 
ATOM     36  C29 UNL A   1      11.131  27.372   0.407  1.00  0.00    +0.000 C 
ATOM     37  C30 UNL A   1       9.857  26.649   0.575  1.00  0.00    +0.000 C 
ATOM     38  N6  UNL A   1       8.807  27.160   1.126  1.00  0.00    +0.000 N 
ATOM     39  C31 UNL A   1       7.872  26.163   1.257  1.00  0.00    +0.000 C 
ATOM     40  C32 UNL A   1       6.849  26.341   2.140  1.00  0.00    +0.000 C 
ATOM     52  C39 UNL A   1       6.738  27.750   2.538  1.00  0.00    +0.000 C 
ATOM     53  C40 UNL A   1       7.017  28.481   3.681  1.00  0.00    +0.000 C 
ATOM     54  C41 UNL A   1       6.935  29.868   3.350  1.00  0.00    +0.000 C 
ATOM     55  C42 UNL A   1       6.598  29.975   2.013  1.00  0.00    +0.000 C 
ATOM     56  N7  UNL A   1       6.464  28.683   1.551  1.00  0.00    +0.000 N 
ATOM     57  C43 UNL A   1       6.447  31.076   1.079  1.00  0.00    +0.000 C 
ATOM     69  C50 UNL A   1       7.586  31.700   0.669  1.00  0.00    +0.000 C 
ATOM     70  N8  UNL A   1       8.827  31.318   1.098  1.00  0.00    +0.000 N 
ATOM     71  C51 UNL A   1       9.731  31.987   0.438  1.00  0.00    +0.000 C 
ATOM     72  C52 UNL A   1      11.212  31.694   0.496  1.00  0.00    +0.000 C 
ATOM     84  C59 UNL A   1      11.570  30.688   1.342  1.00  0.00    +0.000 C 
ATOM     85  C60 UNL A   1      10.804  30.229   2.484  1.00  0.00    +0.000 C 
ATOM     86  C61 UNL A   1      10.636  28.908   2.342  1.00  0.00    +0.000 C 
ATOM     87  C62 UNL A   1      11.384  28.463   1.169  1.00  0.00    +0.000 C 
ATOM     88  N9  UNL A   1      12.275  29.530   0.880  1.00  0.00    +0.000 N 
ATOM     89  C63 UNL A   1       9.141  32.985  -0.458  1.00  0.00    +0.000 C 
ATOM     90  C64 UNL A   1       7.827  32.761  -0.289  1.00  0.00    +0.000 C 
ATOM     91  C65 UNL A   1       8.377  25.090   0.438  1.00  0.00    +0.000 C 
ATOM     92  C66 UNL A   1       9.631  25.315   0.034  1.00  0.00    +0.000 C 
ENDROOT
BRANCH   36   35
ATOM     33  C26 UNL A   1      13.709  25.185  -1.158  1.00  0.00    +0.000 C 
ATOM     34  C27 UNL A   1      13.109  25.947  -0.162  1.00  0.00    +0.000 C 
ATOM    129  H31 UNL A   1      13.375  25.822   0.827  1.00  0.00    +0.000 H 
ATOM     35  C28 UNL A   1      12.141  26.883  -0.527  1.00  0.00    +0.000 C 
ATOM    140  H42 UNL A   1      11.383  28.067  -2.112  1.00  0.00    +0.000 H 
ATOM    141  H43 UNL A   1      12.619  26.877  -3.844  1.00  0.00    +0.000 H 
ATOM    128  H30 UNL A   1      14.408  24.465  -0.923  1.00  0.00    +0.000 H 
ATOM     93  C67 UNL A   1      11.985  27.266  -1.869  1.00  0.00    +0.000 C 
ATOM     94  C68 UNL A   1      12.644  26.564  -2.861  1.00  0.00    +0.000 C 
ATOM     32  C25 UNL A   1      13.340  25.419  -2.486  1.00  0.00    +0.000 C 
BRANCH   32   30
ATOM     30  C24 UNL A   1      13.274  24.238  -3.379  1.00  0.00    +0.000 C 
ATOM     31  O2  UNL A   1      12.208  23.751  -3.677  1.00  0.00    +0.000 O 
BRANCH   30   29
ATOM     29  N5  UNL A   1      14.485  23.791  -3.910  1.00  0.00    +0.000 N 
ATOM    127  H29 UNL A   1      14.866  24.334  -4.637  1.00  0.00    +0.000 H 
BRANCH   29   28
ATOM     28  C23 UNL A   1      15.263  22.605  -3.514  1.00  0.00    +0.000 C 
ATOM    125  H27 UNL A   1      15.133  22.462  -2.462  1.00  0.00    +0.000 H 
ATOM    126  H28 UNL A   1      14.890  21.797  -4.107  1.00  0.00    +0.000 H 
BRANCH   28   27
ATOM     27  C22 UNL A   1      16.762  22.681  -3.799  1.00  0.00    +0.000 C 
ATOM    124  H26 UNL A   1      16.937  23.714  -4.016  1.00  0.00    +0.000 H 
ATOM    123  H25 UNL A   1      16.968  21.994  -4.594  1.00  0.00    +0.000 H 
BRANCH   27   26
ATOM    121  H23 UNL A   1      17.142  22.091  -1.811  1.00  0.00    +0.000 H 
ATOM     26  C21 UNL A   1      17.732  22.363  -2.661  1.00  0.00    +0.000 C 
ATOM    122  H24 UNL A   1      18.363  21.598  -3.061  1.00  0.00    +0.000 H 
BRANCH   26   25
ATOM     25  C20 UNL A   1      18.709  23.458  -2.203  1.00  0.00    +0.000 C 
ATOM    119  H21 UNL A   1      19.615  22.949  -1.945  1.00  0.00    +0.000 H 
ATOM    120  H22 UNL A   1      18.677  24.124  -3.040  1.00  0.00    +0.000 H 
BRANCH   25   24
ATOM    117  H19 UNL A   1      17.419  24.773  -1.170  1.00  0.00    +0.000 H 
ATOM    118  H20 UNL A   1      18.668  23.836  -0.184  1.00  0.00    +0.000 H 
ATOM     24  C19 UNL A   1      18.425  24.434  -1.036  1.00  0.00    +0.000 C 
BRANCH   24   23
ATOM    115  H17 UNL A   1      19.355  26.203  -1.725  1.00  0.00    +0.000 H 
ATOM    116  H18 UNL A   1      18.751  26.223  -0.024  1.00  0.00    +0.000 H 
ATOM     23  C18 UNL A   1      19.268  25.686  -0.792  1.00  0.00    +0.000 C 
BRANCH   23   22
ATOM    114  H16 UNL A   1      21.221  24.924  -0.801  1.00  0.00    +0.000 H 
ATOM     22  N4  UNL A   1      20.614  25.491  -0.273  1.00  0.00    +0.000 N 
BRANCH   22   20
ATOM     20  C17 UNL A   1      21.109  26.030   0.893  1.00  0.00    +0.000 C 
ATOM     21  O1  UNL A   1      20.680  25.517   1.938  1.00  0.00    +0.000 O 
BRANCH   20   19
ATOM    110  H12 UNL A   1      23.396  29.372  -1.145  1.00  0.00    +0.000 H 
ATOM    111  H13 UNL A   1      23.945  27.350  -0.167  1.00  0.00    +0.000 H 
ATOM    112  H14 UNL A   1      22.578  26.908  -1.024  1.00  0.00    +0.000 H 
ATOM     17  C15 UNL A   1      22.654  28.889  -0.545  1.00  0.00    +0.000 C 
ATOM     18  N3  UNL A   1      22.937  27.478  -0.258  1.00  0.00    +0.000 N 
ATOM     19  C16 UNL A   1      22.275  27.060   1.002  1.00  0.00    +0.000 C 
ATOM    142  H44 UNL A   1      22.269  28.164   2.858  1.00  0.00    +0.000 H 
ATOM    143  H45 UNL A   1      20.815  28.357   1.958  1.00  0.00    +0.000 H 
ATOM    113  H15 UNL A   1      23.044  26.500   1.493  1.00  0.00    +0.000 H 
ATOM     95  C69 UNL A   1      21.878  28.269   1.867  1.00  0.00    +0.000 C 
ATOM     96  S1  UNL A   1      22.601  29.714   1.054  1.00  0.00    +0.000 S 
BRANCH   17   16
ATOM      6  C6  UNL A   1      21.102  28.415  -2.634  1.00  0.00    +0.000 C 
ATOM      7  N1  UNL A   1      19.842  28.731  -3.016  1.00  0.00    +0.000 N 
ATOM      8  N2  UNL A   1      19.274  29.277  -1.910  1.00  0.00    +0.000 N 
ATOM    109  H11 UNL A   1      20.032  30.082  -0.078  1.00  0.00    +0.000 H 
ATOM     15  C13 UNL A   1      20.196  29.546  -0.945  1.00  0.00    +0.000 C 
ATOM     16  C14 UNL A   1      21.389  28.974  -1.334  1.00  0.00    +0.000 C 
BRANCH    6    5
ATOM     97  C70 UNL A   1      22.862  28.112  -4.403  1.00  0.00    +0.000 C 
ATOM      2  C2  UNL A   1      23.715  25.901  -5.006  1.00  0.00    +0.000 C 
ATOM      3  C3  UNL A   1      22.803  25.336  -4.119  1.00  0.00    +0.000 C 
ATOM      4  C4  UNL A   1      21.953  26.156  -3.370  1.00  0.00    +0.000 C 
ATOM     98  C71 UNL A   1      23.724  27.293  -5.158  1.00  0.00    +0.000 C 
ATOM    102  H4  UNL A   1      22.753  24.311  -4.015  1.00  0.00    +0.000 H 
ATOM      5  C5  UNL A   1      21.980  27.558  -3.470  1.00  0.00    +0.000 C 
ATOM    103  H5  UNL A   1      21.283  25.716  -2.720  1.00  0.00    +0.000 H 
ATOM    144  H46 UNL A   1      22.882  29.135  -4.540  1.00  0.00    +0.000 H 
ATOM    145  H47 UNL A   1      24.373  27.725  -5.834  1.00  0.00    +0.000 H 
BRANCH    2    1
ATOM      1  C1  UNL A   1      24.648  25.005  -5.766  1.00  0.00    +0.000 C 
ATOM     99  H1  UNL A   1      25.579  24.932  -5.244  1.00  0.00    +0.000 H 
ATOM    100  H2  UNL A   1      24.816  25.410  -6.742  1.00  0.00    +0.000 H 
ATOM    101  H3  UNL A   1      24.213  24.031  -5.855  1.00  0.00    +0.000 H 
ENDBRANCH    2    1
ENDBRANCH    6    5
BRANCH    8    9
ATOM    104  H6  UNL A   1      17.472  27.672  -2.959  1.00  0.00    +0.000 H 
ATOM      9  C7  UNL A   1      17.876  29.329  -1.699  1.00  0.00    +0.000 C 
ATOM     10  C8  UNL A   1      17.049  28.410  -2.374  1.00  0.00    +0.000 C 
ATOM     11  C9  UNL A   1      15.664  28.494  -2.253  1.00  0.00    +0.000 C 
ATOM    108  H10 UNL A   1      17.921  30.961  -0.357  1.00  0.00    +0.000 H 
ATOM     13  C11 UNL A   1      15.932  30.297  -0.664  1.00  0.00    +0.000 C 
ATOM     14  C12 UNL A   1      17.319  30.280  -0.847  1.00  0.00    +0.000 C 
ATOM    105  H7  UNL A   1      15.054  27.868  -2.804  1.00  0.00    +0.000 H 
ATOM    107  H9  UNL A   1      15.514  30.957   0.010  1.00  0.00    +0.000 H 
ATOM     12  C10 UNL A   1      15.106  29.428  -1.385  1.00  0.00    +0.000 C 
ATOM    106  H8  UNL A   1      14.082  29.480  -1.273  1.00  0.00    +0.000 H 
ENDBRANCH    8    9
ENDBRANCH   17   16
ENDBRANCH   20   19
ENDBRANCH   22   20
ENDBRANCH   23   22
ENDBRANCH   24   23
ENDBRANCH   25   24
ENDBRANCH   26   25
ENDBRANCH   27   26
ENDBRANCH   28   27
ENDBRANCH   29   28
ENDBRANCH   30   29
ENDBRANCH   32   30
ENDBRANCH   36   35
BRANCH   40   41
ATOM     41  C33 UNL A   1       6.025  25.235   2.782  1.00  0.00    +0.000 C 
ATOM     42  C34 UNL A   1       4.685  25.030   2.380  1.00  0.00    +0.000 C 
ATOM     43  F1  UNL A   1       4.151  25.704   1.352  1.00  0.00    +0.000 F 
ATOM     44  C35 UNL A   1       3.824  24.139   3.034  1.00  0.00    +0.000 C 
ATOM     45  F2  UNL A   1       2.547  24.039   2.638  1.00  0.00    +0.000 F 
ATOM     46  C36 UNL A   1       4.270  23.381   4.094  1.00  0.00    +0.000 C 
ATOM     47  F3  UNL A   1       3.447  22.538   4.730  1.00  0.00    +0.000 F 
ATOM     48  C37 UNL A   1       5.578  23.511   4.496  1.00  0.00    +0.000 C 
ATOM     49  F4  UNL A   1       6.041  22.780   5.521  1.00  0.00    +0.000 F 
ATOM     50  C38 UNL A   1       6.428  24.425   3.865  1.00  0.00    +0.000 C 
ATOM     51  F5  UNL A   1       7.644  24.489   4.405  1.00  0.00    +0.000 F 
ENDBRANCH   40   41
BRANCH   57   58
ATOM     65  C48 UNL A   1       3.243  33.077   0.561  1.00  0.00    +0.000 C 
ATOM     66  F9  UNL A   1       2.679  34.190   1.053  1.00  0.00    +0.000 F 
ATOM     67  C49 UNL A   1       4.433  32.604   1.109  1.00  0.00    +0.000 C 
ATOM     68  F10 UNL A   1       4.925  33.267   2.167  1.00  0.00    +0.000 F 
ATOM     58  C44 UNL A   1       5.088  31.469   0.595  1.00  0.00    +0.000 C 
ATOM     59  C45 UNL A   1       4.458  30.807  -0.470  1.00  0.00    +0.000 C 
ATOM     60  F6  UNL A   1       5.022  29.724  -1.028  1.00  0.00    +0.000 F 
ATOM     61  C46 UNL A   1       3.243  31.257  -0.989  1.00  0.00    +0.000 C 
ATOM     62  F7  UNL A   1       2.655  30.583  -1.987  1.00  0.00    +0.000 F 
ATOM     63  C47 UNL A   1       2.646  32.401  -0.486  1.00  0.00    +0.000 C 
ATOM     64  F8  UNL A   1       1.495  32.848  -1.007  1.00  0.00    +0.000 F 
ENDBRANCH   57   58
BRANCH   72   73
ATOM     73  C53 UNL A   1      12.162  31.862  -0.630  1.00  0.00    +0.000 C 
ATOM     74  C54 UNL A   1      11.922  31.144  -1.818  1.00  0.00    +0.000 C 
ATOM     75  F11 UNL A   1      11.095  30.086  -1.806  1.00  0.00    +0.000 F 
ATOM     76  C55 UNL A   1      12.434  31.576  -3.037  1.00  0.00    +0.000 C 
ATOM     77  F12 UNL A   1      12.101  30.936  -4.167  1.00  0.00    +0.000 F 
ATOM     78  C56 UNL A   1      13.226  32.711  -3.088  1.00  0.00    +0.000 C 
ATOM     79  F13 UNL A   1      13.647  33.183  -4.269  1.00  0.00    +0.000 F 
ATOM     80  C57 UNL A   1      13.551  33.379  -1.916  1.00  0.00    +0.000 C 
ATOM     81  F14 UNL A   1      14.297  34.491  -1.969  1.00  0.00    +0.000 F 
ATOM     82  C58 UNL A   1      13.028  32.956  -0.693  1.00  0.00    +0.000 C 
ATOM     83  F15 UNL A   1      13.278  33.688   0.403  1.00  0.00    +0.000 F 
ENDBRANCH   72   73
TORSDOF 19
ENDMDL
MODEL 4
REMARK VINA RESULT:      -8.2      2.321      4.423
ROOT
ATOM    130  H32 UNL A   1      28.749  26.313  -7.509  1.00  0.00    +0.000 H 
ATOM    131  H33 UNL A   1      26.691  27.965  -7.557  1.00  0.00    +0.000 H 
ATOM    132  H34 UNL A   1      25.346  24.227  -6.452  1.00  0.00    +0.000 H 
ATOM    133  H35 UNL A   1      26.139  27.405 -10.905  1.00  0.00    +0.000 H 
ATOM    134  H36 UNL A   1      27.421  25.275 -10.322  1.00  0.00    +0.000 H 
ATOM    135  H37 UNL A   1      24.841  24.456 -13.468  1.00  0.00    +0.000 H 
ATOM    136  H38 UNL A   1      20.939  27.065 -10.231  1.00  0.00    +0.000 H 
ATOM    137  H39 UNL A   1      21.311  27.102  -7.683  1.00  0.00    +0.000 H 
ATOM    138  H40 UNL A   1      27.638  20.539  -7.744  1.00  0.00    +0.000 H 
ATOM    139  H41 UNL A   1      26.888  20.303 -10.194  1.00  0.00    +0.000 H 
ATOM     36  C29 UNL A   1      26.017  22.901 -11.276  1.00  0.00    +0.000 C 
ATOM     37  C30 UNL A   1      26.544  22.523  -9.951  1.00  0.00    +0.000 C 
ATOM     38  N6  UNL A   1      26.627  23.336  -8.952  1.00  0.00    +0.000 N 
ATOM     39  C31 UNL A   1      27.306  22.697  -7.944  1.00  0.00    +0.000 C 
ATOM     40  C32 UNL A   1      27.856  23.449  -6.949  1.00  0.00    +0.000 C 
ATOM     52  C39 UNL A   1      27.303  24.809  -6.952  1.00  0.00    +0.000 C 
ATOM     53  C40 UNL A   1      27.768  26.066  -7.302  1.00  0.00    +0.000 C 
ATOM     54  C41 UNL A   1      26.655  26.960  -7.324  1.00  0.00    +0.000 C 
ATOM     55  C42 UNL A   1      25.521  26.247  -6.979  1.00  0.00    +0.000 C 
ATOM     56  N7  UNL A   1      25.942  24.956  -6.739  1.00  0.00    +0.000 N 
ATOM     57  C43 UNL A   1      24.103  26.551  -6.902  1.00  0.00    +0.000 C 
ATOM     69  C50 UNL A   1      23.440  26.711  -8.081  1.00  0.00    +0.000 C 
ATOM     70  N8  UNL A   1      24.060  26.589  -9.294  1.00  0.00    +0.000 N 
ATOM     71  C51 UNL A   1      23.163  26.648 -10.239  1.00  0.00    +0.000 C 
ATOM     72  C52 UNL A   1      23.443  26.351 -11.693  1.00  0.00    +0.000 C 
ATOM     84  C59 UNL A   1      24.742  26.053 -11.982  1.00  0.00    +0.000 C 
ATOM     85  C60 UNL A   1      25.895  26.445 -11.198  1.00  0.00    +0.000 C 
ATOM     86  C61 UNL A   1      26.585  25.331 -10.926  1.00  0.00    +0.000 C 
ATOM     87  C62 UNL A   1      25.960  24.209 -11.622  1.00  0.00    +0.000 C 
ATOM     88  N9  UNL A   1      25.112  24.810 -12.590  1.00  0.00    +0.000 N 
ATOM     89  C63 UNL A   1      21.822  26.924  -9.716  1.00  0.00    +0.000 C 
ATOM     90  C64 UNL A   1      22.043  26.943  -8.391  1.00  0.00    +0.000 C 
ATOM     91  C65 UNL A   1      27.336  21.315  -8.354  1.00  0.00    +0.000 C 
ATOM     92  C66 UNL A   1      26.925  21.158  -9.616  1.00  0.00    +0.000 C 
ENDROOT
BRANCH   36   35
ATOM     33  C26 UNL A   1      26.231  20.129 -13.754  1.00  0.00    +0.000 C 
ATOM     34  C27 UNL A   1      26.481  21.384 -13.212  1.00  0.00    +0.000 C 
ATOM    129  H31 UNL A   1      27.289  21.942 -13.529  1.00  0.00    +0.000 H 
ATOM     35  C28 UNL A   1      25.616  21.873 -12.233  1.00  0.00    +0.000 C 
ATOM    140  H42 UNL A   1      23.673  21.724 -11.402  1.00  0.00    +0.000 H 
ATOM    141  H43 UNL A   1      23.142  19.634 -12.539  1.00  0.00    +0.000 H 
ATOM    128  H30 UNL A   1      26.864  19.723 -14.461  1.00  0.00    +0.000 H 
ATOM     93  C67 UNL A   1      24.370  21.267 -12.010  1.00  0.00    +0.000 C 
ATOM     94  C68 UNL A   1      24.081  20.057 -12.612  1.00  0.00    +0.000 C 
ATOM     32  C25 UNL A   1      25.102  19.430 -13.319  1.00  0.00    +0.000 C 
BRANCH   32   30
ATOM     30  C24 UNL A   1      25.232  17.958 -13.199  1.00  0.00    +0.000 C 
ATOM     31  O2  UNL A   1      24.503  17.222 -13.822  1.00  0.00    +0.000 O 
BRANCH   30   29
ATOM     29  N5  UNL A   1      26.283  17.490 -12.407  1.00  0.00    +0.000 N 
ATOM    127  H29 UNL A   1      26.250  17.735 -11.454  1.00  0.00    +0.000 H 
BRANCH   29   28
ATOM     28  C23 UNL A   1      27.436  16.675 -12.825  1.00  0.00    +0.000 C 
ATOM    125  H27 UNL A   1      27.435  15.779 -12.241  1.00  0.00    +0.000 H 
ATOM    126  H28 UNL A   1      27.311  16.505 -13.875  1.00  0.00    +0.000 H 
BRANCH   28   27
ATOM     27  C22 UNL A   1      28.801  17.342 -12.666  1.00  0.00    +0.000 C 
ATOM    124  H26 UNL A   1      28.843  18.052 -13.464  1.00  0.00    +0.000 H 
ATOM    123  H25 UNL A   1      29.538  16.566 -12.690  1.00  0.00    +0.000 H 
BRANCH   27   26
ATOM    121  H23 UNL A   1      28.103  18.473 -11.028  1.00  0.00    +0.000 H 
ATOM     26  C21 UNL A   1      29.058  18.172 -11.407  1.00  0.00    +0.000 C 
ATOM    122  H24 UNL A   1      29.632  17.524 -10.779  1.00  0.00    +0.000 H 
BRANCH   26   25
ATOM     25  C20 UNL A   1      29.919  19.439 -11.528  1.00  0.00    +0.000 C 
ATOM    119  H21 UNL A   1      30.698  19.197 -12.221  1.00  0.00    +0.000 H 
ATOM    120  H22 UNL A   1      29.176  20.169 -11.776  1.00  0.00    +0.000 H 
BRANCH   25   24
ATOM    117  H19 UNL A   1      30.009  19.919  -9.473  1.00  0.00    +0.000 H 
ATOM    118  H20 UNL A   1      31.603  19.713 -10.383  1.00  0.00    +0.000 H 
ATOM     24  C19 UNL A   1      30.618  20.124 -10.329  1.00  0.00    +0.000 C 
BRANCH   24   23
ATOM    115  H17 UNL A   1      30.045  22.127 -10.689  1.00  0.00    +0.000 H 
ATOM    116  H18 UNL A   1      31.129  21.843  -9.274  1.00  0.00    +0.000 H 
ATOM     23  C18 UNL A   1      30.906  21.626 -10.297  1.00  0.00    +0.000 C 
BRANCH   23   22
ATOM    114  H16 UNL A   1      32.114  21.854 -11.995  1.00  0.00    +0.000 H 
ATOM     22  N4  UNL A   1      32.064  22.096 -11.043  1.00  0.00    +0.000 N 
BRANCH   22   20
ATOM     20  C17 UNL A   1      33.094  22.852 -10.530  1.00  0.00    +0.000 C 
ATOM     21  O1  UNL A   1      32.832  23.464  -9.483  1.00  0.00    +0.000 O 
BRANCH   20   19
ATOM    110  H12 UNL A   1      36.002  24.182 -13.743  1.00  0.00    +0.000 H 
ATOM    111  H13 UNL A   1      35.409  22.164 -12.782  1.00  0.00    +0.000 H 
ATOM    112  H14 UNL A   1      33.900  22.863 -12.969  1.00  0.00    +0.000 H 
ATOM     17  C15 UNL A   1      35.430  24.207 -12.840  1.00  0.00    +0.000 C 
ATOM     18  N3  UNL A   1      34.800  22.928 -12.491  1.00  0.00    +0.000 N 
ATOM     19  C16 UNL A   1      34.572  22.842 -11.028  1.00  0.00    +0.000 C 
ATOM    142  H44 UNL A   1      35.996  23.363  -9.490  1.00  0.00    +0.000 H 
ATOM    143  H45 UNL A   1      34.830  24.597  -9.771  1.00  0.00    +0.000 H 
ATOM    113  H15 UNL A   1      34.895  21.847 -10.802  1.00  0.00    +0.000 H 
ATOM     95  C69 UNL A   1      35.433  23.857 -10.255  1.00  0.00    +0.000 C 
ATOM     96  S1  UNL A   1      36.542  24.593 -11.479  1.00  0.00    +0.000 S 
BRANCH   17   16
ATOM      6  C6  UNL A   1      34.499  26.590 -13.516  1.00  0.00    +0.000 C 
ATOM      7  N1  UNL A   1      33.286  27.187 -13.593  1.00  0.00    +0.000 N 
ATOM      8  N2  UNL A   1      32.393  26.176 -13.428  1.00  0.00    +0.000 N 
ATOM    109  H11 UNL A   1      32.516  24.177 -12.676  1.00  0.00    +0.000 H 
ATOM     15  C13 UNL A   1      32.995  25.032 -13.000  1.00  0.00    +0.000 C 
ATOM     16  C14 UNL A   1      34.359  25.220 -13.078  1.00  0.00    +0.000 C 
BRANCH    6    5
ATOM     97  C70 UNL A   1      36.349  27.082 -15.145  1.00  0.00    +0.000 C 
ATOM      2  C2  UNL A   1      38.090  28.729 -14.657  1.00  0.00    +0.000 C 
ATOM      3  C3  UNL A   1      37.527  28.911 -13.398  1.00  0.00    +0.000 C 
ATOM      4  C4  UNL A   1      36.377  28.204 -13.034  1.00  0.00    +0.000 C 
ATOM     98  C71 UNL A   1      37.505  27.794 -15.521  1.00  0.00    +0.000 C 
ATOM    102  H4  UNL A   1      37.960  29.569 -12.731  1.00  0.00    +0.000 H 
ATOM      5  C5  UNL A   1      35.744  27.298 -13.903  1.00  0.00    +0.000 C 
ATOM    103  H5  UNL A   1      35.977  28.353 -12.094  1.00  0.00    +0.000 H 
ATOM    144  H46 UNL A   1      35.943  26.392 -15.796  1.00  0.00    +0.000 H 
ATOM    145  H47 UNL A   1      37.928  27.624 -16.446  1.00  0.00    +0.000 H 
BRANCH    2    1
ATOM      1  C1  UNL A   1      39.297  29.531 -15.043  1.00  0.00    +0.000 C 
ATOM     99  H1  UNL A   1      39.457  30.306 -14.322  1.00  0.00    +0.000 H 
ATOM    100  H2  UNL A   1      39.143  29.967 -16.008  1.00  0.00    +0.000 H 
ATOM    101  H3  UNL A   1      40.155  28.892 -15.075  1.00  0.00    +0.000 H 
ENDBRANCH    2    1
ENDBRANCH    6    5
BRANCH    8    9
ATOM    104  H6  UNL A   1      31.516  27.468 -15.547  1.00  0.00    +0.000 H 
ATOM      9  C7  UNL A   1      31.054  26.240 -13.879  1.00  0.00    +0.000 C 
ATOM     10  C8  UNL A   1      30.754  27.013 -15.018  1.00  0.00    +0.000 C 
ATOM     11  C9  UNL A   1      29.433  27.165 -15.433  1.00  0.00    +0.000 C 
ATOM    108  H10 UNL A   1      30.257  25.001 -12.366  1.00  0.00    +0.000 H 
ATOM     13  C11 UNL A   1      28.730  25.649 -13.685  1.00  0.00    +0.000 C 
ATOM     14  C12 UNL A   1      30.043  25.561 -13.205  1.00  0.00    +0.000 C 
ATOM    105  H7  UNL A   1      29.204  27.789 -16.224  1.00  0.00    +0.000 H 
ATOM    107  H9  UNL A   1      27.984  25.102 -13.230  1.00  0.00    +0.000 H 
ATOM     12  C10 UNL A   1      28.423  26.469 -14.775  1.00  0.00    +0.000 C 
ATOM    106  H8  UNL A   1      27.445  26.559 -15.092  1.00  0.00    +0.000 H 
ENDBRANCH    8    9
ENDBRANCH   17   16
ENDBRANCH   20   19
ENDBRANCH   22   20
ENDBRANCH   23   22
ENDBRANCH   24   23
ENDBRANCH   25   24
ENDBRANCH   26   25
ENDBRANCH   27   26
ENDBRANCH   28   27
ENDBRANCH   29   28
ENDBRANCH   30   29
ENDBRANCH   32   30
ENDBRANCH   36   35
BRANCH   40   41
ATOM     41  C33 UNL A   1      29.009  23.030  -6.050  1.00  0.00    +0.000 C 
ATOM     42  C34 UNL A   1      28.757  22.647  -4.712  1.00  0.00    +0.000 C 
ATOM     43  F1  UNL A   1      27.508  22.521  -4.243  1.00  0.00    +0.000 F 
ATOM     44  C35 UNL A   1      29.780  22.401  -3.787  1.00  0.00    +0.000 C 
ATOM     45  F2  UNL A   1      29.470  22.102  -2.518  1.00  0.00    +0.000 F 
ATOM     46  C36 UNL A   1      31.103  22.485  -4.163  1.00  0.00    +0.000 C 
ATOM     47  F3  UNL A   1      32.084  22.265  -3.279  1.00  0.00    +0.000 F 
ATOM     48  C37 UNL A   1      31.401  22.811  -5.465  1.00  0.00    +0.000 C 
ATOM     49  F4  UNL A   1      32.679  22.893  -5.861  1.00  0.00    +0.000 F 
ATOM     50  C38 UNL A   1      30.380  23.089  -6.379  1.00  0.00    +0.000 C 
ATOM     51  F5  UNL A   1      30.821  23.454  -7.583  1.00  0.00    +0.000 F 
ENDBRANCH   40   41
BRANCH   57   58
ATOM     65  C48 UNL A   1      22.550  28.043  -3.755  1.00  0.00    +0.000 C 
ATOM     66  F9  UNL A   1      22.428  29.252  -3.188  1.00  0.00    +0.000 F 
ATOM     67  C49 UNL A   1      23.311  27.896  -4.913  1.00  0.00    +0.000 C 
ATOM     68  F10 UNL A   1      23.947  28.986  -5.369  1.00  0.00    +0.000 F 
ATOM     58  C44 UNL A   1      23.430  26.657  -5.571  1.00  0.00    +0.000 C 
ATOM     59  C45 UNL A   1      22.780  25.564  -4.978  1.00  0.00    +0.000 C 
ATOM     60  F6  UNL A   1      22.831  24.350  -5.548  1.00  0.00    +0.000 F 
ATOM     61  C46 UNL A   1      22.055  25.705  -3.794  1.00  0.00    +0.000 C 
ATOM     62  F7  UNL A   1      21.471  24.633  -3.239  1.00  0.00    +0.000 F 
ATOM     63  C47 UNL A   1      21.925  26.946  -3.194  1.00  0.00    +0.000 C 
ATOM     64  F8  UNL A   1      21.202  27.084  -2.074  1.00  0.00    +0.000 F 
ENDBRANCH   57   58
BRANCH   72   73
ATOM     73  C53 UNL A   1      22.488  25.726 -12.638  1.00  0.00    +0.000 C 
ATOM     74  C54 UNL A   1      21.866  24.521 -12.260  1.00  0.00    +0.000 C 
ATOM     75  F11 UNL A   1      22.384  23.783 -11.265  1.00  0.00    +0.000 F 
ATOM     76  C55 UNL A   1      20.653  24.129 -12.818  1.00  0.00    +0.000 C 
ATOM     77  F12 UNL A   1      20.030  23.033 -12.362  1.00  0.00    +0.000 F 
ATOM     78  C56 UNL A   1      20.057  24.913 -13.791  1.00  0.00    +0.000 C 
ATOM     79  F13 UNL A   1      18.847  24.589 -14.267  1.00  0.00    +0.000 F 
ATOM     80  C57 UNL A   1      20.699  26.057 -14.244  1.00  0.00    +0.000 C 
ATOM     81  F14 UNL A   1      20.111  26.828 -15.169  1.00  0.00    +0.000 F 
ATOM     82  C58 UNL A   1      21.909  26.459 -13.678  1.00  0.00    +0.000 C 
ATOM     83  F15 UNL A   1      22.448  27.625 -14.067  1.00  0.00    +0.000 F 
ENDBRANCH   72   73
TORSDOF 19
ENDMDL
MODEL 5
REMARK VINA RESULT:      -8.1     17.256     23.615
ROOT
ATOM    130  H32 UNL A   1       6.572  32.703   0.762  1.00  0.00    +0.000 H 
ATOM    131  H33 UNL A   1       8.330  34.345  -0.323  1.00  0.00    +0.000 H 
ATOM    132  H34 UNL A   1       8.052  30.976  -2.684  1.00  0.00    +0.000 H 
ATOM    133  H35 UNL A   1      10.903  33.065   1.566  1.00  0.00    +0.000 H 
ATOM    134  H36 UNL A   1       9.285  31.092   1.658  1.00  0.00    +0.000 H 
ATOM    135  H37 UNL A   1      13.162  29.647   1.969  1.00  0.00    +0.000 H 
ATOM    136  H38 UNL A   1      14.190  32.992  -2.533  1.00  0.00    +0.000 H 
ATOM    137  H39 UNL A   1      12.213  33.588  -4.073  1.00  0.00    +0.000 H 
ATOM    138  H40 UNL A   1       6.743  27.046  -0.850  1.00  0.00    +0.000 H 
ATOM    139  H41 UNL A   1       8.901  26.286   0.326  1.00  0.00    +0.000 H 
ATOM     36  C29 UNL A   1      10.620  28.595   0.951  1.00  0.00    +0.000 C 
ATOM     37  C30 UNL A   1       9.295  28.511   0.310  1.00  0.00    +0.000 C 
ATOM     38  N6  UNL A   1       8.675  29.524  -0.196  1.00  0.00    +0.000 N 
ATOM     39  C31 UNL A   1       7.416  29.112  -0.556  1.00  0.00    +0.000 C 
ATOM     40  C32 UNL A   1       6.452  30.055  -0.750  1.00  0.00    +0.000 C 
ATOM     52  C39 UNL A   1       7.043  31.391  -0.887  1.00  0.00    +0.000 C 
ATOM     53  C40 UNL A   1       7.113  32.529  -0.100  1.00  0.00    +0.000 C 
ATOM     54  C41 UNL A   1       8.062  33.419  -0.689  1.00  0.00    +0.000 C 
ATOM     55  C42 UNL A   1       8.557  32.824  -1.836  1.00  0.00    +0.000 C 
ATOM     56  N7  UNL A   1       7.912  31.610  -1.945  1.00  0.00    +0.000 N 
ATOM     57  C43 UNL A   1       9.580  33.167  -2.808  1.00  0.00    +0.000 C 
ATOM     69  C50 UNL A   1      10.876  33.074  -2.401  1.00  0.00    +0.000 C 
ATOM     70  N8  UNL A   1      11.223  32.672  -1.141  1.00  0.00    +0.000 N 
ATOM     71  C51 UNL A   1      12.518  32.537  -1.077  1.00  0.00    +0.000 C 
ATOM     72  C52 UNL A   1      13.250  31.918   0.090  1.00  0.00    +0.000 C 
ATOM     84  C59 UNL A   1      12.458  31.537   1.132  1.00  0.00    +0.000 C 
ATOM     85  C60 UNL A   1      11.146  32.070   1.437  1.00  0.00    +0.000 C 
ATOM     86  C61 UNL A   1      10.306  31.030   1.522  1.00  0.00    +0.000 C 
ATOM     87  C62 UNL A   1      11.075  29.795   1.388  1.00  0.00    +0.000 C 
ATOM     88  N9  UNL A   1      12.425  30.182   1.596  1.00  0.00    +0.000 N 
ATOM     89  C63 UNL A   1      13.182  32.951  -2.317  1.00  0.00    +0.000 C 
ATOM     90  C64 UNL A   1      12.134  33.260  -3.098  1.00  0.00    +0.000 C 
ATOM     91  C65 UNL A   1       7.479  27.673  -0.489  1.00  0.00    +0.000 C 
ATOM     92  C66 UNL A   1       8.604  27.247   0.094  1.00  0.00    +0.000 C 
ENDROOT
BRANCH   36   35
ATOM     33  C26 UNL A   1      11.696  25.291   2.293  1.00  0.00    +0.000 C 
ATOM     34  C27 UNL A   1      11.305  26.624   2.335  1.00  0.00    +0.000 C 
ATOM    129  H31 UNL A   1      10.944  27.040   3.207  1.00  0.00    +0.000 H 
ATOM     35  C28 UNL A   1      11.413  27.389   1.173  1.00  0.00    +0.000 C 
ATOM    140  H42 UNL A   1      12.372  27.561  -0.709  1.00  0.00    +0.000 H 
ATOM    141  H43 UNL A   1      13.258  25.291  -0.677  1.00  0.00    +0.000 H 
ATOM    128  H30 UNL A   1      11.605  24.688   3.125  1.00  0.00    +0.000 H 
ATOM     93  C67 UNL A   1      12.165  26.930   0.080  1.00  0.00    +0.000 C 
ATOM     94  C68 UNL A   1      12.628  25.628   0.068  1.00  0.00    +0.000 C 
ATOM     32  C25 UNL A   1      12.214  24.787   1.097  1.00  0.00    +0.000 C 
BRANCH   32   30
ATOM     30  C24 UNL A   1      11.871  23.386   0.758  1.00  0.00    +0.000 C 
ATOM     31  O2  UNL A   1      12.213  22.477   1.478  1.00  0.00    +0.000 O 
BRANCH   30   29
ATOM     29  N5  UNL A   1      11.072  23.197  -0.371  1.00  0.00    +0.000 N 
ATOM    127  H29 UNL A   1      11.471  23.456  -1.233  1.00  0.00    +0.000 H 
BRANCH   29   28
ATOM     28  C23 UNL A   1       9.703  22.658  -0.429  1.00  0.00    +0.000 C 
ATOM    125  H27 UNL A   1       9.576  22.182  -1.379  1.00  0.00    +0.000 H 
ATOM    126  H28 UNL A   1       9.614  21.990   0.402  1.00  0.00    +0.000 H 
BRANCH   28   27
ATOM     27  C22 UNL A   1       8.587  23.688  -0.264  1.00  0.00    +0.000 C 
ATOM    124  H26 UNL A   1       7.745  23.246  -0.753  1.00  0.00    +0.000 H 
ATOM    123  H25 UNL A   1       8.941  24.608  -0.683  1.00  0.00    +0.000 H 
BRANCH   27   26
ATOM    121  H23 UNL A   1       8.852  23.677   1.828  1.00  0.00    +0.000 H 
ATOM     26  C21 UNL A   1       8.088  23.994   1.148  1.00  0.00    +0.000 C 
ATOM    122  H24 UNL A   1       7.880  25.043   1.131  1.00  0.00    +0.000 H 
BRANCH   26   25
ATOM     25  C20 UNL A   1       6.770  23.355   1.615  1.00  0.00    +0.000 C 
ATOM    119  H21 UNL A   1       6.184  24.156   2.014  1.00  0.00    +0.000 H 
ATOM    120  H22 UNL A   1       6.464  22.844   0.726  1.00  0.00    +0.000 H 
BRANCH   25   24
ATOM    117  H19 UNL A   1       7.018  22.632   3.585  1.00  0.00    +0.000 H 
ATOM    118  H20 UNL A   1       5.672  21.895   2.556  1.00  0.00    +0.000 H 
ATOM     24  C19 UNL A   1       6.687  22.213   2.656  1.00  0.00    +0.000 C 
BRANCH   24   23
ATOM    115  H17 UNL A   1       6.858  20.125   2.940  1.00  0.00    +0.000 H 
ATOM    116  H18 UNL A   1       7.598  20.794   1.436  1.00  0.00    +0.000 H 
ATOM     23  C18 UNL A   1       7.447  20.896   2.490  1.00  0.00    +0.000 C 
BRANCH   23   22
ATOM    114  H16 UNL A   1       9.409  20.177   2.670  1.00  0.00    +0.000 H 
ATOM     22  N4  UNL A   1       8.781  20.822   3.069  1.00  0.00    +0.000 N 
BRANCH   22   20
ATOM     20  C17 UNL A   1       9.239  21.575   4.127  1.00  0.00    +0.000 C 
ATOM     21  O1  UNL A   1       9.703  22.685   3.825  1.00  0.00    +0.000 O 
BRANCH   20   19
ATOM    110  H12 UNL A   1       9.994  22.877   8.403  1.00  0.00    +0.000 H 
ATOM    111  H13 UNL A   1      10.414  20.976   7.155  1.00  0.00    +0.000 H 
ATOM    112  H14 UNL A   1      10.837  22.160   6.051  1.00  0.00    +0.000 H 
ATOM     17  C15 UNL A   1       9.498  22.777   7.461  1.00  0.00    +0.000 C 
ATOM     18  N3  UNL A   1      10.071  21.749   6.584  1.00  0.00    +0.000 N 
ATOM     19  C16 UNL A   1       9.046  21.242   5.638  1.00  0.00    +0.000 C 
ATOM    142  H44 UNL A   1       7.022  20.685   6.140  1.00  0.00    +0.000 H 
ATOM    143  H45 UNL A   1       7.133  22.256   5.445  1.00  0.00    +0.000 H 
ATOM    113  H15 UNL A   1       9.204  20.184   5.673  1.00  0.00    +0.000 H 
ATOM     95  C69 UNL A   1       7.620  21.572   6.110  1.00  0.00    +0.000 C 
ATOM     96  S1  UNL A   1       7.800  22.269   7.770  1.00  0.00    +0.000 S 
BRANCH   17   16
ATOM      6  C6  UNL A   1      10.847  24.760   6.342  1.00  0.00    +0.000 C 
ATOM      7  N1  UNL A   1      10.556  25.969   5.807  1.00  0.00    +0.000 N 
ATOM      8  N2  UNL A   1       9.200  25.990   5.720  1.00  0.00    +0.000 N 
ATOM    109  H11 UNL A   1       7.625  24.844   6.603  1.00  0.00    +0.000 H 
ATOM     15  C13 UNL A   1       8.631  24.962   6.408  1.00  0.00    +0.000 C 
ATOM     16  C14 UNL A   1       9.641  24.107   6.797  1.00  0.00    +0.000 C 
BRANCH    6    5
ATOM     97  C70 UNL A   1      13.032  24.329   7.508  1.00  0.00    +0.000 C 
ATOM      2  C2  UNL A   1      14.861  23.129   6.414  1.00  0.00    +0.000 C 
ATOM      3  C3  UNL A   1      14.094  23.072   5.254  1.00  0.00    +0.000 C 
ATOM      4  C4  UNL A   1      12.805  23.616   5.237  1.00  0.00    +0.000 C 
ATOM     98  C71 UNL A   1      14.328  23.779   7.534  1.00  0.00    +0.000 C 
ATOM    102  H4  UNL A   1      14.477  22.629   4.405  1.00  0.00    +0.000 H 
ATOM      5  C5  UNL A   1      12.233  24.228   6.365  1.00  0.00    +0.000 C 
ATOM    103  H5  UNL A   1      12.255  23.564   4.365  1.00  0.00    +0.000 H 
ATOM    144  H46 UNL A   1      12.666  24.811   8.344  1.00  0.00    +0.000 H 
ATOM    145  H47 UNL A   1      14.896  23.858   8.392  1.00  0.00    +0.000 H 
BRANCH    2    1
ATOM      1  C1  UNL A   1      16.223  22.500   6.423  1.00  0.00    +0.000 C 
ATOM     99  H1  UNL A   1      16.907  23.120   5.882  1.00  0.00    +0.000 H 
ATOM    100  H2  UNL A   1      16.174  21.535   5.964  1.00  0.00    +0.000 H 
ATOM    101  H3  UNL A   1      16.560  22.396   7.434  1.00  0.00    +0.000 H 
ENDBRANCH    2    1
ENDBRANCH    6    5
BRANCH    8    9
ATOM    104  H6  UNL A   1       9.933  28.384   4.906  1.00  0.00    +0.000 H 
ATOM      9  C7  UNL A   1       8.491  26.829   4.828  1.00  0.00    +0.000 C 
ATOM     10  C8  UNL A   1       9.014  28.102   4.528  1.00  0.00    +0.000 C 
ATOM     11  C9  UNL A   1       8.295  28.983   3.723  1.00  0.00    +0.000 C 
ATOM    108  H10 UNL A   1       6.900  25.483   4.486  1.00  0.00    +0.000 H 
ATOM     13  C11 UNL A   1       6.620  27.271   3.382  1.00  0.00    +0.000 C 
ATOM     14  C12 UNL A   1       7.290  26.412   4.262  1.00  0.00    +0.000 C 
ATOM    105  H7  UNL A   1       8.641  29.942   3.561  1.00  0.00    +0.000 H 
ATOM    107  H9  UNL A   1       5.762  26.949   2.911  1.00  0.00    +0.000 H 
ATOM     12  C10 UNL A   1       7.105  28.560   3.137  1.00  0.00    +0.000 C 
ATOM    106  H8  UNL A   1       6.579  29.199   2.521  1.00  0.00    +0.000 H 
ENDBRANCH    8    9
ENDBRANCH   17   16
ENDBRANCH   20   19
ENDBRANCH   22   20
ENDBRANCH   23   22
ENDBRANCH   24   23
ENDBRANCH   25   24
ENDBRANCH   26   25
ENDBRANCH   27   26
ENDBRANCH   28   27
ENDBRANCH   29   28
ENDBRANCH   30   29
ENDBRANCH   32   30
ENDBRANCH   36   35
BRANCH   40   41
ATOM     41  C33 UNL A   1       4.950  29.822  -0.669  1.00  0.00    +0.000 C 
ATOM     42  C34 UNL A   1       4.198  29.652  -1.855  1.00  0.00    +0.000 C 
ATOM     43  F1  UNL A   1       4.791  29.563  -3.054  1.00  0.00    +0.000 F 
ATOM     44  C35 UNL A   1       2.799  29.591  -1.864  1.00  0.00    +0.000 C 
ATOM     45  F2  UNL A   1       2.146  29.490  -3.030  1.00  0.00    +0.000 F 
ATOM     46  C36 UNL A   1       2.085  29.655  -0.687  1.00  0.00    +0.000 C 
ATOM     47  F3  UNL A   1       0.746  29.611  -0.692  1.00  0.00    +0.000 F 
ATOM     48  C37 UNL A   1       2.771  29.777   0.498  1.00  0.00    +0.000 C 
ATOM     49  F4  UNL A   1       2.102  29.836   1.658  1.00  0.00    +0.000 F 
ATOM     50  C38 UNL A   1       4.166  29.872   0.503  1.00  0.00    +0.000 C 
ATOM     51  F5  UNL A   1       4.688  30.053   1.716  1.00  0.00    +0.000 F 
ENDBRANCH   40   41
BRANCH   57   58
ATOM     65  C48 UNL A   1       8.305  35.278  -5.716  1.00  0.00    +0.000 C 
ATOM     66  F9  UNL A   1       7.713  36.469  -5.892  1.00  0.00    +0.000 F 
ATOM     67  C49 UNL A   1       8.531  34.802  -4.427  1.00  0.00    +0.000 C 
ATOM     68  F10 UNL A   1       8.074  35.548  -3.410  1.00  0.00    +0.000 F 
ATOM     58  C44 UNL A   1       9.191  33.581  -4.191  1.00  0.00    +0.000 C 
ATOM     59  C45 UNL A   1       9.572  32.842  -5.323  1.00  0.00    +0.000 C 
ATOM     60  F6  UNL A   1      10.218  31.674  -5.188  1.00  0.00    +0.000 F 
ATOM     61  C46 UNL A   1       9.305  33.301  -6.613  1.00  0.00    +0.000 C 
ATOM     62  F7  UNL A   1       9.656  32.556  -7.671  1.00  0.00    +0.000 F 
ATOM     63  C47 UNL A   1       8.689  34.526  -6.810  1.00  0.00    +0.000 C 
ATOM     64  F8  UNL A   1       8.462  34.978  -8.051  1.00  0.00    +0.000 F 
ENDBRANCH   57   58
BRANCH   72   73
ATOM     73  C53 UNL A   1      14.494  31.119  -0.006  1.00  0.00    +0.000 C 
ATOM     74  C54 UNL A   1      14.551  30.085  -0.960  1.00  0.00    +0.000 C 
ATOM     75  F11 UNL A   1      13.417  29.605  -1.497  1.00  0.00    +0.000 F 
ATOM     76  C55 UNL A   1      15.768  29.623  -1.452  1.00  0.00    +0.000 C 
ATOM     77  F12 UNL A   1      15.790  28.715  -2.437  1.00  0.00    +0.000 F 
ATOM     78  C56 UNL A   1      16.952  30.158  -0.972  1.00  0.00    +0.000 C 
ATOM     79  F13 UNL A   1      18.122  29.782  -1.505  1.00  0.00    +0.000 F 
ATOM     80  C57 UNL A   1      16.920  31.112   0.035  1.00  0.00    +0.000 C 
ATOM     81  F14 UNL A   1      18.065  31.646   0.481  1.00  0.00    +0.000 F 
ATOM     82  C58 UNL A   1      15.701  31.586   0.521  1.00  0.00    +0.000 C 
ATOM     83  F15 UNL A   1      15.708  32.583   1.418  1.00  0.00    +0.000 F 
ENDBRANCH   72   73
TORSDOF 19
ENDMDL
MODEL 6
REMARK VINA RESULT:      -8.0      1.944      3.298
ROOT
ATOM    130  H32 UNL A   1      28.761  26.054  -7.693  1.00  0.00    +0.000 H 
ATOM    131  H33 UNL A   1      26.605  27.576  -7.730  1.00  0.00    +0.000 H 
ATOM    132  H34 UNL A   1      25.531  23.813  -6.431  1.00  0.00    +0.000 H 
ATOM    133  H35 UNL A   1      25.974  26.846 -11.031  1.00  0.00    +0.000 H 
ATOM    134  H36 UNL A   1      27.404  24.822 -10.413  1.00  0.00    +0.000 H 
ATOM    135  H37 UNL A   1      24.774  23.721 -13.427  1.00  0.00    +0.000 H 
ATOM    136  H38 UNL A   1      20.832  26.223 -10.155  1.00  0.00    +0.000 H 
ATOM    137  H39 UNL A   1      21.287  26.388  -7.625  1.00  0.00    +0.000 H 
ATOM    138  H40 UNL A   1      27.999  20.219  -7.660  1.00  0.00    +0.000 H 
ATOM    139  H41 UNL A   1      27.182  19.837 -10.070  1.00  0.00    +0.000 H 
ATOM     36  C29 UNL A   1      26.117  22.331 -11.221  1.00  0.00    +0.000 C 
ATOM     37  C30 UNL A   1      26.711  22.041  -9.903  1.00  0.00    +0.000 C 
ATOM     38  N6  UNL A   1      26.778  22.898  -8.939  1.00  0.00    +0.000 N 
ATOM     39  C31 UNL A   1      27.529  22.343  -7.933  1.00  0.00    +0.000 C 
ATOM     40  C32 UNL A   1      28.065  23.167  -6.989  1.00  0.00    +0.000 C 
ATOM     52  C39 UNL A   1      27.430  24.490  -7.025  1.00  0.00    +0.000 C 
ATOM     53  C40 UNL A   1      27.805  25.757  -7.440  1.00  0.00    +0.000 C 
ATOM     54  C41 UNL A   1      26.639  26.581  -7.457  1.00  0.00    +0.000 C 
ATOM     55  C42 UNL A   1      25.563  25.817  -7.043  1.00  0.00    +0.000 C 
ATOM     56  N7  UNL A   1      26.070  24.564  -6.768  1.00  0.00    +0.000 N 
ATOM     57  C43 UNL A   1      24.133  26.038  -6.926  1.00  0.00    +0.000 C 
ATOM     69  C50 UNL A   1      23.421  26.109  -8.086  1.00  0.00    +0.000 C 
ATOM     70  N8  UNL A   1      24.005  25.974  -9.315  1.00  0.00    +0.000 N 
ATOM     71  C51 UNL A   1      23.075  25.940 -10.227  1.00  0.00    +0.000 C 
ATOM     72  C52 UNL A   1      23.323  25.600 -11.678  1.00  0.00    +0.000 C 
ATOM     84  C59 UNL A   1      24.627  25.369 -12.003  1.00  0.00    +0.000 C 
ATOM     85  C60 UNL A   1      25.780  25.862 -11.277  1.00  0.00    +0.000 C 
ATOM     86  C61 UNL A   1      26.547  24.803 -10.987  1.00  0.00    +0.000 C 
ATOM     87  C62 UNL A   1      25.968  23.619 -11.616  1.00  0.00    +0.000 C 
ATOM     88  N9  UNL A   1      25.052  24.127 -12.574  1.00  0.00    +0.000 N 
ATOM     89  C63 UNL A   1      21.738  26.156  -9.668  1.00  0.00    +0.000 C 
ATOM     90  C64 UNL A   1      22.003  26.243  -8.353  1.00  0.00    +0.000 C 
ATOM     91  C65 UNL A   1      27.629  20.949  -8.289  1.00  0.00    +0.000 C 
ATOM     92  C66 UNL A   1      27.186  20.716  -9.528  1.00  0.00    +0.000 C 
ENDROOT
BRANCH   36   35
ATOM     33  C26 UNL A   1      26.370  19.695 -13.840  1.00  0.00    +0.000 C 
ATOM     34  C27 UNL A   1      26.450  20.972 -13.296  1.00  0.00    +0.000 C 
ATOM    129  H31 UNL A   1      27.016  21.704 -13.752  1.00  0.00    +0.000 H 
ATOM     35  C28 UNL A   1      25.748  21.243 -12.121  1.00  0.00    +0.000 C 
ATOM    140  H42 UNL A   1      24.134  20.642 -10.886  1.00  0.00    +0.000 H 
ATOM    141  H43 UNL A   1      23.839  18.491 -11.994  1.00  0.00    +0.000 H 
ATOM    128  H30 UNL A   1      26.898  19.450 -14.692  1.00  0.00    +0.000 H 
ATOM     93  C67 UNL A   1      24.756  20.363 -11.661  1.00  0.00    +0.000 C 
ATOM     94  C68 UNL A   1      24.615  19.121 -12.251  1.00  0.00    +0.000 C 
ATOM     32  C25 UNL A   1      25.560  18.751 -13.204  1.00  0.00    +0.000 C 
BRANCH   32   30
ATOM     30  C24 UNL A   1      26.042  17.349 -13.201  1.00  0.00    +0.000 C 
ATOM     31  O2  UNL A   1      25.292  16.441 -12.930  1.00  0.00    +0.000 O 
BRANCH   30   29
ATOM     29  N5  UNL A   1      27.362  17.146 -13.607  1.00  0.00    +0.000 N 
ATOM    127  H29 UNL A   1      27.592  17.465 -14.509  1.00  0.00    +0.000 H 
BRANCH   29   28
ATOM     28  C23 UNL A   1      28.453  16.511 -12.849  1.00  0.00    +0.000 C 
ATOM    125  H27 UNL A   1      28.077  16.255 -11.881  1.00  0.00    +0.000 H 
ATOM    126  H28 UNL A   1      28.761  15.665 -13.428  1.00  0.00    +0.000 H 
BRANCH   28   27
ATOM     27  C22 UNL A   1      29.702  17.370 -12.658  1.00  0.00    +0.000 C 
ATOM    124  H26 UNL A   1      29.847  17.841 -13.607  1.00  0.00    +0.000 H 
ATOM    123  H25 UNL A   1      30.488  16.718 -12.336  1.00  0.00    +0.000 H 
BRANCH   27   26
ATOM    121  H23 UNL A   1      28.763  18.384 -11.066  1.00  0.00    +0.000 H 
ATOM     26  C21 UNL A   1      29.638  18.530 -11.664  1.00  0.00    +0.000 C 
ATOM    122  H24 UNL A   1      30.575  18.485 -11.149  1.00  0.00    +0.000 H 
BRANCH   26   25
ATOM     25  C20 UNL A   1      29.579  19.964 -12.215  1.00  0.00    +0.000 C 
ATOM    119  H21 UNL A   1      28.577  20.098 -12.568  1.00  0.00    +0.000 H 
ATOM    120  H22 UNL A   1      29.941  20.520 -11.376  1.00  0.00    +0.000 H 
BRANCH   25   24
ATOM    117  H19 UNL A   1      31.485  20.529 -12.928  1.00  0.00    +0.000 H 
ATOM    118  H20 UNL A   1      30.286  19.813 -14.138  1.00  0.00    +0.000 H 
ATOM     24  C19 UNL A   1      30.498  20.494 -13.342  1.00  0.00    +0.000 C 
BRANCH   24   23
ATOM    115  H17 UNL A   1      31.217  22.343 -14.072  1.00  0.00    +0.000 H 
ATOM    116  H18 UNL A   1      29.824  21.616 -14.960  1.00  0.00    +0.000 H 
ATOM     23  C18 UNL A   1      30.270  21.847 -14.015  1.00  0.00    +0.000 C 
BRANCH   23   22
ATOM    114  H16 UNL A   1      28.399  22.729 -13.672  1.00  0.00    +0.000 H 
ATOM     22  N4  UNL A   1      29.337  22.760 -13.373  1.00  0.00    +0.000 N 
BRANCH   22   20
ATOM     20  C17 UNL A   1      29.652  23.665 -12.383  1.00  0.00    +0.000 C 
ATOM     21  O1  UNL A   1      29.778  23.183 -11.247  1.00  0.00    +0.000 O 
BRANCH   20   19
ATOM    110  H12 UNL A   1      32.948  26.769 -12.148  1.00  0.00    +0.000 H 
ATOM    111  H13 UNL A   1      30.806  26.562 -11.299  1.00  0.00    +0.000 H 
ATOM    112  H14 UNL A   1      31.381  25.012 -11.044  1.00  0.00    +0.000 H 
ATOM     17  C15 UNL A   1      32.318  26.008 -12.558  1.00  0.00    +0.000 C 
ATOM     18  N3  UNL A   1      31.131  25.707 -11.748  1.00  0.00    +0.000 N 
ATOM     19  C16 UNL A   1      30.047  25.157 -12.599  1.00  0.00    +0.000 C 
ATOM    142  H44 UNL A   1      29.410  25.943 -14.507  1.00  0.00    +0.000 H 
ATOM    143  H45 UNL A   1      30.449  24.579 -14.656  1.00  0.00    +0.000 H 
ATOM    113  H15 UNL A   1      29.186  25.686 -12.245  1.00  0.00    +0.000 H 
ATOM     95  C69 UNL A   1      30.274  25.470 -14.088  1.00  0.00    +0.000 C 
ATOM     96  S1  UNL A   1      31.695  26.588 -14.144  1.00  0.00    +0.000 S 
BRANCH   17   16
ATOM      6  C6  UNL A   1      34.563  24.682 -13.006  1.00  0.00    +0.000 C 
ATOM      7  N1  UNL A   1      34.967  23.390 -12.966  1.00  0.00    +0.000 N 
ATOM      8  N2  UNL A   1      33.941  22.726 -12.375  1.00  0.00    +0.000 N 
ATOM    109  H11 UNL A   1      31.884  23.177 -11.998  1.00  0.00    +0.000 H 
ATOM     15  C13 UNL A   1      32.823  23.498 -12.281  1.00  0.00    +0.000 C 
ATOM     16  C14 UNL A   1      33.171  24.785 -12.632  1.00  0.00    +0.000 C 
BRANCH    6    5
ATOM     97  C70 UNL A   1      35.703  26.189 -14.665  1.00  0.00    +0.000 C 
ATOM      2  C2  UNL A   1      37.238  27.956 -13.956  1.00  0.00    +0.000 C 
ATOM      3  C3  UNL A   1      37.083  27.526 -12.642  1.00  0.00    +0.000 C 
ATOM      4  C4  UNL A   1      36.230  26.458 -12.348  1.00  0.00    +0.000 C 
ATOM     98  C71 UNL A   1      36.557  27.266 -14.968  1.00  0.00    +0.000 C 
ATOM    102  H4  UNL A   1      37.601  27.995 -11.882  1.00  0.00    +0.000 H 
ATOM      5  C5  UNL A   1      35.499  25.784 -13.342  1.00  0.00    +0.000 C 
ATOM    103  H5  UNL A   1      36.132  26.154 -11.366  1.00  0.00    +0.000 H 
ATOM    144  H46 UNL A   1      35.220  25.691 -15.429  1.00  0.00    +0.000 H 
ATOM    145  H47 UNL A   1      36.684  27.553 -15.950  1.00  0.00    +0.000 H 
BRANCH    2    1
ATOM      1  C1  UNL A   1      38.124  29.132 -14.243  1.00  0.00    +0.000 C 
ATOM     99  H1  UNL A   1      37.729  29.683 -15.072  1.00  0.00    +0.000 H 
ATOM    100  H2  UNL A   1      39.109  28.788 -14.479  1.00  0.00    +0.000 H 
ATOM    101  H3  UNL A   1      38.164  29.766 -13.381  1.00  0.00    +0.000 H 
ENDBRANCH    2    1
ENDBRANCH    6    5
BRANCH    8    9
ATOM    104  H6  UNL A   1      32.138  21.497 -10.903  1.00  0.00    +0.000 H 
ATOM      9  C7  UNL A   1      34.094  21.479 -11.723  1.00  0.00    +0.000 C 
ATOM     10  C8  UNL A   1      33.033  20.984 -10.941  1.00  0.00    +0.000 C 
ATOM     11  C9  UNL A   1      33.189  19.803 -10.217  1.00  0.00    +0.000 C 
ATOM    108  H10 UNL A   1      36.061  21.120 -12.406  1.00  0.00    +0.000 H 
ATOM     13  C11 UNL A   1      35.389  19.526 -11.182  1.00  0.00    +0.000 C 
ATOM     14  C12 UNL A   1      35.278  20.756 -11.841  1.00  0.00    +0.000 C 
ATOM    105  H7  UNL A   1      32.439  19.476  -9.587  1.00  0.00    +0.000 H 
ATOM    107  H9  UNL A   1      36.237  18.954 -11.310  1.00  0.00    +0.000 H 
ATOM     12  C10 UNL A   1      34.362  19.066 -10.351  1.00  0.00    +0.000 C 
ATOM    106  H8  UNL A   1      34.474  18.179  -9.837  1.00  0.00    +0.000 H 
ENDBRANCH    8    9
ENDBRANCH   17   16
ENDBRANCH   20   19
ENDBRANCH   22   20
ENDBRANCH   23   22
ENDBRANCH   24   23
ENDBRANCH   25   24
ENDBRANCH   26   25
ENDBRANCH   27   26
ENDBRANCH   28   27
ENDBRANCH   29   28
ENDBRANCH   30   29
ENDBRANCH   32   30
ENDBRANCH   36   35
BRANCH   40   41
ATOM     41  C33 UNL A   1      29.272  22.855  -6.117  1.00  0.00    +0.000 C 
ATOM     42  C34 UNL A   1      29.118  22.736  -4.716  1.00  0.00    +0.000 C 
ATOM     43  F1  UNL A   1      27.908  22.765  -4.139  1.00  0.00    +0.000 F 
ATOM     44  C35 UNL A   1      30.204  22.606  -3.841  1.00  0.00    +0.000 C 
ATOM     45  F2  UNL A   1      29.989  22.559  -2.518  1.00  0.00    +0.000 F 
ATOM     46  C36 UNL A   1      31.493  22.548  -4.324  1.00  0.00    +0.000 C 
ATOM     47  F3  UNL A   1      32.535  22.438  -3.491  1.00  0.00    +0.000 F 
ATOM     48  C37 UNL A   1      31.694  22.616  -5.682  1.00  0.00    +0.000 C 
ATOM     49  F4  UNL A   1      32.937  22.556  -6.181  1.00  0.00    +0.000 F 
ATOM     50  C38 UNL A   1      30.612  22.779  -6.553  1.00  0.00    +0.000 C 
ATOM     51  F5  UNL A   1      30.965  22.896  -7.833  1.00  0.00    +0.000 F 
ENDBRANCH   40   41
BRANCH   57   58
ATOM     65  C48 UNL A   1      22.575  25.093  -3.576  1.00  0.00    +0.000 C 
ATOM     66  F9  UNL A   1      22.169  23.978  -2.951  1.00  0.00    +0.000 F 
ATOM     67  C49 UNL A   1      23.019  25.024  -4.895  1.00  0.00    +0.000 C 
ATOM     68  F10 UNL A   1      22.953  23.829  -5.501  1.00  0.00    +0.000 F 
ATOM     58  C44 UNL A   1      23.500  26.158  -5.577  1.00  0.00    +0.000 C 
ATOM     59  C45 UNL A   1      23.468  27.375  -4.877  1.00  0.00    +0.000 C 
ATOM     60  F6  UNL A   1      23.920  28.501  -5.449  1.00  0.00    +0.000 F 
ATOM     61  C46 UNL A   1      22.981  27.449  -3.572  1.00  0.00    +0.000 C 
ATOM     62  F7  UNL A   1      22.937  28.633  -2.944  1.00  0.00    +0.000 F 
ATOM     63  C47 UNL A   1      22.553  26.307  -2.916  1.00  0.00    +0.000 C 
ATOM     64  F8  UNL A   1      22.115  26.377  -1.651  1.00  0.00    +0.000 F 
ENDBRANCH   57   58
BRANCH   72   73
ATOM     73  C53 UNL A   1      22.376  24.881 -12.563  1.00  0.00    +0.000 C 
ATOM     74  C54 UNL A   1      22.029  25.475 -13.792  1.00  0.00    +0.000 C 
ATOM     75  F11 UNL A   1      22.248  26.785 -13.988  1.00  0.00    +0.000 F 
ATOM     76  C55 UNL A   1      21.567  24.709 -14.857  1.00  0.00    +0.000 C 
ATOM     77  F12 UNL A   1      21.347  25.285 -16.048  1.00  0.00    +0.000 F 
ATOM     78  C56 UNL A   1      21.407  23.342 -14.706  1.00  0.00    +0.000 C 
ATOM     79  F13 UNL A   1      21.050  22.588 -15.753  1.00  0.00    +0.000 F 
ATOM     80  C57 UNL A   1      21.655  22.752 -13.475  1.00  0.00    +0.000 C 
ATOM     81  F14 UNL A   1      21.523  21.425 -13.335  1.00  0.00    +0.000 F 
ATOM     82  C58 UNL A   1      22.130  23.514 -12.407  1.00  0.00    +0.000 C 
ATOM     83  F15 UNL A   1      22.459  22.892 -11.265  1.00  0.00    +0.000 F 
ENDBRANCH   72   73
TORSDOF 19
ENDMDL
MODEL 7
REMARK VINA RESULT:      -8.0     13.419     19.850
ROOT
ATOM    130  H32 UNL A   1       7.220  28.267   4.610  1.00  0.00    +0.000 H 
ATOM    131  H33 UNL A   1       7.011  30.818   3.969  1.00  0.00    +0.000 H 
ATOM    132  H34 UNL A   1       6.216  28.556   0.615  1.00  0.00    +0.000 H 
ATOM    133  H35 UNL A   1      10.369  31.062   3.266  1.00  0.00    +0.000 H 
ATOM    134  H36 UNL A   1      10.057  28.543   2.988  1.00  0.00    +0.000 H 
ATOM    135  H37 UNL A   1      13.146  29.782   0.509  1.00  0.00    +0.000 H 
ATOM    136  H38 UNL A   1       9.494  33.855  -1.097  1.00  0.00    +0.000 H 
ATOM    137  H39 UNL A   1       6.974  33.391  -0.837  1.00  0.00    +0.000 H 
ATOM    138  H40 UNL A   1       7.967  24.394   0.244  1.00  0.00    +0.000 H 
ATOM    139  H41 UNL A   1      10.391  24.917  -0.441  1.00  0.00    +0.000 H 
ATOM     36  C29 UNL A   1      11.173  27.611   0.457  1.00  0.00    +0.000 C 
ATOM     37  C30 UNL A   1       9.917  26.855   0.620  1.00  0.00    +0.000 C 
ATOM     38  N6  UNL A   1       8.848  27.342   1.154  1.00  0.00    +0.000 N 
ATOM     39  C31 UNL A   1       7.940  26.322   1.286  1.00  0.00    +0.000 C 
ATOM     40  C32 UNL A   1       6.902  26.480   2.156  1.00  0.00    +0.000 C 
ATOM     52  C39 UNL A   1       6.747  27.889   2.537  1.00  0.00    +0.000 C 
ATOM     53  C40 UNL A   1       6.993  28.641   3.675  1.00  0.00    +0.000 C 
ATOM     54  C41 UNL A   1       6.877  30.021   3.328  1.00  0.00    +0.000 C 
ATOM     55  C42 UNL A   1       6.551  30.104   1.986  1.00  0.00    +0.000 C 
ATOM     56  N7  UNL A   1       6.458  28.804   1.536  1.00  0.00    +0.000 N 
ATOM     57  C43 UNL A   1       6.380  31.191   1.038  1.00  0.00    +0.000 C 
ATOM     69  C50 UNL A   1       7.506  31.841   0.633  1.00  0.00    +0.000 C 
ATOM     70  N8  UNL A   1       8.752  31.499   1.080  1.00  0.00    +0.000 N 
ATOM     71  C51 UNL A   1       9.644  32.186   0.422  1.00  0.00    +0.000 C 
ATOM     72  C52 UNL A   1      11.132  31.935   0.499  1.00  0.00    +0.000 C 
ATOM     84  C59 UNL A   1      11.508  30.948   1.361  1.00  0.00    +0.000 C 
ATOM     85  C60 UNL A   1      10.743  30.481   2.499  1.00  0.00    +0.000 C 
ATOM     86  C61 UNL A   1      10.613  29.155   2.370  1.00  0.00    +0.000 C 
ATOM     87  C62 UNL A   1      11.386  28.718   1.210  1.00  0.00    +0.000 C 
ATOM     88  N9  UNL A   1      12.251  29.806   0.919  1.00  0.00    +0.000 N 
ATOM     89  C63 UNL A   1       9.036  33.157  -0.491  1.00  0.00    +0.000 C 
ATOM     90  C64 UNL A   1       7.727  32.899  -0.333  1.00  0.00    +0.000 C 
ATOM     91  C65 UNL A   1       8.483  25.254   0.485  1.00  0.00    +0.000 C 
ATOM     92  C66 UNL A   1       9.735  25.510   0.091  1.00  0.00    +0.000 C 
ENDROOT
BRANCH   36   35
ATOM     33  C26 UNL A   1      13.783  25.452  -1.090  1.00  0.00    +0.000 C 
ATOM     34  C27 UNL A   1      13.160  26.192  -0.092  1.00  0.00    +0.000 C 
ATOM    129  H31 UNL A   1      13.398  26.041   0.901  1.00  0.00    +0.000 H 
ATOM     35  C28 UNL A   1      12.206  27.141  -0.460  1.00  0.00    +0.000 C 
ATOM    140  H42 UNL A   1      11.497  28.368  -2.036  1.00  0.00    +0.000 H 
ATOM    141  H43 UNL A   1      12.776  27.216  -3.762  1.00  0.00    +0.000 H 
ATOM    128  H30 UNL A   1      14.473  24.723  -0.854  1.00  0.00    +0.000 H 
ATOM     93  C67 UNL A   1      12.089  27.558  -1.796  1.00  0.00    +0.000 C 
ATOM     94  C68 UNL A   1      12.772  26.878  -2.787  1.00  0.00    +0.000 C 
ATOM     32  C25 UNL A   1      13.453  25.720  -2.421  1.00  0.00    +0.000 C 
BRANCH   32   30
ATOM     30  C24 UNL A   1      13.406  24.562  -3.345  1.00  0.00    +0.000 C 
ATOM     31  O2  UNL A   1      12.456  24.393  -4.072  1.00  0.00    +0.000 O 
BRANCH   30   29
ATOM     29  N5  UNL A   1      14.542  23.751  -3.382  1.00  0.00    +0.000 N 
ATOM    127  H29 UNL A   1      15.382  24.192  -3.642  1.00  0.00    +0.000 H 
BRANCH   29   28
ATOM     28  C23 UNL A   1      14.635  22.313  -3.078  1.00  0.00    +0.000 C 
ATOM    125  H27 UNL A   1      14.541  22.193  -2.019  1.00  0.00    +0.000 H 
ATOM    126  H28 UNL A   1      13.851  21.843  -3.635  1.00  0.00    +0.000 H 
BRANCH   28   27
ATOM     27  C22 UNL A   1      15.931  21.635  -3.517  1.00  0.00    +0.000 C 
ATOM    124  H26 UNL A   1      16.222  22.167  -4.398  1.00  0.00    +0.000 H 
ATOM    123  H25 UNL A   1      15.715  20.594  -3.650  1.00  0.00    +0.000 H 
BRANCH   27   26
ATOM    121  H23 UNL A   1      16.788  22.010  -1.627  1.00  0.00    +0.000 H 
ATOM     26  C21 UNL A   1      17.147  21.732  -2.596  1.00  0.00    +0.000 C 
ATOM    122  H24 UNL A   1      17.609  20.770  -2.670  1.00  0.00    +0.000 H 
BRANCH   26   25
ATOM     25  C20 UNL A   1      18.268  22.717  -2.964  1.00  0.00    +0.000 C 
ATOM    119  H21 UNL A   1      18.055  23.042  -3.962  1.00  0.00    +0.000 H 
ATOM    120  H22 UNL A   1      18.216  23.403  -2.144  1.00  0.00    +0.000 H 
BRANCH   25   24
ATOM    117  H19 UNL A   1      19.835  21.352  -2.582  1.00  0.00    +0.000 H 
ATOM    118  H20 UNL A   1      20.059  22.561  -3.961  1.00  0.00    +0.000 H 
ATOM     24  C19 UNL A   1      19.773  22.355  -2.951  1.00  0.00    +0.000 C 
BRANCH   24   23
ATOM    115  H17 UNL A   1      20.479  23.189  -1.142  1.00  0.00    +0.000 H 
ATOM    116  H18 UNL A   1      21.735  22.663  -2.328  1.00  0.00    +0.000 H 
ATOM     23  C18 UNL A   1      20.803  23.163  -2.161  1.00  0.00    +0.000 C 
BRANCH   23   22
ATOM    114  H16 UNL A   1      20.426  25.225  -2.227  1.00  0.00    +0.000 H 
ATOM     22  N4  UNL A   1      21.034  24.537  -2.582  1.00  0.00    +0.000 N 
BRANCH   22   20
ATOM     20  C17 UNL A   1      22.031  24.957  -3.435  1.00  0.00    +0.000 C 
ATOM     21  O1  UNL A   1      22.671  24.050  -3.989  1.00  0.00    +0.000 O 
BRANCH   20   19
ATOM    110  H12 UNL A   1      21.196  29.348  -2.676  1.00  0.00    +0.000 H 
ATOM    111  H13 UNL A   1      20.972  27.908  -4.472  1.00  0.00    +0.000 H 
ATOM    112  H14 UNL A   1      20.405  26.936  -3.235  1.00  0.00    +0.000 H 
ATOM     17  C15 UNL A   1      21.687  28.399  -2.621  1.00  0.00    +0.000 C 
ATOM     18  N3  UNL A   1      21.219  27.421  -3.611  1.00  0.00    +0.000 N 
ATOM     19  C16 UNL A   1      22.280  26.425  -3.899  1.00  0.00    +0.000 C 
ATOM    142  H44 UNL A   1      24.361  26.861  -4.275  1.00  0.00    +0.000 H 
ATOM    143  H45 UNL A   1      24.067  26.334  -2.663  1.00  0.00    +0.000 H 
ATOM    113  H15 UNL A   1      22.242  26.349  -4.966  1.00  0.00    +0.000 H 
ATOM     95  C69 UNL A   1      23.668  26.925  -3.462  1.00  0.00    +0.000 C 
ATOM     96  S1  UNL A   1      23.435  28.649  -2.966  1.00  0.00    +0.000 S 
BRANCH   17   16
ATOM      6  C6  UNL A   1      20.136  27.909  -0.534  1.00  0.00    +0.000 C 
ATOM      7  N1  UNL A   1      20.281  27.350   0.690  1.00  0.00    +0.000 N 
ATOM      8  N2  UNL A   1      21.516  26.784   0.666  1.00  0.00    +0.000 N 
ATOM    109  H11 UNL A   1      23.239  27.003  -0.583  1.00  0.00    +0.000 H 
ATOM     15  C13 UNL A   1      22.237  27.185  -0.417  1.00  0.00    +0.000 C 
ATOM     16  C14 UNL A   1      21.388  27.878  -1.254  1.00  0.00    +0.000 C 
BRANCH    6    5
ATOM     97  C70 UNL A   1      18.288  29.613  -0.551  1.00  0.00    +0.000 C 
ATOM      2  C2  UNL A   1      16.339  29.386  -2.011  1.00  0.00    +0.000 C 
ATOM      3  C3  UNL A   1      16.836  28.159  -2.439  1.00  0.00    +0.000 C 
ATOM      4  C4  UNL A   1      18.055  27.684  -1.944  1.00  0.00    +0.000 C 
ATOM     98  C71 UNL A   1      17.063  30.100  -1.048  1.00  0.00    +0.000 C 
ATOM    102  H4  UNL A   1      16.304  27.597  -3.122  1.00  0.00    +0.000 H 
ATOM      5  C5  UNL A   1      18.823  28.407  -1.015  1.00  0.00    +0.000 C 
ATOM    103  H5  UNL A   1      18.404  26.770  -2.274  1.00  0.00    +0.000 H 
ATOM    144  H46 UNL A   1      18.798  30.154   0.165  1.00  0.00    +0.000 H 
ATOM    145  H47 UNL A   1      16.693  30.997  -0.698  1.00  0.00    +0.000 H 
BRANCH    2    1
ATOM      1  C1  UNL A   1      15.052  29.897  -2.589  1.00  0.00    +0.000 C 
ATOM     99  H1  UNL A   1      15.249  30.755  -3.198  1.00  0.00    +0.000 H 
ATOM    100  H2  UNL A   1      14.387  30.166  -1.796  1.00  0.00    +0.000 H 
ATOM    101  H3  UNL A   1      14.602  29.132  -3.187  1.00  0.00    +0.000 H 
ENDBRANCH    2    1
ENDBRANCH    6    5
BRANCH    8    9
ATOM    104  H6  UNL A   1      23.939  26.326   1.586  1.00  0.00    +0.000 H 
ATOM      9  C7  UNL A   1      21.905  25.728   1.524  1.00  0.00    +0.000 C 
ATOM     10  C8  UNL A   1      23.260  25.611   1.890  1.00  0.00    +0.000 C 
ATOM     11  C9  UNL A   1      23.685  24.531   2.662  1.00  0.00    +0.000 C 
ATOM    108  H10 UNL A   1      19.976  24.889   1.719  1.00  0.00    +0.000 H 
ATOM     13  C11 UNL A   1      21.392  23.782   2.841  1.00  0.00    +0.000 C 
ATOM     14  C12 UNL A   1      20.968  24.811   1.993  1.00  0.00    +0.000 C 
ATOM    105  H7  UNL A   1      24.688  24.404   2.871  1.00  0.00    +0.000 H 
ATOM    107  H9  UNL A   1      20.699  23.133   3.242  1.00  0.00    +0.000 H 
ATOM     12  C10 UNL A   1      22.748  23.626   3.150  1.00  0.00    +0.000 C 
ATOM    106  H8  UNL A   1      23.053  22.837   3.742  1.00  0.00    +0.000 H 
ENDBRANCH    8    9
ENDBRANCH   17   16
ENDBRANCH   20   19
ENDBRANCH   22   20
ENDBRANCH   23   22
ENDBRANCH   24   23
ENDBRANCH   25   24
ENDBRANCH   26   25
ENDBRANCH   27   26
ENDBRANCH   28   27
ENDBRANCH   29   28
ENDBRANCH   30   29
ENDBRANCH   32   30
ENDBRANCH   36   35
BRANCH   40   41
ATOM     41  C33 UNL A   1       6.102  25.359   2.802  1.00  0.00    +0.000 C 
ATOM     42  C34 UNL A   1       5.097  24.693   2.062  1.00  0.00    +0.000 C 
ATOM     43  F1  UNL A   1       4.910  24.937   0.757  1.00  0.00    +0.000 F 
ATOM     44  C35 UNL A   1       4.221  23.764   2.637  1.00  0.00    +0.000 C 
ATOM     45  F2  UNL A   1       3.251  23.216   1.892  1.00  0.00    +0.000 F 
ATOM     46  C36 UNL A   1       4.332  23.424   3.968  1.00  0.00    +0.000 C 
ATOM     47  F3  UNL A   1       3.487  22.546   4.525  1.00  0.00    +0.000 F 
ATOM     48  C37 UNL A   1       5.321  24.010   4.720  1.00  0.00    +0.000 C 
ATOM     49  F4  UNL A   1       5.456  23.693   6.016  1.00  0.00    +0.000 F 
ATOM     50  C38 UNL A   1       6.174  24.963   4.154  1.00  0.00    +0.000 C 
ATOM     51  F5  UNL A   1       7.038  25.492   5.020  1.00  0.00    +0.000 F 
ENDBRANCH   40   41
BRANCH   57   58
ATOM     65  C48 UNL A   1       3.120  33.088   0.476  1.00  0.00    +0.000 C 
ATOM     66  F9  UNL A   1       2.514  34.181   0.961  1.00  0.00    +0.000 F 
ATOM     67  C49 UNL A   1       4.317  32.653   1.041  1.00  0.00    +0.000 C 
ATOM     68  F10 UNL A   1       4.773  33.330   2.106  1.00  0.00    +0.000 F 
ATOM     58  C44 UNL A   1       5.015  31.540   0.536  1.00  0.00    +0.000 C 
ATOM     59  C45 UNL A   1       4.423  30.859  -0.539  1.00  0.00    +0.000 C 
ATOM     60  F6  UNL A   1       5.029  29.796  -1.089  1.00  0.00    +0.000 F 
ATOM     61  C46 UNL A   1       3.202  31.270  -1.075  1.00  0.00    +0.000 C 
ATOM     62  F7  UNL A   1       2.649  30.579  -2.082  1.00  0.00    +0.000 F 
ATOM     63  C47 UNL A   1       2.561  32.394  -0.579  1.00  0.00    +0.000 C 
ATOM     64  F8  UNL A   1       1.403  32.804  -1.116  1.00  0.00    +0.000 F 
ENDBRANCH   57   58
BRANCH   72   73
ATOM     73  C53 UNL A   1      12.089  32.117  -0.618  1.00  0.00    +0.000 C 
ATOM     74  C54 UNL A   1      11.830  31.453  -1.833  1.00  0.00    +0.000 C 
ATOM     75  F11 UNL A   1      10.972  30.421  -1.863  1.00  0.00    +0.000 F 
ATOM     76  C55 UNL A   1      12.358  31.917  -3.034  1.00  0.00    +0.000 C 
ATOM     77  F12 UNL A   1      12.009  31.330  -4.188  1.00  0.00    +0.000 F 
ATOM     78  C56 UNL A   1      13.184  33.028  -3.040  1.00  0.00    +0.000 C 
ATOM     79  F13 UNL A   1      13.622  33.532  -4.202  1.00  0.00    +0.000 F 
ATOM     80  C57 UNL A   1      13.526  33.640  -1.843  1.00  0.00    +0.000 C 
ATOM     81  F14 UNL A   1      14.306  34.730  -1.852  1.00  0.00    +0.000 F 
ATOM     82  C58 UNL A   1      12.988  33.186  -0.638  1.00  0.00    +0.000 C 
ATOM     83  F15 UNL A   1      13.258  33.867   0.486  1.00  0.00    +0.000 F 
ENDBRANCH   72   73
TORSDOF 19
ENDMDL
MODEL 8
REMARK VINA RESULT:      -7.8      1.216      2.564
ROOT
ATOM    130  H32 UNL A   1      28.864  25.947  -7.573  1.00  0.00    +0.000 H 
ATOM    131  H33 UNL A   1      26.722  27.480  -7.722  1.00  0.00    +0.000 H 
ATOM    132  H34 UNL A   1      25.582  23.768  -6.338  1.00  0.00    +0.000 H 
ATOM    133  H35 UNL A   1      26.184  26.650 -11.016  1.00  0.00    +0.000 H 
ATOM    134  H36 UNL A   1      27.580  24.638 -10.292  1.00  0.00    +0.000 H 
ATOM    135  H37 UNL A   1      25.033  23.458 -13.347  1.00  0.00    +0.000 H 
ATOM    136  H38 UNL A   1      21.013  26.087 -10.275  1.00  0.00    +0.000 H 
ATOM    137  H39 UNL A   1      21.394  26.329  -7.740  1.00  0.00    +0.000 H 
ATOM    138  H40 UNL A   1      28.060  20.121  -7.379  1.00  0.00    +0.000 H 
ATOM    139  H41 UNL A   1      27.313  19.668  -9.799  1.00  0.00    +0.000 H 
ATOM     36  C29 UNL A   1      26.300  22.130 -11.059  1.00  0.00    +0.000 C 
ATOM     37  C30 UNL A   1      26.853  21.879  -9.715  1.00  0.00    +0.000 C 
ATOM     38  N6  UNL A   1      26.897  22.765  -8.778  1.00  0.00    +0.000 N 
ATOM     39  C31 UNL A   1      27.613  22.238  -7.732  1.00  0.00    +0.000 C 
ATOM     40  C32 UNL A   1      28.127  23.088  -6.799  1.00  0.00    +0.000 C 
ATOM     52  C39 UNL A   1      27.503  24.413  -6.896  1.00  0.00    +0.000 C 
ATOM     53  C40 UNL A   1      27.899  25.665  -7.340  1.00  0.00    +0.000 C 
ATOM     54  C41 UNL A   1      26.740  26.495  -7.417  1.00  0.00    +0.000 C 
ATOM     55  C42 UNL A   1      25.647  25.750  -7.012  1.00  0.00    +0.000 C 
ATOM     56  N7  UNL A   1      26.137  24.504  -6.682  1.00  0.00    +0.000 N 
ATOM     57  C43 UNL A   1      24.215  25.984  -6.945  1.00  0.00    +0.000 C 
ATOM     69  C50 UNL A   1      23.539  26.023  -8.127  1.00  0.00    +0.000 C 
ATOM     70  N8  UNL A   1      24.158  25.845  -9.333  1.00  0.00    +0.000 N 
ATOM     71  C51 UNL A   1      23.255  25.787 -10.271  1.00  0.00    +0.000 C 
ATOM     72  C52 UNL A   1      23.544  25.401 -11.702  1.00  0.00    +0.000 C 
ATOM     84  C59 UNL A   1      24.855  25.152 -11.981  1.00  0.00    +0.000 C 
ATOM     85  C60 UNL A   1      25.989  25.660 -11.237  1.00  0.00    +0.000 C 
ATOM     86  C61 UNL A   1      26.740  24.606 -10.891  1.00  0.00    +0.000 C 
ATOM     87  C62 UNL A   1      26.172  23.406 -11.499  1.00  0.00    +0.000 C 
ATOM     88  N9  UNL A   1      25.288  23.889 -12.500  1.00  0.00    +0.000 N 
ATOM     89  C63 UNL A   1      21.904  26.030  -9.759  1.00  0.00    +0.000 C 
ATOM     90  C64 UNL A   1      22.130  26.157  -8.441  1.00  0.00    +0.000 C 
ATOM     91  C65 UNL A   1      27.715  20.833  -8.041  1.00  0.00    +0.000 C 
ATOM     92  C66 UNL A   1      27.307  20.563  -9.285  1.00  0.00    +0.000 C 
ENDROOT
BRANCH   36   35
ATOM     33  C26 UNL A   1      26.546  19.546 -13.730  1.00  0.00    +0.000 C 
ATOM     34  C27 UNL A   1      26.555  20.822 -13.177  1.00  0.00    +0.000 C 
ATOM    129  H31 UNL A   1      27.000  21.608 -13.676  1.00  0.00    +0.000 H 
ATOM     35  C28 UNL A   1      25.950  21.016 -11.936  1.00  0.00    +0.000 C 
ATOM    140  H42 UNL A   1      24.532  20.255 -10.557  1.00  0.00    +0.000 H 
ATOM    141  H43 UNL A   1      24.338  18.091 -11.664  1.00  0.00    +0.000 H 
ATOM    128  H30 UNL A   1      27.007  19.359 -14.634  1.00  0.00    +0.000 H 
ATOM     93  C67 UNL A   1      25.098  20.041 -11.393  1.00  0.00    +0.000 C 
ATOM     94  C68 UNL A   1      25.020  18.795 -11.986  1.00  0.00    +0.000 C 
ATOM     32  C25 UNL A   1      25.897  18.524 -13.032  1.00  0.00    +0.000 C 
BRANCH   32   30
ATOM     30  C24 UNL A   1      26.510  17.176 -13.098  1.00  0.00    +0.000 C 
ATOM     31  O2  UNL A   1      25.881  16.234 -13.518  1.00  0.00    +0.000 O 
BRANCH   30   29
ATOM     29  N5  UNL A   1      27.855  17.088 -12.734  1.00  0.00    +0.000 N 
ATOM    127  H29 UNL A   1      28.450  16.639 -13.377  1.00  0.00    +0.000 H 
BRANCH   29   28
ATOM     28  C23 UNL A   1      28.493  17.585 -11.504  1.00  0.00    +0.000 C 
ATOM    125  H27 UNL A   1      27.719  17.859 -10.818  1.00  0.00    +0.000 H 
ATOM    126  H28 UNL A   1      29.116  16.789 -11.152  1.00  0.00    +0.000 H 
BRANCH   28   27
ATOM     27  C22 UNL A   1      29.412  18.792 -11.685  1.00  0.00    +0.000 C 
ATOM    124  H26 UNL A   1      28.751  19.632 -11.671  1.00  0.00    +0.000 H 
ATOM    123  H25 UNL A   1      29.957  18.641 -12.594  1.00  0.00    +0.000 H 
BRANCH   27   26
ATOM    121  H23 UNL A   1      29.990  18.809  -9.657  1.00  0.00    +0.000 H 
ATOM     26  C21 UNL A   1      30.433  19.095 -10.588  1.00  0.00    +0.000 C 
ATOM    122  H24 UNL A   1      31.304  18.548 -10.883  1.00  0.00    +0.000 H 
BRANCH   26   25
ATOM     25  C20 UNL A   1      30.931  20.540 -10.430  1.00  0.00    +0.000 C 
ATOM    119  H21 UNL A   1      30.830  20.770  -9.389  1.00  0.00    +0.000 H 
ATOM    120  H22 UNL A   1      31.899  20.475 -10.883  1.00  0.00    +0.000 H 
BRANCH   25   24
ATOM    117  H19 UNL A   1      30.876  21.823 -12.108  1.00  0.00    +0.000 H 
ATOM    118  H20 UNL A   1      29.291  21.497 -11.216  1.00  0.00    +0.000 H 
ATOM     24  C19 UNL A   1      30.330  21.747 -11.189  1.00  0.00    +0.000 C 
BRANCH   24   23
ATOM    115  H17 UNL A   1      29.730  23.773 -11.258  1.00  0.00    +0.000 H 
ATOM    116  H18 UNL A   1      29.881  23.036  -9.618  1.00  0.00    +0.000 H 
ATOM     23  C18 UNL A   1      30.299  23.156 -10.595  1.00  0.00    +0.000 C 
BRANCH   23   22
ATOM    114  H16 UNL A   1      31.739  24.203  -9.488  1.00  0.00    +0.000 H 
ATOM     22  N4  UNL A   1      31.580  23.813 -10.377  1.00  0.00    +0.000 N 
BRANCH   22   20
ATOM     20  C17 UNL A   1      32.586  23.936 -11.309  1.00  0.00    +0.000 C 
ATOM     21  O1  UNL A   1      33.394  22.995 -11.343  1.00  0.00    +0.000 O 
BRANCH   20   19
ATOM    110  H12 UNL A   1      32.253  24.844 -15.738  1.00  0.00    +0.000 H 
ATOM    111  H13 UNL A   1      33.858  25.154 -14.102  1.00  0.00    +0.000 H 
ATOM    112  H14 UNL A   1      33.354  23.602 -13.738  1.00  0.00    +0.000 H 
ATOM     17  C15 UNL A   1      31.958  24.721 -14.717  1.00  0.00    +0.000 C 
ATOM     18  N3  UNL A   1      33.078  24.583 -13.779  1.00  0.00    +0.000 N 
ATOM     19  C16 UNL A   1      32.676  25.025 -12.421  1.00  0.00    +0.000 C 
ATOM    142  H44 UNL A   1      31.583  26.825 -11.946  1.00  0.00    +0.000 H 
ATOM    143  H45 UNL A   1      30.587  25.422 -11.968  1.00  0.00    +0.000 H 
ATOM    113  H15 UNL A   1      33.516  25.614 -12.113  1.00  0.00    +0.000 H 
ATOM     95  C69 UNL A   1      31.411  25.900 -12.456  1.00  0.00    +0.000 C 
ATOM     96  S1  UNL A   1      31.069  26.200 -14.207  1.00  0.00    +0.000 S 
BRANCH   17   16
ATOM      6  C6  UNL A   1      29.758  23.284 -15.031  1.00  0.00    +0.000 C 
ATOM      7  N1  UNL A   1      29.393  21.992 -14.853  1.00  0.00    +0.000 N 
ATOM      8  N2  UNL A   1      30.559  21.333 -14.623  1.00  0.00    +0.000 N 
ATOM    109  H11 UNL A   1      32.535  21.935 -14.068  1.00  0.00    +0.000 H 
ATOM     15  C13 UNL A   1      31.591  22.191 -14.398  1.00  0.00    +0.000 C 
ATOM     16  C14 UNL A   1      31.150  23.465 -14.688  1.00  0.00    +0.000 C 
BRANCH    6    5
ATOM     97  C70 UNL A   1      28.928  24.786 -16.868  1.00  0.00    +0.000 C 
ATOM      2  C2  UNL A   1      26.939  26.181 -16.590  1.00  0.00    +0.000 C 
ATOM      3  C3  UNL A   1      26.848  25.742 -15.272  1.00  0.00    +0.000 C 
ATOM      4  C4  UNL A   1      27.773  24.819 -14.774  1.00  0.00    +0.000 C 
ATOM     98  C71 UNL A   1      27.997  25.712 -17.377  1.00  0.00    +0.000 C 
ATOM    102  H4  UNL A   1      26.097  26.100 -14.661  1.00  0.00    +0.000 H 
ATOM      5  C5  UNL A   1      28.813  24.297 -15.562  1.00  0.00    +0.000 C 
ATOM    103  H5  UNL A   1      27.687  24.509 -13.793  1.00  0.00    +0.000 H 
ATOM    144  H46 UNL A   1      29.704  24.462 -17.465  1.00  0.00    +0.000 H 
ATOM    145  H47 UNL A   1      28.097  26.051 -18.346  1.00  0.00    +0.000 H 
BRANCH    2    1
ATOM      1  C1  UNL A   1      25.910  27.137 -17.116  1.00  0.00    +0.000 C 
ATOM     99  H1  UNL A   1      25.545  27.747 -16.315  1.00  0.00    +0.000 H 
ATOM    100  H2  UNL A   1      25.098  26.588 -17.545  1.00  0.00    +0.000 H 
ATOM    101  H3  UNL A   1      26.352  27.761 -17.865  1.00  0.00    +0.000 H 
ENDBRANCH    2    1
ENDBRANCH    6    5
BRANCH    8    9
ATOM    104  H6  UNL A   1      32.613  19.866 -13.878  1.00  0.00    +0.000 H 
ATOM      9  C7  UNL A   1      30.721  19.944 -14.836  1.00  0.00    +0.000 C 
ATOM     10  C8  UNL A   1      31.908  19.322 -14.401  1.00  0.00    +0.000 C 
ATOM     11  C9  UNL A   1      32.133  17.974 -14.674  1.00  0.00    +0.000 C 
ATOM    108  H10 UNL A   1      28.865  19.655 -15.802  1.00  0.00    +0.000 H 
ATOM     13  C11 UNL A   1      29.930  17.828 -15.663  1.00  0.00    +0.000 C 
ATOM     14  C12 UNL A   1      29.732  19.201 -15.474  1.00  0.00    +0.000 C 
ATOM    105  H7  UNL A   1      33.032  17.534 -14.421  1.00  0.00    +0.000 H 
ATOM    107  H9  UNL A   1      29.180  17.257 -16.081  1.00  0.00    +0.000 H 
ATOM     12  C10 UNL A   1      31.136  17.224 -15.292  1.00  0.00    +0.000 C 
ATOM    106  H8  UNL A   1      31.287  16.220 -15.476  1.00  0.00    +0.000 H 
ENDBRANCH    8    9
ENDBRANCH   17   16
ENDBRANCH   20   19
ENDBRANCH   22   20
ENDBRANCH   23   22
ENDBRANCH   24   23
ENDBRANCH   25   24
ENDBRANCH   26   25
ENDBRANCH   27   26
ENDBRANCH   28   27
ENDBRANCH   29   28
ENDBRANCH   30   29
ENDBRANCH   32   30
ENDBRANCH   36   35
BRANCH   40   41
ATOM     41  C33 UNL A   1      29.305  22.797  -5.882  1.00  0.00    +0.000 C 
ATOM     42  C34 UNL A   1      29.100  22.671  -4.488  1.00  0.00    +0.000 C 
ATOM     43  F1  UNL A   1      27.868  22.676  -3.958  1.00  0.00    +0.000 F 
ATOM     44  C35 UNL A   1      30.154  22.559  -3.573  1.00  0.00    +0.000 C 
ATOM     45  F2  UNL A   1      29.890  22.505  -2.259  1.00  0.00    +0.000 F 
ATOM     46  C36 UNL A   1      31.461  22.527  -4.006  1.00  0.00    +0.000 C 
ATOM     47  F3  UNL A   1      32.473  22.434  -3.133  1.00  0.00    +0.000 F 
ATOM     48  C37 UNL A   1      31.713  22.602  -5.355  1.00  0.00    +0.000 C 
ATOM     49  F4  UNL A   1      32.975  22.567  -5.806  1.00  0.00    +0.000 F 
ATOM     50  C38 UNL A   1      30.662  22.747  -6.267  1.00  0.00    +0.000 C 
ATOM     51  F5  UNL A   1      31.062  22.874  -7.532  1.00  0.00    +0.000 F 
ENDBRANCH   40   41
BRANCH   57   58
ATOM     65  C48 UNL A   1      22.596  25.157  -3.593  1.00  0.00    +0.000 C 
ATOM     66  F9  UNL A   1      22.205  24.063  -2.925  1.00  0.00    +0.000 F 
ATOM     67  C49 UNL A   1      23.077  25.038  -4.895  1.00  0.00    +0.000 C 
ATOM     68  F10 UNL A   1      23.060  23.813  -5.443  1.00  0.00    +0.000 F 
ATOM     58  C44 UNL A   1      23.543  26.151  -5.620  1.00  0.00    +0.000 C 
ATOM     59  C45 UNL A   1      23.459  27.399  -4.982  1.00  0.00    +0.000 C 
ATOM     60  F6  UNL A   1      23.894  28.509  -5.596  1.00  0.00    +0.000 F 
ATOM     61  C46 UNL A   1      22.935  27.522  -3.694  1.00  0.00    +0.000 C 
ATOM     62  F7  UNL A   1      22.841  28.732  -3.126  1.00  0.00    +0.000 F 
ATOM     63  C47 UNL A   1      22.522  26.400  -2.994  1.00  0.00    +0.000 C 
ATOM     64  F8  UNL A   1      22.049  26.518  -1.745  1.00  0.00    +0.000 F 
ENDBRANCH   57   58
BRANCH   72   73
ATOM     73  C53 UNL A   1      22.619  24.660 -12.592  1.00  0.00    +0.000 C 
ATOM     74  C54 UNL A   1      22.355  25.189 -13.870  1.00  0.00    +0.000 C 
ATOM     75  F11 UNL A   1      22.628  26.477 -14.132  1.00  0.00    +0.000 F 
ATOM     76  C55 UNL A   1      21.921  24.375 -14.912  1.00  0.00    +0.000 C 
ATOM     77  F12 UNL A   1      21.782  24.884 -16.145  1.00  0.00    +0.000 F 
ATOM     78  C56 UNL A   1      21.707  23.026 -14.689  1.00  0.00    +0.000 C 
ATOM     79  F13 UNL A   1      21.377  22.221 -15.708  1.00  0.00    +0.000 F 
ATOM     80  C57 UNL A   1      21.872  22.503 -13.414  1.00  0.00    +0.000 C 
ATOM     81  F14 UNL A   1      21.687  21.192 -13.204  1.00  0.00    +0.000 F 
ATOM     82  C58 UNL A   1      22.318  23.313 -12.370  1.00  0.00    +0.000 C 
ATOM     83  F15 UNL A   1      22.567  22.751 -11.178  1.00  0.00    +0.000 F 
ENDBRANCH   72   73
TORSDOF 19
ENDMDL
MODEL 9
REMARK VINA RESULT:      -7.8     17.488     22.476
ROOT
ATOM    130  H32 UNL A   1      14.958  31.255  -2.383  1.00  0.00    +0.000 H 
ATOM    131  H33 UNL A   1      13.873  30.869  -4.757  1.00  0.00    +0.000 H 
ATOM    132  H34 UNL A   1      10.848  31.282  -1.986  1.00  0.00    +0.000 H 
ATOM    133  H35 UNL A   1      14.003  27.449  -4.417  1.00  0.00    +0.000 H 
ATOM    134  H36 UNL A   1      14.077  28.125  -1.956  1.00  0.00    +0.000 H 
ATOM    135  H37 UNL A   1      12.281  24.397  -2.258  1.00  0.00    +0.000 H 
ATOM    136  H38 UNL A   1       9.160  26.835  -6.360  1.00  0.00    +0.000 H 
ATOM    137  H39 UNL A   1       8.854  29.392  -6.288  1.00  0.00    +0.000 H 
ATOM    138  H40 UNL A   1      11.620  30.244   2.356  1.00  0.00    +0.000 H 
ATOM    139  H41 UNL A   1      11.488  27.676   2.300  1.00  0.00    +0.000 H 
ATOM     36  C29 UNL A   1      12.096  26.656  -0.396  1.00  0.00    +0.000 C 
ATOM     37  C30 UNL A   1      12.061  28.028   0.143  1.00  0.00    +0.000 C 
ATOM     38  N6  UNL A   1      12.222  29.088  -0.576  1.00  0.00    +0.000 N 
ATOM     39  C31 UNL A   1      12.289  30.166   0.270  1.00  0.00    +0.000 C 
ATOM     40  C32 UNL A   1      12.833  31.327  -0.193  1.00  0.00    +0.000 C 
ATOM     52  C39 UNL A   1      12.925  31.315  -1.658  1.00  0.00    +0.000 C 
ATOM     53  C40 UNL A   1      13.947  31.201  -2.586  1.00  0.00    +0.000 C 
ATOM     54  C41 UNL A   1      13.360  30.995  -3.871  1.00  0.00    +0.000 C 
ATOM     55  C42 UNL A   1      11.985  30.995  -3.722  1.00  0.00    +0.000 C 
ATOM     56  N7  UNL A   1      11.747  31.211  -2.381  1.00  0.00    +0.000 N 
ATOM     57  C43 UNL A   1      10.857  30.760  -4.608  1.00  0.00    +0.000 C 
ATOM     69  C50 UNL A   1      10.646  29.477  -5.012  1.00  0.00    +0.000 C 
ATOM     70  N8  UNL A   1      11.441  28.440  -4.609  1.00  0.00    +0.000 N 
ATOM     71  C51 UNL A   1      10.923  27.319  -5.027  1.00  0.00    +0.000 C 
ATOM     72  C52 UNL A   1      11.411  25.952  -4.607  1.00  0.00    +0.000 C 
ATOM     84  C59 UNL A   1      12.490  25.954  -3.774  1.00  0.00    +0.000 C 
ATOM     85  C60 UNL A   1      13.461  27.021  -3.650  1.00  0.00    +0.000 C 
ATOM     86  C61 UNL A   1      13.525  27.348  -2.353  1.00  0.00    +0.000 C 
ATOM     87  C62 UNL A   1      12.684  26.425  -1.594  1.00  0.00    +0.000 C 
ATOM     88  N9  UNL A   1      12.443  25.342  -2.480  1.00  0.00    +0.000 N 
ATOM     89  C63 UNL A   1       9.739  27.530  -5.864  1.00  0.00    +0.000 C 
ATOM     90  C64 UNL A   1       9.605  28.866  -5.814  1.00  0.00    +0.000 C 
ATOM     91  C65 UNL A   1      11.838  29.653   1.540  1.00  0.00    +0.000 C 
ATOM     92  C66 UNL A   1      11.733  28.320   1.532  1.00  0.00    +0.000 C 
ENDROOT
BRANCH   36   35
ATOM     33  C26 UNL A   1      11.595  24.217   2.375  1.00  0.00    +0.000 C 
ATOM     34  C27 UNL A   1      12.286  24.908   1.386  1.00  0.00    +0.000 C 
ATOM    129  H31 UNL A   1      13.317  24.950   1.396  1.00  0.00    +0.000 H 
ATOM     35  C28 UNL A   1      11.557  25.543   0.380  1.00  0.00    +0.000 C 
ATOM    140  H42 UNL A   1       9.705  25.600  -0.648  1.00  0.00    +0.000 H 
ATOM    141  H43 UNL A   1       8.548  24.190   0.969  1.00  0.00    +0.000 H 
ATOM    128  H30 UNL A   1      12.099  23.759   3.149  1.00  0.00    +0.000 H 
ATOM     93  C67 UNL A   1      10.197  25.251   0.189  1.00  0.00    +0.000 C 
ATOM     94  C68 UNL A   1       9.521  24.494   1.127  1.00  0.00    +0.000 C 
ATOM     32  C25 UNL A   1      10.201  24.159   2.294  1.00  0.00    +0.000 C 
BRANCH   32   30
ATOM     30  C24 UNL A   1       9.455  24.204   3.574  1.00  0.00    +0.000 C 
ATOM     31  O2  UNL A   1       8.392  23.642   3.687  1.00  0.00    +0.000 O 
BRANCH   30   29
ATOM     29  N5  UNL A   1      10.088  24.849   4.639  1.00  0.00    +0.000 N 
ATOM    127  H29 UNL A   1      10.900  24.415   4.987  1.00  0.00    +0.000 H 
BRANCH   29   28
ATOM     28  C23 UNL A   1       9.687  26.099   5.306  1.00  0.00    +0.000 C 
ATOM    125  H27 UNL A   1       8.624  26.083   5.423  1.00  0.00    +0.000 H 
ATOM    126  H28 UNL A   1      10.222  26.124   6.232  1.00  0.00    +0.000 H 
BRANCH   28   27
ATOM     27  C22 UNL A   1      10.061  27.383   4.567  1.00  0.00    +0.000 C 
ATOM    124  H26 UNL A   1      10.512  27.043   3.659  1.00  0.00    +0.000 H 
ATOM    123  H25 UNL A   1      10.694  27.950   5.219  1.00  0.00    +0.000 H 
BRANCH   27   26
ATOM    121  H23 UNL A   1       8.326  28.512   4.965  1.00  0.00    +0.000 H 
ATOM     26  C21 UNL A   1       8.935  28.309   4.109  1.00  0.00    +0.000 C 
ATOM    122  H24 UNL A   1       9.443  29.148   3.682  1.00  0.00    +0.000 H 
BRANCH   26   25
ATOM     25  C20 UNL A   1       7.998  27.825   2.990  1.00  0.00    +0.000 C 
ATOM    119  H21 UNL A   1       7.877  26.773   3.146  1.00  0.00    +0.000 H 
ATOM    120  H22 UNL A   1       7.171  28.494   3.111  1.00  0.00    +0.000 H 
BRANCH   25   24
ATOM    117  H19 UNL A   1       9.355  28.151   1.403  1.00  0.00    +0.000 H 
ATOM    118  H20 UNL A   1       7.865  27.110   1.068  1.00  0.00    +0.000 H 
ATOM     24  C19 UNL A   1       8.298  27.996   1.481  1.00  0.00    +0.000 C 
BRANCH   24   23
ATOM    115  H17 UNL A   1       8.282  29.272  -0.205  1.00  0.00    +0.000 H 
ATOM    116  H18 UNL A   1       6.674  28.710   0.392  1.00  0.00    +0.000 H 
ATOM     23  C18 UNL A   1       7.645  29.090   0.635  1.00  0.00    +0.000 C 
BRANCH   23   22
ATOM    114  H16 UNL A   1       7.107  30.350   2.222  1.00  0.00    +0.000 H 
ATOM     22  N4  UNL A   1       7.396  30.370   1.281  1.00  0.00    +0.000 N 
BRANCH   22   20
ATOM     20  C17 UNL A   1       7.530  31.606   0.689  1.00  0.00    +0.000 C 
ATOM     21  O1  UNL A   1       8.683  31.905   0.342  1.00  0.00    +0.000 O 
BRANCH   20   19
ATOM    110  H12 UNL A   1       3.497  31.910  -1.360  1.00  0.00    +0.000 H 
ATOM    111  H13 UNL A   1       5.556  32.936  -1.600  1.00  0.00    +0.000 H 
ATOM    112  H14 UNL A   1       6.035  31.347  -1.384  1.00  0.00    +0.000 H 
ATOM     17  C15 UNL A   1       4.214  31.784  -0.576  1.00  0.00    +0.000 C 
ATOM     18  N3  UNL A   1       5.585  32.152  -0.948  1.00  0.00    +0.000 N 
ATOM     19  C16 UNL A   1       6.363  32.544   0.253  1.00  0.00    +0.000 C 
ATOM    142  H44 UNL A   1       5.688  33.858   1.828  1.00  0.00    +0.000 H 
ATOM    143  H45 UNL A   1       5.561  32.193   2.243  1.00  0.00    +0.000 H 
ATOM    113  H15 UNL A   1       6.874  33.423  -0.080  1.00  0.00    +0.000 H 
ATOM     95  C69 UNL A   1       5.447  32.891   1.440  1.00  0.00    +0.000 C 
ATOM     96  S1  UNL A   1       3.762  32.879   0.780  1.00  0.00    +0.000 S 
BRANCH   17   16
ATOM      6  C6  UNL A   1       4.434  29.201  -1.107  1.00  0.00    +0.000 C 
ATOM      7  N1  UNL A   1       4.287  28.041  -0.425  1.00  0.00    +0.000 N 
ATOM      8  N2  UNL A   1       4.167  28.417   0.874  1.00  0.00    +0.000 N 
ATOM    109  H11 UNL A   1       3.726  30.261   1.865  1.00  0.00    +0.000 H 
ATOM     15  C13 UNL A   1       3.978  29.759   0.999  1.00  0.00    +0.000 C 
ATOM     16  C14 UNL A   1       4.182  30.329  -0.240  1.00  0.00    +0.000 C 
BRANCH    6    5
ATOM     97  C70 UNL A   1       6.202  29.121  -2.893  1.00  0.00    +0.000 C 
ATOM      2  C2  UNL A   1       5.634  29.188  -5.271  1.00  0.00    +0.000 C 
ATOM      3  C3  UNL A   1       4.296  29.345  -4.919  1.00  0.00    +0.000 C 
ATOM      4  C4  UNL A   1       3.922  29.364  -3.572  1.00  0.00    +0.000 C 
ATOM     98  C71 UNL A   1       6.586  29.097  -4.248  1.00  0.00    +0.000 C 
ATOM    102  H4  UNL A   1       3.580  29.450  -5.654  1.00  0.00    +0.000 H 
ATOM      5  C5  UNL A   1       4.855  29.224  -2.530  1.00  0.00    +0.000 C 
ATOM    103  H5  UNL A   1       2.924  29.484  -3.334  1.00  0.00    +0.000 H 
ATOM    144  H46 UNL A   1       6.923  29.062  -2.158  1.00  0.00    +0.000 H 
ATOM    145  H47 UNL A   1       7.584  29.011  -4.491  1.00  0.00    +0.000 H 
BRANCH    2    1
ATOM      1  C1  UNL A   1       6.007  29.126  -6.722  1.00  0.00    +0.000 C 
ATOM     99  H1  UNL A   1       5.465  28.334  -7.197  1.00  0.00    +0.000 H 
ATOM    100  H2  UNL A   1       7.058  28.945  -6.813  1.00  0.00    +0.000 H 
ATOM    101  H3  UNL A   1       5.764  30.056  -7.193  1.00  0.00    +0.000 H 
ENDBRANCH    2    1
ENDBRANCH    6    5
BRANCH    8    9
ATOM    104  H6  UNL A   1       5.087  25.955   0.725  1.00  0.00    +0.000 H 
ATOM      9  C7  UNL A   1       4.450  27.557   1.962  1.00  0.00    +0.000 C 
ATOM     10  C8  UNL A   1       4.904  26.250   1.698  1.00  0.00    +0.000 C 
ATOM     11  C9  UNL A   1       5.106  25.354   2.745  1.00  0.00    +0.000 C 
ATOM    108  H10 UNL A   1       3.933  28.941   3.471  1.00  0.00    +0.000 H 
ATOM     13  C11 UNL A   1       4.566  27.107   4.322  1.00  0.00    +0.000 C 
ATOM     14  C12 UNL A   1       4.273  27.988   3.274  1.00  0.00    +0.000 C 
ATOM    105  H7  UNL A   1       5.369  24.375   2.550  1.00  0.00    +0.000 H 
ATOM    107  H9  UNL A   1       4.496  27.434   5.297  1.00  0.00    +0.000 H 
ATOM     12  C10 UNL A   1       4.952  25.788   4.059  1.00  0.00    +0.000 C 
ATOM    106  H8  UNL A   1       5.123  25.137   4.840  1.00  0.00    +0.000 H 
ENDBRANCH    8    9
ENDBRANCH   17   16
ENDBRANCH   20   19
ENDBRANCH   22   20
ENDBRANCH   23   22
ENDBRANCH   24   23
ENDBRANCH   25   24
ENDBRANCH   26   25
ENDBRANCH   27   26
ENDBRANCH   28   27
ENDBRANCH   29   28
ENDBRANCH   30   29
ENDBRANCH   32   30
ENDBRANCH   36   35
BRANCH   40   41
ATOM     41  C33 UNL A   1      13.434  32.433   0.661  1.00  0.00    +0.000 C 
ATOM     42  C34 UNL A   1      14.827  32.459   0.903  1.00  0.00    +0.000 C 
ATOM     43  F1  UNL A   1      15.660  31.604   0.294  1.00  0.00    +0.000 F 
ATOM     44  C35 UNL A   1      15.424  33.351   1.803  1.00  0.00    +0.000 C 
ATOM     45  F2  UNL A   1      16.744  33.281   2.031  1.00  0.00    +0.000 F 
ATOM     46  C36 UNL A   1      14.667  34.287   2.473  1.00  0.00    +0.000 C 
ATOM     47  F3  UNL A   1      15.232  35.132   3.344  1.00  0.00    +0.000 F 
ATOM     48  C37 UNL A   1      13.313  34.331   2.240  1.00  0.00    +0.000 C 
ATOM     49  F4  UNL A   1      12.552  35.235   2.874  1.00  0.00    +0.000 F 
ATOM     50  C38 UNL A   1      12.712  33.419   1.367  1.00  0.00    +0.000 C 
ATOM     51  F5  UNL A   1      11.387  33.539   1.293  1.00  0.00    +0.000 F 
ENDBRANCH   40   41
BRANCH   57   58
ATOM     65  C48 UNL A   1       8.352  33.630  -4.435  1.00  0.00    +0.000 C 
ATOM     66  F9  UNL A   1       7.523  34.168  -3.529  1.00  0.00    +0.000 F 
ATOM     67  C49 UNL A   1       9.061  32.472  -4.122  1.00  0.00    +0.000 C 
ATOM     68  F10 UNL A   1       8.820  31.911  -2.927  1.00  0.00    +0.000 F 
ATOM     58  C44 UNL A   1       9.979  31.897  -5.022  1.00  0.00    +0.000 C 
ATOM     59  C45 UNL A   1      10.112  32.522  -6.271  1.00  0.00    +0.000 C 
ATOM     60  F6  UNL A   1      10.974  32.046  -7.182  1.00  0.00    +0.000 F 
ATOM     61  C46 UNL A   1       9.367  33.656  -6.599  1.00  0.00    +0.000 C 
ATOM     62  F7  UNL A   1       9.497  34.209  -7.813  1.00  0.00    +0.000 F 
ATOM     63  C47 UNL A   1       8.502  34.219  -5.676  1.00  0.00    +0.000 C 
ATOM     64  F8  UNL A   1       7.812  35.326  -5.983  1.00  0.00    +0.000 F 
ENDBRANCH   57   58
BRANCH   72   73
ATOM     73  C53 UNL A   1      10.555  24.754  -4.434  1.00  0.00    +0.000 C 
ATOM     74  C54 UNL A   1      10.991  23.537  -4.992  1.00  0.00    +0.000 C 
ATOM     75  F11 UNL A   1      11.939  23.536  -5.943  1.00  0.00    +0.000 F 
ATOM     76  C55 UNL A   1      10.543  22.316  -4.497  1.00  0.00    +0.000 C 
ATOM     77  F12 UNL A   1      11.055  21.173  -4.974  1.00  0.00    +0.000 F 
ATOM     78  C56 UNL A   1       9.624  22.287  -3.462  1.00  0.00    +0.000 C 
ATOM     79  F13 UNL A   1       9.258  21.118  -2.921  1.00  0.00    +0.000 F 
ATOM     80  C57 UNL A   1       9.112  23.476  -2.961  1.00  0.00    +0.000 C 
ATOM     81  F14 UNL A   1       8.240  23.449  -1.943  1.00  0.00    +0.000 F 
ATOM     82  C58 UNL A   1       9.568  24.702  -3.446  1.00  0.00    +0.000 C 
ATOM     83  F15 UNL A   1       9.129  25.829  -2.866  1.00  0.00    +0.000 F 
ENDBRANCH   72   73
TORSDOF 19
ENDMDL
MODEL 10
REMARK VINA RESULT:      -7.5     29.708     37.427
ROOT
ATOM    130  H32 UNL A   1      19.403  51.199   1.644  1.00  0.00    +0.000 H 
ATOM    131  H33 UNL A   1      18.429  48.764   1.349  1.00  0.00    +0.000 H 
ATOM    132  H34 UNL A   1      15.427  51.479   0.566  1.00  0.00    +0.000 H 
ATOM    133  H35 UNL A   1      17.632  48.526   4.686  1.00  0.00    +0.000 H 
ATOM    134  H36 UNL A   1      17.701  51.068   4.444  1.00  0.00    +0.000 H 
ATOM    135  H37 UNL A   1      15.016  50.091   7.453  1.00  0.00    +0.000 H 
ATOM    136  H38 UNL A   1      12.952  46.372   3.656  1.00  0.00    +0.000 H 
ATOM    137  H39 UNL A   1      13.324  46.864   1.156  1.00  0.00    +0.000 H 
ATOM    138  H40 UNL A   1      15.582  55.604   2.433  1.00  0.00    +0.000 H 
ATOM    139  H41 UNL A   1      14.784  55.112   4.828  1.00  0.00    +0.000 H 
ATOM     36  C29 UNL A   1      15.296  52.301   5.545  1.00  0.00    +0.000 C 
ATOM     37  C30 UNL A   1      15.584  53.062   4.315  1.00  0.00    +0.000 C 
ATOM     38  N6  UNL A   1      16.070  52.537   3.241  1.00  0.00    +0.000 N 
ATOM     39  C31 UNL A   1      16.356  53.555   2.366  1.00  0.00    +0.000 C 
ATOM     40  C32 UNL A   1      17.218  53.308   1.339  1.00  0.00    +0.000 C 
ATOM     52  C39 UNL A   1      17.410  51.866   1.148  1.00  0.00    +0.000 C 
ATOM     53  C40 UNL A   1      18.431  50.961   1.390  1.00  0.00    +0.000 C 
ATOM     54  C41 UNL A   1      17.904  49.644   1.227  1.00  0.00    +0.000 C 
ATOM     55  C42 UNL A   1      16.571  49.752   0.877  1.00  0.00    +0.000 C 
ATOM     56  N7  UNL A   1      16.301  51.103   0.815  1.00  0.00    +0.000 N 
ATOM     57  C43 UNL A   1      15.489  48.808   0.658  1.00  0.00    +0.000 C 
ATOM     69  C50 UNL A   1      14.977  48.187   1.757  1.00  0.00    +0.000 C 
ATOM     70  N8  UNL A   1      15.440  48.432   3.021  1.00  0.00    +0.000 N 
ATOM     71  C51 UNL A   1      14.678  47.817   3.881  1.00  0.00    +0.000 C 
ATOM     72  C52 UNL A   1      14.758  48.014   5.376  1.00  0.00    +0.000 C 
ATOM     84  C59 UNL A   1      15.736  48.865   5.796  1.00  0.00    +0.000 C 
ATOM     85  C60 UNL A   1      16.942  49.195   5.064  1.00  0.00    +0.000 C 
ATOM     86  C61 UNL A   1      16.995  50.530   4.972  1.00  0.00    +0.000 C 
ATOM     87  C62 UNL A   1      15.889  51.098   5.738  1.00  0.00    +0.000 C 
ATOM     88  N9  UNL A   1      15.436  50.036   6.565  1.00  0.00    +0.000 N 
ATOM     89  C63 UNL A   1      13.655  46.994   3.230  1.00  0.00    +0.000 C 
ATOM     90  C64 UNL A   1      13.873  47.264   1.932  1.00  0.00    +0.000 C 
ATOM     91  C65 UNL A   1      15.695  54.706   2.927  1.00  0.00    +0.000 C 
ATOM     92  C66 UNL A   1      15.245  54.471   4.164  1.00  0.00    +0.000 C 
ENDROOT
BRANCH   36   35
ATOM     33  C26 UNL A   1      12.466  52.680   7.936  1.00  0.00    +0.000 C 
ATOM     34  C27 UNL A   1      13.087  52.502   6.706  1.00  0.00    +0.000 C 
ATOM    129  H31 UNL A   1      12.567  52.111   5.905  1.00  0.00    +0.000 H 
ATOM     35  C28 UNL A   1      14.429  52.863   6.576  1.00  0.00    +0.000 C 
ATOM    140  H42 UNL A   1      15.992  54.049   7.376  1.00  0.00    +0.000 H 
ATOM    141  H43 UNL A   1      14.804  54.557   9.443  1.00  0.00    +0.000 H 
ATOM    128  H30 UNL A   1      11.483  52.399   8.076  1.00  0.00    +0.000 H 
ATOM     93  C67 UNL A   1      15.055  53.655   7.552  1.00  0.00    +0.000 C 
ATOM     94  C68 UNL A   1      14.408  53.906   8.747  1.00  0.00    +0.000 C 
ATOM     32  C25 UNL A   1      13.204  53.247   8.978  1.00  0.00    +0.000 C 
BRANCH   32   30
ATOM     30  C24 UNL A   1      12.941  52.730  10.342  1.00  0.00    +0.000 C 
ATOM     31  O2  UNL A   1      11.927  52.119  10.584  1.00  0.00    +0.000 O 
BRANCH   30   29
ATOM     29  N5  UNL A   1      13.958  52.913  11.282  1.00  0.00    +0.000 N 
ATOM    127  H29 UNL A   1      14.138  53.843  11.550  1.00  0.00    +0.000 H 
BRANCH   29   28
ATOM     28  C23 UNL A   1      14.794  51.883  11.920  1.00  0.00    +0.000 C 
ATOM    125  H27 UNL A   1      15.061  52.232  12.895  1.00  0.00    +0.000 H 
ATOM    126  H28 UNL A   1      14.205  50.989  11.929  1.00  0.00    +0.000 H 
BRANCH   28   27
ATOM     27  C22 UNL A   1      16.081  51.532  11.174  1.00  0.00    +0.000 C 
ATOM    124  H26 UNL A   1      16.855  51.688  11.896  1.00  0.00    +0.000 H 
ATOM    123  H25 UNL A   1      16.122  52.154  10.303  1.00  0.00    +0.000 H 
BRANCH   27   26
ATOM    121  H23 UNL A   1      17.068  50.095   9.989  1.00  0.00    +0.000 H 
ATOM     26  C21 UNL A   1      16.279  50.089  10.712  1.00  0.00    +0.000 C 
ATOM    122  H24 UNL A   1      16.471  49.548  11.615  1.00  0.00    +0.000 H 
BRANCH   26   25
ATOM     25  C20 UNL A   1      15.088  49.353  10.078  1.00  0.00    +0.000 C 
ATOM    119  H21 UNL A   1      14.446  50.117   9.691  1.00  0.00    +0.000 H 
ATOM    120  H22 UNL A   1      15.591  48.677   9.418  1.00  0.00    +0.000 H 
BRANCH   25   24
ATOM    117  H19 UNL A   1      14.070  47.508  10.235  1.00  0.00    +0.000 H 
ATOM    118  H20 UNL A   1      14.664  48.304  11.793  1.00  0.00    +0.000 H 
ATOM     24  C19 UNL A   1      14.165  48.379  10.851  1.00  0.00    +0.000 C 
BRANCH   24   23
ATOM    115  H17 UNL A   1      12.638  49.813  11.133  1.00  0.00    +0.000 H 
ATOM    116  H18 UNL A   1      12.105  48.152  10.667  1.00  0.00    +0.000 H 
ATOM     23  C18 UNL A   1      12.746  48.757  11.274  1.00  0.00    +0.000 C 
BRANCH   23   22
ATOM    114  H16 UNL A   1      12.080  47.534  12.841  1.00  0.00    +0.000 H 
ATOM     22  N4  UNL A   1      12.359  48.457  12.645  1.00  0.00    +0.000 N 
BRANCH   22   20
ATOM     20  C17 UNL A   1      12.349  49.354  13.689  1.00  0.00    +0.000 C 
ATOM     21  O1  UNL A   1      13.181  49.135  14.583  1.00  0.00    +0.000 O 
BRANCH   20   19
ATOM    110  H12 UNL A   1       8.931  51.626  15.615  1.00  0.00    +0.000 H 
ATOM    111  H13 UNL A   1       9.544  51.081  13.452  1.00  0.00    +0.000 H 
ATOM    112  H14 UNL A   1       9.852  49.630  14.227  1.00  0.00    +0.000 H 
ATOM     17  C15 UNL A   1       9.923  51.259  15.453  1.00  0.00    +0.000 C 
ATOM     18  N3  UNL A   1      10.120  50.611  14.151  1.00  0.00    +0.000 N 
ATOM     19  C16 UNL A   1      11.545  50.689  13.743  1.00  0.00    +0.000 C 
ATOM    142  H44 UNL A   1      12.801  52.441  13.851  1.00  0.00    +0.000 H 
ATOM    143  H45 UNL A   1      13.058  51.350  15.156  1.00  0.00    +0.000 H 
ATOM    113  H15 UNL A   1      11.474  50.968  12.712  1.00  0.00    +0.000 H 
ATOM     95  C69 UNL A   1      12.305  51.774  14.525  1.00  0.00    +0.000 C 
ATOM     96  S1  UNL A   1      11.052  52.660  15.482  1.00  0.00    +0.000 S 
BRANCH   17   16
ATOM      6  C6  UNL A   1      10.367  50.475  17.941  1.00  0.00    +0.000 C 
ATOM      7  N1  UNL A   1      10.555  49.298  18.583  1.00  0.00    +0.000 N 
ATOM      8  N2  UNL A   1      10.249  48.350  17.660  1.00  0.00    +0.000 N 
ATOM    109  H11 UNL A   1      10.038  48.344  15.531  1.00  0.00    +0.000 H 
ATOM     15  C13 UNL A   1      10.129  48.877  16.411  1.00  0.00    +0.000 C 
ATOM     16  C14 UNL A   1      10.152  50.250  16.530  1.00  0.00    +0.000 C 
BRANCH    6    5
ATOM     97  C70 UNL A   1      11.516  52.349  19.161  1.00  0.00    +0.000 C 
ATOM      2  C2  UNL A   1      10.284  54.290  19.995  1.00  0.00    +0.000 C 
ATOM      3  C3  UNL A   1       9.104  53.694  19.558  1.00  0.00    +0.000 C 
ATOM      4  C4  UNL A   1       9.141  52.455  18.910  1.00  0.00    +0.000 C 
ATOM     98  C71 UNL A   1      11.488  53.598  19.810  1.00  0.00    +0.000 C 
ATOM    102  H4  UNL A   1       8.200  54.167  19.714  1.00  0.00    +0.000 H 
ATOM      5  C5  UNL A   1      10.343  51.768  18.670  1.00  0.00    +0.000 C 
ATOM    103  H5  UNL A   1       8.253  52.032  18.597  1.00  0.00    +0.000 H 
ATOM    144  H46 UNL A   1      12.415  51.855  19.045  1.00  0.00    +0.000 H 
ATOM    145  H47 UNL A   1      12.368  54.012  20.156  1.00  0.00    +0.000 H 
BRANCH    2    1
ATOM      1  C1  UNL A   1      10.225  55.639  20.647  1.00  0.00    +0.000 C 
ATOM     99  H1  UNL A   1       9.444  55.650  21.379  1.00  0.00    +0.000 H 
ATOM    100  H2  UNL A   1      10.031  56.386  19.906  1.00  0.00    +0.000 H 
ATOM    101  H3  UNL A   1      11.162  55.846  21.123  1.00  0.00    +0.000 H 
ENDBRANCH    2    1
ENDBRANCH    6    5
BRANCH    8    9
ATOM    104  H6  UNL A   1      11.412  46.127  16.864  1.00  0.00    +0.000 H 
ATOM      9  C7  UNL A   1       9.864  47.031  17.999  1.00  0.00    +0.000 C 
ATOM     10  C8  UNL A   1      10.581  45.949  17.450  1.00  0.00    +0.000 C 
ATOM     11  C9  UNL A   1      10.171  44.641  17.696  1.00  0.00    +0.000 C 
ATOM    108  H10 UNL A   1       8.256  47.590  19.249  1.00  0.00    +0.000 H 
ATOM     13  C11 UNL A   1       8.441  45.480  19.164  1.00  0.00    +0.000 C 
ATOM     14  C12 UNL A   1       8.789  46.800  18.852  1.00  0.00    +0.000 C 
ATOM    105  H7  UNL A   1      10.650  43.850  17.237  1.00  0.00    +0.000 H 
ATOM    107  H9  UNL A   1       7.685  45.299  19.841  1.00  0.00    +0.000 H 
ATOM     12  C10 UNL A   1       9.110  44.406  18.566  1.00  0.00    +0.000 C 
ATOM    106  H8  UNL A   1       8.816  43.439  18.772  1.00  0.00    +0.000 H 
ENDBRANCH    8    9
ENDBRANCH   17   16
ENDBRANCH   20   19
ENDBRANCH   22   20
ENDBRANCH   23   22
ENDBRANCH   24   23
ENDBRANCH   25   24
ENDBRANCH   26   25
ENDBRANCH   27   26
ENDBRANCH   28   27
ENDBRANCH   29   28
ENDBRANCH   30   29
ENDBRANCH   32   30
ENDBRANCH   36   35
BRANCH   40   41
ATOM     41  C33 UNL A   1      18.025  54.354   0.583  1.00  0.00    +0.000 C 
ATOM     42  C34 UNL A   1      17.953  54.416  -0.828  1.00  0.00    +0.000 C 
ATOM     43  F1  UNL A   1      17.092  53.656  -1.520  1.00  0.00    +0.000 F 
ATOM     44  C35 UNL A   1      18.782  55.244  -1.595  1.00  0.00    +0.000 C 
ATOM     45  F2  UNL A   1      18.703  55.208  -2.933  1.00  0.00    +0.000 F 
ATOM     46  C36 UNL A   1      19.694  56.081  -0.989  1.00  0.00    +0.000 C 
ATOM     47  F3  UNL A   1      20.498  56.864  -1.718  1.00  0.00    +0.000 F 
ATOM     48  C37 UNL A   1      19.773  56.090   0.383  1.00  0.00    +0.000 C 
ATOM     49  F4  UNL A   1      20.647  56.899   1.000  1.00  0.00    +0.000 F 
ATOM     50  C38 UNL A   1      18.969  55.239   1.147  1.00  0.00    +0.000 C 
ATOM     51  F5  UNL A   1      19.202  55.310   2.457  1.00  0.00    +0.000 F 
ENDBRANCH   40   41
BRANCH   57   58
ATOM     65  C48 UNL A   1      13.483  49.199  -2.561  1.00  0.00    +0.000 C 
ATOM     66  F9  UNL A   1      12.462  49.945  -3.008  1.00  0.00    +0.000 F 
ATOM     67  C49 UNL A   1      13.876  49.293  -1.228  1.00  0.00    +0.000 C 
ATOM     68  F10 UNL A   1      13.152  50.094  -0.431  1.00  0.00    +0.000 F 
ATOM     58  C44 UNL A   1      14.972  48.567  -0.724  1.00  0.00    +0.000 C 
ATOM     59  C45 UNL A   1      15.624  47.706  -1.621  1.00  0.00    +0.000 C 
ATOM     60  F6  UNL A   1      16.685  46.988  -1.226  1.00  0.00    +0.000 F 
ATOM     61  C46 UNL A   1      15.200  47.580  -2.945  1.00  0.00    +0.000 C 
ATOM     62  F7  UNL A   1      15.826  46.726  -3.766  1.00  0.00    +0.000 F 
ATOM     63  C47 UNL A   1      14.143  48.339  -3.418  1.00  0.00    +0.000 C 
ATOM     64  F8  UNL A   1      13.758  48.239  -4.698  1.00  0.00    +0.000 F 
ENDBRANCH   57   58
BRANCH   72   73
ATOM     73  C53 UNL A   1      13.607  47.958   6.309  1.00  0.00    +0.000 C 
ATOM     74  C54 UNL A   1      12.363  48.445   5.864  1.00  0.00    +0.000 C 
ATOM     75  F11 UNL A   1      12.304  49.254   4.793  1.00  0.00    +0.000 F 
ATOM     76  C55 UNL A   1      11.172  48.014   6.439  1.00  0.00    +0.000 C 
ATOM     77  F12 UNL A   1       9.999  48.410   5.925  1.00  0.00    +0.000 F 
ATOM     78  C56 UNL A   1      11.201  47.118   7.495  1.00  0.00    +0.000 C 
ATOM     79  F13 UNL A   1      10.058  46.630   7.993  1.00  0.00    +0.000 F 
ATOM     80  C57 UNL A   1      12.420  46.698   8.009  1.00  0.00    +0.000 C 
ATOM     81  F14 UNL A   1      12.448  45.812   9.014  1.00  0.00    +0.000 F 
ATOM     82  C58 UNL A   1      13.616  47.118   7.426  1.00  0.00    +0.000 C 
ATOM     83  F15 UNL A   1      14.770  46.610   7.882  1.00  0.00    +0.000 F 
ENDBRANCH   72   73
TORSDOF 19
ENDMDL
