MODEL 1
REMARK VINA RESULT:      -9.5      0.000      0.000
ROOT
ATOM    129  H39 UNL A   1      12.642   2.061  21.597  1.00  0.00    +0.000 H 
ATOM     29  C23 UNL A   1      10.148   0.739  22.094  1.00  0.00    +0.000 C 
ATOM     30  C24 UNL A   1      11.412   0.628  22.857  1.00  0.00    +0.000 C 
ATOM     31  N4  UNL A   1      11.668  -0.164  23.842  1.00  0.00    +0.000 N 
ATOM     32  C25 UNL A   1      12.973   0.122  24.231  1.00  0.00    +0.000 C 
ATOM     33  C26 UNL A   1      13.409  -0.164  25.489  1.00  0.00    +0.000 C 
ATOM     45  C33 UNL A   1      12.510  -1.077  26.151  1.00  0.00    +0.000 C 
ATOM     46  C34 UNL A   1      12.146  -2.394  25.958  1.00  0.00    +0.000 C 
ATOM     47  C35 UNL A   1      10.752  -2.444  26.263  1.00  0.00    +0.000 C 
ATOM     48  C36 UNL A   1      10.352  -1.174  26.684  1.00  0.00    +0.000 C 
ATOM     49  N5  UNL A   1      11.534  -0.531  26.947  1.00  0.00    +0.000 N 
ATOM     50  C37 UNL A   1       9.056  -0.533  26.751  1.00  0.00    +0.000 C 
ATOM     62  C44 UNL A   1       8.850   0.812  26.871  1.00  0.00    +0.000 C 
ATOM     63  N6  UNL A   1       7.641   1.384  26.499  1.00  0.00    +0.000 N 
ATOM     64  C45 UNL A   1       7.936   2.614  26.176  1.00  0.00    +0.000 C 
ATOM     65  C46 UNL A   1       7.313   3.335  25.036  1.00  0.00    +0.000 C 
ATOM     77  C53 UNL A   1       7.709   2.683  23.916  1.00  0.00    +0.000 C 
ATOM     78  C54 UNL A   1       7.137   2.673  22.590  1.00  0.00    +0.000 C 
ATOM     79  C55 UNL A   1       7.857   1.820  21.834  1.00  0.00    +0.000 C 
ATOM     80  C56 UNL A   1       9.055   1.381  22.566  1.00  0.00    +0.000 C 
ATOM     81  N7  UNL A   1       8.851   1.861  23.837  1.00  0.00    +0.000 N 
ATOM     82  C57 UNL A   1       9.216   3.100  26.660  1.00  0.00    +0.000 C 
ATOM     83  C58 UNL A   1       9.768   1.939  27.019  1.00  0.00    +0.000 C 
ATOM     84  C59 UNL A   1      13.536   0.943  23.191  1.00  0.00    +0.000 C 
ATOM     85  C60 UNL A   1      12.579   1.379  22.369  1.00  0.00    +0.000 C 
ATOM    120  H30 UNL A   1      12.750  -3.174  25.658  1.00  0.00    +0.000 H 
ATOM    121  H31 UNL A   1      10.145  -3.275  26.186  1.00  0.00    +0.000 H 
ATOM    122  H32 UNL A   1      11.662   0.199  27.596  1.00  0.00    +0.000 H 
ATOM    123  H33 UNL A   1       6.322   3.222  22.277  1.00  0.00    +0.000 H 
ATOM    124  H34 UNL A   1       7.605   1.519  20.879  1.00  0.00    +0.000 H 
ATOM    125  H35 UNL A   1       9.435   1.654  24.602  1.00  0.00    +0.000 H 
ATOM    126  H36 UNL A   1       9.590   4.060  26.711  1.00  0.00    +0.000 H 
ATOM    127  H37 UNL A   1      10.737   1.847  27.362  1.00  0.00    +0.000 H 
ATOM    128  H38 UNL A   1      14.539   1.163  23.094  1.00  0.00    +0.000 H 
ENDROOT
BRANCH   29   28
ATOM    130  H40 UNL A   1      10.035   2.289  20.018  1.00  0.00    +0.000 H 
ATOM    131  H41 UNL A   1       9.344   1.535  17.813  1.00  0.00    +0.000 H 
ATOM     28  C22 UNL A   1      10.235   0.309  20.711  1.00  0.00    +0.000 C 
ATOM     86  C61 UNL A   1      10.028   1.290  19.760  1.00  0.00    +0.000 C 
ATOM     87  C62 UNL A   1       9.814   0.899  18.475  1.00  0.00    +0.000 C 
ATOM    118  H28 UNL A   1      10.854  -2.283  18.682  1.00  0.00    +0.000 H 
ATOM     25  C19 UNL A   1      10.229  -0.356  18.056  1.00  0.00    +0.000 C 
ATOM     26  C20 UNL A   1      10.569  -1.341  18.988  1.00  0.00    +0.000 C 
ATOM     27  C21 UNL A   1      10.514  -1.017  20.343  1.00  0.00    +0.000 C 
ATOM    119  H29 UNL A   1      10.674  -1.739  21.062  1.00  0.00    +0.000 H 
BRANCH   25   23
ATOM     23  C18 UNL A   1      10.311  -0.583  16.601  1.00  0.00    +0.000 C 
ATOM     24  O3  UNL A   1      11.086   0.055  15.918  1.00  0.00    +0.000 O 
BRANCH   23   22
ATOM    117  H27 UNL A   1       9.896  -2.128  15.363  1.00  0.00    +0.000 H 
ATOM     22  N3  UNL A   1       9.484  -1.549  16.045  1.00  0.00    +0.000 N 
BRANCH   22   21
ATOM    115  H25 UNL A   1       7.848  -1.422  17.313  1.00  0.00    +0.000 H 
ATOM    116  H26 UNL A   1       7.485  -1.355  15.581  1.00  0.00    +0.000 H 
ATOM     21  C17 UNL A   1       8.074  -1.818  16.345  1.00  0.00    +0.000 C 
BRANCH   21   20
ATOM    113  H23 UNL A   1       6.956  -3.477  17.038  1.00  0.00    +0.000 H 
ATOM    114  H24 UNL A   1       7.469  -3.561  15.341  1.00  0.00    +0.000 H 
ATOM     20  C16 UNL A   1       7.749  -3.301  16.340  1.00  0.00    +0.000 C 
BRANCH   20   19
ATOM     19  C15 UNL A   1       8.944  -4.185  16.725  1.00  0.00    +0.000 C 
ATOM    111  H21 UNL A   1       8.832  -5.123  16.221  1.00  0.00    +0.000 H 
ATOM    112  H22 UNL A   1       9.813  -3.629  16.437  1.00  0.00    +0.000 H 
BRANCH   19   18
ATOM     18  C14 UNL A   1       9.122  -4.476  18.224  1.00  0.00    +0.000 C 
ATOM    109  H19 UNL A   1       9.510  -3.593  18.689  1.00  0.00    +0.000 H 
ATOM    110  H20 UNL A   1       8.158  -4.762  18.588  1.00  0.00    +0.000 H 
BRANCH   18   17
ATOM     17  C13 UNL A   1      10.064  -5.637  18.554  1.00  0.00    +0.000 C 
ATOM    107  H17 UNL A   1       9.481  -6.529  18.654  1.00  0.00    +0.000 H 
ATOM    108  H18 UNL A   1      10.772  -5.708  17.754  1.00  0.00    +0.000 H 
BRANCH   17   16
ATOM    105  H15 UNL A   1      10.842  -6.328  20.418  1.00  0.00    +0.000 H 
ATOM    106  H16 UNL A   1      11.862  -5.163  19.594  1.00  0.00    +0.000 H 
ATOM     16  C12 UNL A   1      10.856  -5.426  19.844  1.00  0.00    +0.000 C 
BRANCH   16   15
ATOM     15  N2  UNL A   1      10.276  -4.358  20.624  1.00  0.00    +0.000 N 
ATOM    104  H14 UNL A   1      10.400  -3.460  20.242  1.00  0.00    +0.000 H 
BRANCH   15   13
ATOM     13  C11 UNL A   1       9.589  -4.381  21.794  1.00  0.00    +0.000 C 
ATOM     14  O2  UNL A   1       8.358  -4.399  21.726  1.00  0.00    +0.000 O 
BRANCH   13   12
ATOM     12  C10 UNL A   1      10.281  -4.272  23.141  1.00  0.00    +0.000 C 
ATOM    102  H12 UNL A   1      11.323  -4.137  22.939  1.00  0.00    +0.000 H 
ATOM    103  H13 UNL A   1       9.754  -3.470  23.615  1.00  0.00    +0.000 H 
BRANCH   12   11
ATOM     11  C9  UNL A   1      10.176  -5.405  24.170  1.00  0.00    +0.000 C 
ATOM    100  H10 UNL A   1      10.593  -6.272  23.702  1.00  0.00    +0.000 H 
ATOM    101  H11 UNL A   1      10.671  -4.981  25.018  1.00  0.00    +0.000 H 
BRANCH   11   10
ATOM     10  C8  UNL A   1       8.830  -5.844  24.770  1.00  0.00    +0.000 C 
ATOM     99  H9  UNL A   1       8.122  -5.435  24.079  1.00  0.00    +0.000 H 
ATOM     98  H8  UNL A   1       8.818  -5.491  25.779  1.00  0.00    +0.000 H 
BRANCH   10    9
ATOM      2  C2  UNL A   1       8.760 -11.942  24.354  1.00  0.00    +0.000 C 
ATOM      3  C3  UNL A   1       7.965 -11.675  23.230  1.00  0.00    +0.000 C 
ATOM      4  C4  UNL A   1       7.565 -10.357  22.948  1.00  0.00    +0.000 C 
ATOM      6  C6  UNL A   1       8.034  -9.363  23.798  1.00  0.00    +0.000 C 
ATOM      7  C7  UNL A   1       7.938  -7.890  23.681  1.00  0.00    +0.000 C 
ATOM      8  O1  UNL A   1       7.552  -7.337  22.659  1.00  0.00    +0.000 O 
ATOM      9  N1  UNL A   1       8.449  -7.254  24.820  1.00  0.00    +0.000 N 
ATOM     88  S1  UNL A   1       9.053  -8.355  25.984  1.00  0.00    +0.000 S 
ATOM     89  C63 UNL A   1       8.750  -9.730  24.919  1.00  0.00    +0.000 C 
ATOM     90  N8  UNL A   1       9.145 -10.978  25.220  1.00  0.00    +0.000 N 
ATOM     94  H4  UNL A   1       7.675 -12.447  22.609  1.00  0.00    +0.000 H 
BRANCH    2    1
ATOM      1  C1  UNL A   1       9.256 -13.329  24.640  1.00  0.00    +0.000 C 
ATOM     91  H1  UNL A   1       8.446 -14.022  24.549  1.00  0.00    +0.000 H 
ATOM     92  H2  UNL A   1       9.650 -13.369  25.633  1.00  0.00    +0.000 H 
ATOM     93  H3  UNL A   1      10.024 -13.584  23.940  1.00  0.00    +0.000 H 
ENDBRANCH    2    1
BRANCH    4    5
ATOM     97  H7  UNL A   1       6.819  -9.066  21.456  1.00  0.00    +0.000 H 
ATOM      5  C5  UNL A   1       6.646 -10.063  21.805  1.00  0.00    +0.000 C 
ATOM     95  H5  UNL A   1       5.631 -10.156  22.130  1.00  0.00    +0.000 H 
ATOM     96  H6  UNL A   1       6.832 -10.757  21.010  1.00  0.00    +0.000 H 
ENDBRANCH    4    5
ENDBRANCH   10    9
ENDBRANCH   11   10
ENDBRANCH   12   11
ENDBRANCH   13   12
ENDBRANCH   15   13
ENDBRANCH   16   15
ENDBRANCH   17   16
ENDBRANCH   18   17
ENDBRANCH   19   18
ENDBRANCH   20   19
ENDBRANCH   21   20
ENDBRANCH   22   21
ENDBRANCH   23   22
ENDBRANCH   25   23
ENDBRANCH   29   28
BRANCH   33   34
ATOM     34  C27 UNL A   1      14.449   0.629  26.239  1.00  0.00    +0.000 C 
ATOM     35  C28 UNL A   1      15.766   0.135  26.324  1.00  0.00    +0.000 C 
ATOM     36  F1  UNL A   1      16.157  -0.904  25.571  1.00  0.00    +0.000 F 
ATOM     37  C29 UNL A   1      16.690   0.646  27.241  1.00  0.00    +0.000 C 
ATOM     38  F2  UNL A   1      17.894   0.072  27.361  1.00  0.00    +0.000 F 
ATOM     39  C30 UNL A   1      16.351   1.703  28.066  1.00  0.00    +0.000 C 
ATOM     40  F3  UNL A   1      17.217   2.161  28.978  1.00  0.00    +0.000 F 
ATOM     41  C31 UNL A   1      15.089   2.250  27.975  1.00  0.00    +0.000 C 
ATOM     42  F4  UNL A   1      14.734   3.262  28.778  1.00  0.00    +0.000 F 
ATOM     43  C32 UNL A   1      14.149   1.707  27.100  1.00  0.00    +0.000 C 
ATOM     44  F5  UNL A   1      12.913   2.208  27.212  1.00  0.00    +0.000 F 
ENDBRANCH   33   34
BRANCH   50   51
ATOM     51  C38 UNL A   1       7.854  -1.396  26.450  1.00  0.00    +0.000 C 
ATOM     52  C39 UNL A   1       7.526  -1.873  25.167  1.00  0.00    +0.000 C 
ATOM     53  F6  UNL A   1       8.261  -1.534  24.101  1.00  0.00    +0.000 F 
ATOM     54  C40 UNL A   1       6.462  -2.754  24.967  1.00  0.00    +0.000 C 
ATOM     55  F7  UNL A   1       6.167  -3.184  23.731  1.00  0.00    +0.000 F 
ATOM     56  C41 UNL A   1       5.731  -3.214  26.049  1.00  0.00    +0.000 C 
ATOM     57  F8  UNL A   1       4.736  -4.094  25.865  1.00  0.00    +0.000 F 
ATOM     58  C42 UNL A   1       6.050  -2.780  27.325  1.00  0.00    +0.000 C 
ATOM     59  F9  UNL A   1       5.375  -3.257  28.381  1.00  0.00    +0.000 F 
ATOM     60  C43 UNL A   1       7.088  -1.872  27.521  1.00  0.00    +0.000 C 
ATOM     61  F10 UNL A   1       7.382  -1.493  28.775  1.00  0.00    +0.000 F 
ENDBRANCH   50   51
BRANCH   65   66
ATOM     66  C47 UNL A   1       6.812   4.724  25.153  1.00  0.00    +0.000 C 
ATOM     67  C48 UNL A   1       5.759   5.030  26.031  1.00  0.00    +0.000 C 
ATOM     68  F11 UNL A   1       5.028   4.046  26.574  1.00  0.00    +0.000 F 
ATOM     69  C49 UNL A   1       5.496   6.346  26.428  1.00  0.00    +0.000 C 
ATOM     70  F12 UNL A   1       4.530   6.593  27.325  1.00  0.00    +0.000 F 
ATOM     71  C50 UNL A   1       6.272   7.390  25.952  1.00  0.00    +0.000 C 
ATOM     72  F13 UNL A   1       6.069   8.640  26.391  1.00  0.00    +0.000 F 
ATOM     73  C51 UNL A   1       7.289   7.125  25.053  1.00  0.00    +0.000 C 
ATOM     74  F14 UNL A   1       8.070   8.123  24.614  1.00  0.00    +0.000 F 
ATOM     75  C52 UNL A   1       7.555   5.813  24.657  1.00  0.00    +0.000 C 
ATOM     76  F15 UNL A   1       8.614   5.615  23.860  1.00  0.00    +0.000 F 
ENDBRANCH   65   66
TORSDOF 20
ENDMDL
MODEL 2
REMARK VINA RESULT:      -9.4     36.705     42.824
ROOT
ATOM    129  H39 UNL A   1      22.848  33.533  49.085  1.00  0.00    +0.000 H 
ATOM     29  C23 UNL A   1      24.609  32.995  46.888  1.00  0.00    +0.000 C 
ATOM     30  C24 UNL A   1      24.618  34.156  47.808  1.00  0.00    +0.000 C 
ATOM     31  N4  UNL A   1      25.365  35.206  47.740  1.00  0.00    +0.000 N 
ATOM     32  C25 UNL A   1      25.017  35.991  48.835  1.00  0.00    +0.000 C 
ATOM     33  C26 UNL A   1      25.883  36.910  49.342  1.00  0.00    +0.000 C 
ATOM     45  C33 UNL A   1      26.950  37.183  48.411  1.00  0.00    +0.000 C 
ATOM     46  C34 UNL A   1      27.026  37.772  47.166  1.00  0.00    +0.000 C 
ATOM     47  C35 UNL A   1      28.005  37.015  46.455  1.00  0.00    +0.000 C 
ATOM     48  C36 UNL A   1      28.519  36.045  47.318  1.00  0.00    +0.000 C 
ATOM     49  N5  UNL A   1      28.111  36.465  48.558  1.00  0.00    +0.000 N 
ATOM     50  C37 UNL A   1      29.214  34.798  47.080  1.00  0.00    +0.000 C 
ATOM     62  C44 UNL A   1      29.367  33.796  47.996  1.00  0.00    +0.000 C 
ATOM     63  N6  UNL A   1      29.645  32.497  47.592  1.00  0.00    +0.000 N 
ATOM     64  C45 UNL A   1      29.166  31.740  48.541  1.00  0.00    +0.000 C 
ATOM     65  C46 UNL A   1      28.478  30.447  48.291  1.00  0.00    +0.000 C 
ATOM     77  C53 UNL A   1      27.342  30.748  47.617  1.00  0.00    +0.000 C 
ATOM     78  C54 UNL A   1      26.499  29.918  46.789  1.00  0.00    +0.000 C 
ATOM     79  C55 UNL A   1      25.517  30.693  46.288  1.00  0.00    +0.000 C 
ATOM     80  C56 UNL A   1      25.548  32.022  46.918  1.00  0.00    +0.000 C 
ATOM     81  N7  UNL A   1      26.722  32.014  47.630  1.00  0.00    +0.000 N 
ATOM     82  C57 UNL A   1      28.904  32.408  49.804  1.00  0.00    +0.000 C 
ATOM     83  C58 UNL A   1      28.976  33.677  49.398  1.00  0.00    +0.000 C 
ATOM     84  C59 UNL A   1      23.802  35.430  49.367  1.00  0.00    +0.000 C 
ATOM     85  C60 UNL A   1      23.570  34.227  48.838  1.00  0.00    +0.000 C 
ATOM    120  H30 UNL A   1      26.491  38.585  46.823  1.00  0.00    +0.000 H 
ATOM    121  H31 UNL A   1      28.286  37.159  45.471  1.00  0.00    +0.000 H 
ATOM    122  H32 UNL A   1      28.571  36.282  49.410  1.00  0.00    +0.000 H 
ATOM    123  H33 UNL A   1      26.626  28.910  46.613  1.00  0.00    +0.000 H 
ATOM    124  H34 UNL A   1      24.839  30.397  45.566  1.00  0.00    +0.000 H 
ATOM    125  H35 UNL A   1      27.087  32.801  48.095  1.00  0.00    +0.000 H 
ATOM    126  H36 UNL A   1      28.715  32.016  50.740  1.00  0.00    +0.000 H 
ATOM    127  H37 UNL A   1      28.777  34.486  50.008  1.00  0.00    +0.000 H 
ATOM    128  H38 UNL A   1      23.195  35.894  50.060  1.00  0.00    +0.000 H 
ENDROOT
BRANCH   29   28
ATOM    130  H40 UNL A   1      22.587  31.485  47.486  1.00  0.00    +0.000 H 
ATOM    131  H41 UNL A   1      21.019  30.624  45.841  1.00  0.00    +0.000 H 
ATOM     28  C22 UNL A   1      23.397  32.855  46.103  1.00  0.00    +0.000 C 
ATOM     86  C61 UNL A   1      22.499  31.901  46.546  1.00  0.00    +0.000 C 
ATOM     87  C62 UNL A   1      21.497  31.528  45.705  1.00  0.00    +0.000 C 
ATOM    118  H28 UNL A   1      21.681  34.029  43.477  1.00  0.00    +0.000 H 
ATOM     25  C19 UNL A   1      21.121  32.364  44.664  1.00  0.00    +0.000 C 
ATOM     26  C20 UNL A   1      21.945  33.420  44.267  1.00  0.00    +0.000 C 
ATOM     27  C21 UNL A   1      23.133  33.631  44.964  1.00  0.00    +0.000 C 
ATOM    119  H29 UNL A   1      23.807  34.345  44.648  1.00  0.00    +0.000 H 
BRANCH   25   23
ATOM     23  C18 UNL A   1      19.818  32.094  44.028  1.00  0.00    +0.000 C 
ATOM     24  O3  UNL A   1      19.407  30.957  43.917  1.00  0.00    +0.000 O 
BRANCH   23   22
ATOM    117  H27 UNL A   1      19.428  34.066  43.808  1.00  0.00    +0.000 H 
ATOM     22  N3  UNL A   1      19.079  33.177  43.571  1.00  0.00    +0.000 N 
BRANCH   22   21
ATOM    115  H25 UNL A   1      17.902  33.935  42.041  1.00  0.00    +0.000 H 
ATOM    116  H26 UNL A   1      17.753  32.195  42.336  1.00  0.00    +0.000 H 
ATOM     21  C17 UNL A   1      17.844  33.164  42.781  1.00  0.00    +0.000 C 
BRANCH   21   20
ATOM    113  H23 UNL A   1      16.912  33.798  44.573  1.00  0.00    +0.000 H 
ATOM    114  H24 UNL A   1      15.977  34.075  43.090  1.00  0.00    +0.000 H 
ATOM     20  C16 UNL A   1      16.606  33.398  43.628  1.00  0.00    +0.000 C 
BRANCH   20   19
ATOM     19  C15 UNL A   1      15.793  32.120  43.880  1.00  0.00    +0.000 C 
ATOM    111  H21 UNL A   1      16.115  31.706  44.813  1.00  0.00    +0.000 H 
ATOM    112  H22 UNL A   1      14.768  32.428  43.864  1.00  0.00    +0.000 H 
BRANCH   19   18
ATOM     18  C14 UNL A   1      15.907  31.018  42.814  1.00  0.00    +0.000 C 
ATOM    109  H19 UNL A   1      15.186  31.221  42.049  1.00  0.00    +0.000 H 
ATOM    110  H20 UNL A   1      16.918  31.044  42.466  1.00  0.00    +0.000 H 
BRANCH   18   17
ATOM     17  C13 UNL A   1      15.668  29.594  43.323  1.00  0.00    +0.000 C 
ATOM    107  H17 UNL A   1      15.673  29.611  44.393  1.00  0.00    +0.000 H 
ATOM    108  H18 UNL A   1      14.726  29.270  42.931  1.00  0.00    +0.000 H 
BRANCH   17   16
ATOM    105  H15 UNL A   1      16.321  28.010  42.048  1.00  0.00    +0.000 H 
ATOM    106  H16 UNL A   1      17.584  29.136  42.512  1.00  0.00    +0.000 H 
ATOM     16  C12 UNL A   1      16.724  28.596  42.847  1.00  0.00    +0.000 C 
BRANCH   16   15
ATOM     15  N2  UNL A   1      17.115  27.720  43.927  1.00  0.00    +0.000 N 
ATOM    104  H14 UNL A   1      17.919  28.009  44.415  1.00  0.00    +0.000 H 
BRANCH   15   13
ATOM     13  C11 UNL A   1      16.564  26.567  44.383  1.00  0.00    +0.000 C 
ATOM     14  O2  UNL A   1      17.306  25.586  44.476  1.00  0.00    +0.000 O 
BRANCH   13   12
ATOM     12  C10 UNL A   1      15.078  26.434  44.661  1.00  0.00    +0.000 C 
ATOM    102  H12 UNL A   1      14.973  25.667  45.400  1.00  0.00    +0.000 H 
ATOM    103  H13 UNL A   1      14.796  27.431  44.930  1.00  0.00    +0.000 H 
BRANCH   12   11
ATOM     11  C9  UNL A   1      14.097  26.093  43.533  1.00  0.00    +0.000 C 
ATOM    100  H10 UNL A   1      13.428  25.359  43.931  1.00  0.00    +0.000 H 
ATOM    101  H11 UNL A   1      13.717  27.058  43.270  1.00  0.00    +0.000 H 
BRANCH   11   10
ATOM     10  C8  UNL A   1      14.570  25.553  42.172  1.00  0.00    +0.000 C 
ATOM     99  H9  UNL A   1      15.537  25.156  42.402  1.00  0.00    +0.000 H 
ATOM     98  H8  UNL A   1      14.505  26.368  41.483  1.00  0.00    +0.000 H 
BRANCH   10    9
ATOM      2  C2  UNL A   1      13.061  19.985  40.151  1.00  0.00    +0.000 C 
ATOM      3  C3  UNL A   1      13.555  20.490  38.940  1.00  0.00    +0.000 C 
ATOM      4  C4  UNL A   1      13.931  21.841  38.841  1.00  0.00    +0.000 C 
ATOM      6  C6  UNL A   1      13.835  22.605  39.998  1.00  0.00    +0.000 C 
ATOM      7  C7  UNL A   1      14.303  23.984  40.266  1.00  0.00    +0.000 C 
ATOM      8  O1  UNL A   1      15.033  24.591  39.494  1.00  0.00    +0.000 O 
ATOM      9  N1  UNL A   1      13.902  24.420  41.537  1.00  0.00    +0.000 N 
ATOM     88  S1  UNL A   1      13.025  23.231  42.403  1.00  0.00    +0.000 S 
ATOM     89  C63 UNL A   1      13.270  22.041  41.123  1.00  0.00    +0.000 C 
ATOM     90  N8  UNL A   1      12.896  20.756  41.250  1.00  0.00    +0.000 N 
ATOM     94  H4  UNL A   1      13.642  19.868  38.120  1.00  0.00    +0.000 H 
BRANCH    2    1
ATOM      1  C1  UNL A   1      12.716  18.533  40.302  1.00  0.00    +0.000 C 
ATOM     91  H1  UNL A   1      12.053  18.241  39.514  1.00  0.00    +0.000 H 
ATOM     92  H2  UNL A   1      12.239  18.375  41.246  1.00  0.00    +0.000 H 
ATOM     93  H3  UNL A   1      13.610  17.946  40.252  1.00  0.00    +0.000 H 
ENDBRANCH    2    1
BRANCH    4    5
ATOM     97  H7  UNL A   1      14.032  23.428  37.456  1.00  0.00    +0.000 H 
ATOM      5  C5  UNL A   1      14.377  22.419  37.536  1.00  0.00    +0.000 C 
ATOM     95  H5  UNL A   1      13.973  21.839  36.733  1.00  0.00    +0.000 H 
ATOM     96  H6  UNL A   1      15.447  22.402  37.485  1.00  0.00    +0.000 H 
ENDBRANCH    4    5
ENDBRANCH   10    9
ENDBRANCH   11   10
ENDBRANCH   12   11
ENDBRANCH   13   12
ENDBRANCH   15   13
ENDBRANCH   16   15
ENDBRANCH   17   16
ENDBRANCH   18   17
ENDBRANCH   19   18
ENDBRANCH   20   19
ENDBRANCH   21   20
ENDBRANCH   22   21
ENDBRANCH   23   22
ENDBRANCH   25   23
ENDBRANCH   29   28
BRANCH   33   34
ATOM     34  C27 UNL A   1      25.960  37.308  50.795  1.00  0.00    +0.000 C 
ATOM     35  C28 UNL A   1      26.318  36.343  51.757  1.00  0.00    +0.000 C 
ATOM     36  F1  UNL A   1      26.800  35.149  51.383  1.00  0.00    +0.000 F 
ATOM     37  C29 UNL A   1      26.116  36.552  53.125  1.00  0.00    +0.000 C 
ATOM     38  F2  UNL A   1      26.368  35.564  53.993  1.00  0.00    +0.000 F 
ATOM     39  C30 UNL A   1      25.602  37.752  53.584  1.00  0.00    +0.000 C 
ATOM     40  F3  UNL A   1      25.362  37.935  54.888  1.00  0.00    +0.000 F 
ATOM     41  C31 UNL A   1      25.291  38.742  52.678  1.00  0.00    +0.000 C 
ATOM     42  F4  UNL A   1      24.774  39.904  53.101  1.00  0.00    +0.000 F 
ATOM     43  C32 UNL A   1      25.440  38.515  51.310  1.00  0.00    +0.000 C 
ATOM     44  F5  UNL A   1      24.956  39.479  50.519  1.00  0.00    +0.000 F 
ENDBRANCH   33   34
BRANCH   50   51
ATOM     51  C38 UNL A   1      29.609  34.501  45.653  1.00  0.00    +0.000 C 
ATOM     52  C39 UNL A   1      28.712  34.063  44.661  1.00  0.00    +0.000 C 
ATOM     53  F6  UNL A   1      27.427  33.833  44.952  1.00  0.00    +0.000 F 
ATOM     54  C40 UNL A   1      29.114  33.907  43.333  1.00  0.00    +0.000 C 
ATOM     55  F7  UNL A   1      28.239  33.479  42.411  1.00  0.00    +0.000 F 
ATOM     56  C41 UNL A   1      30.408  34.227  42.958  1.00  0.00    +0.000 C 
ATOM     57  F8  UNL A   1      30.785  34.119  41.676  1.00  0.00    +0.000 F 
ATOM     58  C42 UNL A   1      31.303  34.685  43.911  1.00  0.00    +0.000 C 
ATOM     59  F9  UNL A   1      32.543  35.039  43.547  1.00  0.00    +0.000 F 
ATOM     60  C43 UNL A   1      30.913  34.806  45.243  1.00  0.00    +0.000 C 
ATOM     61  F10 UNL A   1      31.802  35.275  46.133  1.00  0.00    +0.000 F 
ENDBRANCH   50   51
BRANCH   65   66
ATOM     66  C47 UNL A   1      28.778  29.223  49.071  1.00  0.00    +0.000 C 
ATOM     67  C48 UNL A   1      29.928  28.466  48.794  1.00  0.00    +0.000 C 
ATOM     68  F11 UNL A   1      30.623  28.685  47.669  1.00  0.00    +0.000 F 
ATOM     69  C49 UNL A   1      30.426  27.532  49.709  1.00  0.00    +0.000 C 
ATOM     70  F12 UNL A   1      31.567  26.880  49.443  1.00  0.00    +0.000 F 
ATOM     71  C50 UNL A   1      29.784  27.323  50.918  1.00  0.00    +0.000 C 
ATOM     72  F13 UNL A   1      30.303  26.485  51.826  1.00  0.00    +0.000 F 
ATOM     73  C51 UNL A   1      28.625  28.024  51.201  1.00  0.00    +0.000 C 
ATOM     74  F14 UNL A   1      28.015  27.858  52.384  1.00  0.00    +0.000 F 
ATOM     75  C52 UNL A   1      28.127  28.958  50.292  1.00  0.00    +0.000 C 
ATOM     76  F15 UNL A   1      27.057  29.670  50.668  1.00  0.00    +0.000 F 
ENDBRANCH   65   66
TORSDOF 20
ENDMDL
MODEL 3
REMARK VINA RESULT:      -9.2     28.404     33.324
ROOT
ATOM    129  H39 UNL A   1      24.455  20.855   4.177  1.00  0.00    +0.000 H 
ATOM     29  C23 UNL A   1      23.511  18.175   3.801  1.00  0.00    +0.000 C 
ATOM     30  C24 UNL A   1      24.514  18.665   4.773  1.00  0.00    +0.000 C 
ATOM     31  N4  UNL A   1      25.234  17.963   5.581  1.00  0.00    +0.000 N 
ATOM     32  C25 UNL A   1      25.999  18.876   6.300  1.00  0.00    +0.000 C 
ATOM     33  C26 UNL A   1      26.508  18.556   7.521  1.00  0.00    +0.000 C 
ATOM     45  C33 UNL A   1      26.461  17.132   7.743  1.00  0.00    +0.000 C 
ATOM     46  C34 UNL A   1      27.085  16.039   7.177  1.00  0.00    +0.000 C 
ATOM     47  C35 UNL A   1      26.092  15.014   7.152  1.00  0.00    +0.000 C 
ATOM     48  C36 UNL A   1      24.936  15.512   7.757  1.00  0.00    +0.000 C 
ATOM     49  N5  UNL A   1      25.370  16.636   8.412  1.00  0.00    +0.000 N 
ATOM     50  C37 UNL A   1      23.548  15.108   7.685  1.00  0.00    +0.000 C 
ATOM     62  C44 UNL A   1      22.485  15.879   8.065  1.00  0.00    +0.000 C 
ATOM     63  N6  UNL A   1      21.210  15.622   7.580  1.00  0.00    +0.000 N 
ATOM     64  C45 UNL A   1      20.595  16.773   7.622  1.00  0.00    +0.000 C 
ATOM     65  C46 UNL A   1      19.654  17.240   6.572  1.00  0.00    +0.000 C 
ATOM     77  C53 UNL A   1      20.392  17.393   5.445  1.00  0.00    +0.000 C 
ATOM     78  C54 UNL A   1      19.984  17.440   4.061  1.00  0.00    +0.000 C 
ATOM     79  C55 UNL A   1      21.094  17.545   3.304  1.00  0.00    +0.000 C 
ATOM     80  C56 UNL A   1      22.269  17.773   4.158  1.00  0.00    +0.000 C 
ATOM     81  N7  UNL A   1      21.789  17.575   5.429  1.00  0.00    +0.000 N 
ATOM     82  C57 UNL A   1      21.207  17.780   8.472  1.00  0.00    +0.000 C 
ATOM     83  C58 UNL A   1      22.397  17.208   8.665  1.00  0.00    +0.000 C 
ATOM     84  C59 UNL A   1      25.863  20.141   5.625  1.00  0.00    +0.000 C 
ATOM     85  C60 UNL A   1      24.867  20.093   4.738  1.00  0.00    +0.000 C 
ATOM    120  H30 UNL A   1      28.060  15.976   6.844  1.00  0.00    +0.000 H 
ATOM    121  H31 UNL A   1      26.207  14.068   6.754  1.00  0.00    +0.000 H 
ATOM    122  H32 UNL A   1      24.967  17.023   9.223  1.00  0.00    +0.000 H 
ATOM    123  H33 UNL A   1      19.014  17.401   3.713  1.00  0.00    +0.000 H 
ATOM    124  H34 UNL A   1      21.117  17.476   2.274  1.00  0.00    +0.000 H 
ATOM    125  H35 UNL A   1      22.355  17.562   6.234  1.00  0.00    +0.000 H 
ATOM    126  H36 UNL A   1      20.832  18.675   8.824  1.00  0.00    +0.000 H 
ATOM    127  H37 UNL A   1      23.171  17.655   9.180  1.00  0.00    +0.000 H 
ATOM    128  H38 UNL A   1      26.452  20.968   5.803  1.00  0.00    +0.000 H 
ENDROOT
BRANCH   29   28
ATOM    130  H40 UNL A   1      23.442  20.429   2.519  1.00  0.00    +0.000 H 
ATOM    131  H41 UNL A   1      23.221  20.597   0.104  1.00  0.00    +0.000 H 
ATOM     28  C22 UNL A   1      23.873  18.368   2.408  1.00  0.00    +0.000 C 
ATOM     86  C61 UNL A   1      23.643  19.632   1.896  1.00  0.00    +0.000 C 
ATOM     87  C62 UNL A   1      23.691  19.791   0.546  1.00  0.00    +0.000 C 
ATOM    118  H28 UNL A   1      25.217  16.926  -0.299  1.00  0.00    +0.000 H 
ATOM     25  C19 UNL A   1      24.371  18.869  -0.236  1.00  0.00    +0.000 C 
ATOM     26  C20 UNL A   1      24.732  17.624   0.286  1.00  0.00    +0.000 C 
ATOM     27  C21 UNL A   1      24.424  17.349   1.617  1.00  0.00    +0.000 C 
ATOM    119  H29 UNL A   1      24.598  16.413   2.013  1.00  0.00    +0.000 H 
BRANCH   25   23
ATOM     23  C18 UNL A   1      24.703  19.277  -1.614  1.00  0.00    +0.000 C 
ATOM     24  O3  UNL A   1      25.851  19.252  -2.007  1.00  0.00    +0.000 O 
BRANCH   23   22
ATOM    117  H27 UNL A   1      22.898  19.062  -2.502  1.00  0.00    +0.000 H 
ATOM     22  N3  UNL A   1      23.664  19.678  -2.443  1.00  0.00    +0.000 N 
BRANCH   22   21
ATOM    115  H25 UNL A   1      24.043  21.699  -2.712  1.00  0.00    +0.000 H 
ATOM    116  H26 UNL A   1      24.032  20.716  -4.185  1.00  0.00    +0.000 H 
ATOM     21  C17 UNL A   1      23.563  20.903  -3.243  1.00  0.00    +0.000 C 
BRANCH   21   20
ATOM    113  H23 UNL A   1      21.744  20.685  -4.304  1.00  0.00    +0.000 H 
ATOM    114  H24 UNL A   1      21.580  21.174  -2.606  1.00  0.00    +0.000 H 
ATOM     20  C16 UNL A   1      22.125  21.303  -3.517  1.00  0.00    +0.000 C 
BRANCH   20   19
ATOM     19  C15 UNL A   1      21.973  22.773  -3.935  1.00  0.00    +0.000 C 
ATOM    111  H21 UNL A   1      20.931  22.963  -4.089  1.00  0.00    +0.000 H 
ATOM    112  H22 UNL A   1      22.413  23.341  -3.140  1.00  0.00    +0.000 H 
BRANCH   19   18
ATOM     18  C14 UNL A   1      22.722  23.201  -5.207  1.00  0.00    +0.000 C 
ATOM    109  H19 UNL A   1      23.714  22.803  -5.158  1.00  0.00    +0.000 H 
ATOM    110  H20 UNL A   1      22.151  22.824  -6.030  1.00  0.00    +0.000 H 
BRANCH   18   17
ATOM     17  C13 UNL A   1      22.830  24.713  -5.421  1.00  0.00    +0.000 C 
ATOM    107  H17 UNL A   1      23.177  24.892  -6.417  1.00  0.00    +0.000 H 
ATOM    108  H18 UNL A   1      21.857  25.127  -5.254  1.00  0.00    +0.000 H 
BRANCH   17   16
ATOM    105  H15 UNL A   1      24.009  24.724  -3.640  1.00  0.00    +0.000 H 
ATOM    106  H16 UNL A   1      24.685  25.658  -4.963  1.00  0.00    +0.000 H 
ATOM     16  C12 UNL A   1      23.788  25.395  -4.443  1.00  0.00    +0.000 C 
BRANCH   16   15
ATOM     15  N2  UNL A   1      23.191  26.595  -3.906  1.00  0.00    +0.000 N 
ATOM    104  H14 UNL A   1      23.645  27.428  -4.167  1.00  0.00    +0.000 H 
BRANCH   15   13
ATOM     13  C11 UNL A   1      22.112  26.771  -3.102  1.00  0.00    +0.000 C 
ATOM     14  O2  UNL A   1      21.350  27.702  -3.376  1.00  0.00    +0.000 O 
BRANCH   13   12
ATOM     12  C10 UNL A   1      21.893  25.946  -1.848  1.00  0.00    +0.000 C 
ATOM    102  H12 UNL A   1      20.869  25.635  -1.861  1.00  0.00    +0.000 H 
ATOM    103  H13 UNL A   1      22.648  25.191  -1.925  1.00  0.00    +0.000 H 
BRANCH   12   11
ATOM     11  C9  UNL A   1      22.151  26.546  -0.460  1.00  0.00    +0.000 C 
ATOM    100  H10 UNL A   1      21.198  26.598   0.024  1.00  0.00    +0.000 H 
ATOM    101  H11 UNL A   1      22.900  25.890  -0.069  1.00  0.00    +0.000 H 
BRANCH   11   10
ATOM     10  C8  UNL A   1      22.805  27.926  -0.274  1.00  0.00    +0.000 C 
ATOM     99  H9  UNL A   1      22.972  28.244  -1.282  1.00  0.00    +0.000 H 
ATOM     98  H8  UNL A   1      23.654  27.777   0.359  1.00  0.00    +0.000 H 
BRANCH   10    9
ATOM      2  C2  UNL A   1      18.387  31.759   1.504  1.00  0.00    +0.000 C 
ATOM      3  C3  UNL A   1      18.841  32.503   0.405  1.00  0.00    +0.000 C 
ATOM      4  C4  UNL A   1      19.983  32.088  -0.303  1.00  0.00    +0.000 C 
ATOM      6  C6  UNL A   1      20.583  30.905   0.112  1.00  0.00    +0.000 C 
ATOM      7  C7  UNL A   1      21.674  30.124  -0.514  1.00  0.00    +0.000 C 
ATOM      8  O1  UNL A   1      22.087  30.361  -1.642  1.00  0.00    +0.000 O 
ATOM      9  N1  UNL A   1      22.057  29.046   0.295  1.00  0.00    +0.000 N 
ATOM     88  S1  UNL A   1      21.141  28.936   1.738  1.00  0.00    +0.000 S 
ATOM     89  C63 UNL A   1      20.109  30.281   1.248  1.00  0.00    +0.000 C 
ATOM     90  N8  UNL A   1      19.024  30.653   1.948  1.00  0.00    +0.000 N 
ATOM     94  H4  UNL A   1      18.335  33.355   0.115  1.00  0.00    +0.000 H 
BRANCH    2    1
ATOM      1  C1  UNL A   1      17.134  32.142   2.233  1.00  0.00    +0.000 C 
ATOM     91  H1  UNL A   1      16.982  33.198   2.149  1.00  0.00    +0.000 H 
ATOM     92  H2  UNL A   1      17.226  31.876   3.265  1.00  0.00    +0.000 H 
ATOM     93  H3  UNL A   1      16.300  31.626   1.805  1.00  0.00    +0.000 H 
ENDBRANCH    2    1
BRANCH    4    5
ATOM     97  H7  UNL A   1      19.778  33.584  -1.776  1.00  0.00    +0.000 H 
ATOM      5  C5  UNL A   1      20.533  32.914  -1.422  1.00  0.00    +0.000 C 
ATOM     95  H5  UNL A   1      20.843  32.272  -2.220  1.00  0.00    +0.000 H 
ATOM     96  H6  UNL A   1      21.373  33.477  -1.070  1.00  0.00    +0.000 H 
ENDBRANCH    4    5
ENDBRANCH   10    9
ENDBRANCH   11   10
ENDBRANCH   12   11
ENDBRANCH   13   12
ENDBRANCH   15   13
ENDBRANCH   16   15
ENDBRANCH   17   16
ENDBRANCH   18   17
ENDBRANCH   19   18
ENDBRANCH   20   19
ENDBRANCH   21   20
ENDBRANCH   22   21
ENDBRANCH   23   22
ENDBRANCH   25   23
ENDBRANCH   29   28
BRANCH   33   34
ATOM     34  C27 UNL A   1      26.733  19.539   8.643  1.00  0.00    +0.000 C 
ATOM     35  C28 UNL A   1      27.944  19.500   9.362  1.00  0.00    +0.000 C 
ATOM     36  F1  UNL A   1      28.975  18.760   8.928  1.00  0.00    +0.000 F 
ATOM     37  C29 UNL A   1      28.099  20.159  10.586  1.00  0.00    +0.000 C 
ATOM     38  F2  UNL A   1      29.230  20.003  11.286  1.00  0.00    +0.000 F 
ATOM     39  C30 UNL A   1      27.071  20.923  11.108  1.00  0.00    +0.000 C 
ATOM     40  F3  UNL A   1      27.199  21.514  12.302  1.00  0.00    +0.000 F 
ATOM     41  C31 UNL A   1      25.890  21.031  10.407  1.00  0.00    +0.000 C 
ATOM     42  F4  UNL A   1      24.874  21.751  10.904  1.00  0.00    +0.000 F 
ATOM     43  C32 UNL A   1      25.714  20.331   9.214  1.00  0.00    +0.000 C 
ATOM     44  F5  UNL A   1      24.476  20.377   8.706  1.00  0.00    +0.000 F 
ENDBRANCH   33   34
BRANCH   50   51
ATOM     51  C38 UNL A   1      23.248  13.831   6.939  1.00  0.00    +0.000 C 
ATOM     52  C39 UNL A   1      23.304  13.702   5.539  1.00  0.00    +0.000 C 
ATOM     53  F6  UNL A   1      23.589  14.757   4.765  1.00  0.00    +0.000 F 
ATOM     54  C40 UNL A   1      23.121  12.469   4.912  1.00  0.00    +0.000 C 
ATOM     55  F7  UNL A   1      23.170  12.379   3.575  1.00  0.00    +0.000 F 
ATOM     56  C41 UNL A   1      22.922  11.329   5.671  1.00  0.00    +0.000 C 
ATOM     57  F8  UNL A   1      22.788  10.136   5.074  1.00  0.00    +0.000 F 
ATOM     58  C42 UNL A   1      22.888  11.423   7.053  1.00  0.00    +0.000 C 
ATOM     59  F9  UNL A   1      22.742  10.317   7.795  1.00  0.00    +0.000 F 
ATOM     60  C43 UNL A   1      23.035  12.660   7.677  1.00  0.00    +0.000 C 
ATOM     61  F10 UNL A   1      23.019  12.708   9.019  1.00  0.00    +0.000 F 
ENDBRANCH   50   51
BRANCH   65   66
ATOM     66  C47 UNL A   1      18.344  17.853   6.894  1.00  0.00    +0.000 C 
ATOM     67  C48 UNL A   1      17.446  17.202   7.755  1.00  0.00    +0.000 C 
ATOM     68  F11 UNL A   1      17.643  15.918   8.088  1.00  0.00    +0.000 F 
ATOM     69  C49 UNL A   1      16.381  17.885   8.353  1.00  0.00    +0.000 C 
ATOM     70  F12 UNL A   1      15.588  17.250   9.228  1.00  0.00    +0.000 F 
ATOM     71  C50 UNL A   1      16.181  19.232   8.099  1.00  0.00    +0.000 C 
ATOM     72  F13 UNL A   1      15.208  19.903   8.730  1.00  0.00    +0.000 F 
ATOM     73  C51 UNL A   1      17.023  19.889   7.222  1.00  0.00    +0.000 C 
ATOM     74  F14 UNL A   1      16.862  21.202   6.996  1.00  0.00    +0.000 F 
ATOM     75  C52 UNL A   1      18.088  19.211   6.626  1.00  0.00    +0.000 C 
ATOM     76  F15 UNL A   1      18.922  19.929   5.862  1.00  0.00    +0.000 F 
ENDBRANCH   65   66
TORSDOF 20
ENDMDL
MODEL 4
REMARK VINA RESULT:      -9.1     27.080     31.857
ROOT
ATOM    129  H39 UNL A   1      23.826  20.901   4.511  1.00  0.00    +0.000 H 
ATOM     29  C23 UNL A   1      23.102  18.204   3.864  1.00  0.00    +0.000 C 
ATOM     30  C24 UNL A   1      24.063  18.675   4.887  1.00  0.00    +0.000 C 
ATOM     31  N4  UNL A   1      24.839  17.956   5.626  1.00  0.00    +0.000 N 
ATOM     32  C25 UNL A   1      25.529  18.851   6.438  1.00  0.00    +0.000 C 
ATOM     33  C26 UNL A   1      26.063  18.454   7.624  1.00  0.00    +0.000 C 
ATOM     45  C33 UNL A   1      26.131  17.016   7.703  1.00  0.00    +0.000 C 
ATOM     46  C34 UNL A   1      26.841  16.038   7.036  1.00  0.00    +0.000 C 
ATOM     47  C35 UNL A   1      25.934  14.944   6.902  1.00  0.00    +0.000 C 
ATOM     48  C36 UNL A   1      24.742  15.285   7.546  1.00  0.00    +0.000 C 
ATOM     49  N5  UNL A   1      25.084  16.369   8.312  1.00  0.00    +0.000 N 
ATOM     50  C37 UNL A   1      23.391  14.780   7.425  1.00  0.00    +0.000 C 
ATOM     62  C44 UNL A   1      22.270  15.421   7.872  1.00  0.00    +0.000 C 
ATOM     63  N6  UNL A   1      21.019  15.111   7.355  1.00  0.00    +0.000 N 
ATOM     64  C45 UNL A   1      20.314  16.200   7.507  1.00  0.00    +0.000 C 
ATOM     65  C46 UNL A   1      19.336  16.691   6.502  1.00  0.00    +0.000 C 
ATOM     77  C53 UNL A   1      20.058  17.014   5.401  1.00  0.00    +0.000 C 
ATOM     78  C54 UNL A   1      19.646  17.166   4.026  1.00  0.00    +0.000 C 
ATOM     79  C55 UNL A   1      20.743  17.435   3.291  1.00  0.00    +0.000 C 
ATOM     80  C56 UNL A   1      21.897  17.671   4.171  1.00  0.00    +0.000 C 
ATOM     81  N7  UNL A   1      21.436  17.309   5.413  1.00  0.00    +0.000 N 
ATOM     82  C57 UNL A   1      20.843  17.162   8.457  1.00  0.00    +0.000 C 
ATOM     83  C58 UNL A   1      22.076  16.672   8.600  1.00  0.00    +0.000 C 
ATOM     84  C59 UNL A   1      25.289  20.162   5.891  1.00  0.00    +0.000 C 
ATOM     85  C60 UNL A   1      24.299  20.123   4.996  1.00  0.00    +0.000 C 
ATOM    120  H30 UNL A   1      27.817  16.087   6.705  1.00  0.00    +0.000 H 
ATOM    121  H31 UNL A   1      26.125  14.055   6.414  1.00  0.00    +0.000 H 
ATOM    122  H32 UNL A   1      24.653  16.639   9.155  1.00  0.00    +0.000 H 
ATOM    123  H33 UNL A   1      18.682  17.083   3.669  1.00  0.00    +0.000 H 
ATOM    124  H34 UNL A   1      20.770  17.471   2.259  1.00  0.00    +0.000 H 
ATOM    125  H35 UNL A   1      22.003  17.262   6.216  1.00  0.00    +0.000 H 
ATOM    126  H36 UNL A   1      20.398  17.985   8.893  1.00  0.00    +0.000 H 
ATOM    127  H37 UNL A   1      22.812  17.127   9.162  1.00  0.00    +0.000 H 
ATOM    128  H38 UNL A   1      25.811  21.012   6.153  1.00  0.00    +0.000 H 
ENDROOT
BRANCH   29   28
ATOM    130  H40 UNL A   1      24.239  16.647   2.129  1.00  0.00    +0.000 H 
ATOM    131  H41 UNL A   1      25.532  17.458   0.238  1.00  0.00    +0.000 H 
ATOM     28  C22 UNL A   1      23.445  18.564   2.500  1.00  0.00    +0.000 C 
ATOM     86  C61 UNL A   1      24.157  17.617   1.788  1.00  0.00    +0.000 C 
ATOM     87  C62 UNL A   1      24.747  18.004   0.625  1.00  0.00    +0.000 C 
ATOM    118  H28 UNL A   1      23.143  20.907   0.126  1.00  0.00    +0.000 H 
ATOM     25  C19 UNL A   1      24.291  19.132  -0.040  1.00  0.00    +0.000 C 
ATOM     26  C20 UNL A   1      23.465  20.054   0.609  1.00  0.00    +0.000 C 
ATOM     27  C21 UNL A   1      23.084  19.791   1.923  1.00  0.00    +0.000 C 
ATOM    119  H29 UNL A   1      22.545  20.487   2.462  1.00  0.00    +0.000 H 
BRANCH   25   23
ATOM     23  C18 UNL A   1      24.703  19.292  -1.447  1.00  0.00    +0.000 C 
ATOM     24  O3  UNL A   1      25.871  19.204  -1.764  1.00  0.00    +0.000 O 
BRANCH   23   22
ATOM    117  H27 UNL A   1      22.791  19.347  -2.106  1.00  0.00    +0.000 H 
ATOM     22  N3  UNL A   1      23.715  19.535  -2.392  1.00  0.00    +0.000 N 
BRANCH   22   21
ATOM    115  H25 UNL A   1      24.883  20.360  -3.893  1.00  0.00    +0.000 H 
ATOM    116  H26 UNL A   1      23.622  19.240  -4.429  1.00  0.00    +0.000 H 
ATOM     21  C17 UNL A   1      23.872  20.036  -3.761  1.00  0.00    +0.000 C 
BRANCH   21   20
ATOM    113  H23 UNL A   1      23.527  22.099  -4.088  1.00  0.00    +0.000 H 
ATOM    114  H24 UNL A   1      22.483  20.998  -5.008  1.00  0.00    +0.000 H 
ATOM     20  C16 UNL A   1      22.947  21.200  -4.066  1.00  0.00    +0.000 C 
BRANCH   20   19
ATOM     19  C15 UNL A   1      21.825  21.370  -3.032  1.00  0.00    +0.000 C 
ATOM    111  H21 UNL A   1      21.178  20.521  -3.108  1.00  0.00    +0.000 H 
ATOM    112  H22 UNL A   1      22.320  21.464  -2.087  1.00  0.00    +0.000 H 
BRANCH   19   18
ATOM     18  C14 UNL A   1      20.958  22.633  -3.167  1.00  0.00    +0.000 C 
ATOM    109  H19 UNL A   1      20.837  22.841  -4.210  1.00  0.00    +0.000 H 
ATOM    110  H20 UNL A   1      20.039  22.418  -2.664  1.00  0.00    +0.000 H 
BRANCH   18   17
ATOM     17  C13 UNL A   1      21.527  23.887  -2.498  1.00  0.00    +0.000 C 
ATOM    107  H17 UNL A   1      20.713  24.470  -2.121  1.00  0.00    +0.000 H 
ATOM    108  H18 UNL A   1      22.182  23.560  -1.717  1.00  0.00    +0.000 H 
BRANCH   17   16
ATOM    105  H15 UNL A   1      23.350  24.842  -3.070  1.00  0.00    +0.000 H 
ATOM    106  H16 UNL A   1      22.359  24.304  -4.415  1.00  0.00    +0.000 H 
ATOM     16  C12 UNL A   1      22.352  24.758  -3.446  1.00  0.00    +0.000 C 
BRANCH   16   15
ATOM     15  N2  UNL A   1      21.773  26.076  -3.552  1.00  0.00    +0.000 N 
ATOM    104  H14 UNL A   1      21.806  26.464  -4.456  1.00  0.00    +0.000 H 
BRANCH   15   13
ATOM     13  C11 UNL A   1      21.192  26.873  -2.620  1.00  0.00    +0.000 C 
ATOM     14  O2  UNL A   1      19.975  27.051  -2.709  1.00  0.00    +0.000 O 
BRANCH   13   12
ATOM     12  C10 UNL A   1      22.001  27.616  -1.573  1.00  0.00    +0.000 C 
ATOM    102  H12 UNL A   1      22.616  26.887  -1.088  1.00  0.00    +0.000 H 
ATOM    103  H13 UNL A   1      22.486  28.381  -2.145  1.00  0.00    +0.000 H 
BRANCH   12   11
ATOM     11  C9  UNL A   1      21.303  28.411  -0.462  1.00  0.00    +0.000 C 
ATOM    100  H10 UNL A   1      22.065  28.994   0.012  1.00  0.00    +0.000 H 
ATOM    101  H11 UNL A   1      20.525  28.909  -1.001  1.00  0.00    +0.000 H 
BRANCH   11   10
ATOM     10  C8  UNL A   1      20.521  27.722   0.669  1.00  0.00    +0.000 C 
ATOM     99  H9  UNL A   1      19.512  27.763   0.314  1.00  0.00    +0.000 H 
ATOM     98  H8  UNL A   1      20.766  28.245   1.569  1.00  0.00    +0.000 H 
BRANCH   10    9
ATOM      2  C2  UNL A   1      20.556  22.202   3.294  1.00  0.00    +0.000 C 
ATOM      3  C3  UNL A   1      21.910  22.507   3.495  1.00  0.00    +0.000 C 
ATOM      4  C4  UNL A   1      22.460  23.674   2.937  1.00  0.00    +0.000 C 
ATOM      6  C6  UNL A   1      21.591  24.505   2.239  1.00  0.00    +0.000 C 
ATOM      7  C7  UNL A   1      21.812  25.862   1.689  1.00  0.00    +0.000 C 
ATOM      8  O1  UNL A   1      22.807  26.523   1.953  1.00  0.00    +0.000 O 
ATOM      9  N1  UNL A   1      20.702  26.301   0.955  1.00  0.00    +0.000 N 
ATOM     88  S1  UNL A   1      19.422  25.162   0.936  1.00  0.00    +0.000 S 
ATOM     89  C63 UNL A   1      20.293  24.086   2.031  1.00  0.00    +0.000 C 
ATOM     90  N8  UNL A   1      19.738  22.976   2.547  1.00  0.00    +0.000 N 
ATOM     94  H4  UNL A   1      22.503  21.873   4.055  1.00  0.00    +0.000 H 
BRANCH    2    1
ATOM      1  C1  UNL A   1      19.930  20.998   3.934  1.00  0.00    +0.000 C 
ATOM     91  H1  UNL A   1      19.732  20.260   3.185  1.00  0.00    +0.000 H 
ATOM     92  H2  UNL A   1      19.014  21.281   4.407  1.00  0.00    +0.000 H 
ATOM     93  H3  UNL A   1      20.600  20.594   4.665  1.00  0.00    +0.000 H 
ENDBRANCH    2    1
BRANCH    4    5
ATOM     97  H7  UNL A   1      24.487  23.165   2.652  1.00  0.00    +0.000 H 
ATOM      5  C5  UNL A   1      23.919  23.972   3.066  1.00  0.00    +0.000 C 
ATOM     95  H5  UNL A   1      24.169  24.090   4.100  1.00  0.00    +0.000 H 
ATOM     96  H6  UNL A   1      24.147  24.876   2.539  1.00  0.00    +0.000 H 
ENDBRANCH    4    5
ENDBRANCH   10    9
ENDBRANCH   11   10
ENDBRANCH   12   11
ENDBRANCH   13   12
ENDBRANCH   15   13
ENDBRANCH   16   15
ENDBRANCH   17   16
ENDBRANCH   18   17
ENDBRANCH   19   18
ENDBRANCH   20   19
ENDBRANCH   21   20
ENDBRANCH   22   21
ENDBRANCH   23   22
ENDBRANCH   25   23
ENDBRANCH   29   28
BRANCH   33   34
ATOM     34  C27 UNL A   1      26.209  19.335   8.839  1.00  0.00    +0.000 C 
ATOM     35  C28 UNL A   1      27.495  19.595   9.353  1.00  0.00    +0.000 C 
ATOM     36  F1  UNL A   1      28.591  19.256   8.658  1.00  0.00    +0.000 F 
ATOM     37  C29 UNL A   1      27.687  20.137  10.628  1.00  0.00    +0.000 C 
ATOM     38  F2  UNL A   1      28.928  20.263  11.117  1.00  0.00    +0.000 F 
ATOM     39  C30 UNL A   1      26.604  20.490  11.412  1.00  0.00    +0.000 C 
ATOM     40  F3  UNL A   1      26.784  20.963  12.651  1.00  0.00    +0.000 F 
ATOM     41  C31 UNL A   1      25.329  20.303  10.923  1.00  0.00    +0.000 C 
ATOM     42  F4  UNL A   1      24.266  20.620  11.674  1.00  0.00    +0.000 F 
ATOM     43  C32 UNL A   1      25.135  19.712   9.674  1.00  0.00    +0.000 C 
ATOM     44  F5  UNL A   1      23.863  19.429   9.372  1.00  0.00    +0.000 F 
ENDBRANCH   33   34
BRANCH   50   51
ATOM     51  C38 UNL A   1      23.195  13.563   6.553  1.00  0.00    +0.000 C 
ATOM     52  C39 UNL A   1      23.286  13.574   5.149  1.00  0.00    +0.000 C 
ATOM     53  F6  UNL A   1      23.511  14.715   4.486  1.00  0.00    +0.000 F 
ATOM     54  C40 UNL A   1      23.200  12.397   4.404  1.00  0.00    +0.000 C 
ATOM     55  F7  UNL A   1      23.280  12.440   3.066  1.00  0.00    +0.000 F 
ATOM     56  C41 UNL A   1      23.067  11.178   5.046  1.00  0.00    +0.000 C 
ATOM     57  F8  UNL A   1      23.027  10.042   4.336  1.00  0.00    +0.000 F 
ATOM     58  C42 UNL A   1      23.001  11.137   6.429  1.00  0.00    +0.000 C 
ATOM     59  F9  UNL A   1      22.917   9.957   7.059  1.00  0.00    +0.000 F 
ATOM     60  C43 UNL A   1      23.050  12.315   7.172  1.00  0.00    +0.000 C 
ATOM     61  F10 UNL A   1      23.006  12.232   8.511  1.00  0.00    +0.000 F 
ENDBRANCH   50   51
BRANCH   65   66
ATOM     66  C47 UNL A   1      17.982  17.161   6.874  1.00  0.00    +0.000 C 
ATOM     67  C48 UNL A   1      17.045  16.271   7.425  1.00  0.00    +0.000 C 
ATOM     68  F11 UNL A   1      17.267  14.950   7.382  1.00  0.00    +0.000 F 
ATOM     69  C49 UNL A   1      15.910  16.730   8.102  1.00  0.00    +0.000 C 
ATOM     70  F12 UNL A   1      15.076  15.853   8.679  1.00  0.00    +0.000 F 
ATOM     71  C50 UNL A   1      15.677  18.089   8.238  1.00  0.00    +0.000 C 
ATOM     72  F13 UNL A   1      14.631  18.529   8.951  1.00  0.00    +0.000 F 
ATOM     73  C51 UNL A   1      16.559  18.990   7.669  1.00  0.00    +0.000 C 
ATOM     74  F14 UNL A   1      16.363  20.307   7.825  1.00  0.00    +0.000 F 
ATOM     75  C52 UNL A   1      17.693  18.534   6.995  1.00  0.00    +0.000 C 
ATOM     76  F15 UNL A   1      18.556  19.459   6.552  1.00  0.00    +0.000 F 
ENDBRANCH   65   66
TORSDOF 20
ENDMDL
MODEL 5
REMARK VINA RESULT:      -9.1     40.818     46.358
ROOT
ATOM    129  H39 UNL A   1      41.317  10.099  51.521  1.00  0.00    +0.000 H 
ATOM     29  C23 UNL A   1      42.693  12.552  50.967  1.00  0.00    +0.000 C 
ATOM     30  C24 UNL A   1      43.257  11.277  51.466  1.00  0.00    +0.000 C 
ATOM     31  N4  UNL A   1      44.469  11.048  51.843  1.00  0.00    +0.000 N 
ATOM     32  C25 UNL A   1      44.509   9.704  52.202  1.00  0.00    +0.000 C 
ATOM     33  C26 UNL A   1      45.681   9.012  52.197  1.00  0.00    +0.000 C 
ATOM     45  C33 UNL A   1      46.809   9.908  52.150  1.00  0.00    +0.000 C 
ATOM     46  C34 UNL A   1      47.345  10.844  53.012  1.00  0.00    +0.000 C 
ATOM     47  C35 UNL A   1      47.793  11.909  52.174  1.00  0.00    +0.000 C 
ATOM     48  C36 UNL A   1      47.565  11.545  50.845  1.00  0.00    +0.000 C 
ATOM     49  N5  UNL A   1      47.333  10.195  50.914  1.00  0.00    +0.000 N 
ATOM     50  C37 UNL A   1      47.452  12.319  49.628  1.00  0.00    +0.000 C 
ATOM     62  C44 UNL A   1      46.906  11.870  48.458  1.00  0.00    +0.000 C 
ATOM     63  N6  UNL A   1      46.440  12.761  47.501  1.00  0.00    +0.000 N 
ATOM     64  C45 UNL A   1      45.514  12.106  46.854  1.00  0.00    +0.000 C 
ATOM     65  C46 UNL A   1      44.247  12.725  46.386  1.00  0.00    +0.000 C 
ATOM     77  C53 UNL A   1      43.566  13.081  47.502  1.00  0.00    +0.000 C 
ATOM     78  C54 UNL A   1      42.499  14.037  47.680  1.00  0.00    +0.000 C 
ATOM     79  C55 UNL A   1      42.194  14.080  48.992  1.00  0.00    +0.000 C 
ATOM     80  C56 UNL A   1      42.903  13.012  49.712  1.00  0.00    +0.000 C 
ATOM     81  N7  UNL A   1      43.777  12.516  48.776  1.00  0.00    +0.000 N 
ATOM     82  C57 UNL A   1      45.539  10.663  47.015  1.00  0.00    +0.000 C 
ATOM     83  C58 UNL A   1      46.364  10.574  48.060  1.00  0.00    +0.000 C 
ATOM     84  C59 UNL A   1      43.141   9.262  52.272  1.00  0.00    +0.000 C 
ATOM     85  C60 UNL A   1      42.328  10.165  51.719  1.00  0.00    +0.000 C 
ATOM    120  H30 UNL A   1      47.408  10.786  54.040  1.00  0.00    +0.000 H 
ATOM    121  H31 UNL A   1      48.213  12.797  52.494  1.00  0.00    +0.000 H 
ATOM    122  H32 UNL A   1      47.510   9.542  50.198  1.00  0.00    +0.000 H 
ATOM    123  H33 UNL A   1      42.050  14.591  46.934  1.00  0.00    +0.000 H 
ATOM    124  H34 UNL A   1      41.553  14.763  49.429  1.00  0.00    +0.000 H 
ATOM    125  H35 UNL A   1      44.469  11.845  48.973  1.00  0.00    +0.000 H 
ATOM    126  H36 UNL A   1      45.059   9.923  46.479  1.00  0.00    +0.000 H 
ATOM    127  H37 UNL A   1      46.592   9.687  48.536  1.00  0.00    +0.000 H 
ATOM    128  H38 UNL A   1      42.832   8.372  52.692  1.00  0.00    +0.000 H 
ENDROOT
BRANCH   29   28
ATOM    130  H40 UNL A   1      43.156  14.467  52.654  1.00  0.00    +0.000 H 
ATOM    131  H41 UNL A   1      41.798  14.878  54.628  1.00  0.00    +0.000 H 
ATOM     28  C22 UNL A   1      41.711  13.164  51.843  1.00  0.00    +0.000 C 
ATOM     86  C61 UNL A   1      42.203  14.084  52.750  1.00  0.00    +0.000 C 
ATOM     87  C62 UNL A   1      41.392  14.470  53.772  1.00  0.00    +0.000 C 
ATOM    118  H28 UNL A   1      38.454  13.347  52.604  1.00  0.00    +0.000 H 
ATOM     25  C19 UNL A   1      40.018  14.313  53.661  1.00  0.00    +0.000 C 
ATOM     26  C20 UNL A   1      39.474  13.486  52.675  1.00  0.00    +0.000 C 
ATOM     27  C21 UNL A   1      40.343  12.855  51.787  1.00  0.00    +0.000 C 
ATOM    119  H29 UNL A   1      39.987  12.172  51.100  1.00  0.00    +0.000 H 
BRANCH   25   23
ATOM     23  C18 UNL A   1      39.180  15.069  54.611  1.00  0.00    +0.000 C 
ATOM     24  O3  UNL A   1      38.696  14.521  55.580  1.00  0.00    +0.000 O 
BRANCH   23   22
ATOM    117  H27 UNL A   1      39.672  17.029  54.695  1.00  0.00    +0.000 H 
ATOM     22  N3  UNL A   1      38.973  16.419  54.365  1.00  0.00    +0.000 N 
BRANCH   22   21
ATOM    115  H25 UNL A   1      36.952  16.513  53.912  1.00  0.00    +0.000 H 
ATOM    116  H26 UNL A   1      37.791  18.069  54.006  1.00  0.00    +0.000 H 
ATOM     21  C17 UNL A   1      37.845  17.053  53.676  1.00  0.00    +0.000 C 
BRANCH   21   20
ATOM    113  H23 UNL A   1      37.956  16.063  51.808  1.00  0.00    +0.000 H 
ATOM    114  H24 UNL A   1      37.242  17.687  51.766  1.00  0.00    +0.000 H 
ATOM     20  C16 UNL A   1      38.017  17.069  52.168  1.00  0.00    +0.000 C 
BRANCH   20   19
ATOM     19  C15 UNL A   1      39.357  17.668  51.717  1.00  0.00    +0.000 C 
ATOM    111  H21 UNL A   1      39.146  18.542  51.136  1.00  0.00    +0.000 H 
ATOM    112  H22 UNL A   1      39.901  17.858  52.619  1.00  0.00    +0.000 H 
BRANCH   19   18
ATOM     18  C14 UNL A   1      40.264  16.754  50.876  1.00  0.00    +0.000 C 
ATOM    109  H19 UNL A   1      40.929  16.244  51.542  1.00  0.00    +0.000 H 
ATOM    110  H20 UNL A   1      39.611  16.098  50.340  1.00  0.00    +0.000 H 
BRANCH   18   17
ATOM     17  C13 UNL A   1      41.110  17.471  49.820  1.00  0.00    +0.000 C 
ATOM    107  H17 UNL A   1      41.014  16.944  48.894  1.00  0.00    +0.000 H 
ATOM    108  H18 UNL A   1      40.747  18.475  49.750  1.00  0.00    +0.000 H 
BRANCH   17   16
ATOM    105  H15 UNL A   1      42.692  17.927  51.180  1.00  0.00    +0.000 H 
ATOM    106  H16 UNL A   1      43.018  16.570  50.117  1.00  0.00    +0.000 H 
ATOM     16  C12 UNL A   1      42.593  17.549  50.184  1.00  0.00    +0.000 C 
BRANCH   16   15
ATOM     15  N2  UNL A   1      43.291  18.425  49.273  1.00  0.00    +0.000 N 
ATOM    104  H14 UNL A   1      43.051  19.375  49.357  1.00  0.00    +0.000 H 
BRANCH   15   13
ATOM     13  C11 UNL A   1      44.221  18.162  48.321  1.00  0.00    +0.000 C 
ATOM     14  O2  UNL A   1      44.205  17.039  47.811  1.00  0.00    +0.000 O 
BRANCH   13   12
ATOM     12  C10 UNL A   1      45.317  19.150  47.965  1.00  0.00    +0.000 C 
ATOM    102  H12 UNL A   1      45.541  19.693  48.860  1.00  0.00    +0.000 H 
ATOM    103  H13 UNL A   1      46.081  18.521  47.556  1.00  0.00    +0.000 H 
BRANCH   12   11
ATOM     11  C9  UNL A   1      45.104  20.193  46.861  1.00  0.00    +0.000 C 
ATOM    100  H10 UNL A   1      44.346  20.857  47.220  1.00  0.00    +0.000 H 
ATOM    101  H11 UNL A   1      46.096  20.564  46.711  1.00  0.00    +0.000 H 
BRANCH   11   10
ATOM     10  C8  UNL A   1      44.690  19.799  45.432  1.00  0.00    +0.000 C 
ATOM     99  H9  UNL A   1      44.664  20.742  44.928  1.00  0.00    +0.000 H 
ATOM     98  H8  UNL A   1      43.779  19.245  45.522  1.00  0.00    +0.000 H 
BRANCH   10    9
ATOM      2  C2  UNL A   1      48.596  17.940  41.114  1.00  0.00    +0.000 C 
ATOM      3  C3  UNL A   1      47.428  17.422  40.537  1.00  0.00    +0.000 C 
ATOM      4  C4  UNL A   1      46.210  17.482  41.237  1.00  0.00    +0.000 C 
ATOM      6  C6  UNL A   1      46.228  18.112  42.475  1.00  0.00    +0.000 C 
ATOM      7  C7  UNL A   1      45.107  18.484  43.368  1.00  0.00    +0.000 C 
ATOM      8  O1  UNL A   1      43.938  18.424  43.012  1.00  0.00    +0.000 O 
ATOM      9  N1  UNL A   1      45.574  19.006  44.582  1.00  0.00    +0.000 N 
ATOM     88  S1  UNL A   1      47.283  19.086  44.660  1.00  0.00    +0.000 S 
ATOM     89  C63 UNL A   1      47.439  18.526  42.993  1.00  0.00    +0.000 C 
ATOM     90  N8  UNL A   1      48.619  18.480  42.353  1.00  0.00    +0.000 N 
ATOM     94  H4  UNL A   1      47.463  16.998  39.596  1.00  0.00    +0.000 H 
BRANCH    2    1
ATOM      1  C1  UNL A   1      49.894  17.949  40.361  1.00  0.00    +0.000 C 
ATOM     91  H1  UNL A   1      50.433  18.844  40.593  1.00  0.00    +0.000 H 
ATOM     92  H2  UNL A   1      49.697  17.913  39.310  1.00  0.00    +0.000 H 
ATOM     93  H3  UNL A   1      50.477  17.098  40.645  1.00  0.00    +0.000 H 
ENDBRANCH    2    1
BRANCH    4    5
ATOM     97  H7  UNL A   1      45.238  16.179  39.892  1.00  0.00    +0.000 H 
ATOM      5  C5  UNL A   1      44.972  16.858  40.676  1.00  0.00    +0.000 C 
ATOM     95  H5  UNL A   1      44.334  17.622  40.285  1.00  0.00    +0.000 H 
ATOM     96  H6  UNL A   1      44.459  16.325  41.450  1.00  0.00    +0.000 H 
ENDBRANCH    4    5
ENDBRANCH   10    9
ENDBRANCH   11   10
ENDBRANCH   12   11
ENDBRANCH   13   12
ENDBRANCH   15   13
ENDBRANCH   16   15
ENDBRANCH   17   16
ENDBRANCH   18   17
ENDBRANCH   19   18
ENDBRANCH   20   19
ENDBRANCH   21   20
ENDBRANCH   22   21
ENDBRANCH   23   22
ENDBRANCH   25   23
ENDBRANCH   29   28
BRANCH   33   34
ATOM     34  C27 UNL A   1      45.808   7.540  51.897  1.00  0.00    +0.000 C 
ATOM     35  C28 UNL A   1      45.575   7.081  50.585  1.00  0.00    +0.000 C 
ATOM     36  F1  UNL A   1      45.459   7.946  49.567  1.00  0.00    +0.000 F 
ATOM     37  C29 UNL A   1      45.375   5.726  50.301  1.00  0.00    +0.000 C 
ATOM     38  F2  UNL A   1      45.047   5.349  49.058  1.00  0.00    +0.000 F 
ATOM     39  C30 UNL A   1      45.457   4.777  51.304  1.00  0.00    +0.000 C 
ATOM     40  F3  UNL A   1      45.218   3.486  51.043  1.00  0.00    +0.000 F 
ATOM     41  C31 UNL A   1      45.739   5.181  52.591  1.00  0.00    +0.000 C 
ATOM     42  F4  UNL A   1      45.803   4.281  53.581  1.00  0.00    +0.000 F 
ATOM     43  C32 UNL A   1      45.883   6.537  52.887  1.00  0.00    +0.000 C 
ATOM     44  F5  UNL A   1      45.991   6.825  54.189  1.00  0.00    +0.000 F 
ENDBRANCH   33   34
BRANCH   50   51
ATOM     51  C38 UNL A   1      47.764  13.793  49.728  1.00  0.00    +0.000 C 
ATOM     52  C39 UNL A   1      48.915  14.395  49.187  1.00  0.00    +0.000 C 
ATOM     53  F6  UNL A   1      49.851  13.659  48.576  1.00  0.00    +0.000 F 
ATOM     54  C40 UNL A   1      49.097  15.779  49.219  1.00  0.00    +0.000 C 
ATOM     55  F7  UNL A   1      50.209  16.324  48.704  1.00  0.00    +0.000 F 
ATOM     56  C41 UNL A   1      48.113  16.595  49.750  1.00  0.00    +0.000 C 
ATOM     57  F8  UNL A   1      48.266  17.927  49.743  1.00  0.00    +0.000 F 
ATOM     58  C42 UNL A   1      46.959  16.029  50.266  1.00  0.00    +0.000 C 
ATOM     59  F9  UNL A   1      45.984  16.817  50.741  1.00  0.00    +0.000 F 
ATOM     60  C43 UNL A   1      46.793  14.646  50.268  1.00  0.00    +0.000 C 
ATOM     61  F10 UNL A   1      45.651  14.137  50.756  1.00  0.00    +0.000 F 
ENDBRANCH   50   51
BRANCH   65   66
ATOM     66  C47 UNL A   1      43.711  12.502  45.023  1.00  0.00    +0.000 C 
ATOM     67  C48 UNL A   1      43.079  11.292  44.695  1.00  0.00    +0.000 C 
ATOM     68  F11 UNL A   1      43.180  10.236  45.515  1.00  0.00    +0.000 F 
ATOM     69  C49 UNL A   1      42.266  11.175  43.563  1.00  0.00    +0.000 C 
ATOM     70  F12 UNL A   1      41.619  10.025  43.321  1.00  0.00    +0.000 F 
ATOM     71  C50 UNL A   1      42.070  12.260  42.724  1.00  0.00    +0.000 C 
ATOM     72  F13 UNL A   1      41.232  12.170  41.683  1.00  0.00    +0.000 F 
ATOM     73  C51 UNL A   1      42.714  13.453  42.998  1.00  0.00    +0.000 C 
ATOM     74  F14 UNL A   1      42.503  14.521  42.214  1.00  0.00    +0.000 F 
ATOM     75  C52 UNL A   1      43.523  13.574  44.128  1.00  0.00    +0.000 C 
ATOM     76  F15 UNL A   1      44.039  14.783  44.387  1.00  0.00    +0.000 F 
ENDBRANCH   65   66
TORSDOF 20
ENDMDL
MODEL 6
REMARK VINA RESULT:      -9.0     37.000     43.110
ROOT
ATOM    129  H39 UNL A   1      23.077  33.699  49.040  1.00  0.00    +0.000 H 
ATOM     29  C23 UNL A   1      24.897  33.124  46.902  1.00  0.00    +0.000 C 
ATOM     30  C24 UNL A   1      24.765  34.376  47.682  1.00  0.00    +0.000 C 
ATOM     31  N4  UNL A   1      25.382  35.492  47.487  1.00  0.00    +0.000 N 
ATOM     32  C25 UNL A   1      24.940  36.352  48.487  1.00  0.00    +0.000 C 
ATOM     33  C26 UNL A   1      25.689  37.419  48.877  1.00  0.00    +0.000 C 
ATOM     45  C33 UNL A   1      26.719  37.707  47.910  1.00  0.00    +0.000 C 
ATOM     46  C34 UNL A   1      26.730  38.153  46.604  1.00  0.00    +0.000 C 
ATOM     47  C35 UNL A   1      27.794  37.441  45.975  1.00  0.00    +0.000 C 
ATOM     48  C36 UNL A   1      28.416  36.644  46.938  1.00  0.00    +0.000 C 
ATOM     49  N5  UNL A   1      27.956  37.153  48.126  1.00  0.00    +0.000 N 
ATOM     50  C37 UNL A   1      29.255  35.469  46.838  1.00  0.00    +0.000 C 
ATOM     62  C44 UNL A   1      29.523  34.605  47.862  1.00  0.00    +0.000 C 
ATOM     63  N6  UNL A   1      29.954  33.310  47.606  1.00  0.00    +0.000 N 
ATOM     64  C45 UNL A   1      29.565  32.615  48.641  1.00  0.00    +0.000 C 
ATOM     65  C46 UNL A   1      29.036  31.230  48.548  1.00  0.00    +0.000 C 
ATOM     77  C53 UNL A   1      27.875  31.315  47.855  1.00  0.00    +0.000 C 
ATOM     78  C54 UNL A   1      27.139  30.302  47.137  1.00  0.00    +0.000 C 
ATOM     79  C55 UNL A   1      26.073  30.892  46.560  1.00  0.00    +0.000 C 
ATOM     80  C56 UNL A   1      25.945  32.279  47.033  1.00  0.00    +0.000 C 
ATOM     81  N7  UNL A   1      27.109  32.492  47.729  1.00  0.00    +0.000 N 
ATOM     82  C57 UNL A   1      29.221  33.389  49.821  1.00  0.00    +0.000 C 
ATOM     83  C58 UNL A   1      29.144  34.602  49.272  1.00  0.00    +0.000 C 
ATOM     84  C59 UNL A   1      23.798  35.716  49.092  1.00  0.00    +0.000 C 
ATOM     85  C60 UNL A   1      23.713  34.441  48.707  1.00  0.00    +0.000 C 
ATOM    120  H30 UNL A   1      26.103  38.852  46.176  1.00  0.00    +0.000 H 
ATOM    121  H31 UNL A   1      28.059  37.502  44.978  1.00  0.00    +0.000 H 
ATOM    122  H32 UNL A   1      28.432  37.125  48.989  1.00  0.00    +0.000 H 
ATOM    123  H33 UNL A   1      27.385  29.302  47.076  1.00  0.00    +0.000 H 
ATOM    124  H34 UNL A   1      25.439  30.437  45.884  1.00  0.00    +0.000 H 
ATOM    125  H35 UNL A   1      27.376  33.365  48.098  1.00  0.00    +0.000 H 
ATOM    126  H36 UNL A   1      29.077  33.088  50.798  1.00  0.00    +0.000 H 
ATOM    127  H37 UNL A   1      28.848  35.446  49.787  1.00  0.00    +0.000 H 
ATOM    128  H38 UNL A   1      23.138  36.181  49.734  1.00  0.00    +0.000 H 
ENDROOT
BRANCH   29   28
ATOM    130  H40 UNL A   1      22.837  31.867  47.852  1.00  0.00    +0.000 H 
ATOM    131  H41 UNL A   1      21.320  30.547  46.487  1.00  0.00    +0.000 H 
ATOM     28  C22 UNL A   1      23.712  32.752  46.150  1.00  0.00    +0.000 C 
ATOM     86  C61 UNL A   1      22.788  31.978  46.827  1.00  0.00    +0.000 C 
ATOM     87  C62 UNL A   1      21.814  31.367  46.101  1.00  0.00    +0.000 C 
ATOM    118  H28 UNL A   1      22.108  33.073  43.228  1.00  0.00    +0.000 H 
ATOM     25  C19 UNL A   1      21.485  31.847  44.842  1.00  0.00    +0.000 C 
ATOM     26  C20 UNL A   1      22.336  32.732  44.175  1.00  0.00    +0.000 C 
ATOM     27  C21 UNL A   1      23.500  33.145  44.820  1.00  0.00    +0.000 C 
ATOM    119  H29 UNL A   1      24.194  33.729  44.328  1.00  0.00    +0.000 H 
BRANCH   25   23
ATOM     23  C18 UNL A   1      20.204  31.396  44.268  1.00  0.00    +0.000 C 
ATOM     24  O3  UNL A   1      19.604  30.458  44.752  1.00  0.00    +0.000 O 
BRANCH   23   22
ATOM    117  H27 UNL A   1      20.299  32.765  42.782  1.00  0.00    +0.000 H 
ATOM     22  N3  UNL A   1      19.705  32.082  43.169  1.00  0.00    +0.000 N 
BRANCH   22   21
ATOM    115  H25 UNL A   1      18.557  31.908  41.450  1.00  0.00    +0.000 H 
ATOM    116  H26 UNL A   1      17.979  31.000  42.856  1.00  0.00    +0.000 H 
ATOM     21  C17 UNL A   1      18.405  31.917  42.510  1.00  0.00    +0.000 C 
BRANCH   21   20
ATOM    113  H23 UNL A   1      17.996  33.915  43.076  1.00  0.00    +0.000 H 
ATOM    114  H24 UNL A   1      16.797  33.169  42.000  1.00  0.00    +0.000 H 
ATOM     20  C16 UNL A   1      17.434  33.033  42.850  1.00  0.00    +0.000 C 
BRANCH   20   19
ATOM     19  C15 UNL A   1      16.532  32.707  44.048  1.00  0.00    +0.000 C 
ATOM    111  H21 UNL A   1      17.163  32.519  44.891  1.00  0.00    +0.000 H 
ATOM    112  H22 UNL A   1      15.888  33.556  44.159  1.00  0.00    +0.000 H 
BRANCH   19   18
ATOM     18  C14 UNL A   1      15.593  31.500  43.887  1.00  0.00    +0.000 C 
ATOM    109  H19 UNL A   1      14.635  31.770  44.282  1.00  0.00    +0.000 H 
ATOM    110  H20 UNL A   1      15.576  31.273  42.842  1.00  0.00    +0.000 H 
BRANCH   18   17
ATOM     17  C13 UNL A   1      16.051  30.221  44.594  1.00  0.00    +0.000 C 
ATOM    107  H17 UNL A   1      17.000  30.408  45.052  1.00  0.00    +0.000 H 
ATOM    108  H18 UNL A   1      15.300  29.970  45.313  1.00  0.00    +0.000 H 
BRANCH   17   16
ATOM    105  H15 UNL A   1      15.236  28.787  43.237  1.00  0.00    +0.000 H 
ATOM    106  H16 UNL A   1      16.878  29.282  42.869  1.00  0.00    +0.000 H 
ATOM     16  C12 UNL A   1      16.193  29.027  43.650  1.00  0.00    +0.000 C 
BRANCH   16   15
ATOM     15  N2  UNL A   1      16.703  27.878  44.361  1.00  0.00    +0.000 N 
ATOM    104  H14 UNL A   1      17.386  28.089  45.038  1.00  0.00    +0.000 H 
BRANCH   15   13
ATOM     13  C11 UNL A   1      16.403  26.559  44.256  1.00  0.00    +0.000 C 
ATOM     14  O2  UNL A   1      17.343  25.778  44.089  1.00  0.00    +0.000 O 
BRANCH   13   12
ATOM     12  C10 UNL A   1      14.972  26.055  44.226  1.00  0.00    +0.000 C 
ATOM    102  H12 UNL A   1      15.023  24.988  44.305  1.00  0.00    +0.000 H 
ATOM    103  H13 UNL A   1      14.511  26.595  45.027  1.00  0.00    +0.000 H 
BRANCH   12   11
ATOM     11  C9  UNL A   1      14.058  26.364  43.034  1.00  0.00    +0.000 C 
ATOM    100  H10 UNL A   1      13.147  25.830  43.210  1.00  0.00    +0.000 H 
ATOM    101  H11 UNL A   1      14.044  27.433  43.035  1.00  0.00    +0.000 H 
BRANCH   11   10
ATOM     10  C8  UNL A   1      14.468  26.050  41.585  1.00  0.00    +0.000 C 
ATOM     99  H9  UNL A   1      15.494  25.765  41.689  1.00  0.00    +0.000 H 
ATOM     98  H8  UNL A   1      14.238  26.922  41.009  1.00  0.00    +0.000 H 
BRANCH   10    9
ATOM      2  C2  UNL A   1      13.128  20.455  39.519  1.00  0.00    +0.000 C 
ATOM      3  C3  UNL A   1      13.901  20.872  38.426  1.00  0.00    +0.000 C 
ATOM      4  C4  UNL A   1      14.365  22.197  38.355  1.00  0.00    +0.000 C 
ATOM      6  C6  UNL A   1      14.062  23.026  39.429  1.00  0.00    +0.000 C 
ATOM      7  C7  UNL A   1      14.536  24.395  39.735  1.00  0.00    +0.000 C 
ATOM      8  O1  UNL A   1      15.449  24.926  39.118  1.00  0.00    +0.000 O 
ATOM      9  N1  UNL A   1      13.893  24.916  40.866  1.00  0.00    +0.000 N 
ATOM     88  S1  UNL A   1      12.783  23.816  41.567  1.00  0.00    +0.000 S 
ATOM     89  C63 UNL A   1      13.234  22.549  40.425  1.00  0.00    +0.000 C 
ATOM     90  N8  UNL A   1      12.771  21.291  40.520  1.00  0.00    +0.000 N 
ATOM     94  H4  UNL A   1      14.131  20.203  37.673  1.00  0.00    +0.000 H 
BRANCH    2    1
ATOM      1  C1  UNL A   1      12.678  19.031  39.651  1.00  0.00    +0.000 C 
ATOM     91  H1  UNL A   1      13.533  18.387  39.667  1.00  0.00    +0.000 H 
ATOM     92  H2  UNL A   1      12.054  18.774  38.821  1.00  0.00    +0.000 H 
ATOM     93  H3  UNL A   1      12.126  18.914  40.561  1.00  0.00    +0.000 H 
ENDBRANCH    2    1
BRANCH    4    5
ATOM     97  H7  UNL A   1      15.174  21.901  36.429  1.00  0.00    +0.000 H 
ATOM      5  C5  UNL A   1      15.117  22.684  37.157  1.00  0.00    +0.000 C 
ATOM     95  H5  UNL A   1      16.105  22.971  37.449  1.00  0.00    +0.000 H 
ATOM     96  H6  UNL A   1      14.609  23.527  36.736  1.00  0.00    +0.000 H 
ENDBRANCH    4    5
ENDBRANCH   10    9
ENDBRANCH   11   10
ENDBRANCH   12   11
ENDBRANCH   13   12
ENDBRANCH   15   13
ENDBRANCH   16   15
ENDBRANCH   17   16
ENDBRANCH   18   17
ENDBRANCH   19   18
ENDBRANCH   20   19
ENDBRANCH   21   20
ENDBRANCH   22   21
ENDBRANCH   23   22
ENDBRANCH   25   23
ENDBRANCH   29   28
BRANCH   33   34
ATOM     34  C27 UNL A   1      25.713  37.988  50.273  1.00  0.00    +0.000 C 
ATOM     35  C28 UNL A   1      25.382  39.343  50.472  1.00  0.00    +0.000 C 
ATOM     36  F1  UNL A   1      24.840  40.068  49.483  1.00  0.00    +0.000 F 
ATOM     37  C29 UNL A   1      25.673  40.008  51.668  1.00  0.00    +0.000 C 
ATOM     38  F2  UNL A   1      25.441  41.323  51.770  1.00  0.00    +0.000 F 
ATOM     39  C30 UNL A   1      26.254  39.331  52.725  1.00  0.00    +0.000 C 
ATOM     40  F3  UNL A   1      26.578  39.977  53.852  1.00  0.00    +0.000 F 
ATOM     41  C31 UNL A   1      26.542  37.990  52.589  1.00  0.00    +0.000 C 
ATOM     42  F4  UNL A   1      27.122  37.321  53.594  1.00  0.00    +0.000 F 
ATOM     43  C32 UNL A   1      26.303  37.339  51.379  1.00  0.00    +0.000 C 
ATOM     44  F5  UNL A   1      26.771  36.087  51.307  1.00  0.00    +0.000 F 
ENDBRANCH   33   34
BRANCH   50   51
ATOM     51  C38 UNL A   1      29.687  35.059  45.450  1.00  0.00    +0.000 C 
ATOM     52  C39 UNL A   1      31.009  35.143  44.978  1.00  0.00    +0.000 C 
ATOM     53  F6  UNL A   1      31.980  35.655  45.744  1.00  0.00    +0.000 F 
ATOM     54  C40 UNL A   1      31.368  34.649  43.722  1.00  0.00    +0.000 C 
ATOM     55  F7  UNL A   1      32.635  34.752  43.294  1.00  0.00    +0.000 F 
ATOM     56  C41 UNL A   1      30.423  34.020  42.930  1.00  0.00    +0.000 C 
ATOM     57  F8  UNL A   1      30.773  33.507  41.742  1.00  0.00    +0.000 F 
ATOM     58  C42 UNL A   1      29.119  33.902  43.382  1.00  0.00    +0.000 C 
ATOM     59  F9  UNL A   1      28.210  33.254  42.640  1.00  0.00    +0.000 F 
ATOM     60  C43 UNL A   1      28.753  34.427  44.620  1.00  0.00    +0.000 C 
ATOM     61  F10 UNL A   1      27.486  34.272  45.034  1.00  0.00    +0.000 F 
ENDBRANCH   50   51
BRANCH   65   66
ATOM     66  C47 UNL A   1      29.476  30.149  49.460  1.00  0.00    +0.000 C 
ATOM     67  C48 UNL A   1      28.764  29.877  50.639  1.00  0.00    +0.000 C 
ATOM     68  F11 UNL A   1      27.843  30.745  51.084  1.00  0.00    +0.000 F 
ATOM     69  C49 UNL A   1      28.926  28.673  51.331  1.00  0.00    +0.000 C 
ATOM     70  F12 UNL A   1      28.175  28.416  52.412  1.00  0.00    +0.000 F 
ATOM     71  C50 UNL A   1      29.811  27.712  50.869  1.00  0.00    +0.000 C 
ATOM     72  F13 UNL A   1      29.911  26.528  51.489  1.00  0.00    +0.000 F 
ATOM     73  C51 UNL A   1      30.559  27.968  49.734  1.00  0.00    +0.000 C 
ATOM     74  F14 UNL A   1      31.392  27.032  49.256  1.00  0.00    +0.000 F 
ATOM     75  C52 UNL A   1      30.397  29.169  49.040  1.00  0.00    +0.000 C 
ATOM     76  F15 UNL A   1      31.080  29.313  47.897  1.00  0.00    +0.000 F 
ENDBRANCH   65   66
TORSDOF 20
ENDMDL
MODEL 7
REMARK VINA RESULT:      -9.0     18.868     24.582
ROOT
ATOM    129  H39 UNL A   1      25.722  -8.542  34.901  1.00  0.00    +0.000 H 
ATOM     29  C23 UNL A   1      24.609 -11.141  34.429  1.00  0.00    +0.000 C 
ATOM     30  C24 UNL A   1      25.294 -10.249  33.467  1.00  0.00    +0.000 C 
ATOM     31  N4  UNL A   1      25.440 -10.426  32.197  1.00  0.00    +0.000 N 
ATOM     32  C25 UNL A   1      26.167  -9.331  31.741  1.00  0.00    +0.000 C 
ATOM     33  C26 UNL A   1      26.893  -9.401  30.591  1.00  0.00    +0.000 C 
ATOM     45  C33 UNL A   1      26.504 -10.545  29.805  1.00  0.00    +0.000 C 
ATOM     46  C34 UNL A   1      25.360 -10.915  29.126  1.00  0.00    +0.000 C 
ATOM     47  C35 UNL A   1      25.249 -12.325  29.323  1.00  0.00    +0.000 C 
ATOM     48  C36 UNL A   1      26.358 -12.751  30.057  1.00  0.00    +0.000 C 
ATOM     49  N5  UNL A   1      27.231 -11.697  29.969  1.00  0.00    +0.000 N 
ATOM     50  C37 UNL A   1      26.601 -13.931  30.859  1.00  0.00    +0.000 C 
ATOM     62  C44 UNL A   1      27.602 -14.063  31.780  1.00  0.00    +0.000 C 
ATOM     63  N6  UNL A   1      27.517 -15.009  32.793  1.00  0.00    +0.000 N 
ATOM     64  C45 UNL A   1      28.240 -14.525  33.767  1.00  0.00    +0.000 C 
ATOM     65  C46 UNL A   1      27.866 -14.638  35.200  1.00  0.00    +0.000 C 
ATOM     77  C53 UNL A   1      26.729 -13.916  35.352  1.00  0.00    +0.000 C 
ATOM     78  C54 UNL A   1      25.719 -13.971  36.381  1.00  0.00    +0.000 C 
ATOM     79  C55 UNL A   1      24.747 -13.094  36.057  1.00  0.00    +0.000 C 
ATOM     80  C56 UNL A   1      25.165 -12.279  34.907  1.00  0.00    +0.000 C 
ATOM     81  N7  UNL A   1      26.318 -12.889  34.479  1.00  0.00    +0.000 N 
ATOM     82  C57 UNL A   1      29.169 -13.472  33.395  1.00  0.00    +0.000 C 
ATOM     83  C58 UNL A   1      28.690 -13.177  32.184  1.00  0.00    +0.000 C 
ATOM     84  C59 UNL A   1      26.170  -8.370  32.813  1.00  0.00    +0.000 C 
ATOM     85  C60 UNL A   1      25.739  -8.931  33.945  1.00  0.00    +0.000 C 
ATOM    120  H30 UNL A   1      24.723 -10.305  28.592  1.00  0.00    +0.000 H 
ATOM    121  H31 UNL A   1      24.481 -12.925  28.983  1.00  0.00    +0.000 H 
ATOM    122  H32 UNL A   1      28.214 -11.756  30.015  1.00  0.00    +0.000 H 
ATOM    123  H33 UNL A   1      25.737 -14.574  37.218  1.00  0.00    +0.000 H 
ATOM    124  H34 UNL A   1      23.841 -13.008  36.546  1.00  0.00    +0.000 H 
ATOM    125  H35 UNL A   1      26.800 -12.637  33.659  1.00  0.00    +0.000 H 
ATOM    126  H36 UNL A   1      29.964 -13.069  33.914  1.00  0.00    +0.000 H 
ATOM    127  H37 UNL A   1      29.049 -12.407  31.599  1.00  0.00    +0.000 H 
ATOM    128  H38 UNL A   1      26.464  -7.386  32.719  1.00  0.00    +0.000 H 
ENDROOT
BRANCH   29   28
ATOM    130  H40 UNL A   1      22.335 -10.906  33.204  1.00  0.00    +0.000 H 
ATOM    131  H41 UNL A   1      20.631  -9.289  33.829  1.00  0.00    +0.000 H 
ATOM     28  C22 UNL A   1      23.392 -10.595  35.001  1.00  0.00    +0.000 C 
ATOM     86  C61 UNL A   1      22.329 -10.450  34.130  1.00  0.00    +0.000 C 
ATOM     87  C62 UNL A   1      21.274  -9.690  34.530  1.00  0.00    +0.000 C 
ATOM    118  H28 UNL A   1      21.933  -9.509  37.814  1.00  0.00    +0.000 H 
ATOM     25  C19 UNL A   1      21.065  -9.454  35.880  1.00  0.00    +0.000 C 
ATOM     26  C20 UNL A   1      22.076  -9.706  36.811  1.00  0.00    +0.000 C 
ATOM     27  C21 UNL A   1      23.282 -10.232  36.352  1.00  0.00    +0.000 C 
ATOM    119  H29 UNL A   1      24.081 -10.351  36.994  1.00  0.00    +0.000 H 
BRANCH   25   23
ATOM     23  C18 UNL A   1      19.734  -8.953  36.273  1.00  0.00    +0.000 C 
ATOM     24  O3  UNL A   1      19.503  -7.761  36.292  1.00  0.00    +0.000 O 
BRANCH   23   22
ATOM    117  H27 UNL A   1      18.712 -10.131  37.560  1.00  0.00    +0.000 H 
ATOM     22  N3  UNL A   1      18.760  -9.883  36.608  1.00  0.00    +0.000 N 
BRANCH   22   21
ATOM    115  H25 UNL A   1      16.806 -10.267  36.030  1.00  0.00    +0.000 H 
ATOM    116  H26 UNL A   1      18.001 -10.228  34.724  1.00  0.00    +0.000 H 
ATOM     21  C17 UNL A   1      17.794 -10.543  35.725  1.00  0.00    +0.000 C 
BRANCH   21   20
ATOM    113  H23 UNL A   1      17.176 -12.434  36.448  1.00  0.00    +0.000 H 
ATOM    114  H24 UNL A   1      17.746 -12.412  34.767  1.00  0.00    +0.000 H 
ATOM     20  C16 UNL A   1      17.907 -12.056  35.763  1.00  0.00    +0.000 C 
BRANCH   20   19
ATOM     19  C15 UNL A   1      19.291 -12.550  36.207  1.00  0.00    +0.000 C 
ATOM    111  H21 UNL A   1      19.806 -11.724  36.651  1.00  0.00    +0.000 H 
ATOM    112  H22 UNL A   1      19.102 -13.364  36.876  1.00  0.00    +0.000 H 
BRANCH   19   18
ATOM     18  C14 UNL A   1      20.194 -13.128  35.104  1.00  0.00    +0.000 C 
ATOM    109  H19 UNL A   1      19.565 -13.547  34.347  1.00  0.00    +0.000 H 
ATOM    110  H20 UNL A   1      20.798 -12.316  34.758  1.00  0.00    +0.000 H 
BRANCH   18   17
ATOM     17  C13 UNL A   1      21.168 -14.217  35.566  1.00  0.00    +0.000 C 
ATOM    107  H17 UNL A   1      21.853 -14.419  34.769  1.00  0.00    +0.000 H 
ATOM    108  H18 UNL A   1      21.664 -13.849  36.439  1.00  0.00    +0.000 H 
BRANCH   17   16
ATOM    105  H15 UNL A   1      19.468 -15.313  36.250  1.00  0.00    +0.000 H 
ATOM    106  H16 UNL A   1      20.482 -16.183  35.113  1.00  0.00    +0.000 H 
ATOM     16  C12 UNL A   1      20.474 -15.523  35.955  1.00  0.00    +0.000 C 
BRANCH   16   15
ATOM     15  N2  UNL A   1      21.168 -16.156  37.051  1.00  0.00    +0.000 N 
ATOM    104  H14 UNL A   1      20.713 -16.947  37.419  1.00  0.00    +0.000 H 
BRANCH   15   13
ATOM     13  C11 UNL A   1      22.340 -15.848  37.661  1.00  0.00    +0.000 C 
ATOM     14  O2  UNL A   1      23.361 -16.386  37.227  1.00  0.00    +0.000 O 
BRANCH   13   12
ATOM     12  C10 UNL A   1      22.403 -14.972  38.899  1.00  0.00    +0.000 C 
ATOM    102  H12 UNL A   1      21.830 -14.094  38.681  1.00  0.00    +0.000 H 
ATOM    103  H13 UNL A   1      22.047 -15.624  39.670  1.00  0.00    +0.000 H 
BRANCH   12   11
ATOM     11  C9  UNL A   1      23.750 -14.491  39.452  1.00  0.00    +0.000 C 
ATOM    100  H10 UNL A   1      24.339 -14.214  38.602  1.00  0.00    +0.000 H 
ATOM    101  H11 UNL A   1      23.449 -13.736  40.147  1.00  0.00    +0.000 H 
BRANCH   11   10
ATOM     10  C8  UNL A   1      24.646 -15.390  40.322  1.00  0.00    +0.000 C 
ATOM     99  H9  UNL A   1      25.560 -15.415  39.767  1.00  0.00    +0.000 H 
ATOM     98  H8  UNL A   1      24.111 -16.305  40.463  1.00  0.00    +0.000 H 
BRANCH   10    9
ATOM      2  C2  UNL A   1      25.985 -12.116  45.307  1.00  0.00    +0.000 C 
ATOM      3  C3  UNL A   1      27.291 -12.234  44.812  1.00  0.00    +0.000 C 
ATOM      4  C4  UNL A   1      27.549 -13.042  43.690  1.00  0.00    +0.000 C 
ATOM      6  C6  UNL A   1      26.453 -13.654  43.093  1.00  0.00    +0.000 C 
ATOM      7  C7  UNL A   1      26.364 -14.414  41.824  1.00  0.00    +0.000 C 
ATOM      8  O1  UNL A   1      27.280 -14.445  41.014  1.00  0.00    +0.000 O 
ATOM      9  N1  UNL A   1      25.086 -14.960  41.647  1.00  0.00    +0.000 N 
ATOM     88  S1  UNL A   1      24.010 -14.569  42.921  1.00  0.00    +0.000 S 
ATOM     89  C63 UNL A   1      25.217 -13.538  43.694  1.00  0.00    +0.000 C 
ATOM     90  N8  UNL A   1      24.937 -12.779  44.767  1.00  0.00    +0.000 N 
ATOM     94  H4  UNL A   1      28.064 -11.727  45.271  1.00  0.00    +0.000 H 
BRANCH    2    1
ATOM      1  C1  UNL A   1      25.673 -11.209  46.460  1.00  0.00    +0.000 C 
ATOM     91  H1  UNL A   1      24.752 -11.511  46.912  1.00  0.00    +0.000 H 
ATOM     92  H2  UNL A   1      25.584 -10.202  46.109  1.00  0.00    +0.000 H 
ATOM     93  H3  UNL A   1      26.461 -11.266  47.182  1.00  0.00    +0.000 H 
ENDBRANCH    2    1
BRANCH    4    5
ATOM     97  H7  UNL A   1      29.286 -12.365  42.704  1.00  0.00    +0.000 H 
ATOM      5  C5  UNL A   1      28.946 -13.250  43.200  1.00  0.00    +0.000 C 
ATOM     95  H5  UNL A   1      28.965 -14.072  42.515  1.00  0.00    +0.000 H 
ATOM     96  H6  UNL A   1      29.588 -13.463  44.030  1.00  0.00    +0.000 H 
ENDBRANCH    4    5
ENDBRANCH   10    9
ENDBRANCH   11   10
ENDBRANCH   12   11
ENDBRANCH   13   12
ENDBRANCH   15   13
ENDBRANCH   16   15
ENDBRANCH   17   16
ENDBRANCH   18   17
ENDBRANCH   19   18
ENDBRANCH   20   19
ENDBRANCH   21   20
ENDBRANCH   22   21
ENDBRANCH   23   22
ENDBRANCH   25   23
ENDBRANCH   29   28
BRANCH   33   34
ATOM     34  C27 UNL A   1      28.171  -8.644  30.335  1.00  0.00    +0.000 C 
ATOM     35  C28 UNL A   1      28.254  -7.787  29.219  1.00  0.00    +0.000 C 
ATOM     36  F1  UNL A   1      27.157  -7.469  28.518  1.00  0.00    +0.000 F 
ATOM     37  C29 UNL A   1      29.479  -7.300  28.750  1.00  0.00    +0.000 C 
ATOM     38  F2  UNL A   1      29.519  -6.579  27.622  1.00  0.00    +0.000 F 
ATOM     39  C30 UNL A   1      30.655  -7.605  29.410  1.00  0.00    +0.000 C 
ATOM     40  F3  UNL A   1      31.833  -7.180  28.935  1.00  0.00    +0.000 F 
ATOM     41  C31 UNL A   1      30.610  -8.395  30.538  1.00  0.00    +0.000 C 
ATOM     42  F4  UNL A   1      31.741  -8.718  31.180  1.00  0.00    +0.000 F 
ATOM     43  C32 UNL A   1      29.397  -8.927  30.975  1.00  0.00    +0.000 C 
ATOM     44  F5  UNL A   1      29.493  -9.809  31.977  1.00  0.00    +0.000 F 
ENDBRANCH   33   34
BRANCH   50   51
ATOM     51  C38 UNL A   1      25.541 -15.006  30.826  1.00  0.00    +0.000 C 
ATOM     52  C39 UNL A   1      25.694 -16.246  30.180  1.00  0.00    +0.000 C 
ATOM     53  F6  UNL A   1      26.810 -16.530  29.497  1.00  0.00    +0.000 F 
ATOM     54  C40 UNL A   1      24.721 -17.242  30.273  1.00  0.00    +0.000 C 
ATOM     55  F7  UNL A   1      24.891 -18.412  29.639  1.00  0.00    +0.000 F 
ATOM     56  C41 UNL A   1      23.593 -17.038  31.050  1.00  0.00    +0.000 C 
ATOM     57  F8  UNL A   1      22.677 -18.008  31.176  1.00  0.00    +0.000 F 
ATOM     58  C42 UNL A   1      23.430 -15.835  31.717  1.00  0.00    +0.000 C 
ATOM     59  F9  UNL A   1      22.363 -15.648  32.506  1.00  0.00    +0.000 F 
ATOM     60  C43 UNL A   1      24.384 -14.827  31.594  1.00  0.00    +0.000 C 
ATOM     61  F10 UNL A   1      24.202 -13.684  32.274  1.00  0.00    +0.000 F 
ENDBRANCH   50   51
BRANCH   65   66
ATOM     66  C47 UNL A   1      28.837 -15.040  36.245  1.00  0.00    +0.000 C 
ATOM     67  C48 UNL A   1      29.162 -14.161  37.291  1.00  0.00    +0.000 C 
ATOM     68  F11 UNL A   1      28.806 -12.871  37.221  1.00  0.00    +0.000 F 
ATOM     69  C49 UNL A   1      29.782 -14.614  38.460  1.00  0.00    +0.000 C 
ATOM     70  F12 UNL A   1      30.011 -13.760  39.469  1.00  0.00    +0.000 F 
ATOM     71  C50 UNL A   1      30.102 -15.953  38.611  1.00  0.00    +0.000 C 
ATOM     72  F13 UNL A   1      30.626 -16.400  39.761  1.00  0.00    +0.000 F 
ATOM     73  C51 UNL A   1      29.833 -16.836  37.580  1.00  0.00    +0.000 C 
ATOM     74  F14 UNL A   1      30.104 -18.141  37.729  1.00  0.00    +0.000 F 
ATOM     75  C52 UNL A   1      29.212 -16.387  36.414  1.00  0.00    +0.000 C 
ATOM     76  F15 UNL A   1      28.893 -17.309  35.495  1.00  0.00    +0.000 F 
ENDBRANCH   65   66
TORSDOF 20
ENDMDL
MODEL 8
REMARK VINA RESULT:      -9.0     18.507     22.998
ROOT
ATOM    129  H39 UNL A   1      25.968  -8.363  34.551  1.00  0.00    +0.000 H 
ATOM     29  C23 UNL A   1      24.664 -10.911  34.415  1.00  0.00    +0.000 C 
ATOM     30  C24 UNL A   1      25.378 -10.188  33.339  1.00  0.00    +0.000 C 
ATOM     31  N4  UNL A   1      25.471 -10.522  32.096  1.00  0.00    +0.000 N 
ATOM     32  C25 UNL A   1      26.257  -9.543  31.496  1.00  0.00    +0.000 C 
ATOM     33  C26 UNL A   1      26.939  -9.799  30.347  1.00  0.00    +0.000 C 
ATOM     45  C33 UNL A   1      26.447 -10.995  29.710  1.00  0.00    +0.000 C 
ATOM     46  C34 UNL A   1      25.260 -11.357  29.107  1.00  0.00    +0.000 C 
ATOM     47  C35 UNL A   1      25.058 -12.722  29.471  1.00  0.00    +0.000 C 
ATOM     48  C36 UNL A   1      26.157 -13.140  30.224  1.00  0.00    +0.000 C 
ATOM     49  N5  UNL A   1      27.098 -12.170  29.991  1.00  0.00    +0.000 N 
ATOM     50  C37 UNL A   1      26.342 -14.234  31.154  1.00  0.00    +0.000 C 
ATOM     62  C44 UNL A   1      27.361 -14.330  32.060  1.00  0.00    +0.000 C 
ATOM     63  N6  UNL A   1      27.243 -15.144  33.179  1.00  0.00    +0.000 N 
ATOM     64  C45 UNL A   1      28.028 -14.603  34.072  1.00  0.00    +0.000 C 
ATOM     65  C46 UNL A   1      27.693 -14.522  35.517  1.00  0.00    +0.000 C 
ATOM     77  C53 UNL A   1      26.614 -13.707  35.609  1.00  0.00    +0.000 C 
ATOM     78  C54 UNL A   1      25.636 -13.568  36.661  1.00  0.00    +0.000 C 
ATOM     79  C55 UNL A   1      24.717 -12.667  36.259  1.00  0.00    +0.000 C 
ATOM     80  C56 UNL A   1      25.154 -12.022  35.011  1.00  0.00    +0.000 C 
ATOM     81  N7  UNL A   1      26.248 -12.760  34.631  1.00  0.00    +0.000 N 
ATOM     82  C57 UNL A   1      29.015 -13.671  33.557  1.00  0.00    +0.000 C 
ATOM     83  C58 UNL A   1      28.520 -13.484  32.332  1.00  0.00    +0.000 C 
ATOM     84  C59 UNL A   1      26.361  -8.467  32.447  1.00  0.00    +0.000 C 
ATOM     85  C60 UNL A   1      25.928  -8.859  33.648  1.00  0.00    +0.000 C 
ATOM    120  H30 UNL A   1      24.650 -10.768  28.519  1.00  0.00    +0.000 H 
ATOM    121  H31 UNL A   1      24.240 -13.301  29.222  1.00  0.00    +0.000 H 
ATOM    122  H32 UNL A   1      28.075 -12.295  30.022  1.00  0.00    +0.000 H 
ATOM    123  H33 UNL A   1      25.638 -14.070  37.563  1.00  0.00    +0.000 H 
ATOM    124  H34 UNL A   1      23.835 -12.458  36.755  1.00  0.00    +0.000 H 
ATOM    125  H35 UNL A   1      26.720 -12.642  33.776  1.00  0.00    +0.000 H 
ATOM    126  H36 UNL A   1      29.853 -13.269  34.006  1.00  0.00    +0.000 H 
ATOM    127  H37 UNL A   1      28.912 -12.816  31.651  1.00  0.00    +0.000 H 
ATOM    128  H38 UNL A   1      26.719  -7.524  32.231  1.00  0.00    +0.000 H 
ENDROOT
BRANCH   29   28
ATOM    130  H40 UNL A   1      24.460  -9.917  36.803  1.00  0.00    +0.000 H 
ATOM    131  H41 UNL A   1      22.338  -9.542  37.927  1.00  0.00    +0.000 H 
ATOM     28  C22 UNL A   1      23.506 -10.215  34.947  1.00  0.00    +0.000 C 
ATOM     86  C61 UNL A   1      23.568  -9.876  36.285  1.00  0.00    +0.000 C 
ATOM     87  C62 UNL A   1      22.419  -9.488  36.900  1.00  0.00    +0.000 C 
ATOM    118  H28 UNL A   1      20.514  -8.907  34.200  1.00  0.00    +0.000 H 
ATOM     25  C19 UNL A   1      21.355  -9.019  36.144  1.00  0.00    +0.000 C 
ATOM     26  C20 UNL A   1      21.315  -9.233  34.763  1.00  0.00    +0.000 C 
ATOM     27  C21 UNL A   1      22.385  -9.895  34.165  1.00  0.00    +0.000 C 
ATOM    119  H29 UNL A   1      22.354 -10.146  33.165  1.00  0.00    +0.000 H 
BRANCH   25   23
ATOM     23  C18 UNL A   1      20.299  -8.279  36.861  1.00  0.00    +0.000 C 
ATOM     24  O3  UNL A   1      20.540  -7.721  37.911  1.00  0.00    +0.000 O 
BRANCH   23   22
ATOM    117  H27 UNL A   1      18.957  -7.729  35.451  1.00  0.00    +0.000 H 
ATOM     22  N3  UNL A   1      19.033  -8.235  36.292  1.00  0.00    +0.000 N 
BRANCH   22   21
ATOM    115  H25 UNL A   1      17.550  -8.408  37.731  1.00  0.00    +0.000 H 
ATOM    116  H26 UNL A   1      17.033  -8.670  36.058  1.00  0.00    +0.000 H 
ATOM     21  C17 UNL A   1      17.796  -8.847  36.786  1.00  0.00    +0.000 C 
BRANCH   21   20
ATOM    113  H23 UNL A   1      18.916 -10.571  37.290  1.00  0.00    +0.000 H 
ATOM    114  H24 UNL A   1      17.188 -10.642  37.691  1.00  0.00    +0.000 H 
ATOM     20  C16 UNL A   1      17.919 -10.349  36.967  1.00  0.00    +0.000 C 
BRANCH   20   19
ATOM     19  C15 UNL A   1      17.634 -11.140  35.683  1.00  0.00    +0.000 C 
ATOM    111  H21 UNL A   1      16.971 -10.556  35.079  1.00  0.00    +0.000 H 
ATOM    112  H22 UNL A   1      18.593 -11.319  35.241  1.00  0.00    +0.000 H 
BRANCH   19   18
ATOM     18  C14 UNL A   1      17.002 -12.530  35.865  1.00  0.00    +0.000 C 
ATOM    109  H19 UNL A   1      15.982 -12.475  35.546  1.00  0.00    +0.000 H 
ATOM    110  H20 UNL A   1      17.595 -13.205  35.284  1.00  0.00    +0.000 H 
BRANCH   18   17
ATOM     17  C13 UNL A   1      17.021 -13.071  37.297  1.00  0.00    +0.000 C 
ATOM    107  H17 UNL A   1      18.039 -13.146  37.618  1.00  0.00    +0.000 H 
ATOM    108  H18 UNL A   1      16.459 -12.389  37.901  1.00  0.00    +0.000 H 
BRANCH   17   16
ATOM    105  H15 UNL A   1      16.979 -15.178  36.952  1.00  0.00    +0.000 H 
ATOM    106  H16 UNL A   1      16.260 -14.677  38.473  1.00  0.00    +0.000 H 
ATOM     16  C12 UNL A   1      16.365 -14.445  37.434  1.00  0.00    +0.000 C 
BRANCH   16   15
ATOM     15  N2  UNL A   1      15.058 -14.444  36.821  1.00  0.00    +0.000 N 
ATOM    104  H14 UNL A   1      14.447 -13.755  37.166  1.00  0.00    +0.000 H 
BRANCH   15   13
ATOM     13  C11 UNL A   1      14.528 -15.232  35.852  1.00  0.00    +0.000 C 
ATOM     14  O2  UNL A   1      13.421 -15.729  36.072  1.00  0.00    +0.000 O 
BRANCH   13   12
ATOM     12  C10 UNL A   1      15.295 -15.594  34.593  1.00  0.00    +0.000 C 
ATOM    102  H12 UNL A   1      14.624 -15.443  33.773  1.00  0.00    +0.000 H 
ATOM    103  H13 UNL A   1      16.161 -14.969  34.653  1.00  0.00    +0.000 H 
BRANCH   12   11
ATOM     11  C9  UNL A   1      15.895 -16.995  34.417  1.00  0.00    +0.000 C 
ATOM    100  H10 UNL A   1      15.871 -17.453  35.384  1.00  0.00    +0.000 H 
ATOM    101  H11 UNL A   1      15.289 -17.399  33.633  1.00  0.00    +0.000 H 
BRANCH   11   10
ATOM     10  C8  UNL A   1      17.315 -17.214  33.870  1.00  0.00    +0.000 C 
ATOM     99  H9  UNL A   1      17.255 -16.793  32.888  1.00  0.00    +0.000 H 
ATOM     98  H8  UNL A   1      17.519 -18.260  33.963  1.00  0.00    +0.000 H 
BRANCH   10    9
ATOM      2  C2  UNL A   1      20.924 -13.495  37.113  1.00  0.00    +0.000 C 
ATOM      3  C3  UNL A   1      21.006 -12.809  35.893  1.00  0.00    +0.000 C 
ATOM      4  C4  UNL A   1      20.419 -13.354  34.737  1.00  0.00    +0.000 C 
ATOM      6  C6  UNL A   1      19.731 -14.552  34.888  1.00  0.00    +0.000 C 
ATOM      7  C7  UNL A   1      18.877 -15.284  33.925  1.00  0.00    +0.000 C 
ATOM      8  O1  UNL A   1      18.516 -14.793  32.864  1.00  0.00    +0.000 O 
ATOM      9  N1  UNL A   1      18.462 -16.516  34.447  1.00  0.00    +0.000 N 
ATOM     88  S1  UNL A   1      19.037 -16.795  36.036  1.00  0.00    +0.000 S 
ATOM     89  C63 UNL A   1      19.766 -15.190  36.111  1.00  0.00    +0.000 C 
ATOM     90  N8  UNL A   1      20.321 -14.699  37.232  1.00  0.00    +0.000 N 
ATOM     94  H4  UNL A   1      21.497 -11.901  35.844  1.00  0.00    +0.000 H 
BRANCH    2    1
ATOM      1  C1  UNL A   1      21.482 -12.904  38.373  1.00  0.00    +0.000 C 
ATOM     91  H1  UNL A   1      22.370 -12.351  38.144  1.00  0.00    +0.000 H 
ATOM     92  H2  UNL A   1      21.718 -13.687  39.061  1.00  0.00    +0.000 H 
ATOM     93  H3  UNL A   1      20.758 -12.249  38.812  1.00  0.00    +0.000 H 
ENDBRANCH    2    1
BRANCH    4    5
ATOM     97  H7  UNL A   1      20.064 -11.738  33.428  1.00  0.00    +0.000 H 
ATOM      5  C5  UNL A   1      20.570 -12.680  33.410  1.00  0.00    +0.000 C 
ATOM     95  H5  UNL A   1      20.146 -13.298  32.646  1.00  0.00    +0.000 H 
ATOM     96  H6  UNL A   1      21.609 -12.523  33.206  1.00  0.00    +0.000 H 
ENDBRANCH    4    5
ENDBRANCH   10    9
ENDBRANCH   11   10
ENDBRANCH   12   11
ENDBRANCH   13   12
ENDBRANCH   15   13
ENDBRANCH   16   15
ENDBRANCH   17   16
ENDBRANCH   18   17
ENDBRANCH   19   18
ENDBRANCH   20   19
ENDBRANCH   21   20
ENDBRANCH   22   21
ENDBRANCH   23   22
ENDBRANCH   25   23
ENDBRANCH   29   28
BRANCH   33   34
ATOM     34  C27 UNL A   1      28.259  -9.172  29.973  1.00  0.00    +0.000 C 
ATOM     35  C28 UNL A   1      29.391  -9.414  30.777  1.00  0.00    +0.000 C 
ATOM     36  F1  UNL A   1      29.364 -10.357  31.729  1.00  0.00    +0.000 F 
ATOM     37  C29 UNL A   1      30.550  -8.639  30.674  1.00  0.00    +0.000 C 
ATOM     38  F2  UNL A   1      31.559  -8.834  31.533  1.00  0.00    +0.000 F 
ATOM     39  C30 UNL A   1      30.642  -7.633  29.729  1.00  0.00    +0.000 C 
ATOM     40  F3  UNL A   1      31.732  -6.858  29.661  1.00  0.00    +0.000 F 
ATOM     41  C31 UNL A   1      29.577  -7.402  28.886  1.00  0.00    +0.000 C 
ATOM     42  F4  UNL A   1      29.638  -6.419  27.977  1.00  0.00    +0.000 F 
ATOM     43  C32 UNL A   1      28.399  -8.136  29.024  1.00  0.00    +0.000 C 
ATOM     44  F5  UNL A   1      27.378  -7.719  28.267  1.00  0.00    +0.000 F 
ENDBRANCH   33   34
BRANCH   50   51
ATOM     51  C38 UNL A   1      25.210 -15.225  31.273  1.00  0.00    +0.000 C 
ATOM     52  C39 UNL A   1      24.031 -14.993  32.004  1.00  0.00    +0.000 C 
ATOM     53  F6  UNL A   1      23.866 -13.861  32.698  1.00  0.00    +0.000 F 
ATOM     54  C40 UNL A   1      22.973 -15.904  31.990  1.00  0.00    +0.000 C 
ATOM     55  F7  UNL A   1      21.865 -15.661  32.706  1.00  0.00    +0.000 F 
ATOM     56  C41 UNL A   1      23.052 -17.045  31.210  1.00  0.00    +0.000 C 
ATOM     57  F8  UNL A   1      22.021 -17.900  31.160  1.00  0.00    +0.000 F 
ATOM     58  C42 UNL A   1      24.191 -17.284  30.460  1.00  0.00    +0.000 C 
ATOM     59  F9  UNL A   1      24.255 -18.363  29.667  1.00  0.00    +0.000 F 
ATOM     60  C43 UNL A   1      25.262 -16.393  30.502  1.00  0.00    +0.000 C 
ATOM     61  F10 UNL A   1      26.340 -16.648  29.744  1.00  0.00    +0.000 F 
ENDBRANCH   50   51
BRANCH   65   66
ATOM     66  C47 UNL A   1      28.666 -14.869  36.579  1.00  0.00    +0.000 C 
ATOM     67  C48 UNL A   1      29.058 -13.911  37.528  1.00  0.00    +0.000 C 
ATOM     68  F11 UNL A   1      28.765 -12.616  37.336  1.00  0.00    +0.000 F 
ATOM     69  C49 UNL A   1      29.681 -14.278  38.725  1.00  0.00    +0.000 C 
ATOM     70  F12 UNL A   1      29.975 -13.343  39.640  1.00  0.00    +0.000 F 
ATOM     71  C50 UNL A   1      29.937 -15.611  39.001  1.00  0.00    +0.000 C 
ATOM     72  F13 UNL A   1      30.465 -15.970  40.180  1.00  0.00    +0.000 F 
ATOM     73  C51 UNL A   1      29.602 -16.575  38.068  1.00  0.00    +0.000 C 
ATOM     74  F14 UNL A   1      29.811 -17.872  38.339  1.00  0.00    +0.000 F 
ATOM     75  C52 UNL A   1      28.977 -16.211  36.873  1.00  0.00    +0.000 C 
ATOM     76  F15 UNL A   1      28.592 -17.201  36.056  1.00  0.00    +0.000 F 
ENDBRANCH   65   66
TORSDOF 20
ENDMDL
MODEL 9
REMARK VINA RESULT:      -8.9     36.244     42.085
ROOT
ATOM    129  H39 UNL A   1      11.466  29.155   3.218  1.00  0.00    +0.000 H 
ATOM     29  C23 UNL A   1      10.490  28.805   0.546  1.00  0.00    +0.000 C 
ATOM     30  C24 UNL A   1      11.264  29.940   1.098  1.00  0.00    +0.000 C 
ATOM     31  N4  UNL A   1      11.570  31.045   0.505  1.00  0.00    +0.000 N 
ATOM     32  C25 UNL A   1      12.318  31.775   1.424  1.00  0.00    +0.000 C 
ATOM     33  C26 UNL A   1      13.182  32.743   1.013  1.00  0.00    +0.000 C 
ATOM     45  C33 UNL A   1      12.923  33.118  -0.355  1.00  0.00    +0.000 C 
ATOM     46  C34 UNL A   1      11.882  33.742  -1.012  1.00  0.00    +0.000 C 
ATOM     47  C35 UNL A   1      11.785  33.078  -2.272  1.00  0.00    +0.000 C 
ATOM     48  C36 UNL A   1      12.807  32.129  -2.345  1.00  0.00    +0.000 C 
ATOM     49  N5  UNL A   1      13.656  32.486  -1.329  1.00  0.00    +0.000 N 
ATOM     50  C37 UNL A   1      12.979  30.944  -3.159  1.00  0.00    +0.000 C 
ATOM     62  C44 UNL A   1      13.862  29.934  -2.898  1.00  0.00    +0.000 C 
ATOM     63  N6  UNL A   1      13.679  28.670  -3.443  1.00  0.00    +0.000 N 
ATOM     64  C45 UNL A   1      14.263  27.855  -2.605  1.00  0.00    +0.000 C 
ATOM     65  C46 UNL A   1      13.718  26.521  -2.245  1.00  0.00    +0.000 C 
ATOM     77  C53 UNL A   1      12.553  26.753  -1.594  1.00  0.00    +0.000 C 
ATOM     78  C54 UNL A   1      11.425  25.882  -1.360  1.00  0.00    +0.000 C 
ATOM     79  C55 UNL A   1      10.478  26.594  -0.716  1.00  0.00    +0.000 C 
ATOM     80  C56 UNL A   1      11.012  27.905  -0.318  1.00  0.00    +0.000 C 
ATOM     81  N7  UNL A   1      12.225  27.968  -0.959  1.00  0.00    +0.000 N 
ATOM     82  C57 UNL A   1      15.202  28.470  -1.684  1.00  0.00    +0.000 C 
ATOM     83  C58 UNL A   1      14.869  29.751  -1.855  1.00  0.00    +0.000 C 
ATOM     84  C59 UNL A   1      12.163  31.111   2.692  1.00  0.00    +0.000 C 
ATOM     85  C60 UNL A   1      11.611  29.907   2.527  1.00  0.00    +0.000 C 
ATOM    120  H30 UNL A   1      11.300  34.520  -0.667  1.00  0.00    +0.000 H 
ATOM    121  H31 UNL A   1      11.082  33.267  -3.004  1.00  0.00    +0.000 H 
ATOM    122  H32 UNL A   1      14.626  32.317  -1.302  1.00  0.00    +0.000 H 
ATOM    123  H33 UNL A   1      11.356  24.891  -1.636  1.00  0.00    +0.000 H 
ATOM    124  H34 UNL A   1       9.516  26.265  -0.528  1.00  0.00    +0.000 H 
ATOM    125  H35 UNL A   1      12.798  28.768  -0.972  1.00  0.00    +0.000 H 
ATOM    126  H36 UNL A   1      15.917  28.043  -1.074  1.00  0.00    +0.000 H 
ATOM    127  H37 UNL A   1      15.276  30.527  -1.311  1.00  0.00    +0.000 H 
ATOM    128  H38 UNL A   1      12.440  31.511   3.602  1.00  0.00    +0.000 H 
ENDROOT
BRANCH   29   28
ATOM    130  H40 UNL A   1       8.402  30.317   0.255  1.00  0.00    +0.000 H 
ATOM    131  H41 UNL A   1       6.603  30.454   1.884  1.00  0.00    +0.000 H 
ATOM     28  C22 UNL A   1       9.197  28.593   1.171  1.00  0.00    +0.000 C 
ATOM     86  C61 UNL A   1       8.261  29.592   0.975  1.00  0.00    +0.000 C 
ATOM     87  C62 UNL A   1       7.150  29.588   1.760  1.00  0.00    +0.000 C 
ATOM    118  H28 UNL A   1       7.349  26.475   2.992  1.00  0.00    +0.000 H 
ATOM     25  C19 UNL A   1       6.754  28.419   2.392  1.00  0.00    +0.000 C 
ATOM     26  C20 UNL A   1       7.632  27.337   2.502  1.00  0.00    +0.000 C 
ATOM     27  C21 UNL A   1       8.897  27.451   1.930  1.00  0.00    +0.000 C 
ATOM    119  H29 UNL A   1       9.602  26.710   2.063  1.00  0.00    +0.000 H 
BRANCH   25   23
ATOM     23  C18 UNL A   1       5.374  28.375   2.913  1.00  0.00    +0.000 C 
ATOM     24  O3  UNL A   1       5.148  28.600   4.084  1.00  0.00    +0.000 O 
BRANCH   23   22
ATOM    117  H27 UNL A   1       3.904  27.211   2.154  1.00  0.00    +0.000 H 
ATOM     22  N3  UNL A   1       4.351  28.079   2.023  1.00  0.00    +0.000 N 
BRANCH   22   21
ATOM    115  H25 UNL A   1       2.780  28.861   0.916  1.00  0.00    +0.000 H 
ATOM    116  H26 UNL A   1       4.214  29.891   1.050  1.00  0.00    +0.000 H 
ATOM     21  C17 UNL A   1       3.850  28.895   0.912  1.00  0.00    +0.000 C 
BRANCH   21   20
ATOM    113  H23 UNL A   1       5.414  28.383  -0.419  1.00  0.00    +0.000 H 
ATOM    114  H24 UNL A   1       3.922  27.439  -0.600  1.00  0.00    +0.000 H 
ATOM     20  C16 UNL A   1       4.344  28.408  -0.438  1.00  0.00    +0.000 C 
BRANCH   20   19
ATOM     19  C15 UNL A   1       3.898  29.301  -1.605  1.00  0.00    +0.000 C 
ATOM    111  H21 UNL A   1       3.123  28.786  -2.133  1.00  0.00    +0.000 H 
ATOM    112  H22 UNL A   1       3.591  30.223  -1.156  1.00  0.00    +0.000 H 
BRANCH   19   18
ATOM     18  C14 UNL A   1       4.984  29.684  -2.624  1.00  0.00    +0.000 C 
ATOM    109  H19 UNL A   1       5.935  29.419  -2.211  1.00  0.00    +0.000 H 
ATOM    110  H20 UNL A   1       4.747  29.158  -3.524  1.00  0.00    +0.000 H 
BRANCH   18   17
ATOM     17  C13 UNL A   1       5.030  31.169  -2.998  1.00  0.00    +0.000 C 
ATOM    107  H17 UNL A   1       5.926  31.351  -3.553  1.00  0.00    +0.000 H 
ATOM    108  H18 UNL A   1       4.152  31.378  -3.574  1.00  0.00    +0.000 H 
BRANCH   17   16
ATOM    105  H15 UNL A   1       5.032  33.115  -2.120  1.00  0.00    +0.000 H 
ATOM    106  H16 UNL A   1       4.118  31.915  -1.223  1.00  0.00    +0.000 H 
ATOM     16  C12 UNL A   1       5.009  32.099  -1.785  1.00  0.00    +0.000 C 
BRANCH   16   15
ATOM     15  N2  UNL A   1       6.154  31.853  -0.941  1.00  0.00    +0.000 N 
ATOM    104  H14 UNL A   1       6.348  30.901  -0.785  1.00  0.00    +0.000 H 
BRANCH   15   13
ATOM     13  C11 UNL A   1       7.008  32.709  -0.324  1.00  0.00    +0.000 C 
ATOM     14  O2  UNL A   1       6.628  33.222   0.731  1.00  0.00    +0.000 O 
BRANCH   13   12
ATOM     12  C10 UNL A   1       8.329  33.122  -0.945  1.00  0.00    +0.000 C 
ATOM    102  H12 UNL A   1       8.904  33.578  -0.166  1.00  0.00    +0.000 H 
ATOM    103  H13 UNL A   1       8.692  32.206  -1.365  1.00  0.00    +0.000 H 
BRANCH   12   11
ATOM     11  C9  UNL A   1       8.367  34.084  -2.139  1.00  0.00    +0.000 C 
ATOM    100  H10 UNL A   1       7.594  34.803  -1.967  1.00  0.00    +0.000 H 
ATOM    101  H11 UNL A   1       9.388  34.404  -2.134  1.00  0.00    +0.000 H 
BRANCH   11   10
ATOM     10  C8  UNL A   1       8.190  33.599  -3.588  1.00  0.00    +0.000 C 
ATOM     99  H9  UNL A   1       7.238  33.110  -3.556  1.00  0.00    +0.000 H 
ATOM     98  H8  UNL A   1       9.054  33.013  -3.819  1.00  0.00    +0.000 H 
BRANCH   10    9
ATOM      2  C2  UNL A   1       6.345  36.477  -8.656  1.00  0.00    +0.000 C 
ATOM      3  C3  UNL A   1       7.535  35.946  -9.172  1.00  0.00    +0.000 C 
ATOM      4  C4  UNL A   1       8.431  35.269  -8.325  1.00  0.00    +0.000 C 
ATOM      6  C6  UNL A   1       8.048  35.121  -6.997  1.00  0.00    +0.000 C 
ATOM      7  C7  UNL A   1       8.671  34.329  -5.911  1.00  0.00    +0.000 C 
ATOM      8  O1  UNL A   1       9.566  33.521  -6.120  1.00  0.00    +0.000 O 
ATOM      9  N1  UNL A   1       8.025  34.547  -4.687  1.00  0.00    +0.000 N 
ATOM     88  S1  UNL A   1       6.704  35.629  -4.813  1.00  0.00    +0.000 S 
ATOM     89  C63 UNL A   1       6.893  35.740  -6.564  1.00  0.00    +0.000 C 
ATOM     90  N8  UNL A   1       6.018  36.396  -7.346  1.00  0.00    +0.000 N 
ATOM     94  H4  UNL A   1       7.754  36.051 -10.176  1.00  0.00    +0.000 H 
BRANCH    2    1
ATOM      1  C1  UNL A   1       5.342  37.143  -9.550  1.00  0.00    +0.000 C 
ATOM     91  H1  UNL A   1       5.370  36.688 -10.518  1.00  0.00    +0.000 H 
ATOM     92  H2  UNL A   1       5.578  38.183  -9.638  1.00  0.00    +0.000 H 
ATOM     93  H3  UNL A   1       4.363  37.034  -9.132  1.00  0.00    +0.000 H 
ENDBRANCH    2    1
BRANCH    4    5
ATOM     97  H7  UNL A   1      10.191  35.520  -9.460  1.00  0.00    +0.000 H 
ATOM      5  C5  UNL A   1       9.745  34.773  -8.838  1.00  0.00    +0.000 C 
ATOM     95  H5  UNL A   1       9.591  33.880  -9.407  1.00  0.00    +0.000 H 
ATOM     96  H6  UNL A   1      10.394  34.562  -8.012  1.00  0.00    +0.000 H 
ENDBRANCH    4    5
ENDBRANCH   10    9
ENDBRANCH   11   10
ENDBRANCH   12   11
ENDBRANCH   13   12
ENDBRANCH   15   13
ENDBRANCH   16   15
ENDBRANCH   17   16
ENDBRANCH   18   17
ENDBRANCH   19   18
ENDBRANCH   20   19
ENDBRANCH   21   20
ENDBRANCH   22   21
ENDBRANCH   23   22
ENDBRANCH   25   23
ENDBRANCH   29   28
BRANCH   33   34
ATOM     34  C27 UNL A   1      14.462  33.110   1.720  1.00  0.00    +0.000 C 
ATOM     35  C28 UNL A   1      14.483  34.235   2.569  1.00  0.00    +0.000 C 
ATOM     36  F1  UNL A   1      13.344  34.845   2.926  1.00  0.00    +0.000 F 
ATOM     37  C29 UNL A   1      15.681  34.807   3.009  1.00  0.00    +0.000 C 
ATOM     38  F2  UNL A   1      15.654  35.939   3.723  1.00  0.00    +0.000 F 
ATOM     39  C30 UNL A   1      16.897  34.245   2.663  1.00  0.00    +0.000 C 
ATOM     40  F3  UNL A   1      18.045  34.819   3.041  1.00  0.00    +0.000 F 
ATOM     41  C31 UNL A   1      16.916  33.112   1.879  1.00  0.00    +0.000 C 
ATOM     42  F4  UNL A   1      18.084  32.564   1.516  1.00  0.00    +0.000 F 
ATOM     43  C32 UNL A   1      15.725  32.572   1.394  1.00  0.00    +0.000 C 
ATOM     44  F5  UNL A   1      15.871  31.576   0.513  1.00  0.00    +0.000 F 
ENDBRANCH   33   34
BRANCH   50   51
ATOM     51  C38 UNL A   1      11.961  30.713  -4.249  1.00  0.00    +0.000 C 
ATOM     52  C39 UNL A   1      12.237  30.823  -5.624  1.00  0.00    +0.000 C 
ATOM     53  F6  UNL A   1      13.448  31.199  -6.051  1.00  0.00    +0.000 F 
ATOM     54  C40 UNL A   1      11.283  30.494  -6.588  1.00  0.00    +0.000 C 
ATOM     55  F7  UNL A   1      11.572  30.618  -7.892  1.00  0.00    +0.000 F 
ATOM     56  C41 UNL A   1      10.047  30.004  -6.200  1.00  0.00    +0.000 C 
ATOM     57  F8  UNL A   1       9.144  29.647  -7.124  1.00  0.00    +0.000 F 
ATOM     58  C42 UNL A   1       9.759  29.862  -4.853  1.00  0.00    +0.000 C 
ATOM     59  F9  UNL A   1       8.582  29.347  -4.473  1.00  0.00    +0.000 F 
ATOM     60  C43 UNL A   1      10.698  30.225  -3.890  1.00  0.00    +0.000 C 
ATOM     61  F10 UNL A   1      10.390  30.051  -2.595  1.00  0.00    +0.000 F 
ENDBRANCH   50   51
BRANCH   65   66
ATOM     66  C47 UNL A   1      14.563  25.305  -2.197  1.00  0.00    +0.000 C 
ATOM     67  C48 UNL A   1      14.631  24.530  -1.027  1.00  0.00    +0.000 C 
ATOM     68  F11 UNL A   1      14.148  25.011   0.127  1.00  0.00    +0.000 F 
ATOM     69  C49 UNL A   1      15.119  23.219  -1.046  1.00  0.00    +0.000 C 
ATOM     70  F12 UNL A   1      15.100  22.484   0.076  1.00  0.00    +0.000 F 
ATOM     71  C50 UNL A   1      15.560  22.652  -2.230  1.00  0.00    +0.000 C 
ATOM     72  F13 UNL A   1      15.956  21.372  -2.262  1.00  0.00    +0.000 F 
ATOM     73  C51 UNL A   1      15.545  23.404  -3.390  1.00  0.00    +0.000 C 
ATOM     74  F14 UNL A   1      15.935  22.854  -4.549  1.00  0.00    +0.000 F 
ATOM     75  C52 UNL A   1      15.056  24.712  -3.375  1.00  0.00    +0.000 C 
ATOM     76  F15 UNL A   1      14.981  25.352  -4.550  1.00  0.00    +0.000 F 
ENDBRANCH   65   66
TORSDOF 20
ENDMDL
MODEL 10
REMARK VINA RESULT:      -8.8      2.290      3.421
ROOT
ATOM    129  H39 UNL A   1      12.618   2.369  21.573  1.00  0.00    +0.000 H 
ATOM     29  C23 UNL A   1      10.081   1.115  22.025  1.00  0.00    +0.000 C 
ATOM     30  C24 UNL A   1      11.349   0.911  22.762  1.00  0.00    +0.000 C 
ATOM     31  N4  UNL A   1      11.586   0.053  23.696  1.00  0.00    +0.000 N 
ATOM     32  C25 UNL A   1      12.905   0.266  24.083  1.00  0.00    +0.000 C 
ATOM     33  C26 UNL A   1      13.344  -0.111  25.315  1.00  0.00    +0.000 C 
ATOM     45  C33 UNL A   1      12.419  -1.027  25.934  1.00  0.00    +0.000 C 
ATOM     46  C34 UNL A   1      12.002  -2.315  25.669  1.00  0.00    +0.000 C 
ATOM     47  C35 UNL A   1      10.611  -2.331  25.991  1.00  0.00    +0.000 C 
ATOM     48  C36 UNL A   1      10.264  -1.074  26.491  1.00  0.00    +0.000 C 
ATOM     49  N5  UNL A   1      11.474  -0.493  26.775  1.00  0.00    +0.000 N 
ATOM     50  C37 UNL A   1       8.995  -0.390  26.613  1.00  0.00    +0.000 C 
ATOM     62  C44 UNL A   1       8.842   0.953  26.816  1.00  0.00    +0.000 C 
ATOM     63  N6  UNL A   1       7.651   1.590  26.494  1.00  0.00    +0.000 N 
ATOM     64  C45 UNL A   1       7.989   2.826  26.241  1.00  0.00    +0.000 C 
ATOM     65  C46 UNL A   1       7.381   3.636  25.154  1.00  0.00    +0.000 C 
ATOM     77  C53 UNL A   1       7.739   3.037  23.992  1.00  0.00    +0.000 C 
ATOM     78  C54 UNL A   1       7.152   3.128  22.676  1.00  0.00    +0.000 C 
ATOM     79  C55 UNL A   1       7.831   2.295  21.861  1.00  0.00    +0.000 C 
ATOM     80  C56 UNL A   1       9.018   1.768  22.550  1.00  0.00    +0.000 C 
ATOM     81  N7  UNL A   1       8.848   2.179  23.849  1.00  0.00    +0.000 N 
ATOM     82  C57 UNL A   1       9.293   3.233  26.735  1.00  0.00    +0.000 C 
ATOM     83  C58 UNL A   1       9.804   2.033  27.017  1.00  0.00    +0.000 C 
ATOM     84  C59 UNL A   1      13.487   1.126  23.085  1.00  0.00    +0.000 C 
ATOM     85  C60 UNL A   1      12.538   1.646  22.304  1.00  0.00    +0.000 C 
ATOM    120  H30 UNL A   1      12.573  -3.099  25.316  1.00  0.00    +0.000 H 
ATOM    121  H31 UNL A   1       9.971  -3.133  25.873  1.00  0.00    +0.000 H 
ATOM    122  H32 UNL A   1      11.637   0.192  27.464  1.00  0.00    +0.000 H 
ATOM    123  H33 UNL A   1       6.355   3.724  22.407  1.00  0.00    +0.000 H 
ATOM    124  H34 UNL A   1       7.556   2.061  20.893  1.00  0.00    +0.000 H 
ATOM    125  H35 UNL A   1       9.432   1.906  24.592  1.00  0.00    +0.000 H 
ATOM    126  H36 UNL A   1       9.704   4.174  26.837  1.00  0.00    +0.000 H 
ATOM    127  H37 UNL A   1      10.772   1.884  27.341  1.00  0.00    +0.000 H 
ATOM    128  H38 UNL A   1      14.497   1.313  22.988  1.00  0.00    +0.000 H 
ENDROOT
BRANCH   29   28
ATOM    130  H40 UNL A   1      10.179  -1.294  21.069  1.00  0.00    +0.000 H 
ATOM    131  H41 UNL A   1      11.097  -1.838  18.885  1.00  0.00    +0.000 H 
ATOM     28  C22 UNL A   1      10.136   0.764  20.618  1.00  0.00    +0.000 C 
ATOM     86  C61 UNL A   1      10.307  -0.578  20.337  1.00  0.00    +0.000 C 
ATOM     87  C62 UNL A   1      10.649  -0.926  19.068  1.00  0.00    +0.000 C 
ATOM    118  H28 UNL A   1       9.929   1.945  17.490  1.00  0.00    +0.000 H 
ATOM     25  C19 UNL A   1      10.395  -0.055  18.019  1.00  0.00    +0.000 C 
ATOM     26  C20 UNL A   1      10.094   1.288  18.268  1.00  0.00    +0.000 C 
ATOM     27  C21 UNL A   1      10.021   1.715  19.592  1.00  0.00    +0.000 C 
ATOM    119  H29 UNL A   1       9.886   2.714  19.814  1.00  0.00    +0.000 H 
BRANCH   25   23
ATOM     23  C18 UNL A   1      10.440  -0.616  16.656  1.00  0.00    +0.000 C 
ATOM     24  O3  UNL A   1      11.444  -0.522  15.981  1.00  0.00    +0.000 O 
BRANCH   23   22
ATOM    117  H27 UNL A   1       8.706  -0.715  15.619  1.00  0.00    +0.000 H 
ATOM     22  N3  UNL A   1       9.306  -1.260  16.179  1.00  0.00    +0.000 N 
BRANCH   22   21
ATOM    115  H25 UNL A   1       8.907  -3.167  15.468  1.00  0.00    +0.000 H 
ATOM    116  H26 UNL A   1       9.564  -3.080  17.110  1.00  0.00    +0.000 H 
ATOM     21  C17 UNL A   1       8.888  -2.647  16.404  1.00  0.00    +0.000 C 
BRANCH   21   20
ATOM    113  H23 UNL A   1       6.847  -3.187  16.250  1.00  0.00    +0.000 H 
ATOM    114  H24 UNL A   1       7.556  -3.348  17.869  1.00  0.00    +0.000 H 
ATOM     20  C16 UNL A   1       7.490  -2.749  16.985  1.00  0.00    +0.000 C 
BRANCH   20   19
ATOM     19  C15 UNL A   1       6.904  -1.391  17.397  1.00  0.00    +0.000 C 
ATOM    111  H21 UNL A   1       7.460  -0.628  16.893  1.00  0.00    +0.000 H 
ATOM    112  H22 UNL A   1       5.868  -1.434  17.128  1.00  0.00    +0.000 H 
BRANCH   19   18
ATOM     18  C14 UNL A   1       6.922  -1.068  18.901  1.00  0.00    +0.000 C 
ATOM    109  H19 UNL A   1       6.420  -1.860  19.416  1.00  0.00    +0.000 H 
ATOM    110  H20 UNL A   1       7.952  -0.967  19.171  1.00  0.00    +0.000 H 
BRANCH   18   17
ATOM     17  C13 UNL A   1       6.249   0.251  19.291  1.00  0.00    +0.000 C 
ATOM    107  H17 UNL A   1       6.969   0.865  19.790  1.00  0.00    +0.000 H 
ATOM    108  H18 UNL A   1       5.891   0.703  18.389  1.00  0.00    +0.000 H 
BRANCH   17   16
ATOM    105  H15 UNL A   1       5.271   0.475  21.176  1.00  0.00    +0.000 H 
ATOM    106  H16 UNL A   1       4.201   0.567  19.788  1.00  0.00    +0.000 H 
ATOM     16  C12 UNL A   1       5.044   0.065  20.214  1.00  0.00    +0.000 C 
BRANCH   16   15
ATOM     15  N2  UNL A   1       4.730  -1.337  20.359  1.00  0.00    +0.000 N 
ATOM    104  H14 UNL A   1       5.483  -1.944  20.177  1.00  0.00    +0.000 H 
BRANCH   15   13
ATOM     13  C11 UNL A   1       3.575  -1.961  20.701  1.00  0.00    +0.000 C 
ATOM     14  O2  UNL A   1       2.874  -1.418  21.559  1.00  0.00    +0.000 O 
BRANCH   13   12
ATOM     12  C10 UNL A   1       3.198  -3.324  20.153  1.00  0.00    +0.000 C 
ATOM    102  H12 UNL A   1       2.218  -3.224  19.732  1.00  0.00    +0.000 H 
ATOM    103  H13 UNL A   1       4.008  -3.547  19.489  1.00  0.00    +0.000 H 
BRANCH   12   11
ATOM     11  C9  UNL A   1       3.159  -4.554  21.069  1.00  0.00    +0.000 C 
ATOM    100  H10 UNL A   1       2.888  -4.194  22.039  1.00  0.00    +0.000 H 
ATOM    101  H11 UNL A   1       2.485  -5.200  20.545  1.00  0.00    +0.000 H 
BRANCH   11   10
ATOM     10  C8  UNL A   1       4.383  -5.463  21.271  1.00  0.00    +0.000 C 
ATOM     99  H9  UNL A   1       4.545  -5.858  20.290  1.00  0.00    +0.000 H 
ATOM     98  H8  UNL A   1       4.129  -6.143  22.057  1.00  0.00    +0.000 H 
BRANCH   10    9
ATOM      2  C2  UNL A   1      10.365  -4.626  22.209  1.00  0.00    +0.000 C 
ATOM      3  C3  UNL A   1       9.996  -4.817  23.548  1.00  0.00    +0.000 C 
ATOM      4  C4  UNL A   1       8.639  -4.932  23.896  1.00  0.00    +0.000 C 
ATOM      6  C6  UNL A   1       7.719  -4.898  22.854  1.00  0.00    +0.000 C 
ATOM      7  C7  UNL A   1       6.261  -5.158  22.866  1.00  0.00    +0.000 C 
ATOM      8  O1  UNL A   1       5.688  -5.634  23.836  1.00  0.00    +0.000 O 
ATOM      9  N1  UNL A   1       5.690  -4.905  21.612  1.00  0.00    +0.000 N 
ATOM     88  S1  UNL A   1       6.837  -4.403  20.444  1.00  0.00    +0.000 S 
ATOM     89  C63 UNL A   1       8.170  -4.634  21.577  1.00  0.00    +0.000 C 
ATOM     90  N8  UNL A   1       9.458  -4.515  21.212  1.00  0.00    +0.000 N 
ATOM     94  H4  UNL A   1      10.723  -4.873  24.280  1.00  0.00    +0.000 H 
BRANCH    2    1
ATOM      1  C1  UNL A   1      11.808  -4.567  21.804  1.00  0.00    +0.000 C 
ATOM     91  H1  UNL A   1      12.352  -3.976  22.511  1.00  0.00    +0.000 H 
ATOM     92  H2  UNL A   1      11.889  -4.126  20.833  1.00  0.00    +0.000 H 
ATOM     93  H3  UNL A   1      12.213  -5.558  21.781  1.00  0.00    +0.000 H 
ENDBRANCH    2    1
BRANCH    4    5
ATOM     97  H7  UNL A   1       7.994  -6.069  25.552  1.00  0.00    +0.000 H 
ATOM      5  C5  UNL A   1       8.221  -5.048  25.327  1.00  0.00    +0.000 C 
ATOM     95  H5  UNL A   1       7.353  -4.445  25.495  1.00  0.00    +0.000 H 
ATOM     96  H6  UNL A   1       9.017  -4.712  25.960  1.00  0.00    +0.000 H 
ENDBRANCH    4    5
ENDBRANCH   10    9
ENDBRANCH   11   10
ENDBRANCH   12   11
ENDBRANCH   13   12
ENDBRANCH   15   13
ENDBRANCH   16   15
ENDBRANCH   17   16
ENDBRANCH   18   17
ENDBRANCH   19   18
ENDBRANCH   20   19
ENDBRANCH   21   20
ENDBRANCH   22   21
ENDBRANCH   23   22
ENDBRANCH   25   23
ENDBRANCH   29   28
BRANCH   33   34
ATOM     34  C27 UNL A   1      14.422   0.597  26.097  1.00  0.00    +0.000 C 
ATOM     35  C28 UNL A   1      15.709   0.028  26.169  1.00  0.00    +0.000 C 
ATOM     36  F1  UNL A   1      16.046  -1.005  25.382  1.00  0.00    +0.000 F 
ATOM     37  C29 UNL A   1      16.655   0.454  27.107  1.00  0.00    +0.000 C 
ATOM     38  F2  UNL A   1      17.824  -0.190  27.212  1.00  0.00    +0.000 F 
ATOM     39  C30 UNL A   1      16.370   1.500  27.967  1.00  0.00    +0.000 C 
ATOM     40  F3  UNL A   1      17.255   1.877  28.898  1.00  0.00    +0.000 F 
ATOM     41  C31 UNL A   1      15.142   2.119  27.890  1.00  0.00    +0.000 C 
ATOM     42  F4  UNL A   1      14.839   3.121  28.727  1.00  0.00    +0.000 F 
ATOM     43  C32 UNL A   1      14.177   1.659  26.993  1.00  0.00    +0.000 C 
ATOM     44  F5  UNL A   1      12.971   2.225  27.118  1.00  0.00    +0.000 F 
ENDBRANCH   33   34
BRANCH   50   51
ATOM     51  C38 UNL A   1       7.758  -1.188  26.278  1.00  0.00    +0.000 C 
ATOM     52  C39 UNL A   1       6.845  -1.669  27.235  1.00  0.00    +0.000 C 
ATOM     53  F6  UNL A   1       7.060  -1.480  28.543  1.00  0.00    +0.000 F 
ATOM     54  C40 UNL A   1       5.663  -2.309  26.858  1.00  0.00    +0.000 C 
ATOM     55  F7  UNL A   1       4.817  -2.766  27.793  1.00  0.00    +0.000 F 
ATOM     56  C41 UNL A   1       5.345  -2.443  25.518  1.00  0.00    +0.000 C 
ATOM     57  F8  UNL A   1       4.191  -3.019  25.153  1.00  0.00    +0.000 F 
ATOM     58  C42 UNL A   1       6.214  -1.955  24.556  1.00  0.00    +0.000 C 
ATOM     59  F9  UNL A   1       5.891  -2.041  23.258  1.00  0.00    +0.000 F 
ATOM     60  C43 UNL A   1       7.411  -1.349  24.931  1.00  0.00    +0.000 C 
ATOM     61  F10 UNL A   1       8.217  -0.868  23.971  1.00  0.00    +0.000 F 
ENDBRANCH   50   51
BRANCH   65   66
ATOM     66  C47 UNL A   1       6.935   5.034  25.360  1.00  0.00    +0.000 C 
ATOM     67  C48 UNL A   1       5.980   5.339  26.343  1.00  0.00    +0.000 C 
ATOM     68  F11 UNL A   1       5.275   4.358  26.924  1.00  0.00    +0.000 F 
ATOM     69  C49 UNL A   1       5.796   6.647  26.802  1.00  0.00    +0.000 C 
ATOM     70  F12 UNL A   1       4.927   6.891  27.794  1.00  0.00    +0.000 F 
ATOM     71  C50 UNL A   1       6.554   7.685  26.285  1.00  0.00    +0.000 C 
ATOM     72  F13 UNL A   1       6.431   8.925  26.778  1.00  0.00    +0.000 F 
ATOM     73  C51 UNL A   1       7.472   7.422  25.285  1.00  0.00    +0.000 C 
ATOM     74  F14 UNL A   1       8.238   8.413  24.803  1.00  0.00    +0.000 F 
ATOM     75  C52 UNL A   1       7.660   6.117  24.827  1.00  0.00    +0.000 C 
ATOM     76  F15 UNL A   1       8.632   5.917  23.927  1.00  0.00    +0.000 F 
ENDBRANCH   65   66
TORSDOF 20
ENDMDL
