MODEL 1
REMARK VINA RESULT:     -10.5      0.000      0.000
ROOT
ATOM     28  C23 UNL A   1      53.359  19.659  11.671  1.00  0.00    +0.000 C 
ATOM     29  C24 UNL A   1      54.726  19.048  11.544  1.00  0.00    +0.000 C 
ATOM     30  N3  UNL A   1      55.717  19.049  12.400  1.00  0.00    +0.000 N 
ATOM     31  C25 UNL A   1      56.737  18.324  11.798  1.00  0.00    +0.000 C 
ATOM     32  C26 UNL A   1      57.992  18.095  12.253  1.00  0.00    +0.000 C 
ATOM     44  C33 UNL A   1      58.503  18.581  13.507  1.00  0.00    +0.000 C 
ATOM     45  C34 UNL A   1      59.766  18.415  14.047  1.00  0.00    +0.000 C 
ATOM     46  C35 UNL A   1      59.795  19.049  15.294  1.00  0.00    +0.000 C 
ATOM     47  C36 UNL A   1      58.562  19.642  15.512  1.00  0.00    +0.000 C 
ATOM     48  N4  UNL A   1      57.776  19.337  14.413  1.00  0.00    +0.000 N 
ATOM     49  C37 UNL A   1      58.134  20.427  16.639  1.00  0.00    +0.000 C 
ATOM     61  C44 UNL A   1      56.897  20.960  16.789  1.00  0.00    +0.000 C 
ATOM     62  N5  UNL A   1      55.810  20.900  15.929  1.00  0.00    +0.000 N 
ATOM     63  C45 UNL A   1      54.843  21.554  16.525  1.00  0.00    +0.000 C 
ATOM     64  C46 UNL A   1      53.447  21.841  16.039  1.00  0.00    +0.000 C 
ATOM     76  C53 UNL A   1      53.072  21.401  14.823  1.00  0.00    +0.000 C 
ATOM     77  C54 UNL A   1      51.760  21.602  14.216  1.00  0.00    +0.000 C 
ATOM     78  C55 UNL A   1      51.728  20.981  13.026  1.00  0.00    +0.000 C 
ATOM     79  C56 UNL A   1      53.032  20.366  12.770  1.00  0.00    +0.000 C 
ATOM     80  N6  UNL A   1      53.770  20.678  13.886  1.00  0.00    +0.000 N 
ATOM     81  C57 UNL A   1      55.202  22.073  17.853  1.00  0.00    +0.000 C 
ATOM     82  C58 UNL A   1      56.477  21.724  17.944  1.00  0.00    +0.000 C 
ATOM     83  C59 UNL A   1      56.229  17.852  10.528  1.00  0.00    +0.000 C 
ATOM     84  C60 UNL A   1      55.012  18.322  10.296  1.00  0.00    +0.000 C 
ATOM    119  H31 UNL A   1      60.551  17.912  13.607  1.00  0.00    +0.000 H 
ATOM    120  H32 UNL A   1      60.599  19.070  15.941  1.00  0.00    +0.000 H 
ATOM    121  H33 UNL A   1      56.839  19.617  14.294  1.00  0.00    +0.000 H 
ATOM    122  H34 UNL A   1      50.982  22.136  14.634  1.00  0.00    +0.000 H 
ATOM    123  H35 UNL A   1      50.914  20.942  12.392  1.00  0.00    +0.000 H 
ATOM    124  H36 UNL A   1      54.709  20.409  14.003  1.00  0.00    +0.000 H 
ATOM    125  H37 UNL A   1      54.614  22.578  18.535  1.00  0.00    +0.000 H 
ATOM    126  H38 UNL A   1      57.091  21.967  18.737  1.00  0.00    +0.000 H 
ATOM    127  H39 UNL A   1      56.747  17.230   9.888  1.00  0.00    +0.000 H 
ATOM    128  H40 UNL A   1      54.419  18.208   9.459  1.00  0.00    +0.000 H 
ENDROOT
BRANCH   28   27
ATOM    129  H41 UNL A   1      52.663  21.319   9.685  1.00  0.00    +0.000 H 
ATOM    130  H42 UNL A   1      50.952  21.024   7.993  1.00  0.00    +0.000 H 
ATOM     27  C22 UNL A   1      52.345  19.442  10.608  1.00  0.00    +0.000 C 
ATOM    117  H29 UNL A   1      50.155  17.162   9.462  1.00  0.00    +0.000 H 
ATOM     86  C62 UNL A   1      51.162  20.260   8.654  1.00  0.00    +0.000 C 
ATOM     85  C61 UNL A   1      52.118  20.443   9.650  1.00  0.00    +0.000 C 
ATOM     24  C19 UNL A   1      50.489  19.039   8.552  1.00  0.00    +0.000 C 
ATOM     25  C20 UNL A   1      50.684  18.046   9.516  1.00  0.00    +0.000 C 
ATOM     26  C21 UNL A   1      51.598  18.254  10.550  1.00  0.00    +0.000 C 
ATOM    118  H30 UNL A   1      51.727  17.531  11.274  1.00  0.00    +0.000 H 
BRANCH   24   22
ATOM     22  C18 UNL A   1      49.551  18.773   7.440  1.00  0.00    +0.000 C 
ATOM     23  O2  UNL A   1      49.019  19.712   6.854  1.00  0.00    +0.000 O 
BRANCH   22   21
ATOM    116  H28 UNL A   1      49.510  16.795   7.744  1.00  0.00    +0.000 H 
ATOM     21  N2  UNL A   1      49.257  17.481   7.086  1.00  0.00    +0.000 N 
BRANCH   21   20
ATOM    114  H26 UNL A   1      48.818  17.668   5.080  1.00  0.00    +0.000 H 
ATOM    115  H27 UNL A   1      49.036  16.014   5.673  1.00  0.00    +0.000 H 
ATOM     20  C17 UNL A   1      48.625  16.981   5.877  1.00  0.00    +0.000 C 
BRANCH   20   19
ATOM    113  H25 UNL A   1      46.890  17.066   7.043  1.00  0.00    +0.000 H 
ATOM     19  C16 UNL A   1      47.116  16.818   6.027  1.00  0.00    +0.000 C 
ATOM    112  H24 UNL A   1      46.865  15.811   5.767  1.00  0.00    +0.000 H 
BRANCH   19   18
ATOM     18  C15 UNL A   1      46.270  17.756   5.162  1.00  0.00    +0.000 C 
ATOM    110  H22 UNL A   1      45.243  17.479   5.285  1.00  0.00    +0.000 H 
ATOM    111  H23 UNL A   1      46.493  18.746   5.499  1.00  0.00    +0.000 H 
BRANCH   18   17
ATOM     17  C14 UNL A   1      46.587  17.739   3.664  1.00  0.00    +0.000 C 
ATOM    108  H20 UNL A   1      47.590  18.091   3.535  1.00  0.00    +0.000 H 
ATOM    109  H21 UNL A   1      46.441  16.728   3.344  1.00  0.00    +0.000 H 
BRANCH   17   16
ATOM    106  H18 UNL A   1      46.199  18.845   1.890  1.00  0.00    +0.000 H 
ATOM    107  H19 UNL A   1      44.791  18.014   2.603  1.00  0.00    +0.000 H 
ATOM     16  C13 UNL A   1      45.669  18.597   2.786  1.00  0.00    +0.000 C 
BRANCH   16   15
ATOM    105  H17 UNL A   1      45.689  20.710   2.947  1.00  0.00    +0.000 H 
ATOM     15  C12 UNL A   1      45.204  19.893   3.439  1.00  0.00    +0.000 C 
ATOM    104  H16 UNL A   1      45.458  19.871   4.479  1.00  0.00    +0.000 H 
BRANCH   15   14
ATOM     14  N1  UNL A   1      43.768  20.068   3.308  1.00  0.00    +0.000 N 
ATOM    103  H15 UNL A   1      43.252  19.971   4.141  1.00  0.00    +0.000 H 
BRANCH   14   12
ATOM     12  C11 UNL A   1      43.032  20.349   2.192  1.00  0.00    +0.000 C 
ATOM     13  O1  UNL A   1      43.334  21.363   1.556  1.00  0.00    +0.000 O 
BRANCH   12    9
ATOM      9  C9  UNL A   1      41.915  19.427   1.713  1.00  0.00    +0.000 C 
ATOM    100  H12 UNL A   1      42.255  18.807   0.911  1.00  0.00    +0.000 H 
BRANCH    9    8
ATOM     98  H10 UNL A   1      37.993  21.962   1.512  1.00  0.00    +0.000 H 
ATOM     99  H11 UNL A   1      39.742  20.792   2.695  1.00  0.00    +0.000 H 
ATOM    132  H44 UNL A   1      39.812  20.977  -2.141  1.00  0.00    +0.000 H 
ATOM      5  C5  UNL A   1      38.772  21.589  -0.411  1.00  0.00    +0.000 C 
ATOM      6  C6  UNL A   1      38.751  21.505   0.982  1.00  0.00    +0.000 C 
ATOM      7  C7  UNL A   1      39.751  20.807   1.664  1.00  0.00    +0.000 C 
ATOM    131  H43 UNL A   1      41.516  19.737  -0.961  1.00  0.00    +0.000 H 
ATOM      8  C8  UNL A   1      40.770  20.123   0.976  1.00  0.00    +0.000 C 
ATOM     87  C63 UNL A   1      40.773  20.212  -0.425  1.00  0.00    +0.000 C 
ATOM     88  C64 UNL A   1      39.787  20.931  -1.109  1.00  0.00    +0.000 C 
BRANCH    5    4
ATOM     97  H9  UNL A   1      38.080  22.522  -2.158  1.00  0.00    +0.000 H 
ATOM      4  C4  UNL A   1      37.770  22.454  -1.137  1.00  0.00    +0.000 C 
ATOM     96  H8  UNL A   1      37.744  23.415  -0.667  1.00  0.00    +0.000 H 
BRANCH    4    2
ATOM      2  C2  UNL A   1      36.347  21.857  -1.119  1.00  0.00    +0.000 C 
ATOM     92  H4  UNL A   1      36.438  20.826  -0.848  1.00  0.00    +0.000 H 
BRANCH    2    1
ATOM      1  C1  UNL A   1      35.449  22.534  -0.079  1.00  0.00    +0.000 C 
ATOM     90  H2  UNL A   1      36.055  23.087   0.609  1.00  0.00    +0.000 H 
ATOM     91  H3  UNL A   1      34.897  21.788   0.454  1.00  0.00    +0.000 H 
ATOM     89  H1  UNL A   1      34.770  23.198  -0.571  1.00  0.00    +0.000 H 
ENDBRANCH    2    1
BRANCH    2    3
ATOM      3  C3  UNL A   1      35.711  21.974  -2.505  1.00  0.00    +0.000 C 
ATOM     93  H5  UNL A   1      35.653  21.004  -2.954  1.00  0.00    +0.000 H 
ATOM     94  H6  UNL A   1      36.309  22.615  -3.119  1.00  0.00    +0.000 H 
ATOM     95  H7  UNL A   1      34.728  22.384  -2.414  1.00  0.00    +0.000 H 
ENDBRANCH    2    3
ENDBRANCH    4    2
ENDBRANCH    5    4
ENDBRANCH    9    8
BRANCH    9   10
ATOM     10  C10 UNL A   1      41.551  18.510   2.887  1.00  0.00    +0.000 C 
ATOM     11  F1  UNL A   1      41.026  19.228   3.916  1.00  0.00    +0.000 F 
ATOM    101  H13 UNL A   1      42.433  18.006   3.224  1.00  0.00    +0.000 H 
ATOM    102  H14 UNL A   1      40.821  17.802   2.554  1.00  0.00    +0.000 H 
ENDBRANCH    9   10
ENDBRANCH   12    9
ENDBRANCH   14   12
ENDBRANCH   15   14
ENDBRANCH   16   15
ENDBRANCH   17   16
ENDBRANCH   18   17
ENDBRANCH   19   18
ENDBRANCH   20   19
ENDBRANCH   21   20
ENDBRANCH   22   21
ENDBRANCH   24   22
ENDBRANCH   28   27
BRANCH   32   33
ATOM     33  C27 UNL A   1      58.913  17.297  11.378  1.00  0.00    +0.000 C 
ATOM     34  C28 UNL A   1      59.739  17.921  10.432  1.00  0.00    +0.000 C 
ATOM     35  F2  UNL A   1      59.669  19.248  10.246  1.00  0.00    +0.000 F 
ATOM     36  C29 UNL A   1      60.622  17.181   9.652  1.00  0.00    +0.000 C 
ATOM     37  F3  UNL A   1      61.378  17.794   8.731  1.00  0.00    +0.000 F 
ATOM     38  C30 UNL A   1      60.718  15.808   9.823  1.00  0.00    +0.000 C 
ATOM     39  F4  UNL A   1      61.579  15.098   9.081  1.00  0.00    +0.000 F 
ATOM     40  C31 UNL A   1      59.918  15.170  10.761  1.00  0.00    +0.000 C 
ATOM     41  F5  UNL A   1      60.018  13.846  10.935  1.00  0.00    +0.000 F 
ATOM     42  C32 UNL A   1      59.015  15.906  11.524  1.00  0.00    +0.000 C 
ATOM     43  F6  UNL A   1      58.250  15.261  12.417  1.00  0.00    +0.000 F 
ENDBRANCH   32   33
BRANCH   49   50
ATOM     50  C38 UNL A   1      59.134  20.695  17.724  1.00  0.00    +0.000 C 
ATOM     51  C39 UNL A   1      59.369  19.771  18.753  1.00  0.00    +0.000 C 
ATOM     52  F7  UNL A   1      58.658  18.635  18.815  1.00  0.00    +0.000 F 
ATOM     53  C40 UNL A   1      60.310  20.032  19.745  1.00  0.00    +0.000 C 
ATOM     54  F8  UNL A   1      60.485  19.156  20.744  1.00  0.00    +0.000 F 
ATOM     55  C41 UNL A   1      61.054  21.201  19.709  1.00  0.00    +0.000 C 
ATOM     56  F9  UNL A   1      61.964  21.448  20.663  1.00  0.00    +0.000 F 
ATOM     57  C42 UNL A   1      60.852  22.119  18.690  1.00  0.00    +0.000 C 
ATOM     58  F10 UNL A   1      61.579  23.245  18.648  1.00  0.00    +0.000 F 
ATOM     59  C43 UNL A   1      59.892  21.875  17.711  1.00  0.00    +0.000 C 
ATOM     60  F11 UNL A   1      59.709  22.787  16.745  1.00  0.00    +0.000 F 
ENDBRANCH   49   50
BRANCH   64   65
ATOM     65  C47 UNL A   1      52.501  22.616  16.883  1.00  0.00    +0.000 C 
ATOM     66  C48 UNL A   1      52.367  24.003  16.725  1.00  0.00    +0.000 C 
ATOM     67  F12 UNL A   1      53.087  24.642  15.793  1.00  0.00    +0.000 F 
ATOM     68  C49 UNL A   1      51.536  24.745  17.561  1.00  0.00    +0.000 C 
ATOM     69  F13 UNL A   1      51.473  26.077  17.427  1.00  0.00    +0.000 F 
ATOM     70  C50 UNL A   1      50.796  24.112  18.547  1.00  0.00    +0.000 C 
ATOM     71  F14 UNL A   1      50.003  24.828  19.356  1.00  0.00    +0.000 F 
ATOM     72  C51 UNL A   1      50.889  22.737  18.703  1.00  0.00    +0.000 C 
ATOM     73  F15 UNL A   1      50.166  22.120  19.648  1.00  0.00    +0.000 F 
ATOM     74  C52 UNL A   1      51.742  21.997  17.887  1.00  0.00    +0.000 C 
ATOM     75  F16 UNL A   1      51.830  20.672  18.076  1.00  0.00    +0.000 F 
ENDBRANCH   64   65
TORSDOF 21
ENDMDL
MODEL 2
REMARK VINA RESULT:     -10.3     19.412     23.994
ROOT
ATOM     28  C23 UNL A   1      39.862  28.845  29.322  1.00  0.00    +0.000 C 
ATOM     29  C24 UNL A   1      40.703  29.739  30.190  1.00  0.00    +0.000 C 
ATOM     30  N3  UNL A   1      41.950  29.597  30.563  1.00  0.00    +0.000 N 
ATOM     31  C25 UNL A   1      42.243  30.715  31.333  1.00  0.00    +0.000 C 
ATOM     32  C26 UNL A   1      43.385  31.003  32.002  1.00  0.00    +0.000 C 
ATOM     44  C33 UNL A   1      44.551  30.160  32.021  1.00  0.00    +0.000 C 
ATOM     45  C34 UNL A   1      45.750  30.359  32.683  1.00  0.00    +0.000 C 
ATOM     46  C35 UNL A   1      46.594  29.282  32.391  1.00  0.00    +0.000 C 
ATOM     47  C36 UNL A   1      45.907  28.396  31.579  1.00  0.00    +0.000 C 
ATOM     48  N4  UNL A   1      44.659  28.952  31.350  1.00  0.00    +0.000 N 
ATOM     49  C37 UNL A   1      46.356  27.135  31.050  1.00  0.00    +0.000 C 
ATOM     61  C44 UNL A   1      45.627  26.329  30.241  1.00  0.00    +0.000 C 
ATOM     62  N5  UNL A   1      44.334  26.503  29.769  1.00  0.00    +0.000 N 
ATOM     63  C45 UNL A   1      44.083  25.462  29.014  1.00  0.00    +0.000 C 
ATOM     64  C46 UNL A   1      42.821  25.104  28.273  1.00  0.00    +0.000 C 
ATOM     76  C53 UNL A   1      41.754  25.921  28.363  1.00  0.00    +0.000 C 
ATOM     77  C54 UNL A   1      40.467  25.708  27.708  1.00  0.00    +0.000 C 
ATOM     78  C55 UNL A   1      39.662  26.749  27.977  1.00  0.00    +0.000 C 
ATOM     79  C56 UNL A   1      40.367  27.687  28.853  1.00  0.00    +0.000 C 
ATOM     80  N6  UNL A   1      41.597  27.106  29.039  1.00  0.00    +0.000 N 
ATOM     81  C57 UNL A   1      45.209  24.524  28.893  1.00  0.00    +0.000 C 
ATOM     82  C58 UNL A   1      46.106  25.076  29.697  1.00  0.00    +0.000 C 
ATOM     83  C59 UNL A   1      41.064  31.552  31.331  1.00  0.00    +0.000 C 
ATOM     84  C60 UNL A   1      40.063  30.967  30.689  1.00  0.00    +0.000 C 
ATOM    119  H31 UNL A   1      45.981  31.161  33.288  1.00  0.00    +0.000 H 
ATOM    120  H32 UNL A   1      47.564  29.169  32.725  1.00  0.00    +0.000 H 
ATOM    121  H33 UNL A   1      43.954  28.548  30.793  1.00  0.00    +0.000 H 
ATOM    122  H34 UNL A   1      40.216  24.890  27.132  1.00  0.00    +0.000 H 
ATOM    123  H35 UNL A   1      38.700  26.870  27.622  1.00  0.00    +0.000 H 
ATOM    124  H36 UNL A   1      42.299  27.501  29.603  1.00  0.00    +0.000 H 
ATOM    125  H37 UNL A   1      45.282  23.662  28.330  1.00  0.00    +0.000 H 
ATOM    126  H38 UNL A   1      47.029  24.665  29.908  1.00  0.00    +0.000 H 
ATOM    127  H39 UNL A   1      41.009  32.484  31.771  1.00  0.00    +0.000 H 
ATOM    128  H40 UNL A   1      39.090  31.289  30.569  1.00  0.00    +0.000 H 
ENDROOT
BRANCH   28   27
ATOM    129  H41 UNL A   1      37.626  28.736  30.797  1.00  0.00    +0.000 H 
ATOM    130  H42 UNL A   1      35.362  29.322  30.160  1.00  0.00    +0.000 H 
ATOM     27  C22 UNL A   1      38.490  29.259  28.937  1.00  0.00    +0.000 C 
ATOM    117  H29 UNL A   1      36.745  30.615  26.402  1.00  0.00    +0.000 H 
ATOM     86  C62 UNL A   1      36.142  29.489  29.506  1.00  0.00    +0.000 C 
ATOM     85  C61 UNL A   1      37.438  29.117  29.856  1.00  0.00    +0.000 C 
ATOM     24  C19 UNL A   1      35.901  30.090  28.267  1.00  0.00    +0.000 C 
ATOM     25  C20 UNL A   1      36.934  30.210  27.332  1.00  0.00    +0.000 C 
ATOM     26  C21 UNL A   1      38.220  29.781  27.661  1.00  0.00    +0.000 C 
ATOM    118  H30 UNL A   1      38.978  29.848  26.965  1.00  0.00    +0.000 H 
BRANCH   24   22
ATOM     22  C18 UNL A   1      34.560  30.598  27.910  1.00  0.00    +0.000 C 
ATOM     23  O2  UNL A   1      34.145  31.635  28.421  1.00  0.00    +0.000 O 
BRANCH   22   21
ATOM    116  H28 UNL A   1      33.443  30.405  26.260  1.00  0.00    +0.000 H 
ATOM     21  N2  UNL A   1      33.771  29.895  27.035  1.00  0.00    +0.000 N 
BRANCH   21   20
ATOM    114  H26 UNL A   1      33.701  28.007  26.210  1.00  0.00    +0.000 H 
ATOM    115  H27 UNL A   1      33.768  28.076  27.978  1.00  0.00    +0.000 H 
ATOM     20  C17 UNL A   1      33.352  28.506  27.090  1.00  0.00    +0.000 C 
BRANCH   20   19
ATOM    113  H25 UNL A   1      31.428  29.111  26.537  1.00  0.00    +0.000 H 
ATOM     19  C16 UNL A   1      31.836  28.351  27.169  1.00  0.00    +0.000 C 
ATOM    112  H24 UNL A   1      31.547  28.447  28.194  1.00  0.00    +0.000 H 
BRANCH   19   18
ATOM     18  C15 UNL A   1      31.289  27.022  26.644  1.00  0.00    +0.000 C 
ATOM    110  H22 UNL A   1      30.459  26.741  27.261  1.00  0.00    +0.000 H 
ATOM    111  H23 UNL A   1      31.027  27.196  25.622  1.00  0.00    +0.000 H 
BRANCH   18   17
ATOM     17  C14 UNL A   1      32.283  25.856  26.632  1.00  0.00    +0.000 C 
ATOM    108  H20 UNL A   1      32.908  25.965  25.770  1.00  0.00    +0.000 H 
ATOM    109  H21 UNL A   1      32.814  25.913  27.559  1.00  0.00    +0.000 H 
BRANCH   17   16
ATOM    106  H18 UNL A   1      30.947  24.384  27.386  1.00  0.00    +0.000 H 
ATOM    107  H19 UNL A   1      31.212  24.353  25.622  1.00  0.00    +0.000 H 
ATOM     16  C13 UNL A   1      31.658  24.458  26.589  1.00  0.00    +0.000 C 
BRANCH   16   15
ATOM    105  H17 UNL A   1      32.269  22.619  27.450  1.00  0.00    +0.000 H 
ATOM     15  C12 UNL A   1      32.656  23.316  26.735  1.00  0.00    +0.000 C 
ATOM    104  H16 UNL A   1      33.595  23.713  27.062  1.00  0.00    +0.000 H 
BRANCH   15   14
ATOM     14  N1  UNL A   1      32.852  22.617  25.477  1.00  0.00    +0.000 N 
ATOM    103  H15 UNL A   1      32.058  22.161  25.117  1.00  0.00    +0.000 H 
BRANCH   14   12
ATOM     12  C11 UNL A   1      33.985  22.504  24.721  1.00  0.00    +0.000 C 
ATOM     13  O1  UNL A   1      34.419  21.366  24.521  1.00  0.00    +0.000 O 
BRANCH   12    9
ATOM      9  C9  UNL A   1      34.662  23.722  24.101  1.00  0.00    +0.000 C 
ATOM    100  H12 UNL A   1      35.112  24.330  24.857  1.00  0.00    +0.000 H 
BRANCH    9    8
ATOM     98  H10 UNL A   1      30.750  25.079  21.930  1.00  0.00    +0.000 H 
ATOM     99  H11 UNL A   1      32.286  23.410  22.756  1.00  0.00    +0.000 H 
ATOM    132  H44 UNL A   1      33.230  28.105  23.453  1.00  0.00    +0.000 H 
ATOM      5  C5  UNL A   1      31.850  26.730  22.646  1.00  0.00    +0.000 C 
ATOM      6  C6  UNL A   1      31.604  25.373  22.431  1.00  0.00    +0.000 C 
ATOM      7  C7  UNL A   1      32.506  24.409  22.888  1.00  0.00    +0.000 C 
ATOM    131  H43 UNL A   1      34.807  26.437  24.206  1.00  0.00    +0.000 H 
ATOM      8  C8  UNL A   1      33.708  24.769  23.523  1.00  0.00    +0.000 C 
ATOM     87  C63 UNL A   1      33.943  26.139  23.727  1.00  0.00    +0.000 C 
ATOM     88  C64 UNL A   1      33.030  27.105  23.293  1.00  0.00    +0.000 C 
BRANCH    5    4
ATOM     97  H9  UNL A   1      30.145  27.307  21.569  1.00  0.00    +0.000 H 
ATOM      4  C4  UNL A   1      30.812  27.760  22.272  1.00  0.00    +0.000 C 
ATOM     96  H8  UNL A   1      31.309  28.611  21.853  1.00  0.00    +0.000 H 
BRANCH    4    2
ATOM      2  C2  UNL A   1      29.973  28.224  23.481  1.00  0.00    +0.000 C 
ATOM     92  H4  UNL A   1      30.212  27.579  24.301  1.00  0.00    +0.000 H 
BRANCH    2    1
ATOM      1  C1  UNL A   1      30.311  29.657  23.903  1.00  0.00    +0.000 C 
ATOM     90  H2  UNL A   1      30.887  30.129  23.134  1.00  0.00    +0.000 H 
ATOM     91  H3  UNL A   1      30.878  29.637  24.811  1.00  0.00    +0.000 H 
ATOM     89  H1  UNL A   1      29.407  30.207  24.060  1.00  0.00    +0.000 H 
ENDBRANCH    2    1
BRANCH    2    3
ATOM      3  C3  UNL A   1      28.482  28.119  23.157  1.00  0.00    +0.000 C 
ATOM     93  H5  UNL A   1      27.980  29.002  23.495  1.00  0.00    +0.000 H 
ATOM     94  H6  UNL A   1      28.069  27.264  23.650  1.00  0.00    +0.000 H 
ATOM     95  H7  UNL A   1      28.353  28.018  22.100  1.00  0.00    +0.000 H 
ENDBRANCH    2    3
ENDBRANCH    4    2
ENDBRANCH    5    4
ENDBRANCH    9    8
BRANCH    9   10
ATOM     10  C10 UNL A   1      35.783  23.204  23.192  1.00  0.00    +0.000 C 
ATOM     11  F1  UNL A   1      36.989  23.291  23.816  1.00  0.00    +0.000 F 
ATOM    101  H13 UNL A   1      35.807  23.791  22.297  1.00  0.00    +0.000 H 
ATOM    102  H14 UNL A   1      35.588  22.178  22.961  1.00  0.00    +0.000 H 
ENDBRANCH    9   10
ENDBRANCH   12    9
ENDBRANCH   14   12
ENDBRANCH   15   14
ENDBRANCH   16   15
ENDBRANCH   17   16
ENDBRANCH   18   17
ENDBRANCH   19   18
ENDBRANCH   20   19
ENDBRANCH   21   20
ENDBRANCH   22   21
ENDBRANCH   24   22
ENDBRANCH   28   27
BRANCH   32   33
ATOM     33  C27 UNL A   1      43.424  32.278  32.792  1.00  0.00    +0.000 C 
ATOM     34  C28 UNL A   1      43.034  32.311  34.139  1.00  0.00    +0.000 C 
ATOM     35  F2  UNL A   1      42.551  31.207  34.729  1.00  0.00    +0.000 F 
ATOM     36  C29 UNL A   1      43.112  33.487  34.879  1.00  0.00    +0.000 C 
ATOM     37  F3  UNL A   1      42.701  33.504  36.154  1.00  0.00    +0.000 F 
ATOM     38  C30 UNL A   1      43.609  34.644  34.296  1.00  0.00    +0.000 C 
ATOM     39  F4  UNL A   1      43.696  35.772  35.014  1.00  0.00    +0.000 F 
ATOM     40  C31 UNL A   1      44.011  34.632  32.968  1.00  0.00    +0.000 C 
ATOM     41  F5  UNL A   1      44.501  35.745  32.408  1.00  0.00    +0.000 F 
ATOM     42  C32 UNL A   1      43.909  33.463  32.219  1.00  0.00    +0.000 C 
ATOM     43  F6  UNL A   1      44.299  33.483  30.935  1.00  0.00    +0.000 F 
ENDBRANCH   32   33
BRANCH   49   50
ATOM     50  C38 UNL A   1      47.726  26.664  31.436  1.00  0.00    +0.000 C 
ATOM     51  C39 UNL A   1      48.869  27.067  30.730  1.00  0.00    +0.000 C 
ATOM     52  F7  UNL A   1      48.752  27.854  29.650  1.00  0.00    +0.000 F 
ATOM     53  C40 UNL A   1      50.134  26.629  31.110  1.00  0.00    +0.000 C 
ATOM     54  F8  UNL A   1      51.208  26.990  30.394  1.00  0.00    +0.000 F 
ATOM     55  C41 UNL A   1      50.284  25.810  32.219  1.00  0.00    +0.000 C 
ATOM     56  F9  UNL A   1      51.504  25.394  32.587  1.00  0.00    +0.000 F 
ATOM     57  C42 UNL A   1      49.169  25.415  32.943  1.00  0.00    +0.000 C 
ATOM     58  F10 UNL A   1      49.313  24.632  34.021  1.00  0.00    +0.000 F 
ATOM     59  C43 UNL A   1      47.899  25.828  32.549  1.00  0.00    +0.000 C 
ATOM     60  F11 UNL A   1      46.838  25.420  33.261  1.00  0.00    +0.000 F 
ENDBRANCH   49   50
BRANCH   64   65
ATOM     65  C47 UNL A   1      42.748  23.856  27.469  1.00  0.00    +0.000 C 
ATOM     66  C48 UNL A   1      42.364  22.643  28.057  1.00  0.00    +0.000 C 
ATOM     67  F12 UNL A   1      42.043  22.604  29.358  1.00  0.00    +0.000 F 
ATOM     68  C49 UNL A   1      42.364  21.457  27.326  1.00  0.00    +0.000 C 
ATOM     69  F13 UNL A   1      42.050  20.302  27.930  1.00  0.00    +0.000 F 
ATOM     70  C50 UNL A   1      42.712  21.467  25.985  1.00  0.00    +0.000 C 
ATOM     71  F14 UNL A   1      42.719  20.324  25.284  1.00  0.00    +0.000 F 
ATOM     72  C51 UNL A   1      43.067  22.660  25.373  1.00  0.00    +0.000 C 
ATOM     73  F15 UNL A   1      43.394  22.675  24.074  1.00  0.00    +0.000 F 
ATOM     74  C52 UNL A   1      43.097  23.842  26.110  1.00  0.00    +0.000 C 
ATOM     75  F16 UNL A   1      43.467  24.977  25.499  1.00  0.00    +0.000 F 
ENDBRANCH   64   65
TORSDOF 21
ENDMDL
MODEL 3
REMARK VINA RESULT:     -10.2     19.688     26.390
ROOT
ATOM     28  C23 UNL A   1      40.169  28.826  29.139  1.00  0.00    +0.000 C 
ATOM     29  C24 UNL A   1      41.060  29.758  29.911  1.00  0.00    +0.000 C 
ATOM     30  N3  UNL A   1      42.330  29.636  30.203  1.00  0.00    +0.000 N 
ATOM     31  C25 UNL A   1      42.667  30.785  30.907  1.00  0.00    +0.000 C 
ATOM     32  C26 UNL A   1      43.849  31.106  31.485  1.00  0.00    +0.000 C 
ATOM     44  C33 UNL A   1      45.020  30.269  31.457  1.00  0.00    +0.000 C 
ATOM     45  C34 UNL A   1      46.260  30.499  32.028  1.00  0.00    +0.000 C 
ATOM     46  C35 UNL A   1      47.090  29.416  31.722  1.00  0.00    +0.000 C 
ATOM     47  C36 UNL A   1      46.355  28.495  30.994  1.00  0.00    +0.000 C 
ATOM     48  N4  UNL A   1      45.091  29.036  30.828  1.00  0.00    +0.000 N 
ATOM     49  C37 UNL A   1      46.777  27.216  30.485  1.00  0.00    +0.000 C 
ATOM     61  C44 UNL A   1      46.001  26.375  29.760  1.00  0.00    +0.000 C 
ATOM     62  N5  UNL A   1      44.677  26.524  29.372  1.00  0.00    +0.000 N 
ATOM     63  C45 UNL A   1      44.383  25.453  28.677  1.00  0.00    +0.000 C 
ATOM     64  C46 UNL A   1      43.076  25.060  28.038  1.00  0.00    +0.000 C 
ATOM     76  C53 UNL A   1      42.012  25.875  28.168  1.00  0.00    +0.000 C 
ATOM     77  C54 UNL A   1      40.685  25.631  27.612  1.00  0.00    +0.000 C 
ATOM     78  C55 UNL A   1      39.893  26.678  27.894  1.00  0.00    +0.000 C 
ATOM     79  C56 UNL A   1      40.649  27.653  28.682  1.00  0.00    +0.000 C 
ATOM     80  N6  UNL A   1      41.893  27.086  28.807  1.00  0.00    +0.000 N 
ATOM     81  C57 UNL A   1      45.506  24.517  28.516  1.00  0.00    +0.000 C 
ATOM     82  C58 UNL A   1      46.451  25.104  29.234  1.00  0.00    +0.000 C 
ATOM     83  C59 UNL A   1      41.484  31.617  30.953  1.00  0.00    +0.000 C 
ATOM     84  C60 UNL A   1      40.446  31.001  30.404  1.00  0.00    +0.000 C 
ATOM    119  H31 UNL A   1      46.525  31.327  32.584  1.00  0.00    +0.000 H 
ATOM    120  H32 UNL A   1      48.082  29.321  31.993  1.00  0.00    +0.000 H 
ATOM    121  H33 UNL A   1      44.353  28.607  30.338  1.00  0.00    +0.000 H 
ATOM    122  H34 UNL A   1      40.401  24.789  27.087  1.00  0.00    +0.000 H 
ATOM    123  H35 UNL A   1      38.908  26.779  27.600  1.00  0.00    +0.000 H 
ATOM    124  H36 UNL A   1      42.629  27.506  29.306  1.00  0.00    +0.000 H 
ATOM    125  H37 UNL A   1      45.546  23.633  27.984  1.00  0.00    +0.000 H 
ATOM    126  H38 UNL A   1      47.389  24.706  29.398  1.00  0.00    +0.000 H 
ATOM    127  H39 UNL A   1      41.452  32.565  31.359  1.00  0.00    +0.000 H 
ATOM    128  H40 UNL A   1      39.465  31.314  30.338  1.00  0.00    +0.000 H 
ENDROOT
BRANCH   28   27
ATOM    129  H41 UNL A   1      39.200  29.850  26.859  1.00  0.00    +0.000 H 
ATOM    130  H42 UNL A   1      36.941  30.580  26.365  1.00  0.00    +0.000 H 
ATOM     27  C22 UNL A   1      38.770  29.218  28.832  1.00  0.00    +0.000 C 
ATOM    117  H29 UNL A   1      35.684  29.285  30.167  1.00  0.00    +0.000 H 
ATOM     86  C62 UNL A   1      37.153  30.131  27.270  1.00  0.00    +0.000 C 
ATOM     85  C61 UNL A   1      38.458  29.746  27.569  1.00  0.00    +0.000 C 
ATOM     24  C19 UNL A   1      36.131  29.907  28.198  1.00  0.00    +0.000 C 
ATOM     25  C20 UNL A   1      36.434  29.410  29.469  1.00  0.00    +0.000 C 
ATOM     26  C21 UNL A   1      37.752  29.081  29.789  1.00  0.00    +0.000 C 
ATOM    118  H30 UNL A   1      37.979  28.735  30.734  1.00  0.00    +0.000 H 
BRANCH   24   22
ATOM     22  C18 UNL A   1      34.721  30.200  27.868  1.00  0.00    +0.000 C 
ATOM     23  O2  UNL A   1      33.908  29.282  27.799  1.00  0.00    +0.000 O 
BRANCH   22   21
ATOM    116  H28 UNL A   1      34.042  31.668  26.688  1.00  0.00    +0.000 H 
ATOM     21  N2  UNL A   1      34.330  31.490  27.612  1.00  0.00    +0.000 N 
BRANCH   21   20
ATOM    114  H26 UNL A   1      33.407  33.204  28.289  1.00  0.00    +0.000 H 
ATOM    115  H27 UNL A   1      34.263  32.253  29.512  1.00  0.00    +0.000 H 
ATOM     20  C17 UNL A   1      34.282  32.630  28.510  1.00  0.00    +0.000 C 
BRANCH   20   19
ATOM    113  H25 UNL A   1      35.172  34.519  28.636  1.00  0.00    +0.000 H 
ATOM     19  C16 UNL A   1      35.504  33.534  28.381  1.00  0.00    +0.000 C 
ATOM    112  H24 UNL A   1      35.872  33.452  27.381  1.00  0.00    +0.000 H 
BRANCH   19   18
ATOM     18  C15 UNL A   1      36.655  33.213  29.338  1.00  0.00    +0.000 C 
ATOM    110  H22 UNL A   1      37.170  32.355  28.956  1.00  0.00    +0.000 H 
ATOM    111  H23 UNL A   1      37.258  34.095  29.378  1.00  0.00    +0.000 H 
BRANCH   18   17
ATOM     17  C14 UNL A   1      36.248  32.915  30.784  1.00  0.00    +0.000 C 
ATOM    108  H20 UNL A   1      35.424  33.551  31.032  1.00  0.00    +0.000 H 
ATOM    109  H21 UNL A   1      36.012  31.872  30.814  1.00  0.00    +0.000 H 
BRANCH   17   16
ATOM    106  H18 UNL A   1      38.133  32.433  31.642  1.00  0.00    +0.000 H 
ATOM    107  H19 UNL A   1      37.657  34.149  31.744  1.00  0.00    +0.000 H 
ATOM     16  C13 UNL A   1      37.344  33.130  31.834  1.00  0.00    +0.000 C 
BRANCH   16   15
ATOM    105  H17 UNL A   1      35.815  33.024  33.300  1.00  0.00    +0.000 H 
ATOM     15  C12 UNL A   1      36.883  32.942  33.274  1.00  0.00    +0.000 C 
ATOM    104  H16 UNL A   1      37.336  33.693  33.887  1.00  0.00    +0.000 H 
BRANCH   15   14
ATOM     14  N1  UNL A   1      37.252  31.632  33.784  1.00  0.00    +0.000 N 
ATOM    103  H15 UNL A   1      36.723  30.878  33.436  1.00  0.00    +0.000 H 
BRANCH   14   12
ATOM     12  C11 UNL A   1      38.231  31.299  34.677  1.00  0.00    +0.000 C 
ATOM     13  O1  UNL A   1      37.871  30.945  35.803  1.00  0.00    +0.000 O 
BRANCH   12    9
ATOM      9  C9  UNL A   1      39.707  31.309  34.291  1.00  0.00    +0.000 C 
ATOM    100  H12 UNL A   1      39.820  31.381  33.230  1.00  0.00    +0.000 H 
BRANCH    9    8
ATOM     98  H10 UNL A   1      41.352  27.170  32.874  1.00  0.00    +0.000 H 
ATOM     99  H11 UNL A   1      40.114  29.218  32.556  1.00  0.00    +0.000 H 
ATOM    132  H44 UNL A   1      42.366  28.391  36.760  1.00  0.00    +0.000 H 
ATOM      5  C5  UNL A   1      41.983  27.623  34.834  1.00  0.00    +0.000 C 
ATOM      6  C6  UNL A   1      41.308  27.864  33.636  1.00  0.00    +0.000 C 
ATOM      7  C7  UNL A   1      40.572  29.039  33.463  1.00  0.00    +0.000 C 
ATOM    131  H43 UNL A   1      41.060  30.403  36.471  1.00  0.00    +0.000 H 
ATOM      8  C8  UNL A   1      40.440  29.983  34.497  1.00  0.00    +0.000 C 
ATOM     87  C63 UNL A   1      41.121  29.722  35.698  1.00  0.00    +0.000 C 
ATOM     88  C64 UNL A   1      41.878  28.559  35.865  1.00  0.00    +0.000 C 
BRANCH    5    4
ATOM     97  H9  UNL A   1      43.822  26.760  35.359  1.00  0.00    +0.000 H 
ATOM      4  C4  UNL A   1      42.885  26.420  34.970  1.00  0.00    +0.000 C 
ATOM     96  H8  UNL A   1      43.000  25.968  34.006  1.00  0.00    +0.000 H 
BRANCH    4    2
ATOM      2  C2  UNL A   1      42.327  25.366  35.948  1.00  0.00    +0.000 C 
ATOM     92  H4  UNL A   1      41.358  25.699  36.255  1.00  0.00    +0.000 H 
BRANCH    2    1
ATOM      1  C1  UNL A   1      42.159  23.995  35.286  1.00  0.00    +0.000 C 
ATOM     90  H2  UNL A   1      41.266  23.530  35.650  1.00  0.00    +0.000 H 
ATOM     91  H3  UNL A   1      43.003  23.380  35.522  1.00  0.00    +0.000 H 
ATOM     89  H1  UNL A   1      42.091  24.116  34.225  1.00  0.00    +0.000 H 
ENDBRANCH    2    1
BRANCH    2    3
ATOM      3  C3  UNL A   1      43.242  25.243  37.167  1.00  0.00    +0.000 C 
ATOM     93  H5  UNL A   1      42.699  24.806  37.979  1.00  0.00    +0.000 H 
ATOM     94  H6  UNL A   1      43.589  26.214  37.452  1.00  0.00    +0.000 H 
ATOM     95  H7  UNL A   1      44.080  24.623  36.923  1.00  0.00    +0.000 H 
ENDBRANCH    2    3
ENDBRANCH    4    2
ENDBRANCH    5    4
ENDBRANCH    9    8
BRANCH    9   10
ATOM     10  C10 UNL A   1      40.327  32.568  34.910  1.00  0.00    +0.000 C 
ATOM     11  F1  UNL A   1      40.459  33.550  33.978  1.00  0.00    +0.000 F 
ATOM    101  H13 UNL A   1      41.293  32.325  35.303  1.00  0.00    +0.000 H 
ATOM    102  H14 UNL A   1      39.685  32.918  35.690  1.00  0.00    +0.000 H 
ENDBRANCH    9   10
ENDBRANCH   12    9
ENDBRANCH   14   12
ENDBRANCH   15   14
ENDBRANCH   16   15
ENDBRANCH   17   16
ENDBRANCH   18   17
ENDBRANCH   19   18
ENDBRANCH   20   19
ENDBRANCH   21   20
ENDBRANCH   22   21
ENDBRANCH   24   22
ENDBRANCH   28   27
BRANCH   32   33
ATOM     33  C27 UNL A   1      43.932  32.410  32.220  1.00  0.00    +0.000 C 
ATOM     34  C28 UNL A   1      44.148  33.617  31.539  1.00  0.00    +0.000 C 
ATOM     35  F2  UNL A   1      44.352  33.615  30.213  1.00  0.00    +0.000 F 
ATOM     36  C29 UNL A   1      44.182  34.830  32.221  1.00  0.00    +0.000 C 
ATOM     37  F3  UNL A   1      44.423  35.966  31.554  1.00  0.00    +0.000 F 
ATOM     38  C30 UNL A   1      43.971  34.862  33.592  1.00  0.00    +0.000 C 
ATOM     39  F4  UNL A   1      43.990  36.032  34.245  1.00  0.00    +0.000 F 
ATOM     40  C31 UNL A   1      43.745  33.682  34.285  1.00  0.00    +0.000 C 
ATOM     41  F5  UNL A   1      43.530  33.714  35.607  1.00  0.00    +0.000 F 
ATOM     42  C32 UNL A   1      43.737  32.465  33.609  1.00  0.00    +0.000 C 
ATOM     43  F6  UNL A   1      43.523  31.340  34.307  1.00  0.00    +0.000 F 
ENDBRANCH   32   33
BRANCH   49   50
ATOM     50  C38 UNL A   1      48.174  26.767  30.795  1.00  0.00    +0.000 C 
ATOM     51  C39 UNL A   1      48.451  25.918  31.876  1.00  0.00    +0.000 C 
ATOM     52  F7  UNL A   1      47.464  25.525  32.696  1.00  0.00    +0.000 F 
ATOM     53  C40 UNL A   1      49.753  25.502  32.142  1.00  0.00    +0.000 C 
ATOM     54  F8  UNL A   1      50.001  24.728  33.207  1.00  0.00    +0.000 F 
ATOM     55  C41 UNL A   1      50.793  25.899  31.315  1.00  0.00    +0.000 C 
ATOM     56  F9  UNL A   1      52.045  25.493  31.569  1.00  0.00    +0.000 F 
ATOM     57  C42 UNL A   1      50.538  26.723  30.229  1.00  0.00    +0.000 C 
ATOM     58  F10 UNL A   1      51.541  27.098  29.423  1.00  0.00    +0.000 F 
ATOM     59  C43 UNL A   1      49.242  27.163  29.977  1.00  0.00    +0.000 C 
ATOM     60  F11 UNL A   1      49.027  27.970  28.927  1.00  0.00    +0.000 F 
ENDBRANCH   49   50
BRANCH   64   65
ATOM     65  C47 UNL A   1      42.958  23.781  27.290  1.00  0.00    +0.000 C 
ATOM     66  C48 UNL A   1      42.484  22.622  27.920  1.00  0.00    +0.000 C 
ATOM     67  F12 UNL A   1      42.116  22.664  29.208  1.00  0.00    +0.000 F 
ATOM     68  C49 UNL A   1      42.439  21.404  27.245  1.00  0.00    +0.000 C 
ATOM     69  F13 UNL A   1      42.038  20.299  27.889  1.00  0.00    +0.000 F 
ATOM     70  C50 UNL A   1      42.833  21.329  25.918  1.00  0.00    +0.000 C 
ATOM     71  F14 UNL A   1      42.797  20.155  25.272  1.00  0.00    +0.000 F 
ATOM     72  C51 UNL A   1      43.279  22.469  25.266  1.00  0.00    +0.000 C 
ATOM     73  F15 UNL A   1      43.650  22.402  23.980  1.00  0.00    +0.000 F 
ATOM     74  C52 UNL A   1      43.352  23.681  25.948  1.00  0.00    +0.000 C 
ATOM     75  F16 UNL A   1      43.809  24.762  25.298  1.00  0.00    +0.000 F 
ENDBRANCH   64   65
TORSDOF 21
ENDMDL
MODEL 4
REMARK VINA RESULT:     -10.1     32.577     39.467
ROOT
ATOM     28  C23 UNL A   1      46.188  10.923  47.886  1.00  0.00    +0.000 C 
ATOM     29  C24 UNL A   1      47.357  11.864  47.976  1.00  0.00    +0.000 C 
ATOM     30  N3  UNL A   1      48.369  11.849  48.808  1.00  0.00    +0.000 N 
ATOM     31  C25 UNL A   1      49.174  12.920  48.441  1.00  0.00    +0.000 C 
ATOM     32  C26 UNL A   1      50.306  13.368  49.034  1.00  0.00    +0.000 C 
ATOM     44  C33 UNL A   1      50.901  12.773  50.201  1.00  0.00    +0.000 C 
ATOM     45  C34 UNL A   1      52.038  13.165  50.887  1.00  0.00    +0.000 C 
ATOM     46  C35 UNL A   1      52.240  12.274  51.946  1.00  0.00    +0.000 C 
ATOM     47  C36 UNL A   1      51.207  11.351  51.943  1.00  0.00    +0.000 C 
ATOM     48  N4  UNL A   1      50.400  11.661  50.861  1.00  0.00    +0.000 N 
ATOM     49  C37 UNL A   1      50.975  10.265  52.858  1.00  0.00    +0.000 C 
ATOM     61  C44 UNL A   1      49.946   9.387  52.777  1.00  0.00    +0.000 C 
ATOM     62  N5  UNL A   1      48.911   9.338  51.855  1.00  0.00    +0.000 N 
ATOM     63  C45 UNL A   1      48.181   8.302  52.188  1.00  0.00    +0.000 C 
ATOM     64  C46 UNL A   1      46.911   7.790  51.561  1.00  0.00    +0.000 C 
ATOM     76  C53 UNL A   1      46.388   8.447  50.509  1.00  0.00    +0.000 C 
ATOM     77  C54 UNL A   1      45.167   8.076  49.799  1.00  0.00    +0.000 C 
ATOM     78  C55 UNL A   1      44.983   8.923  48.774  1.00  0.00    +0.000 C 
ATOM     79  C56 UNL A   1      46.055   9.920  48.775  1.00  0.00    +0.000 C 
ATOM     80  N6  UNL A   1      46.835   9.565  49.848  1.00  0.00    +0.000 N 
ATOM     81  C57 UNL A   1      48.696   7.554  53.345  1.00  0.00    +0.000 C 
ATOM     82  C58 UNL A   1      49.745   8.285  53.693  1.00  0.00    +0.000 C 
ATOM     83  C59 UNL A   1      48.564  13.530  47.279  1.00  0.00    +0.000 C 
ATOM     84  C60 UNL A   1      47.408  12.952  46.988  1.00  0.00    +0.000 C 
ATOM    119  H31 UNL A   1      52.634  13.975  50.656  1.00  0.00    +0.000 H 
ATOM    120  H32 UNL A   1      53.025  12.300  52.615  1.00  0.00    +0.000 H 
ATOM    121  H33 UNL A   1      49.590  11.166  50.600  1.00  0.00    +0.000 H 
ATOM    122  H34 UNL A   1      44.546   7.290  50.046  1.00  0.00    +0.000 H 
ATOM    123  H35 UNL A   1      44.208   8.879  48.093  1.00  0.00    +0.000 H 
ATOM    124  H36 UNL A   1      47.639  10.065  50.118  1.00  0.00    +0.000 H 
ATOM    125  H37 UNL A   1      48.335   6.687  53.774  1.00  0.00    +0.000 H 
ATOM    126  H38 UNL A   1      50.342   8.092  54.512  1.00  0.00    +0.000 H 
ATOM    127  H39 UNL A   1      48.976  14.313  46.748  1.00  0.00    +0.000 H 
ATOM    128  H40 UNL A   1      46.722  13.201  46.258  1.00  0.00    +0.000 H 
ENDROOT
BRANCH   28   27
ATOM    129  H41 UNL A   1      44.105  12.604  47.739  1.00  0.00    +0.000 H 
ATOM    130  H42 UNL A   1      42.432  12.793  45.994  1.00  0.00    +0.000 H 
ATOM     27  C22 UNL A   1      45.203  11.066  46.785  1.00  0.00    +0.000 C 
ATOM    117  H29 UNL A   1      44.447   9.871  43.734  1.00  0.00    +0.000 H 
ATOM     86  C62 UNL A   1      43.228  12.147  45.879  1.00  0.00    +0.000 C 
ATOM     85  C61 UNL A   1      44.169  12.009  46.897  1.00  0.00    +0.000 C 
ATOM     24  C19 UNL A   1      43.365  11.407  44.700  1.00  0.00    +0.000 C 
ATOM     25  C20 UNL A   1      44.373  10.445  44.588  1.00  0.00    +0.000 C 
ATOM     26  C21 UNL A   1      45.278  10.264  45.634  1.00  0.00    +0.000 C 
ATOM    118  H30 UNL A   1      46.008   9.539  45.562  1.00  0.00    +0.000 H 
BRANCH   24   22
ATOM     22  C18 UNL A   1      42.450  11.612  43.557  1.00  0.00    +0.000 C 
ATOM     23  O2  UNL A   1      42.635  10.997  42.511  1.00  0.00    +0.000 O 
BRANCH   22   21
ATOM    116  H28 UNL A   1      40.648  12.208  44.193  1.00  0.00    +0.000 H 
ATOM     21  N2  UNL A   1      41.418  12.509  43.659  1.00  0.00    +0.000 N 
BRANCH   21   20
ATOM    114  H26 UNL A   1      40.905  13.756  42.099  1.00  0.00    +0.000 H 
ATOM    115  H27 UNL A   1      40.647  14.406  43.725  1.00  0.00    +0.000 H 
ATOM     20  C17 UNL A   1      41.298  13.840  43.091  1.00  0.00    +0.000 C 
BRANCH   20   19
ATOM    113  H25 UNL A   1      43.365  13.837  42.774  1.00  0.00    +0.000 H 
ATOM     19  C16 UNL A   1      42.633  14.575  43.027  1.00  0.00    +0.000 C 
ATOM    112  H24 UNL A   1      42.802  15.038  43.976  1.00  0.00    +0.000 H 
BRANCH   19   18
ATOM     18  C15 UNL A   1      42.730  15.657  41.948  1.00  0.00    +0.000 C 
ATOM    110  H22 UNL A   1      42.211  16.523  42.303  1.00  0.00    +0.000 H 
ATOM    111  H23 UNL A   1      43.775  15.816  41.786  1.00  0.00    +0.000 H 
BRANCH   18   17
ATOM     17  C14 UNL A   1      42.145  15.282  40.583  1.00  0.00    +0.000 C 
ATOM    108  H20 UNL A   1      41.684  14.320  40.674  1.00  0.00    +0.000 H 
ATOM    109  H21 UNL A   1      41.460  16.065  40.331  1.00  0.00    +0.000 H 
BRANCH   17   16
ATOM    106  H18 UNL A   1      43.838  14.419  39.630  1.00  0.00    +0.000 H 
ATOM    107  H19 UNL A   1      42.584  15.061  38.536  1.00  0.00    +0.000 H 
ATOM     16  C13 UNL A   1      43.152  15.216  39.430  1.00  0.00    +0.000 C 
BRANCH   16   15
ATOM    105  H17 UNL A   1      43.528  17.264  39.829  1.00  0.00    +0.000 H 
ATOM     15  C12 UNL A   1      43.955  16.494  39.220  1.00  0.00    +0.000 C 
ATOM    104  H16 UNL A   1      43.917  16.764  38.185  1.00  0.00    +0.000 H 
BRANCH   15   14
ATOM     14  N1  UNL A   1      45.343  16.320  39.611  1.00  0.00    +0.000 N 
ATOM    103  H15 UNL A   1      45.738  15.444  39.395  1.00  0.00    +0.000 H 
BRANCH   14   12
ATOM     12  C11 UNL A   1      46.180  17.201  40.237  1.00  0.00    +0.000 C 
ATOM     13  O1  UNL A   1      46.172  18.368  39.837  1.00  0.00    +0.000 O 
BRANCH   12    9
ATOM      9  C9  UNL A   1      47.052  16.781  41.416  1.00  0.00    +0.000 C 
ATOM    100  H12 UNL A   1      47.453  15.802  41.260  1.00  0.00    +0.000 H 
BRANCH    9    8
ATOM     98  H10 UNL A   1      45.878  14.139  45.089  1.00  0.00    +0.000 H 
ATOM     99  H11 UNL A   1      47.012  14.532  42.995  1.00  0.00    +0.000 H 
ATOM    132  H44 UNL A   1      44.361  18.052  44.997  1.00  0.00    +0.000 H 
ATOM      5  C5  UNL A   1      45.047  16.072  45.230  1.00  0.00    +0.000 C 
ATOM      6  C6  UNL A   1      45.794  15.058  44.628  1.00  0.00    +0.000 C 
ATOM      7  C7  UNL A   1      46.430  15.280  43.403  1.00  0.00    +0.000 C 
ATOM    131  H43 UNL A   1      45.429  18.418  42.861  1.00  0.00    +0.000 H 
ATOM      8  C8  UNL A   1      46.294  16.498  42.714  1.00  0.00    +0.000 C 
ATOM     87  C63 UNL A   1      45.534  17.505  43.331  1.00  0.00    +0.000 C 
ATOM     88  C64 UNL A   1      44.917  17.295  44.568  1.00  0.00    +0.000 C 
BRANCH    5    4
ATOM     97  H9  UNL A   1      43.862  14.998  46.588  1.00  0.00    +0.000 H 
ATOM      4  C4  UNL A   1      44.474  15.876  46.613  1.00  0.00    +0.000 C 
ATOM     96  H8  UNL A   1      43.906  16.745  46.874  1.00  0.00    +0.000 H 
BRANCH    4    2
ATOM      2  C2  UNL A   1      45.564  15.657  47.682  1.00  0.00    +0.000 C 
ATOM     92  H4  UNL A   1      46.161  14.828  47.363  1.00  0.00    +0.000 H 
BRANCH    2    1
ATOM      1  C1  UNL A   1      46.489  16.870  47.822  1.00  0.00    +0.000 C 
ATOM     90  H2  UNL A   1      46.328  17.333  48.773  1.00  0.00    +0.000 H 
ATOM     91  H3  UNL A   1      46.275  17.572  47.043  1.00  0.00    +0.000 H 
ATOM     89  H1  UNL A   1      47.508  16.553  47.747  1.00  0.00    +0.000 H 
ENDBRANCH    2    1
BRANCH    2    3
ATOM      3  C3  UNL A   1      44.919  15.340  49.032  1.00  0.00    +0.000 C 
ATOM     93  H5  UNL A   1      44.722  14.289  49.095  1.00  0.00    +0.000 H 
ATOM     94  H6  UNL A   1      44.001  15.880  49.125  1.00  0.00    +0.000 H 
ATOM     95  H7  UNL A   1      45.583  15.626  49.821  1.00  0.00    +0.000 H 
ENDBRANCH    2    3
ENDBRANCH    4    2
ENDBRANCH    5    4
ENDBRANCH    9    8
BRANCH    9   10
ATOM     10  C10 UNL A   1      48.230  17.760  41.480  1.00  0.00    +0.000 C 
ATOM     11  F1  UNL A   1      49.211  17.393  40.612  1.00  0.00    +0.000 F 
ATOM    101  H13 UNL A   1      48.626  17.767  42.474  1.00  0.00    +0.000 H 
ATOM    102  H14 UNL A   1      47.880  18.734  41.210  1.00  0.00    +0.000 H 
ENDBRANCH    9   10
ENDBRANCH   12    9
ENDBRANCH   14   12
ENDBRANCH   15   14
ENDBRANCH   16   15
ENDBRANCH   17   16
ENDBRANCH   18   17
ENDBRANCH   19   18
ENDBRANCH   20   19
ENDBRANCH   21   20
ENDBRANCH   22   21
ENDBRANCH   24   22
ENDBRANCH   28   27
BRANCH   32   33
ATOM     33  C27 UNL A   1      50.967  14.578  48.445  1.00  0.00    +0.000 C 
ATOM     34  C28 UNL A   1      52.044  14.458  47.555  1.00  0.00    +0.000 C 
ATOM     35  F2  UNL A   1      52.549  13.249  47.267  1.00  0.00    +0.000 F 
ATOM     36  C29 UNL A   1      52.626  15.583  46.978  1.00  0.00    +0.000 C 
ATOM     37  F3  UNL A   1      53.676  15.446  46.157  1.00  0.00    +0.000 F 
ATOM     38  C30 UNL A   1      52.124  16.846  47.257  1.00  0.00    +0.000 C 
ATOM     39  F4  UNL A   1      52.678  17.927  46.689  1.00  0.00    +0.000 F 
ATOM     40  C31 UNL A   1      51.052  16.988  48.126  1.00  0.00    +0.000 C 
ATOM     41  F5  UNL A   1      50.560  18.206  48.386  1.00  0.00    +0.000 F 
ATOM     42  C32 UNL A   1      50.485  15.866  48.724  1.00  0.00    +0.000 C 
ATOM     43  F6  UNL A   1      49.455  16.035  49.566  1.00  0.00    +0.000 F 
ENDBRANCH   32   33
BRANCH   49   50
ATOM     50  C38 UNL A   1      51.931  10.100  54.002  1.00  0.00    +0.000 C 
ATOM     51  C39 UNL A   1      53.104   9.342  53.877  1.00  0.00    +0.000 C 
ATOM     52  F7  UNL A   1      53.374   8.701  52.731  1.00  0.00    +0.000 F 
ATOM     53  C40 UNL A   1      53.986   9.211  54.947  1.00  0.00    +0.000 C 
ATOM     54  F8  UNL A   1      55.078   8.444  54.820  1.00  0.00    +0.000 F 
ATOM     55  C41 UNL A   1      53.729   9.858  56.146  1.00  0.00    +0.000 C 
ATOM     56  F9  UNL A   1      54.582   9.733  57.172  1.00  0.00    +0.000 F 
ATOM     57  C42 UNL A   1      52.583  10.627  56.285  1.00  0.00    +0.000 C 
ATOM     58  F10 UNL A   1      52.339  11.263  57.439  1.00  0.00    +0.000 F 
ATOM     59  C43 UNL A   1      51.686  10.739  55.226  1.00  0.00    +0.000 C 
ATOM     60  F11 UNL A   1      50.580  11.480  55.394  1.00  0.00    +0.000 F 
ENDBRANCH   49   50
BRANCH   64   65
ATOM     65  C47 UNL A   1      46.233   6.586  52.109  1.00  0.00    +0.000 C 
ATOM     66  C48 UNL A   1      45.137   6.709  52.974  1.00  0.00    +0.000 C 
ATOM     67  F12 UNL A   1      44.679   7.925  53.304  1.00  0.00    +0.000 F 
ATOM     68  C49 UNL A   1      44.543   5.586  53.547  1.00  0.00    +0.000 C 
ATOM     69  F13 UNL A   1      43.535   5.737  54.418  1.00  0.00    +0.000 F 
ATOM     70  C50 UNL A   1      45.010   4.318  53.239  1.00  0.00    +0.000 C 
ATOM     71  F14 UNL A   1      44.444   3.240  53.797  1.00  0.00    +0.000 F 
ATOM     72  C51 UNL A   1      46.075   4.170  52.362  1.00  0.00    +0.000 C 
ATOM     73  F15 UNL A   1      46.522   2.946  52.053  1.00  0.00    +0.000 F 
ATOM     74  C52 UNL A   1      46.689   5.293  51.811  1.00  0.00    +0.000 C 
ATOM     75  F16 UNL A   1      47.731   5.120  50.985  1.00  0.00    +0.000 F 
ENDBRANCH   64   65
TORSDOF 21
ENDMDL
MODEL 5
REMARK VINA RESULT:     -10.1     32.501     39.402
ROOT
ATOM     28  C23 UNL A   1      46.197  10.988  47.830  1.00  0.00    +0.000 C 
ATOM     29  C24 UNL A   1      47.365  11.932  47.904  1.00  0.00    +0.000 C 
ATOM     30  N3  UNL A   1      48.387  11.921  48.724  1.00  0.00    +0.000 N 
ATOM     31  C25 UNL A   1      49.185  12.993  48.345  1.00  0.00    +0.000 C 
ATOM     32  C26 UNL A   1      50.323  13.445  48.924  1.00  0.00    +0.000 C 
ATOM     44  C33 UNL A   1      50.934  12.853  50.085  1.00  0.00    +0.000 C 
ATOM     45  C34 UNL A   1      52.078  13.249  50.756  1.00  0.00    +0.000 C 
ATOM     46  C35 UNL A   1      52.294  12.360  51.814  1.00  0.00    +0.000 C 
ATOM     47  C36 UNL A   1      51.263  11.435  51.825  1.00  0.00    +0.000 C 
ATOM     48  N4  UNL A   1      50.443  11.741  50.752  1.00  0.00    +0.000 N 
ATOM     49  C37 UNL A   1      51.045  10.350  52.745  1.00  0.00    +0.000 C 
ATOM     61  C44 UNL A   1      50.017   9.470  52.678  1.00  0.00    +0.000 C 
ATOM     62  N5  UNL A   1      48.971   9.417  51.768  1.00  0.00    +0.000 N 
ATOM     63  C45 UNL A   1      48.247   8.380  52.113  1.00  0.00    +0.000 C 
ATOM     64  C46 UNL A   1      46.971   7.864  51.502  1.00  0.00    +0.000 C 
ATOM     76  C53 UNL A   1      46.434   8.518  50.454  1.00  0.00    +0.000 C 
ATOM     77  C54 UNL A   1      45.206   8.143  49.760  1.00  0.00    +0.000 C 
ATOM     78  C55 UNL A   1      45.007   8.988  48.736  1.00  0.00    +0.000 C 
ATOM     79  C56 UNL A   1      46.077   9.987  48.722  1.00  0.00    +0.000 C 
ATOM     80  N6  UNL A   1      46.871   9.636  49.786  1.00  0.00    +0.000 N 
ATOM     81  C57 UNL A   1      48.778   7.635  53.264  1.00  0.00    +0.000 C 
ATOM     82  C58 UNL A   1      49.830   8.369  53.598  1.00  0.00    +0.000 C 
ATOM     83  C59 UNL A   1      48.560  13.600  47.190  1.00  0.00    +0.000 C 
ATOM     84  C60 UNL A   1      47.401  13.018  46.913  1.00  0.00    +0.000 C 
ATOM    119  H31 UNL A   1      52.669  14.060  50.516  1.00  0.00    +0.000 H 
ATOM    120  H32 UNL A   1      53.087  12.390  52.474  1.00  0.00    +0.000 H 
ATOM    121  H33 UNL A   1      49.631  11.244  50.502  1.00  0.00    +0.000 H 
ATOM    122  H34 UNL A   1      44.590   7.356  50.016  1.00  0.00    +0.000 H 
ATOM    123  H35 UNL A   1      44.225   8.940  48.064  1.00  0.00    +0.000 H 
ATOM    124  H36 UNL A   1      47.677  10.138  50.045  1.00  0.00    +0.000 H 
ATOM    125  H37 UNL A   1      48.424   6.769  53.699  1.00  0.00    +0.000 H 
ATOM    126  H38 UNL A   1      50.437   8.179  54.411  1.00  0.00    +0.000 H 
ATOM    127  H39 UNL A   1      48.963  14.382  46.652  1.00  0.00    +0.000 H 
ATOM    128  H40 UNL A   1      46.706  13.264  46.191  1.00  0.00    +0.000 H 
ENDROOT
BRANCH   28   27
ATOM    129  H41 UNL A   1      44.058  12.601  47.743  1.00  0.00    +0.000 H 
ATOM    130  H42 UNL A   1      42.365  12.780  46.017  1.00  0.00    +0.000 H 
ATOM     27  C22 UNL A   1      45.198  11.127  46.740  1.00  0.00    +0.000 C 
ATOM    117  H29 UNL A   1      44.457   9.988  43.664  1.00  0.00    +0.000 H 
ATOM     86  C62 UNL A   1      43.181  12.164  45.878  1.00  0.00    +0.000 C 
ATOM     85  C61 UNL A   1      44.134  12.031  46.885  1.00  0.00    +0.000 C 
ATOM     24  C19 UNL A   1      43.333  11.461  44.679  1.00  0.00    +0.000 C 
ATOM     25  C20 UNL A   1      44.371  10.536  44.534  1.00  0.00    +0.000 C 
ATOM     26  C21 UNL A   1      45.291  10.359  45.568  1.00  0.00    +0.000 C 
ATOM    118  H30 UNL A   1      46.044   9.661  45.471  1.00  0.00    +0.000 H 
BRANCH   24   22
ATOM     22  C18 UNL A   1      42.402  11.665  43.549  1.00  0.00    +0.000 C 
ATOM     23  O2  UNL A   1      42.513  10.980  42.536  1.00  0.00    +0.000 O 
BRANCH   22   21
ATOM    116  H28 UNL A   1      40.721  12.472  44.277  1.00  0.00    +0.000 H 
ATOM     21  N2  UNL A   1      41.437  12.637  43.623  1.00  0.00    +0.000 N 
BRANCH   21   20
ATOM    114  H26 UNL A   1      41.306  13.645  41.829  1.00  0.00    +0.000 H 
ATOM    115  H27 UNL A   1      40.419  14.360  43.185  1.00  0.00    +0.000 H 
ATOM     20  C17 UNL A   1      41.322  13.876  42.874  1.00  0.00    +0.000 C 
BRANCH   20   19
ATOM    113  H25 UNL A   1      43.310  14.226  43.423  1.00  0.00    +0.000 H 
ATOM     19  C16 UNL A   1      42.476  14.836  43.144  1.00  0.00    +0.000 C 
ATOM    112  H24 UNL A   1      42.169  15.517  43.909  1.00  0.00    +0.000 H 
BRANCH   19   18
ATOM     18  C15 UNL A   1      42.937  15.657  41.936  1.00  0.00    +0.000 C 
ATOM    110  H22 UNL A   1      42.724  16.687  42.139  1.00  0.00    +0.000 H 
ATOM    111  H23 UNL A   1      43.979  15.447  41.819  1.00  0.00    +0.000 H 
BRANCH   18   17
ATOM     17  C14 UNL A   1      42.281  15.292  40.601  1.00  0.00    +0.000 C 
ATOM    108  H20 UNL A   1      41.920  14.287  40.674  1.00  0.00    +0.000 H 
ATOM    109  H21 UNL A   1      41.508  16.017  40.445  1.00  0.00    +0.000 H 
BRANCH   17   16
ATOM    106  H18 UNL A   1      43.865  14.544  39.396  1.00  0.00    +0.000 H 
ATOM    107  H19 UNL A   1      42.554  15.374  38.516  1.00  0.00    +0.000 H 
ATOM     16  C13 UNL A   1      43.194  15.378  39.373  1.00  0.00    +0.000 C 
BRANCH   16   15
ATOM    105  H17 UNL A   1      43.560  17.397  39.909  1.00  0.00    +0.000 H 
ATOM     15  C12 UNL A   1      44.023  16.654  39.292  1.00  0.00    +0.000 C 
ATOM    104  H16 UNL A   1      44.065  16.979  38.273  1.00  0.00    +0.000 H 
BRANCH   15   14
ATOM     14  N1  UNL A   1      45.377  16.440  39.774  1.00  0.00    +0.000 N 
ATOM    103  H15 UNL A   1      45.744  15.539  39.620  1.00  0.00    +0.000 H 
BRANCH   14   12
ATOM     12  C11 UNL A   1      46.214  17.312  40.411  1.00  0.00    +0.000 C 
ATOM     13  O1  UNL A   1      46.157  18.498  40.072  1.00  0.00    +0.000 O 
BRANCH   12    9
ATOM      9  C9  UNL A   1      47.144  16.859  41.532  1.00  0.00    +0.000 C 
ATOM    100  H12 UNL A   1      47.485  15.861  41.360  1.00  0.00    +0.000 H 
BRANCH    9    8
ATOM     98  H10 UNL A   1      44.391  18.089  45.104  1.00  0.00    +0.000 H 
ATOM     99  H11 UNL A   1      45.525  18.511  43.015  1.00  0.00    +0.000 H 
ATOM    132  H44 UNL A   1      45.932  14.185  45.145  1.00  0.00    +0.000 H 
ATOM      5  C5  UNL A   1      45.046  16.093  45.284  1.00  0.00    +0.000 C 
ATOM      6  C6  UNL A   1      44.959  17.344  44.671  1.00  0.00    +0.000 C 
ATOM      7  C7  UNL A   1      45.636  17.595  43.475  1.00  0.00    +0.000 C 
ATOM    131  H43 UNL A   1      47.133  14.634  43.098  1.00  0.00    +0.000 H 
ATOM      8  C8  UNL A   1      46.466  16.625  42.883  1.00  0.00    +0.000 C 
ATOM     87  C63 UNL A   1      46.547  15.374  43.515  1.00  0.00    +0.000 C 
ATOM     88  C64 UNL A   1      45.851  15.113  44.700  1.00  0.00    +0.000 C 
BRANCH    5    4
ATOM     97  H9  UNL A   1      43.648  14.896  46.291  1.00  0.00    +0.000 H 
ATOM      4  C4  UNL A   1      44.210  15.782  46.501  1.00  0.00    +0.000 C 
ATOM     96  H8  UNL A   1      43.569  16.617  46.699  1.00  0.00    +0.000 H 
BRANCH    4    2
ATOM      2  C2  UNL A   1      45.064  15.507  47.756  1.00  0.00    +0.000 C 
ATOM     92  H4  UNL A   1      45.707  14.683  47.529  1.00  0.00    +0.000 H 
BRANCH    2    1
ATOM      1  C1  UNL A   1      45.952  16.700  48.124  1.00  0.00    +0.000 C 
ATOM     90  H2  UNL A   1      45.671  17.549  47.535  1.00  0.00    +0.000 H 
ATOM     91  H3  UNL A   1      46.976  16.456  47.929  1.00  0.00    +0.000 H 
ATOM     89  H1  UNL A   1      45.831  16.930  49.161  1.00  0.00    +0.000 H 
ENDBRANCH    2    1
BRANCH    2    3
ATOM      3  C3  UNL A   1      44.162  15.150  48.938  1.00  0.00    +0.000 C 
ATOM     93  H5  UNL A   1      43.386  14.491  48.608  1.00  0.00    +0.000 H 
ATOM     94  H6  UNL A   1      43.727  16.042  49.337  1.00  0.00    +0.000 H 
ATOM     95  H7  UNL A   1      44.742  14.667  49.696  1.00  0.00    +0.000 H 
ENDBRANCH    2    3
ENDBRANCH    4    2
ENDBRANCH    5    4
ENDBRANCH    9    8
BRANCH    9   10
ATOM     10  C10 UNL A   1      48.370  17.780  41.503  1.00  0.00    +0.000 C 
ATOM     11  F1  UNL A   1      49.198  17.448  40.476  1.00  0.00    +0.000 F 
ATOM    101  H13 UNL A   1      48.901  17.685  42.427  1.00  0.00    +0.000 H 
ATOM    102  H14 UNL A   1      48.038  18.787  41.365  1.00  0.00    +0.000 H 
ENDBRANCH    9   10
ENDBRANCH   12    9
ENDBRANCH   14   12
ENDBRANCH   15   14
ENDBRANCH   16   15
ENDBRANCH   17   16
ENDBRANCH   18   17
ENDBRANCH   19   18
ENDBRANCH   20   19
ENDBRANCH   21   20
ENDBRANCH   22   21
ENDBRANCH   24   22
ENDBRANCH   28   27
BRANCH   32   33
ATOM     33  C27 UNL A   1      50.974  14.655  48.324  1.00  0.00    +0.000 C 
ATOM     34  C28 UNL A   1      50.537  15.949  48.643  1.00  0.00    +0.000 C 
ATOM     35  F2  UNL A   1      49.476  16.125  49.444  1.00  0.00    +0.000 F 
ATOM     36  C29 UNL A   1      51.173  17.070  48.116  1.00  0.00    +0.000 C 
ATOM     37  F3  UNL A   1      50.717  18.296  48.407  1.00  0.00    +0.000 F 
ATOM     38  C30 UNL A   1      52.274  16.919  47.286  1.00  0.00    +0.000 C 
ATOM     39  F4  UNL A   1      52.893  18.000  46.791  1.00  0.00    +0.000 F 
ATOM     40  C31 UNL A   1      52.731  15.649  46.967  1.00  0.00    +0.000 C 
ATOM     41  F5  UNL A   1      53.801  15.503  46.175  1.00  0.00    +0.000 F 
ATOM     42  C32 UNL A   1      52.081  14.526  47.471  1.00  0.00    +0.000 C 
ATOM     43  F6  UNL A   1      52.540  13.311  47.139  1.00  0.00    +0.000 F 
ENDBRANCH   32   33
BRANCH   49   50
ATOM     50  C38 UNL A   1      52.015  10.190  53.878  1.00  0.00    +0.000 C 
ATOM     51  C39 UNL A   1      51.800  10.799  55.123  1.00  0.00    +0.000 C 
ATOM     52  F7  UNL A   1      50.732  11.588  55.312  1.00  0.00    +0.000 F 
ATOM     53  C40 UNL A   1      52.705  10.628  56.167  1.00  0.00    +0.000 C 
ATOM     54  F8  UNL A   1      52.503  11.257  57.333  1.00  0.00    +0.000 F 
ATOM     55  C41 UNL A   1      53.821   9.823  55.997  1.00  0.00    +0.000 C 
ATOM     56  F9  UNL A   1      54.689   9.656  57.005  1.00  0.00    +0.000 F 
ATOM     57  C42 UNL A   1      54.043   9.196  54.779  1.00  0.00    +0.000 C 
ATOM     58  F10 UNL A   1      55.115   8.408  54.618  1.00  0.00    +0.000 F 
ATOM     59  C43 UNL A   1      53.154   9.386  53.725  1.00  0.00    +0.000 C 
ATOM     60  F11 UNL A   1      53.402   8.777  52.555  1.00  0.00    +0.000 F 
ENDBRANCH   49   50
BRANCH   64   65
ATOM     65  C47 UNL A   1      46.303   6.659  52.059  1.00  0.00    +0.000 C 
ATOM     66  C48 UNL A   1      46.743   5.372  51.720  1.00  0.00    +0.000 C 
ATOM     67  F12 UNL A   1      47.787   5.219  50.894  1.00  0.00    +0.000 F 
ATOM     68  C49 UNL A   1      46.077   4.239  52.181  1.00  0.00    +0.000 C 
ATOM     69  F13 UNL A   1      46.482   3.022  51.792  1.00  0.00    +0.000 F 
ATOM     70  C50 UNL A   1      44.981   4.369  53.020  1.00  0.00    +0.000 C 
ATOM     71  F14 UNL A   1      44.335   3.279  53.457  1.00  0.00    +0.000 F 
ATOM     72  C51 UNL A   1      44.545   5.632  53.394  1.00  0.00    +0.000 C 
ATOM     73  F15 UNL A   1      43.493   5.762  54.213  1.00  0.00    +0.000 F 
ATOM     74  C52 UNL A   1      45.192   6.767  52.909  1.00  0.00    +0.000 C 
ATOM     75  F16 UNL A   1      44.735   7.975  53.268  1.00  0.00    +0.000 F 
ENDBRANCH   64   65
TORSDOF 21
ENDMDL
MODEL 6
REMARK VINA RESULT:     -10.0     32.260     38.439
ROOT
ATOM     28  C23 UNL A   1      46.714  11.874  46.872  1.00  0.00    +0.000 C 
ATOM     29  C24 UNL A   1      47.131  11.017  48.034  1.00  0.00    +0.000 C 
ATOM     30  N3  UNL A   1      47.980  11.282  48.996  1.00  0.00    +0.000 N 
ATOM     31  C25 UNL A   1      47.974  10.165  49.822  1.00  0.00    +0.000 C 
ATOM     32  C26 UNL A   1      48.732   9.921  50.917  1.00  0.00    +0.000 C 
ATOM     44  C33 UNL A   1      49.716  10.830  51.443  1.00  0.00    +0.000 C 
ATOM     45  C34 UNL A   1      50.546  10.665  52.538  1.00  0.00    +0.000 C 
ATOM     46  C35 UNL A   1      51.321  11.821  52.677  1.00  0.00    +0.000 C 
ATOM     47  C36 UNL A   1      51.001  12.688  51.645  1.00  0.00    +0.000 C 
ATOM     48  N4  UNL A   1      50.007  12.073  50.903  1.00  0.00    +0.000 N 
ATOM     49  C37 UNL A   1      51.560  13.983  51.360  1.00  0.00    +0.000 C 
ATOM     61  C44 UNL A   1      51.178  14.785  50.336  1.00  0.00    +0.000 C 
ATOM     62  N5  UNL A   1      50.223  14.556  49.357  1.00  0.00    +0.000 N 
ATOM     63  C45 UNL A   1      50.211  15.631  48.607  1.00  0.00    +0.000 C 
ATOM     64  C46 UNL A   1      49.395  15.924  47.375  1.00  0.00    +0.000 C 
ATOM     76  C53 UNL A   1      48.542  14.990  46.916  1.00  0.00    +0.000 C 
ATOM     77  C54 UNL A   1      47.690  15.125  45.738  1.00  0.00    +0.000 C 
ATOM     78  C55 UNL A   1      46.936  14.021  45.615  1.00  0.00    +0.000 C 
ATOM     79  C56 UNL A   1      47.277  13.084  46.686  1.00  0.00    +0.000 C 
ATOM     80  N6  UNL A   1      48.248  13.738  47.402  1.00  0.00    +0.000 N 
ATOM     81  C57 UNL A   1      51.137  16.682  49.053  1.00  0.00    +0.000 C 
ATOM     82  C58 UNL A   1      51.734  16.097  50.081  1.00  0.00    +0.000 C 
ATOM     83  C59 UNL A   1      46.999   9.243  49.281  1.00  0.00    +0.000 C 
ATOM     84  C60 UNL A   1      46.493   9.696  48.143  1.00  0.00    +0.000 C 
ATOM    119  H31 UNL A   1      50.586   9.834  53.147  1.00  0.00    +0.000 H 
ATOM    120  H32 UNL A   1      52.014  11.997  53.422  1.00  0.00    +0.000 H 
ATOM    121  H33 UNL A   1      49.573  12.461  50.109  1.00  0.00    +0.000 H 
ATOM    122  H34 UNL A   1      47.671  15.938  45.103  1.00  0.00    +0.000 H 
ATOM    123  H35 UNL A   1      46.227  13.860  44.881  1.00  0.00    +0.000 H 
ATOM    124  H36 UNL A   1      48.692  13.349  48.189  1.00  0.00    +0.000 H 
ATOM    125  H37 UNL A   1      51.284  17.628  48.667  1.00  0.00    +0.000 H 
ATOM    126  H38 UNL A   1      52.499  16.522  50.629  1.00  0.00    +0.000 H 
ATOM    127  H39 UNL A   1      46.732   8.350  49.724  1.00  0.00    +0.000 H 
ATOM    128  H40 UNL A   1      45.824   9.240  47.502  1.00  0.00    +0.000 H 
ENDROOT
BRANCH   28   27
ATOM    129  H41 UNL A   1      44.067  12.224  47.104  1.00  0.00    +0.000 H 
ATOM    130  H42 UNL A   1      42.298  11.402  45.664  1.00  0.00    +0.000 H 
ATOM     27  C22 UNL A   1      45.645  11.411  45.952  1.00  0.00    +0.000 C 
ATOM    117  H29 UNL A   1      45.170   9.786  43.046  1.00  0.00    +0.000 H 
ATOM     86  C62 UNL A   1      43.286  11.252  45.406  1.00  0.00    +0.000 C 
ATOM     85  C61 UNL A   1      44.302  11.690  46.252  1.00  0.00    +0.000 C 
ATOM     24  C19 UNL A   1      43.608  10.609  44.207  1.00  0.00    +0.000 C 
ATOM     25  C20 UNL A   1      44.938  10.298  43.912  1.00  0.00    +0.000 C 
ATOM     26  C21 UNL A   1      45.952  10.684  44.790  1.00  0.00    +0.000 C 
ATOM    118  H30 UNL A   1      46.931  10.437  44.584  1.00  0.00    +0.000 H 
BRANCH   24   22
ATOM     22  C18 UNL A   1      42.559  10.231  43.236  1.00  0.00    +0.000 C 
ATOM     23  O2  UNL A   1      42.822   9.446  42.329  1.00  0.00    +0.000 O 
BRANCH   22   21
ATOM    116  H28 UNL A   1      40.619  10.199  43.729  1.00  0.00    +0.000 H 
ATOM     21  N2  UNL A   1      41.306  10.781  43.332  1.00  0.00    +0.000 N 
BRANCH   21   20
ATOM    114  H26 UNL A   1      39.781  12.088  42.870  1.00  0.00    +0.000 H 
ATOM    115  H27 UNL A   1      41.192  12.798  43.669  1.00  0.00    +0.000 H 
ATOM     20  C17 UNL A   1      40.849  12.100  42.933  1.00  0.00    +0.000 C 
BRANCH   20   19
ATOM    113  H25 UNL A   1      40.574  12.856  41.003  1.00  0.00    +0.000 H 
ATOM     19  C16 UNL A   1      41.413  12.536  41.585  1.00  0.00    +0.000 C 
ATOM    112  H24 UNL A   1      41.936  11.706  41.161  1.00  0.00    +0.000 H 
BRANCH   19   18
ATOM     18  C15 UNL A   1      42.374  13.727  41.635  1.00  0.00    +0.000 C 
ATOM    110  H22 UNL A   1      42.531  13.980  42.664  1.00  0.00    +0.000 H 
ATOM    111  H23 UNL A   1      43.261  13.409  41.129  1.00  0.00    +0.000 H 
BRANCH   18   17
ATOM     17  C14 UNL A   1      41.901  14.988  40.905  1.00  0.00    +0.000 C 
ATOM    108  H20 UNL A   1      40.945  14.779  40.471  1.00  0.00    +0.000 H 
ATOM    109  H21 UNL A   1      41.878  15.763  41.643  1.00  0.00    +0.000 H 
BRANCH   17   16
ATOM    106  H18 UNL A   1      43.453  14.679  39.486  1.00  0.00    +0.000 H 
ATOM    107  H19 UNL A   1      42.193  15.847  39.006  1.00  0.00    +0.000 H 
ATOM     16  C13 UNL A   1      42.826  15.491  39.792  1.00  0.00    +0.000 C 
BRANCH   16   15
ATOM    105  H17 UNL A   1      43.097  17.458  40.536  1.00  0.00    +0.000 H 
ATOM     15  C12 UNL A   1      43.720  16.657  40.194  1.00  0.00    +0.000 C 
ATOM    104  H16 UNL A   1      44.298  16.963  39.346  1.00  0.00    +0.000 H 
BRANCH   15   14
ATOM     14  N1  UNL A   1      44.623  16.289  41.271  1.00  0.00    +0.000 N 
ATOM    103  H15 UNL A   1      44.559  15.356  41.577  1.00  0.00    +0.000 H 
BRANCH   14   12
ATOM     12  C11 UNL A   1      45.548  17.056  41.921  1.00  0.00    +0.000 C 
ATOM     13  O1  UNL A   1      46.657  17.173  41.391  1.00  0.00    +0.000 O 
BRANCH   12    9
ATOM      9  C9  UNL A   1      45.219  17.784  43.220  1.00  0.00    +0.000 C 
ATOM    100  H12 UNL A   1      46.111  18.133  43.695  1.00  0.00    +0.000 H 
BRANCH    9    8
ATOM     98  H10 UNL A   1      44.456  16.742  47.713  1.00  0.00    +0.000 H 
ATOM     99  H11 UNL A   1      45.350  18.121  45.944  1.00  0.00    +0.000 H 
ATOM    132  H44 UNL A   1      42.868  14.112  44.852  1.00  0.00    +0.000 H 
ATOM      5  C5  UNL A   1      43.565  15.326  46.429  1.00  0.00    +0.000 C 
ATOM      6  C6  UNL A   1      44.305  16.472  46.728  1.00  0.00    +0.000 C 
ATOM      7  C7  UNL A   1      44.842  17.256  45.703  1.00  0.00    +0.000 C 
ATOM    131  H43 UNL A   1      43.832  15.447  43.085  1.00  0.00    +0.000 H 
ATOM      8  C8  UNL A   1      44.707  16.891  44.352  1.00  0.00    +0.000 C 
ATOM     87  C63 UNL A   1      43.966  15.733  44.068  1.00  0.00    +0.000 C 
ATOM     88  C64 UNL A   1      43.406  14.961  45.090  1.00  0.00    +0.000 C 
BRANCH    5    4
ATOM     97  H9  UNL A   1      42.975  13.516  47.308  1.00  0.00    +0.000 H 
ATOM      4  C4  UNL A   1      42.874  14.558  47.528  1.00  0.00    +0.000 C 
ATOM     96  H8  UNL A   1      41.846  14.857  47.561  1.00  0.00    +0.000 H 
BRANCH    4    2
ATOM      2  C2  UNL A   1      43.506  14.805  48.914  1.00  0.00    +0.000 C 
ATOM     92  H4  UNL A   1      43.964  15.772  48.887  1.00  0.00    +0.000 H 
BRANCH    2    1
ATOM      1  C1  UNL A   1      42.459  14.819  50.032  1.00  0.00    +0.000 C 
ATOM     90  H2  UNL A   1      42.210  13.812  50.300  1.00  0.00    +0.000 H 
ATOM     91  H3  UNL A   1      41.579  15.323  49.690  1.00  0.00    +0.000 H 
ATOM     89  H1  UNL A   1      42.854  15.328  50.886  1.00  0.00    +0.000 H 
ENDBRANCH    2    1
BRANCH    2    3
ATOM      3  C3  UNL A   1      44.563  13.740  49.208  1.00  0.00    +0.000 C 
ATOM     93  H5  UNL A   1      45.481  14.006  48.725  1.00  0.00    +0.000 H 
ATOM     94  H6  UNL A   1      44.228  12.794  48.838  1.00  0.00    +0.000 H 
ATOM     95  H7  UNL A   1      44.720  13.675  50.264  1.00  0.00    +0.000 H 
ENDBRANCH    2    3
ENDBRANCH    4    2
ENDBRANCH    5    4
ENDBRANCH    9    8
BRANCH    9   10
ATOM     10  C10 UNL A   1      44.380  19.013  42.850  1.00  0.00    +0.000 C 
ATOM     11  F1  UNL A   1      43.181  18.991  43.493  1.00  0.00    +0.000 F 
ATOM    101  H13 UNL A   1      44.211  19.016  41.793  1.00  0.00    +0.000 H 
ATOM    102  H14 UNL A   1      44.912  19.892  43.145  1.00  0.00    +0.000 H 
ENDBRANCH    9   10
ENDBRANCH   12    9
ENDBRANCH   14   12
ENDBRANCH   15   14
ENDBRANCH   16   15
ENDBRANCH   17   16
ENDBRANCH   18   17
ENDBRANCH   19   18
ENDBRANCH   20   19
ENDBRANCH   21   20
ENDBRANCH   22   21
ENDBRANCH   24   22
ENDBRANCH   28   27
BRANCH   32   33
ATOM     33  C27 UNL A   1      48.544   8.605  51.613  1.00  0.00    +0.000 C 
ATOM     34  C28 UNL A   1      49.469   7.563  51.460  1.00  0.00    +0.000 C 
ATOM     35  F2  UNL A   1      50.511   7.703  50.626  1.00  0.00    +0.000 F 
ATOM     36  C29 UNL A   1      49.312   6.359  52.141  1.00  0.00    +0.000 C 
ATOM     37  F3  UNL A   1      50.190   5.364  51.952  1.00  0.00    +0.000 F 
ATOM     38  C30 UNL A   1      48.245   6.186  53.010  1.00  0.00    +0.000 C 
ATOM     39  F4  UNL A   1      48.103   5.031  53.676  1.00  0.00    +0.000 F 
ATOM     40  C31 UNL A   1      47.324   7.208  53.186  1.00  0.00    +0.000 C 
ATOM     41  F5  UNL A   1      46.300   7.046  54.034  1.00  0.00    +0.000 F 
ATOM     42  C32 UNL A   1      47.464   8.404  52.486  1.00  0.00    +0.000 C 
ATOM     43  F6  UNL A   1      46.554   9.371  52.671  1.00  0.00    +0.000 F 
ENDBRANCH   32   33
BRANCH   49   50
ATOM     50  C38 UNL A   1      52.663  14.479  52.247  1.00  0.00    +0.000 C 
ATOM     51  C39 UNL A   1      54.010  14.209  51.966  1.00  0.00    +0.000 C 
ATOM     52  F7  UNL A   1      54.341  13.450  50.911  1.00  0.00    +0.000 F 
ATOM     53  C40 UNL A   1      55.022  14.688  52.794  1.00  0.00    +0.000 C 
ATOM     54  F8  UNL A   1      56.299  14.380  52.533  1.00  0.00    +0.000 F 
ATOM     55  C41 UNL A   1      54.708  15.470  53.896  1.00  0.00    +0.000 C 
ATOM     56  F9  UNL A   1      55.684  15.934  54.690  1.00  0.00    +0.000 F 
ATOM     57  C42 UNL A   1      53.383  15.765  54.181  1.00  0.00    +0.000 C 
ATOM     58  F10 UNL A   1      53.080  16.530  55.239  1.00  0.00    +0.000 F 
ATOM     59  C43 UNL A   1      52.368  15.265  53.371  1.00  0.00    +0.000 C 
ATOM     60  F11 UNL A   1      51.094  15.555  53.678  1.00  0.00    +0.000 F 
ENDBRANCH   49   50
BRANCH   64   65
ATOM     65  C47 UNL A   1      49.543  17.222  46.666  1.00  0.00    +0.000 C 
ATOM     66  C48 UNL A   1      48.596  18.243  46.831  1.00  0.00    +0.000 C 
ATOM     67  F12 UNL A   1      47.549  18.058  47.647  1.00  0.00    +0.000 F 
ATOM     68  C49 UNL A   1      48.690  19.434  46.114  1.00  0.00    +0.000 C 
ATOM     69  F13 UNL A   1      47.738  20.368  46.245  1.00  0.00    +0.000 F 
ATOM     70  C50 UNL A   1      49.751  19.642  45.247  1.00  0.00    +0.000 C 
ATOM     71  F14 UNL A   1      49.836  20.784  44.551  1.00  0.00    +0.000 F 
ATOM     72  C51 UNL A   1      50.716  18.658  45.090  1.00  0.00    +0.000 C 
ATOM     73  F15 UNL A   1      51.750  18.860  44.261  1.00  0.00    +0.000 F 
ATOM     74  C52 UNL A   1      50.608  17.455  45.783  1.00  0.00    +0.000 C 
ATOM     75  F16 UNL A   1      51.543  16.513  45.594  1.00  0.00    +0.000 F 
ENDBRANCH   64   65
TORSDOF 21
ENDMDL
MODEL 7
REMARK VINA RESULT:     -10.0     46.414     51.304
ROOT
ATOM     28  C23 UNL A   1      13.946  54.061   4.646  1.00  0.00    +0.000 C 
ATOM     29  C24 UNL A   1      13.558  52.611   4.570  1.00  0.00    +0.000 C 
ATOM     30  N3  UNL A   1      13.980  51.683   3.747  1.00  0.00    +0.000 N 
ATOM     31  C25 UNL A   1      13.327  50.518   4.126  1.00  0.00    +0.000 C 
ATOM     32  C26 UNL A   1      13.374  49.295   3.544  1.00  0.00    +0.000 C 
ATOM     44  C33 UNL A   1      14.159  48.980   2.380  1.00  0.00    +0.000 C 
ATOM     45  C34 UNL A   1      14.260  47.775   1.707  1.00  0.00    +0.000 C 
ATOM     46  C35 UNL A   1      15.157  47.940   0.646  1.00  0.00    +0.000 C 
ATOM     47  C36 UNL A   1      15.583  49.258   0.636  1.00  0.00    +0.000 C 
ATOM     48  N4  UNL A   1      14.973  49.882   1.711  1.00  0.00    +0.000 N 
ATOM     49  C37 UNL A   1      16.482  49.900  -0.287  1.00  0.00    +0.000 C 
ATOM     61  C44 UNL A   1      16.869  51.197  -0.218  1.00  0.00    +0.000 C 
ATOM     62  N5  UNL A   1      16.496  52.173   0.695  1.00  0.00    +0.000 N 
ATOM     63  C45 UNL A   1      17.147  53.256   0.350  1.00  0.00    +0.000 C 
ATOM     64  C46 UNL A   1      17.102  54.631   0.964  1.00  0.00    +0.000 C 
ATOM     76  C53 UNL A   1      16.290  54.854   2.014  1.00  0.00    +0.000 C 
ATOM     77  C54 UNL A   1      16.136  56.127   2.711  1.00  0.00    +0.000 C 
ATOM     78  C55 UNL A   1      15.286  55.963   3.739  1.00  0.00    +0.000 C 
ATOM     79  C56 UNL A   1      14.809  54.579   3.751  1.00  0.00    +0.000 C 
ATOM     80  N6  UNL A   1      15.448  53.999   2.684  1.00  0.00    +0.000 N 
ATOM     81  C57 UNL A   1      18.040  53.077  -0.805  1.00  0.00    +0.000 C 
ATOM     82  C58 UNL A   1      17.796  51.818  -1.140  1.00  0.00    +0.000 C 
ATOM     83  C59 UNL A   1      12.522  50.840   5.284  1.00  0.00    +0.000 C 
ATOM     84  C60 UNL A   1      12.583  52.134   5.563  1.00  0.00    +0.000 C 
ATOM    119  H31 UNL A   1      13.760  46.905   1.946  1.00  0.00    +0.000 H 
ATOM    120  H32 UNL A   1      15.450  47.205  -0.016  1.00  0.00    +0.000 H 
ATOM    121  H33 UNL A   1      15.099  50.825   1.963  1.00  0.00    +0.000 H 
ATOM    122  H34 UNL A   1      16.603  57.011   2.455  1.00  0.00    +0.000 H 
ATOM    123  H35 UNL A   1      15.014  56.697   4.413  1.00  0.00    +0.000 H 
ATOM    124  H36 UNL A   1      15.317  53.059   2.423  1.00  0.00    +0.000 H 
ATOM    125  H37 UNL A   1      18.686  53.753  -1.241  1.00  0.00    +0.000 H 
ATOM    126  H38 UNL A   1      18.213  51.342  -1.955  1.00  0.00    +0.000 H 
ATOM    127  H39 UNL A   1      11.973  50.152   5.823  1.00  0.00    +0.000 H 
ATOM    128  H40 UNL A   1      12.079  52.668   6.288  1.00  0.00    +0.000 H 
ENDROOT
BRANCH   28   27
ATOM    129  H41 UNL A   1      15.216  54.902   6.851  1.00  0.00    +0.000 H 
ATOM    130  H42 UNL A   1      14.347  56.221   8.690  1.00  0.00    +0.000 H 
ATOM     27  C22 UNL A   1      13.416  54.915   5.738  1.00  0.00    +0.000 C 
ATOM    117  H29 UNL A   1      10.665  56.600   6.688  1.00  0.00    +0.000 H 
ATOM     86  C62 UNL A   1      13.758  56.036   7.863  1.00  0.00    +0.000 C 
ATOM     85  C61 UNL A   1      14.243  55.246   6.824  1.00  0.00    +0.000 C 
ATOM     24  C19 UNL A   1      12.471  56.578   7.783  1.00  0.00    +0.000 C 
ATOM     25  C20 UNL A   1      11.629  56.232   6.723  1.00  0.00    +0.000 C 
ATOM     26  C21 UNL A   1      12.095  55.391   5.713  1.00  0.00    +0.000 C 
ATOM    118  H30 UNL A   1      11.467  55.117   4.941  1.00  0.00    +0.000 H 
BRANCH   24   22
ATOM     22  C18 UNL A   1      11.968  57.510   8.815  1.00  0.00    +0.000 C 
ATOM     23  O2  UNL A   1      12.474  58.624   8.928  1.00  0.00    +0.000 O 
BRANCH   22   21
ATOM    116  H28 UNL A   1      10.050  57.340   9.361  1.00  0.00    +0.000 H 
ATOM     21  N2  UNL A   1      10.961  57.119   9.659  1.00  0.00    +0.000 N 
BRANCH   21   20
ATOM    114  H26 UNL A   1      11.612  57.026  11.613  1.00  0.00    +0.000 H 
ATOM    115  H27 UNL A   1      10.048  56.264  11.281  1.00  0.00    +0.000 H 
ATOM     20  C17 UNL A   1      11.047  56.424  10.932  1.00  0.00    +0.000 C 
BRANCH   20   19
ATOM    113  H25 UNL A   1      11.756  54.661  11.805  1.00  0.00    +0.000 H 
ATOM     19  C16 UNL A   1      11.719  55.060  10.813  1.00  0.00    +0.000 C 
ATOM    112  H24 UNL A   1      12.683  55.202  10.373  1.00  0.00    +0.000 H 
BRANCH   19   18
ATOM     18  C15 UNL A   1      10.961  54.031   9.971  1.00  0.00    +0.000 C 
ATOM    110  H22 UNL A   1      10.394  53.414  10.637  1.00  0.00    +0.000 H 
ATOM    111  H23 UNL A   1      10.360  54.596   9.290  1.00  0.00    +0.000 H 
BRANCH   18   17
ATOM     17  C14 UNL A   1      11.832  53.115   9.105  1.00  0.00    +0.000 C 
ATOM    108  H20 UNL A   1      11.211  52.328   8.731  1.00  0.00    +0.000 H 
ATOM    109  H21 UNL A   1      12.245  53.739   8.340  1.00  0.00    +0.000 H 
BRANCH   17   16
ATOM    106  H18 UNL A   1      13.205  53.018  10.725  1.00  0.00    +0.000 H 
ATOM    107  H19 UNL A   1      12.768  51.452   9.991  1.00  0.00    +0.000 H 
ATOM     16  C13 UNL A   1      13.027  52.476   9.819  1.00  0.00    +0.000 C 
BRANCH   16   15
ATOM    105  H17 UNL A   1      14.675  53.475   8.937  1.00  0.00    +0.000 H 
ATOM     15  C12 UNL A   1      14.317  52.469   9.008  1.00  0.00    +0.000 C 
ATOM    104  H16 UNL A   1      14.115  52.069   8.035  1.00  0.00    +0.000 H 
BRANCH   15   14
ATOM     14  N1  UNL A   1      15.343  51.662   9.646  1.00  0.00    +0.000 N 
ATOM    103  H15 UNL A   1      16.048  52.166  10.112  1.00  0.00    +0.000 H 
BRANCH   14   12
ATOM     12  C11 UNL A   1      15.466  50.302   9.692  1.00  0.00    +0.000 C 
ATOM     13  O1  UNL A   1      15.830  49.804  10.760  1.00  0.00    +0.000 O 
BRANCH   12    9
ATOM      9  C9  UNL A   1      15.118  49.424   8.494  1.00  0.00    +0.000 C 
ATOM    100  H12 UNL A   1      14.774  50.020   7.676  1.00  0.00    +0.000 H 
BRANCH    9    8
ATOM     98  H10 UNL A   1      12.852  45.584   9.896  1.00  0.00    +0.000 H 
ATOM     99  H11 UNL A   1      14.844  46.902   9.550  1.00  0.00    +0.000 H 
ATOM    132  H44 UNL A   1      10.520  48.710   8.342  1.00  0.00    +0.000 H 
ATOM      5  C5  UNL A   1      11.518  47.048   9.172  1.00  0.00    +0.000 C 
ATOM      6  C6  UNL A   1      12.774  46.530   9.492  1.00  0.00    +0.000 C 
ATOM      7  C7  UNL A   1      13.929  47.285   9.268  1.00  0.00    +0.000 C 
ATOM    131  H43 UNL A   1      12.521  49.996   7.920  1.00  0.00    +0.000 H 
ATOM      8  C8  UNL A   1      13.871  48.556   8.667  1.00  0.00    +0.000 C 
ATOM     87  C63 UNL A   1      12.600  49.059   8.346  1.00  0.00    +0.000 C 
ATOM     88  C64 UNL A   1      11.442  48.316   8.592  1.00  0.00    +0.000 C 
BRANCH    5    4
ATOM     97  H9  UNL A   1      10.263  46.162  10.601  1.00  0.00    +0.000 H 
ATOM      4  C4  UNL A   1      10.266  46.288   9.538  1.00  0.00    +0.000 C 
ATOM     96  H8  UNL A   1      10.277  45.346   9.029  1.00  0.00    +0.000 H 
BRANCH    4    2
ATOM      2  C2  UNL A   1       8.978  47.044   9.152  1.00  0.00    +0.000 C 
ATOM     92  H4  UNL A   1       9.263  47.851   8.511  1.00  0.00    +0.000 H 
BRANCH    2    1
ATOM      1  C1  UNL A   1       7.998  46.158   8.377  1.00  0.00    +0.000 C 
ATOM     90  H2  UNL A   1       7.122  46.723   8.134  1.00  0.00    +0.000 H 
ATOM     91  H3  UNL A   1       7.724  45.317   8.980  1.00  0.00    +0.000 H 
ATOM     89  H1  UNL A   1       8.463  45.814   7.476  1.00  0.00    +0.000 H 
ENDBRANCH    2    1
BRANCH    2    3
ATOM      3  C3  UNL A   1       8.296  47.594  10.406  1.00  0.00    +0.000 C 
ATOM     93  H5  UNL A   1       7.317  47.171  10.494  1.00  0.00    +0.000 H 
ATOM     94  H6  UNL A   1       8.220  48.658  10.333  1.00  0.00    +0.000 H 
ATOM     95  H7  UNL A   1       8.875  47.337  11.269  1.00  0.00    +0.000 H 
ENDBRANCH    2    3
ENDBRANCH    4    2
ENDBRANCH    5    4
ENDBRANCH    9    8
BRANCH    9   10
ATOM     10  C10 UNL A   1      16.412  48.730   8.051  1.00  0.00    +0.000 C 
ATOM     11  F1  UNL A   1      17.074  49.483   7.131  1.00  0.00    +0.000 F 
ATOM    101  H13 UNL A   1      16.170  47.781   7.619  1.00  0.00    +0.000 H 
ATOM    102  H14 UNL A   1      17.041  48.601   8.907  1.00  0.00    +0.000 H 
ENDBRANCH    9   10
ENDBRANCH   12    9
ENDBRANCH   14   12
ENDBRANCH   15   14
ENDBRANCH   16   15
ENDBRANCH   17   16
ENDBRANCH   18   17
ENDBRANCH   19   18
ENDBRANCH   20   19
ENDBRANCH   21   20
ENDBRANCH   22   21
ENDBRANCH   24   22
ENDBRANCH   28   27
BRANCH   32   33
ATOM     33  C27 UNL A   1      12.535  48.207   4.145  1.00  0.00    +0.000 C 
ATOM     34  C28 UNL A   1      13.059  47.330   5.105  1.00  0.00    +0.000 C 
ATOM     35  F2  UNL A   1      14.352  47.408   5.455  1.00  0.00    +0.000 F 
ATOM     36  C29 UNL A   1      12.264  46.348   5.690  1.00  0.00    +0.000 C 
ATOM     37  F3  UNL A   1      12.795  45.499   6.580  1.00  0.00    +0.000 F 
ATOM     38  C30 UNL A   1      10.923  46.245   5.348  1.00  0.00    +0.000 C 
ATOM     39  F4  UNL A   1      10.156  45.309   5.923  1.00  0.00    +0.000 F 
ATOM     40  C31 UNL A   1      10.380  47.110   4.409  1.00  0.00    +0.000 C 
ATOM     41  F5  UNL A   1       9.083  47.018   4.088  1.00  0.00    +0.000 F 
ATOM     42  C32 UNL A   1      11.180  48.075   3.803  1.00  0.00    +0.000 C 
ATOM     43  F6  UNL A   1      10.629  48.892   2.893  1.00  0.00    +0.000 F 
ENDBRANCH   32   33
BRANCH   49   50
ATOM     50  C38 UNL A   1      17.019  49.082  -1.423  1.00  0.00    +0.000 C 
ATOM     51  C39 UNL A   1      18.170  48.293  -1.282  1.00  0.00    +0.000 C 
ATOM     52  F7  UNL A   1      18.851  48.294  -0.126  1.00  0.00    +0.000 F 
ATOM     53  C40 UNL A   1      18.647  47.530  -2.344  1.00  0.00    +0.000 C 
ATOM     54  F8  UNL A   1      19.774  46.820  -2.201  1.00  0.00    +0.000 F 
ATOM     55  C41 UNL A   1      17.967  47.516  -3.552  1.00  0.00    +0.000 C 
ATOM     56  F9  UNL A   1      18.425  46.776  -4.572  1.00  0.00    +0.000 F 
ATOM     57  C42 UNL A   1      16.816  48.274  -3.707  1.00  0.00    +0.000 C 
ATOM     58  F10 UNL A   1      16.151  48.252  -4.871  1.00  0.00    +0.000 F 
ATOM     59  C43 UNL A   1      16.351  49.059  -2.656  1.00  0.00    +0.000 C 
ATOM     60  F11 UNL A   1      15.242  49.792  -2.839  1.00  0.00    +0.000 F 
ENDBRANCH   49   50
BRANCH   64   65
ATOM     65  C47 UNL A   1      17.929  55.732   0.405  1.00  0.00    +0.000 C 
ATOM     66  C48 UNL A   1      17.478  56.487  -0.687  1.00  0.00    +0.000 C 
ATOM     67  F12 UNL A   1      16.281  56.227  -1.230  1.00  0.00    +0.000 F 
ATOM     68  C49 UNL A   1      18.280  57.472  -1.261  1.00  0.00    +0.000 C 
ATOM     69  F13 UNL A   1      17.848  58.136  -2.342  1.00  0.00    +0.000 F 
ATOM     70  C50 UNL A   1      19.531  57.746  -0.732  1.00  0.00    +0.000 C 
ATOM     71  F14 UNL A   1      20.304  58.688  -1.289  1.00  0.00    +0.000 F 
ATOM     72  C51 UNL A   1      19.986  57.033   0.367  1.00  0.00    +0.000 C 
ATOM     73  F15 UNL A   1      21.190  57.303   0.889  1.00  0.00    +0.000 F 
ATOM     74  C52 UNL A   1      19.199  56.027   0.924  1.00  0.00    +0.000 C 
ATOM     75  F16 UNL A   1      19.674  55.338   1.971  1.00  0.00    +0.000 F 
ENDBRANCH   64   65
TORSDOF 21
ENDMDL
MODEL 8
REMARK VINA RESULT:      -9.9     46.385     51.463
ROOT
ATOM     28  C23 UNL A   1      13.656  53.827   5.306  1.00  0.00    +0.000 C 
ATOM     29  C24 UNL A   1      13.251  52.380   5.352  1.00  0.00    +0.000 C 
ATOM     30  N3  UNL A   1      13.636  51.388   4.589  1.00  0.00    +0.000 N 
ATOM     31  C25 UNL A   1      12.982  50.263   5.075  1.00  0.00    +0.000 C 
ATOM     32  C26 UNL A   1      12.998  49.000   4.585  1.00  0.00    +0.000 C 
ATOM     44  C33 UNL A   1      13.742  48.588   3.425  1.00  0.00    +0.000 C 
ATOM     45  C34 UNL A   1      13.808  47.334   2.842  1.00  0.00    +0.000 C 
ATOM     46  C35 UNL A   1      14.673  47.408   1.744  1.00  0.00    +0.000 C 
ATOM     47  C36 UNL A   1      15.113  48.715   1.622  1.00  0.00    +0.000 C 
ATOM     48  N4  UNL A   1      14.545  49.426   2.666  1.00  0.00    +0.000 N 
ATOM     49  C37 UNL A   1      15.991  49.274   0.627  1.00  0.00    +0.000 C 
ATOM     61  C44 UNL A   1      16.394  50.567   0.586  1.00  0.00    +0.000 C 
ATOM     62  N5  UNL A   1      16.060  51.613   1.433  1.00  0.00    +0.000 N 
ATOM     63  C45 UNL A   1      16.713  52.659   0.988  1.00  0.00    +0.000 C 
ATOM     64  C46 UNL A   1      16.702  54.077   1.498  1.00  0.00    +0.000 C 
ATOM     76  C53 UNL A   1      15.926  54.388   2.553  1.00  0.00    +0.000 C 
ATOM     77  C54 UNL A   1      15.808  55.712   3.156  1.00  0.00    +0.000 C 
ATOM     78  C55 UNL A   1      14.989  55.638   4.218  1.00  0.00    +0.000 C 
ATOM     79  C56 UNL A   1      14.497  54.265   4.350  1.00  0.00    +0.000 C 
ATOM     80  N6  UNL A   1      15.096  53.597   3.310  1.00  0.00    +0.000 N 
ATOM     81  C57 UNL A   1      17.566  52.381  -0.176  1.00  0.00    +0.000 C 
ATOM     82  C58 UNL A   1      17.298  51.104  -0.408  1.00  0.00    +0.000 C 
ATOM     83  C59 UNL A   1      12.218  50.682   6.229  1.00  0.00    +0.000 C 
ATOM     84  C60 UNL A   1      12.302  51.993   6.408  1.00  0.00    +0.000 C 
ATOM    119  H31 UNL A   1      13.307  46.492   3.161  1.00  0.00    +0.000 H 
ATOM    120  H32 UNL A   1      14.937  46.621   1.131  1.00  0.00    +0.000 H 
ATOM    121  H33 UNL A   1      14.689  50.384   2.842  1.00  0.00    +0.000 H 
ATOM    122  H34 UNL A   1      16.277  56.568   2.820  1.00  0.00    +0.000 H 
ATOM    123  H35 UNL A   1      14.747  56.423   4.843  1.00  0.00    +0.000 H 
ATOM    124  H36 UNL A   1      14.946  52.643   3.125  1.00  0.00    +0.000 H 
ATOM    125  H37 UNL A   1      18.206  53.014  -0.681  1.00  0.00    +0.000 H 
ATOM    126  H38 UNL A   1      17.684  50.563  -1.198  1.00  0.00    +0.000 H 
ATOM    127  H39 UNL A   1      11.678  50.044   6.835  1.00  0.00    +0.000 H 
ATOM    128  H40 UNL A   1      11.827  52.586   7.106  1.00  0.00    +0.000 H 
ENDROOT
BRANCH   28   27
ATOM    129  H41 UNL A   1      11.328  55.153   5.381  1.00  0.00    +0.000 H 
ATOM    130  H42 UNL A   1      10.553  56.761   7.022  1.00  0.00    +0.000 H 
ATOM     27  C22 UNL A   1      13.171  54.768   6.347  1.00  0.00    +0.000 C 
ATOM    117  H29 UNL A   1      14.034  56.127   9.300  1.00  0.00    +0.000 H 
ATOM     86  C62 UNL A   1      11.448  56.268   7.165  1.00  0.00    +0.000 C 
ATOM     85  C61 UNL A   1      11.913  55.373   6.204  1.00  0.00    +0.000 C 
ATOM     24  C19 UNL A   1      12.198  56.497   8.323  1.00  0.00    +0.000 C 
ATOM     25  C20 UNL A   1      13.465  55.924   8.463  1.00  0.00    +0.000 C 
ATOM     26  C21 UNL A   1      13.956  55.075   7.471  1.00  0.00    +0.000 C 
ATOM    118  H30 UNL A   1      14.900  54.669   7.563  1.00  0.00    +0.000 H 
BRANCH   24   22
ATOM     22  C18 UNL A   1      11.682  57.353   9.412  1.00  0.00    +0.000 C 
ATOM     23  O2  UNL A   1      11.948  58.552   9.423  1.00  0.00    +0.000 O 
BRANCH   22   21
ATOM    116  H28 UNL A   1      10.116  57.295  10.657  1.00  0.00    +0.000 H 
ATOM     21  N2  UNL A   1      10.934  56.802  10.420  1.00  0.00    +0.000 N 
BRANCH   21   20
ATOM    114  H26 UNL A   1      12.226  55.389  11.183  1.00  0.00    +0.000 H 
ATOM    115  H27 UNL A   1      10.812  55.763  12.182  1.00  0.00    +0.000 H 
ATOM     20  C17 UNL A   1      11.176  55.594  11.189  1.00  0.00    +0.000 C 
BRANCH   20   19
ATOM    113  H25 UNL A   1       9.725  54.767   9.931  1.00  0.00    +0.000 H 
ATOM     19  C16 UNL A   1      10.439  54.382  10.629  1.00  0.00    +0.000 C 
ATOM    112  H24 UNL A   1       9.996  53.856  11.448  1.00  0.00    +0.000 H 
BRANCH   19   18
ATOM     18  C15 UNL A   1      11.308  53.394   9.846  1.00  0.00    +0.000 C 
ATOM    110  H22 UNL A   1      11.088  53.516   8.805  1.00  0.00    +0.000 H 
ATOM    111  H23 UNL A   1      12.319  53.627  10.103  1.00  0.00    +0.000 H 
BRANCH   18   17
ATOM     17  C14 UNL A   1      11.111  51.917  10.201  1.00  0.00    +0.000 C 
ATOM    108  H20 UNL A   1      11.091  51.359   9.287  1.00  0.00    +0.000 H 
ATOM    109  H21 UNL A   1      11.925  51.659  10.846  1.00  0.00    +0.000 H 
BRANCH   17   16
ATOM    106  H18 UNL A   1       9.187  52.443  10.935  1.00  0.00    +0.000 H 
ATOM    107  H19 UNL A   1       9.410  50.721  10.525  1.00  0.00    +0.000 H 
ATOM     16  C13 UNL A   1       9.834  51.591  10.982  1.00  0.00    +0.000 C 
BRANCH   16   15
ATOM    105  H17 UNL A   1       9.556  50.327  12.660  1.00  0.00    +0.000 H 
ATOM     15  C12 UNL A   1      10.061  51.247  12.448  1.00  0.00    +0.000 C 
ATOM    104  H16 UNL A   1       9.678  52.040  13.057  1.00  0.00    +0.000 H 
BRANCH   15   14
ATOM     14  N1  UNL A   1      11.474  51.070  12.740  1.00  0.00    +0.000 N 
ATOM    103  H15 UNL A   1      11.933  50.383  12.206  1.00  0.00    +0.000 H 
BRANCH   14   12
ATOM     12  C11 UNL A   1      12.255  51.724  13.650  1.00  0.00    +0.000 C 
ATOM     13  O1  UNL A   1      11.682  52.267  14.599  1.00  0.00    +0.000 O 
BRANCH   12    9
ATOM      9  C9  UNL A   1      13.776  51.743  13.537  1.00  0.00    +0.000 C 
ATOM    100  H12 UNL A   1      14.159  52.718  13.754  1.00  0.00    +0.000 H 
BRANCH    9    8
ATOM     98  H10 UNL A   1      14.901  49.334   9.693  1.00  0.00    +0.000 H 
ATOM     99  H11 UNL A   1      14.121  49.513  11.970  1.00  0.00    +0.000 H 
ATOM    132  H44 UNL A   1      15.295  53.509   9.505  1.00  0.00    +0.000 H 
ATOM      5  C5  UNL A   1      15.137  51.409   9.401  1.00  0.00    +0.000 C 
ATOM      6  C6  UNL A   1      14.819  50.263  10.133  1.00  0.00    +0.000 C 
ATOM      7  C7  UNL A   1      14.391  50.367  11.460  1.00  0.00    +0.000 C 
ATOM    131  H43 UNL A   1      14.593  53.681  11.810  1.00  0.00    +0.000 H 
ATOM      8  C8  UNL A   1      14.321  51.610  12.114  1.00  0.00    +0.000 C 
ATOM     87  C63 UNL A   1      14.650  52.751  11.366  1.00  0.00    +0.000 C 
ATOM     88  C64 UNL A   1      15.055  52.653  10.031  1.00  0.00    +0.000 C 
BRANCH    5    4
ATOM     97  H9  UNL A   1      15.564  52.301   7.551  1.00  0.00    +0.000 H 
ATOM      4  C4  UNL A   1      15.469  51.305   7.933  1.00  0.00    +0.000 C 
ATOM     96  H8  UNL A   1      14.684  50.768   7.441  1.00  0.00    +0.000 H 
BRANCH    4    2
ATOM      2  C2  UNL A   1      16.804  50.576   7.675  1.00  0.00    +0.000 C 
ATOM     92  H4  UNL A   1      17.230  50.996   6.788  1.00  0.00    +0.000 H 
BRANCH    2    1
ATOM      1  C1  UNL A   1      17.805  50.784   8.815  1.00  0.00    +0.000 C 
ATOM     90  H2  UNL A   1      17.289  50.759   9.752  1.00  0.00    +0.000 H 
ATOM     91  H3  UNL A   1      18.286  51.733   8.698  1.00  0.00    +0.000 H 
ATOM     89  H1  UNL A   1      18.540  50.007   8.791  1.00  0.00    +0.000 H 
ENDBRANCH    2    1
BRANCH    2    3
ATOM      3  C3  UNL A   1      16.555  49.081   7.471  1.00  0.00    +0.000 C 
ATOM     93  H5  UNL A   1      17.443  48.620   7.090  1.00  0.00    +0.000 H 
ATOM     94  H6  UNL A   1      15.756  48.944   6.773  1.00  0.00    +0.000 H 
ATOM     95  H7  UNL A   1      16.293  48.632   8.406  1.00  0.00    +0.000 H 
ENDBRANCH    2    3
ENDBRANCH    4    2
ENDBRANCH    5    4
ENDBRANCH    9    8
BRANCH    9   10
ATOM     10  C10 UNL A   1      14.321  50.783  14.600  1.00  0.00    +0.000 C 
ATOM     11  F1  UNL A   1      13.566  49.653  14.663  1.00  0.00    +0.000 F 
ATOM    101  H13 UNL A   1      14.304  51.269  15.553  1.00  0.00    +0.000 H 
ATOM    102  H14 UNL A   1      15.322  50.513  14.337  1.00  0.00    +0.000 H 
ENDBRANCH    9   10
ENDBRANCH   12    9
ENDBRANCH   14   12
ENDBRANCH   15   14
ENDBRANCH   16   15
ENDBRANCH   17   16
ENDBRANCH   18   17
ENDBRANCH   19   18
ENDBRANCH   20   19
ENDBRANCH   21   20
ENDBRANCH   22   21
ENDBRANCH   24   22
ENDBRANCH   28   27
BRANCH   32   33
ATOM     33  C27 UNL A   1      12.166  47.971   5.292  1.00  0.00    +0.000 C 
ATOM     34  C28 UNL A   1      10.865  47.669   4.863  1.00  0.00    +0.000 C 
ATOM     35  F2  UNL A   1      10.314  48.350   3.847  1.00  0.00    +0.000 F 
ATOM     36  C29 UNL A   1      10.113  46.683   5.497  1.00  0.00    +0.000 C 
ATOM     37  F3  UNL A   1       8.860  46.435   5.092  1.00  0.00    +0.000 F 
ATOM     38  C30 UNL A   1      10.657  45.962   6.549  1.00  0.00    +0.000 C 
ATOM     39  F4  UNL A   1       9.937  45.003   7.148  1.00  0.00    +0.000 F 
ATOM     40  C31 UNL A   1      11.946  46.236   6.982  1.00  0.00    +0.000 C 
ATOM     41  F5  UNL A   1      12.476  45.532   7.990  1.00  0.00    +0.000 F 
ATOM     42  C32 UNL A   1      12.691  47.239   6.367  1.00  0.00    +0.000 C 
ATOM     43  F6  UNL A   1      13.931  47.487   6.813  1.00  0.00    +0.000 F 
ENDBRANCH   32   33
BRANCH   49   50
ATOM     50  C38 UNL A   1      16.483  48.365  -0.460  1.00  0.00    +0.000 C 
ATOM     51  C39 UNL A   1      15.677  48.026  -1.556  1.00  0.00    +0.000 C 
ATOM     52  F7  UNL A   1      14.415  48.476  -1.631  1.00  0.00    +0.000 F 
ATOM     53  C40 UNL A   1      16.155  47.191  -2.562  1.00  0.00    +0.000 C 
ATOM     54  F8  UNL A   1      15.353  46.843  -3.577  1.00  0.00    +0.000 F 
ATOM     55  C41 UNL A   1      17.453  46.707  -2.507  1.00  0.00    +0.000 C 
ATOM     56  F9  UNL A   1      17.913  45.907  -3.480  1.00  0.00    +0.000 F 
ATOM     57  C42 UNL A   1      18.273  47.045  -1.441  1.00  0.00    +0.000 C 
ATOM     58  F10 UNL A   1      19.532  46.587  -1.393  1.00  0.00    +0.000 F 
ATOM     59  C43 UNL A   1      17.790  47.858  -0.420  1.00  0.00    +0.000 C 
ATOM     60  F11 UNL A   1      18.601  48.158   0.606  1.00  0.00    +0.000 F 
ENDBRANCH   49   50
BRANCH   64   65
ATOM     65  C47 UNL A   1      17.524  55.121   0.833  1.00  0.00    +0.000 C 
ATOM     66  C48 UNL A   1      17.081  55.744  -0.343  1.00  0.00    +0.000 C 
ATOM     67  F12 UNL A   1      15.895  55.408  -0.871  1.00  0.00    +0.000 F 
ATOM     68  C49 UNL A   1      17.878  56.671  -1.010  1.00  0.00    +0.000 C 
ATOM     69  F13 UNL A   1      17.455  57.206  -2.164  1.00  0.00    +0.000 F 
ATOM     70  C50 UNL A   1      19.117  57.021  -0.497  1.00  0.00    +0.000 C 
ATOM     71  F14 UNL A   1      19.887  57.907  -1.143  1.00  0.00    +0.000 F 
ATOM     72  C51 UNL A   1      19.564  56.440   0.681  1.00  0.00    +0.000 C 
ATOM     73  F15 UNL A   1      20.756  56.784   1.187  1.00  0.00    +0.000 F 
ATOM     74  C52 UNL A   1      18.781  55.491   1.334  1.00  0.00    +0.000 C 
ATOM     75  F16 UNL A   1      19.249  54.928   2.458  1.00  0.00    +0.000 F 
ENDBRANCH   64   65
TORSDOF 21
ENDMDL
MODEL 9
REMARK VINA RESULT:      -9.9     20.495     25.415
ROOT
ATOM     28  C23 UNL A   1      40.805  27.779  28.957  1.00  0.00    +0.000 C 
ATOM     29  C24 UNL A   1      39.931  28.957  29.286  1.00  0.00    +0.000 C 
ATOM     30  N3  UNL A   1      40.253  30.095  29.849  1.00  0.00    +0.000 N 
ATOM     31  C25 UNL A   1      39.080  30.838  29.895  1.00  0.00    +0.000 C 
ATOM     32  C26 UNL A   1      38.875  32.059  30.444  1.00  0.00    +0.000 C 
ATOM     44  C33 UNL A   1      39.894  32.837  31.097  1.00  0.00    +0.000 C 
ATOM     45  C34 UNL A   1      39.780  34.078  31.699  1.00  0.00    +0.000 C 
ATOM     46  C35 UNL A   1      41.039  34.447  32.184  1.00  0.00    +0.000 C 
ATOM     47  C36 UNL A   1      41.928  33.418  31.918  1.00  0.00    +0.000 C 
ATOM     48  N4  UNL A   1      41.215  32.442  31.240  1.00  0.00    +0.000 N 
ATOM     49  C37 UNL A   1      43.325  33.333  32.255  1.00  0.00    +0.000 C 
ATOM     61  C44 UNL A   1      44.137  32.295  31.940  1.00  0.00    +0.000 C 
ATOM     62  N5  UNL A   1      43.832  31.118  31.273  1.00  0.00    +0.000 N 
ATOM     63  C45 UNL A   1      44.953  30.443  31.202  1.00  0.00    +0.000 C 
ATOM     64  C46 UNL A   1      45.209  29.079  30.616  1.00  0.00    +0.000 C 
ATOM     76  C53 UNL A   1      44.183  28.393  30.079  1.00  0.00    +0.000 C 
ATOM     77  C54 UNL A   1      44.272  27.066  29.479  1.00  0.00    +0.000 C 
ATOM     78  C55 UNL A   1      43.066  26.719  29.001  1.00  0.00    +0.000 C 
ATOM     79  C56 UNL A   1      42.109  27.787  29.294  1.00  0.00    +0.000 C 
ATOM     80  N6  UNL A   1      42.858  28.734  29.946  1.00  0.00    +0.000 N 
ATOM     81  C57 UNL A   1      46.109  31.139  31.788  1.00  0.00    +0.000 C 
ATOM     82  C58 UNL A   1      45.547  32.240  32.265  1.00  0.00    +0.000 C 
ATOM     83  C59 UNL A   1      38.051  30.046  29.256  1.00  0.00    +0.000 C 
ATOM     84  C60 UNL A   1      38.511  28.851  28.915  1.00  0.00    +0.000 C 
ATOM    119  H31 UNL A   1      38.915  34.635  31.777  1.00  0.00    +0.000 H 
ATOM    120  H32 UNL A   1      41.267  35.334  32.658  1.00  0.00    +0.000 H 
ATOM    121  H33 UNL A   1      41.592  31.595  30.911  1.00  0.00    +0.000 H 
ATOM    122  H34 UNL A   1      45.125  26.487  29.430  1.00  0.00    +0.000 H 
ATOM    123  H35 UNL A   1      42.849  25.840  28.506  1.00  0.00    +0.000 H 
ATOM    124  H36 UNL A   1      42.483  29.578  30.287  1.00  0.00    +0.000 H 
ATOM    125  H37 UNL A   1      47.098  30.846  31.821  1.00  0.00    +0.000 H 
ATOM    126  H38 UNL A   1      46.050  32.965  32.800  1.00  0.00    +0.000 H 
ATOM    127  H39 UNL A   1      37.087  30.370  29.087  1.00  0.00    +0.000 H 
ATOM    128  H40 UNL A   1      38.005  28.054  28.498  1.00  0.00    +0.000 H 
ENDROOT
BRANCH   28   27
ATOM    129  H41 UNL A   1      39.213  25.831  29.884  1.00  0.00    +0.000 H 
ATOM    130  H42 UNL A   1      38.359  23.887  28.715  1.00  0.00    +0.000 H 
ATOM     27  C22 UNL A   1      40.244  26.622  28.214  1.00  0.00    +0.000 C 
ATOM    117  H29 UNL A   1      40.143  25.238  25.151  1.00  0.00    +0.000 H 
ATOM     86  C62 UNL A   1      38.903  24.600  28.204  1.00  0.00    +0.000 C 
ATOM     85  C61 UNL A   1      39.427  25.697  28.883  1.00  0.00    +0.000 C 
ATOM     24  C19 UNL A   1      39.117  24.466  26.829  1.00  0.00    +0.000 C 
ATOM     25  C20 UNL A   1      39.953  25.363  26.157  1.00  0.00    +0.000 C 
ATOM     26  C21 UNL A   1      40.527  26.428  26.852  1.00  0.00    +0.000 C 
ATOM    118  H30 UNL A   1      41.161  27.078  26.363  1.00  0.00    +0.000 H 
BRANCH   24   22
ATOM     22  C18 UNL A   1      38.483  23.375  26.058  1.00  0.00    +0.000 C 
ATOM     23  O2  UNL A   1      39.018  22.270  26.012  1.00  0.00    +0.000 O 
BRANCH   22   21
ATOM    116  H28 UNL A   1      36.756  24.332  25.731  1.00  0.00    +0.000 H 
ATOM     21  N2  UNL A   1      37.317  23.607  25.375  1.00  0.00    +0.000 N 
BRANCH   21   20
ATOM    114  H26 UNL A   1      37.557  22.902  23.452  1.00  0.00    +0.000 H 
ATOM    115  H27 UNL A   1      36.489  21.952  24.497  1.00  0.00    +0.000 H 
ATOM     20  C17 UNL A   1      36.792  22.935  24.199  1.00  0.00    +0.000 C 
BRANCH   20   19
ATOM    113  H25 UNL A   1      35.920  24.181  22.764  1.00  0.00    +0.000 H 
ATOM     19  C16 UNL A   1      35.570  23.637  23.616  1.00  0.00    +0.000 C 
ATOM    112  H24 UNL A   1      35.151  24.259  24.378  1.00  0.00    +0.000 H 
BRANCH   19   18
ATOM     18  C15 UNL A   1      34.467  22.707  23.104  1.00  0.00    +0.000 C 
ATOM    110  H22 UNL A   1      34.924  21.972  22.474  1.00  0.00    +0.000 H 
ATOM    111  H23 UNL A   1      33.999  22.299  23.974  1.00  0.00    +0.000 H 
BRANCH   18   17
ATOM     17  C14 UNL A   1      33.350  23.386  22.304  1.00  0.00    +0.000 C 
ATOM    108  H20 UNL A   1      33.408  23.035  21.294  1.00  0.00    +0.000 H 
ATOM    109  H21 UNL A   1      32.437  23.129  22.798  1.00  0.00    +0.000 H 
BRANCH   17   16
ATOM    106  H18 UNL A   1      34.159  25.241  22.954  1.00  0.00    +0.000 H 
ATOM    107  H19 UNL A   1      33.599  25.197  21.262  1.00  0.00    +0.000 H 
ATOM     16  C13 UNL A   1      33.398  24.917  22.275  1.00  0.00    +0.000 C 
BRANCH   16   15
ATOM    105  H17 UNL A   1      31.388  24.839  22.942  1.00  0.00    +0.000 H 
ATOM     15  C12 UNL A   1      32.092  25.597  22.665  1.00  0.00    +0.000 C 
ATOM    104  H16 UNL A   1      31.730  26.163  21.831  1.00  0.00    +0.000 H 
BRANCH   15   14
ATOM     14  N1  UNL A   1      32.273  26.488  23.797  1.00  0.00    +0.000 N 
ATOM    103  H15 UNL A   1      31.829  27.363  23.722  1.00  0.00    +0.000 H 
BRANCH   14   12
ATOM     12  C11 UNL A   1      32.973  26.283  24.952  1.00  0.00    +0.000 C 
ATOM     13  O1  UNL A   1      34.125  26.726  25.001  1.00  0.00    +0.000 O 
BRANCH   12    9
ATOM      9  C9  UNL A   1      32.349  25.585  26.157  1.00  0.00    +0.000 C 
ATOM    100  H12 UNL A   1      32.929  25.761  27.038  1.00  0.00    +0.000 H 
BRANCH    9    8
ATOM     98  H10 UNL A   1      30.849  21.314  24.990  1.00  0.00    +0.000 H 
ATOM     99  H11 UNL A   1      30.642  23.718  25.085  1.00  0.00    +0.000 H 
ATOM    132  H44 UNL A   1      34.558  21.562  26.941  1.00  0.00    +0.000 H 
ATOM      5  C5  UNL A   1      32.733  21.241  25.934  1.00  0.00    +0.000 C 
ATOM      6  C6  UNL A   1      31.598  21.875  25.426  1.00  0.00    +0.000 C 
ATOM      7  C7  UNL A   1      31.469  23.265  25.503  1.00  0.00    +0.000 C 
ATOM    131  H43 UNL A   1      34.313  23.960  27.108  1.00  0.00    +0.000 H 
ATOM      8  C8  UNL A   1      32.440  24.059  26.140  1.00  0.00    +0.000 C 
ATOM     87  C63 UNL A   1      33.572  23.405  26.651  1.00  0.00    +0.000 C 
ATOM     88  C64 UNL A   1      33.716  22.017  26.552  1.00  0.00    +0.000 C 
BRANCH    5    4
ATOM     97  H9  UNL A   1      31.970  19.293  25.778  1.00  0.00    +0.000 H 
ATOM      4  C4  UNL A   1      32.933  19.759  25.730  1.00  0.00    +0.000 C 
ATOM     96  H8  UNL A   1      33.587  19.393  26.494  1.00  0.00    +0.000 H 
BRANCH    4    2
ATOM      2  C2  UNL A   1      33.544  19.426  24.353  1.00  0.00    +0.000 C 
ATOM     92  H4  UNL A   1      34.163  20.252  24.071  1.00  0.00    +0.000 H 
BRANCH    2    1
ATOM      1  C1  UNL A   1      34.430  18.178  24.401  1.00  0.00    +0.000 C 
ATOM     90  H2  UNL A   1      33.872  17.359  24.807  1.00  0.00    +0.000 H 
ATOM     91  H3  UNL A   1      35.282  18.369  25.021  1.00  0.00    +0.000 H 
ATOM     89  H1  UNL A   1      34.756  17.932  23.412  1.00  0.00    +0.000 H 
ENDBRANCH    2    1
BRANCH    2    3
ATOM      3  C3  UNL A   1      32.435  19.233  23.318  1.00  0.00    +0.000 C 
ATOM     93  H5  UNL A   1      32.093  20.190  22.980  1.00  0.00    +0.000 H 
ATOM     94  H6  UNL A   1      31.621  18.700  23.762  1.00  0.00    +0.000 H 
ATOM     95  H7  UNL A   1      32.815  18.676  22.487  1.00  0.00    +0.000 H 
ENDBRANCH    2    3
ENDBRANCH    4    2
ENDBRANCH    5    4
ENDBRANCH    9    8
BRANCH    9   10
ATOM     10  C10 UNL A   1      30.968  26.213  26.378  1.00  0.00    +0.000 C 
ATOM     11  F1  UNL A   1      31.078  27.542  26.646  1.00  0.00    +0.000 F 
ATOM    101  H13 UNL A   1      30.491  25.727  27.204  1.00  0.00    +0.000 H 
ATOM    102  H14 UNL A   1      30.389  26.089  25.487  1.00  0.00    +0.000 H 
ENDBRANCH    9   10
ENDBRANCH   12    9
ENDBRANCH   14   12
ENDBRANCH   15   14
ENDBRANCH   16   15
ENDBRANCH   17   16
ENDBRANCH   18   17
ENDBRANCH   19   18
ENDBRANCH   20   19
ENDBRANCH   21   20
ENDBRANCH   22   21
ENDBRANCH   24   22
ENDBRANCH   28   27
BRANCH   32   33
ATOM     33  C27 UNL A   1      37.487  32.624  30.382  1.00  0.00    +0.000 C 
ATOM     34  C28 UNL A   1      37.085  33.451  29.324  1.00  0.00    +0.000 C 
ATOM     35  F2  UNL A   1      37.964  33.810  28.376  1.00  0.00    +0.000 F 
ATOM     36  C29 UNL A   1      35.783  33.939  29.250  1.00  0.00    +0.000 C 
ATOM     37  F3  UNL A   1      35.431  34.756  28.248  1.00  0.00    +0.000 F 
ATOM     38  C30 UNL A   1      34.852  33.584  30.215  1.00  0.00    +0.000 C 
ATOM     39  F4  UNL A   1      33.595  34.042  30.134  1.00  0.00    +0.000 F 
ATOM     40  C31 UNL A   1      35.224  32.757  31.265  1.00  0.00    +0.000 C 
ATOM     41  F5  UNL A   1      34.323  32.404  32.190  1.00  0.00    +0.000 F 
ATOM     42  C32 UNL A   1      36.533  32.289  31.355  1.00  0.00    +0.000 C 
ATOM     43  F6  UNL A   1      36.866  31.498  32.385  1.00  0.00    +0.000 F 
ENDBRANCH   32   33
BRANCH   49   50
ATOM     50  C38 UNL A   1      43.926  34.467  33.030  1.00  0.00    +0.000 C 
ATOM     51  C39 UNL A   1      43.960  34.464  34.431  1.00  0.00    +0.000 C 
ATOM     52  F7  UNL A   1      43.404  33.454  35.117  1.00  0.00    +0.000 F 
ATOM     53  C40 UNL A   1      44.534  35.520  35.134  1.00  0.00    +0.000 C 
ATOM     54  F8  UNL A   1      44.515  35.518  36.474  1.00  0.00    +0.000 F 
ATOM     55  C41 UNL A   1      45.111  36.579  34.450  1.00  0.00    +0.000 C 
ATOM     56  F9  UNL A   1      45.668  37.593  35.129  1.00  0.00    +0.000 F 
ATOM     57  C42 UNL A   1      45.105  36.594  33.063  1.00  0.00    +0.000 C 
ATOM     58  F10 UNL A   1      45.672  37.612  32.401  1.00  0.00    +0.000 F 
ATOM     59  C43 UNL A   1      44.508  35.553  32.358  1.00  0.00    +0.000 C 
ATOM     60  F11 UNL A   1      44.506  35.599  31.017  1.00  0.00    +0.000 F 
ENDBRANCH   49   50
BRANCH   64   65
ATOM     65  C47 UNL A   1      46.574  28.491  30.646  1.00  0.00    +0.000 C 
ATOM     66  C48 UNL A   1      47.002  27.726  31.740  1.00  0.00    +0.000 C 
ATOM     67  F12 UNL A   1      46.171  27.506  32.768  1.00  0.00    +0.000 F 
ATOM     68  C49 UNL A   1      48.304  27.233  31.807  1.00  0.00    +0.000 C 
ATOM     69  F13 UNL A   1      48.705  26.556  32.892  1.00  0.00    +0.000 F 
ATOM     70  C50 UNL A   1      49.190  27.464  30.767  1.00  0.00    +0.000 C 
ATOM     71  F14 UNL A   1      50.444  26.997  30.836  1.00  0.00    +0.000 F 
ATOM     72  C51 UNL A   1      48.780  28.194  29.661  1.00  0.00    +0.000 C 
ATOM     73  F15 UNL A   1      49.630  28.410  28.648  1.00  0.00    +0.000 F 
ATOM     74  C52 UNL A   1      47.488  28.713  29.605  1.00  0.00    +0.000 C 
ATOM     75  F16 UNL A   1      47.126  29.435  28.534  1.00  0.00    +0.000 F 
ENDBRANCH   64   65
TORSDOF 21
ENDMDL
MODEL 10
REMARK VINA RESULT:      -9.9     46.260     51.239
ROOT
ATOM     28  C23 UNL A   1      14.438  49.737   4.455  1.00  0.00    +0.000 C 
ATOM     29  C24 UNL A   1      14.446  51.203   4.788  1.00  0.00    +0.000 C 
ATOM     30  N3  UNL A   1      14.853  52.214   4.062  1.00  0.00    +0.000 N 
ATOM     31  C25 UNL A   1      14.614  53.348   4.828  1.00  0.00    +0.000 C 
ATOM     32  C26 UNL A   1      14.921  54.637   4.547  1.00  0.00    +0.000 C 
ATOM     44  C33 UNL A   1      15.571  55.072   3.339  1.00  0.00    +0.000 C 
ATOM     45  C34 UNL A   1      15.940  56.354   2.971  1.00  0.00    +0.000 C 
ATOM     46  C35 UNL A   1      16.526  56.293   1.702  1.00  0.00    +0.000 C 
ATOM     47  C36 UNL A   1      16.558  54.968   1.299  1.00  0.00    +0.000 C 
ATOM     48  N4  UNL A   1      15.959  54.232   2.307  1.00  0.00    +0.000 N 
ATOM     49  C37 UNL A   1      17.093  54.416   0.082  1.00  0.00    +0.000 C 
ATOM     61  C44 UNL A   1      17.069  53.103  -0.251  1.00  0.00    +0.000 C 
ATOM     62  N5  UNL A   1      16.568  52.028   0.469  1.00  0.00    +0.000 N 
ATOM     63  C45 UNL A   1      16.764  50.971  -0.279  1.00  0.00    +0.000 C 
ATOM     64  C46 UNL A   1      16.452  49.526   0.012  1.00  0.00    +0.000 C 
ATOM     76  C53 UNL A   1      15.899  49.200   1.195  1.00  0.00    +0.000 C 
ATOM     77  C54 UNL A   1      15.543  47.851   1.622  1.00  0.00    +0.000 C 
ATOM     78  C55 UNL A   1      14.967  47.912   2.833  1.00  0.00    +0.000 C 
ATOM     79  C56 UNL A   1      14.945  49.305   3.285  1.00  0.00    +0.000 C 
ATOM     80  N6  UNL A   1      15.531  49.996   2.253  1.00  0.00    +0.000 N 
ATOM     81  C57 UNL A   1      17.382  51.265  -1.581  1.00  0.00    +0.000 C 
ATOM     82  C58 UNL A   1      17.589  52.570  -1.492  1.00  0.00    +0.000 C 
ATOM     83  C59 UNL A   1      13.978  52.908   6.050  1.00  0.00    +0.000 C 
ATOM     84  C60 UNL A   1      13.905  51.585   6.101  1.00  0.00    +0.000 C 
ATOM    119  H31 UNL A   1      15.806  57.207   3.534  1.00  0.00    +0.000 H 
ATOM    120  H32 UNL A   1      16.875  57.099   1.159  1.00  0.00    +0.000 H 
ATOM    121  H33 UNL A   1      15.828  53.256   2.292  1.00  0.00    +0.000 H 
ATOM    122  H34 UNL A   1      15.708  46.988   1.080  1.00  0.00    +0.000 H 
ATOM    123  H35 UNL A   1      14.598  47.106   3.362  1.00  0.00    +0.000 H 
ATOM    124  H36 UNL A   1      15.673  50.970   2.270  1.00  0.00    +0.000 H 
ATOM    125  H37 UNL A   1      17.599  50.622  -2.359  1.00  0.00    +0.000 H 
ATOM    126  H38 UNL A   1      18.062  53.135  -2.215  1.00  0.00    +0.000 H 
ATOM    127  H39 UNL A   1      13.626  53.540   6.786  1.00  0.00    +0.000 H 
ATOM    128  H40 UNL A   1      13.559  50.982   6.864  1.00  0.00    +0.000 H 
ENDROOT
BRANCH   28   27
ATOM    129  H41 UNL A   1      11.839  49.169   4.786  1.00  0.00    +0.000 H 
ATOM    130  H42 UNL A   1      10.810  47.653   6.374  1.00  0.00    +0.000 H 
ATOM     27  C22 UNL A   1      13.825  48.765   5.395  1.00  0.00    +0.000 C 
ATOM    117  H29 UNL A   1      14.617  46.480   7.733  1.00  0.00    +0.000 H 
ATOM     86  C62 UNL A   1      11.839  47.714   6.309  1.00  0.00    +0.000 C 
ATOM     85  C61 UNL A   1      12.430  48.612   5.425  1.00  0.00    +0.000 C 
ATOM     24  C19 UNL A   1      12.641  46.894   7.110  1.00  0.00    +0.000 C 
ATOM     25  C20 UNL A   1      14.029  47.057   7.111  1.00  0.00    +0.000 C 
ATOM     26  C21 UNL A   1      14.617  48.001   6.268  1.00  0.00    +0.000 C 
ATOM    118  H30 UNL A   1      15.640  48.138   6.284  1.00  0.00    +0.000 H 
BRANCH   24   22
ATOM     22  C18 UNL A   1      12.048  45.854   7.976  1.00  0.00    +0.000 C 
ATOM     23  O2  UNL A   1      11.692  44.784   7.488  1.00  0.00    +0.000 O 
BRANCH   22   21
ATOM    116  H28 UNL A   1      12.362  45.497   9.921  1.00  0.00    +0.000 H 
ATOM     21  N2  UNL A   1      11.870  46.096   9.314  1.00  0.00    +0.000 N 
BRANCH   21   20
ATOM    114  H26 UNL A   1      10.389  47.527   9.242  1.00  0.00    +0.000 H 
ATOM    115  H27 UNL A   1      10.531  46.637  10.766  1.00  0.00    +0.000 H 
ATOM     20  C17 UNL A   1      11.059  47.110   9.964  1.00  0.00    +0.000 C 
BRANCH   20   19
ATOM    113  H25 UNL A   1      11.314  48.641  11.366  1.00  0.00    +0.000 H 
ATOM     19  C16 UNL A   1      11.895  48.237  10.564  1.00  0.00    +0.000 C 
ATOM    112  H24 UNL A   1      12.103  48.943   9.788  1.00  0.00    +0.000 H 
BRANCH   19   18
ATOM     18  C15 UNL A   1      13.227  47.803  11.180  1.00  0.00    +0.000 C 
ATOM    110  H22 UNL A   1      13.241  48.134  12.198  1.00  0.00    +0.000 H 
ATOM    111  H23 UNL A   1      13.268  46.740  11.072  1.00  0.00    +0.000 H 
BRANCH   18   17
ATOM     17  C14 UNL A   1      14.482  48.345  10.489  1.00  0.00    +0.000 C 
ATOM    108  H20 UNL A   1      15.213  48.548  11.245  1.00  0.00    +0.000 H 
ATOM    109  H21 UNL A   1      14.782  47.592   9.791  1.00  0.00    +0.000 H 
BRANCH   17   16
ATOM    106  H18 UNL A   1      13.568  49.419   8.898  1.00  0.00    +0.000 H 
ATOM    107  H19 UNL A   1      13.950  50.377  10.354  1.00  0.00    +0.000 H 
ATOM     16  C13 UNL A   1      14.282  49.625   9.669  1.00  0.00    +0.000 C 
BRANCH   16   15
ATOM    105  H17 UNL A   1      15.310  50.466   8.018  1.00  0.00    +0.000 H 
ATOM     15  C12 UNL A   1      15.550  50.159   9.015  1.00  0.00    +0.000 C 
ATOM    104  H16 UNL A   1      16.291  49.387   9.007  1.00  0.00    +0.000 H 
BRANCH   15   14
ATOM     14  N1  UNL A   1      16.074  51.308   9.733  1.00  0.00    +0.000 N 
ATOM    103  H15 UNL A   1      16.407  52.044   9.170  1.00  0.00    +0.000 H 
BRANCH   14   12
ATOM     12  C11 UNL A   1      16.170  51.513  11.081  1.00  0.00    +0.000 C 
ATOM     13  O1  UNL A   1      17.113  50.974  11.668  1.00  0.00    +0.000 O 
BRANCH   12    9
ATOM      9  C9  UNL A   1      15.189  52.410  11.829  1.00  0.00    +0.000 C 
ATOM    100  H12 UNL A   1      15.699  52.999  12.561  1.00  0.00    +0.000 H 
BRANCH    9    8
ATOM     98  H10 UNL A   1      11.088  50.463  12.944  1.00  0.00    +0.000 H 
ATOM     99  H11 UNL A   1      12.559  51.697  11.480  1.00  0.00    +0.000 H 
ATOM    132  H44 UNL A   1      14.206  50.060  15.726  1.00  0.00    +0.000 H 
ATOM      5  C5  UNL A   1      12.533  50.136  14.445  1.00  0.00    +0.000 C 
ATOM      6  C6  UNL A   1      12.065  50.637  13.228  1.00  0.00    +0.000 C 
ATOM      7  C7  UNL A   1      12.911  51.372  12.393  1.00  0.00    +0.000 C 
ATOM    131  H43 UNL A   1      15.653  51.365  14.298  1.00  0.00    +0.000 H 
ATOM      8  C8  UNL A   1      14.231  51.679  12.770  1.00  0.00    +0.000 C 
ATOM     87  C63 UNL A   1      14.684  51.173  13.999  1.00  0.00    +0.000 C 
ATOM     88  C64 UNL A   1      13.847  50.416  14.825  1.00  0.00    +0.000 C 
BRANCH    5    4
ATOM     97  H9  UNL A   1      10.715  49.716  15.404  1.00  0.00    +0.000 H 
ATOM      4  C4  UNL A   1      11.661  49.231  15.281  1.00  0.00    +0.000 C 
ATOM     96  H8  UNL A   1      12.145  49.064  16.222  1.00  0.00    +0.000 H 
BRANCH    4    2
ATOM      2  C2  UNL A   1      11.404  47.867  14.608  1.00  0.00    +0.000 C 
ATOM     92  H4  UNL A   1      11.218  48.053  13.571  1.00  0.00    +0.000 H 
BRANCH    2    1
ATOM      1  C1  UNL A   1      12.617  46.937  14.703  1.00  0.00    +0.000 C 
ATOM     90  H2  UNL A   1      12.457  46.077  14.086  1.00  0.00    +0.000 H 
ATOM     91  H3  UNL A   1      12.749  46.626  15.720  1.00  0.00    +0.000 H 
ATOM     89  H1  UNL A   1      13.492  47.456  14.373  1.00  0.00    +0.000 H 
ENDBRANCH    2    1
BRANCH    2    3
ATOM      3  C3  UNL A   1      10.184  47.192  15.238  1.00  0.00    +0.000 C 
ATOM     93  H5  UNL A   1      10.469  46.240  15.635  1.00  0.00    +0.000 H 
ATOM     94  H6  UNL A   1       9.427  47.057  14.495  1.00  0.00    +0.000 H 
ATOM     95  H7  UNL A   1       9.804  47.807  16.027  1.00  0.00    +0.000 H 
ENDBRANCH    2    3
ENDBRANCH    4    2
ENDBRANCH    5    4
ENDBRANCH    9    8
BRANCH    9   10
ATOM     10  C10 UNL A   1      14.581  53.371  10.801  1.00  0.00    +0.000 C 
ATOM     11  F1  UNL A   1      14.193  54.532  11.395  1.00  0.00    +0.000 F 
ATOM    101  H13 UNL A   1      13.730  52.907  10.348  1.00  0.00    +0.000 H 
ATOM    102  H14 UNL A   1      15.321  53.595  10.062  1.00  0.00    +0.000 H 
ENDBRANCH    9   10
ENDBRANCH   12    9
ENDBRANCH   14   12
ENDBRANCH   15   14
ENDBRANCH   16   15
ENDBRANCH   17   16
ENDBRANCH   18   17
ENDBRANCH   19   18
ENDBRANCH   20   19
ENDBRANCH   21   20
ENDBRANCH   22   21
ENDBRANCH   24   22
ENDBRANCH   28   27
BRANCH   32   33
ATOM     33  C27 UNL A   1      14.576  55.673   5.575  1.00  0.00    +0.000 C 
ATOM     34  C28 UNL A   1      15.575  56.349   6.290  1.00  0.00    +0.000 C 
ATOM     35  F2  UNL A   1      16.866  56.028   6.112  1.00  0.00    +0.000 F 
ATOM     36  C29 UNL A   1      15.251  57.339   7.212  1.00  0.00    +0.000 C 
ATOM     37  F3  UNL A   1      16.221  57.948   7.909  1.00  0.00    +0.000 F 
ATOM     38  C30 UNL A   1      13.926  57.693   7.416  1.00  0.00    +0.000 C 
ATOM     39  F4  UNL A   1      13.616  58.657   8.294  1.00  0.00    +0.000 F 
ATOM     40  C31 UNL A   1      12.921  57.046   6.711  1.00  0.00    +0.000 C 
ATOM     41  F5  UNL A   1      11.642  57.395   6.899  1.00  0.00    +0.000 F 
ATOM     42  C32 UNL A   1      13.241  56.037   5.807  1.00  0.00    +0.000 C 
ATOM     43  F6  UNL A   1      12.248  55.423   5.147  1.00  0.00    +0.000 F 
ENDBRANCH   32   33
BRANCH   49   50
ATOM     50  C38 UNL A   1      17.747  55.359  -0.884  1.00  0.00    +0.000 C 
ATOM     51  C39 UNL A   1      17.020  55.984  -1.908  1.00  0.00    +0.000 C 
ATOM     52  F7  UNL A   1      15.718  55.709  -2.075  1.00  0.00    +0.000 F 
ATOM     53  C40 UNL A   1      17.642  56.866  -2.788  1.00  0.00    +0.000 C 
ATOM     54  F8  UNL A   1      16.939  57.416  -3.787  1.00  0.00    +0.000 F 
ATOM     55  C41 UNL A   1      18.988  57.163  -2.641  1.00  0.00    +0.000 C 
ATOM     56  F9  UNL A   1      19.583  58.016  -3.487  1.00  0.00    +0.000 F 
ATOM     57  C42 UNL A   1      19.721  56.570  -1.624  1.00  0.00    +0.000 C 
ATOM     58  F10 UNL A   1      21.020  56.865  -1.475  1.00  0.00    +0.000 F 
ATOM     59  C43 UNL A   1      19.110  55.667  -0.759  1.00  0.00    +0.000 C 
ATOM     60  F11 UNL A   1      19.847  55.099   0.208  1.00  0.00    +0.000 F 
ENDBRANCH   49   50
BRANCH   64   65
ATOM     65  C47 UNL A   1      16.766  48.472  -0.988  1.00  0.00    +0.000 C 
ATOM     66  C48 UNL A   1      17.950  47.726  -0.897  1.00  0.00    +0.000 C 
ATOM     67  F12 UNL A   1      18.807  47.952   0.109  1.00  0.00    +0.000 F 
ATOM     68  C49 UNL A   1      18.284  46.788  -1.871  1.00  0.00    +0.000 C 
ATOM     69  F13 UNL A   1      19.451  46.132  -1.792  1.00  0.00    +0.000 F 
ATOM     70  C50 UNL A   1      17.426  46.550  -2.933  1.00  0.00    +0.000 C 
ATOM     71  F14 UNL A   1      17.753  45.653  -3.873  1.00  0.00    +0.000 F 
ATOM     72  C51 UNL A   1      16.235  47.255  -3.028  1.00  0.00    +0.000 C 
ATOM     73  F15 UNL A   1      15.397  47.020  -4.046  1.00  0.00    +0.000 F 
ATOM     74  C52 UNL A   1      15.913  48.215  -2.071  1.00  0.00    +0.000 C 
ATOM     75  F16 UNL A   1      14.766  48.898  -2.201  1.00  0.00    +0.000 F 
ENDBRANCH   64   65
TORSDOF 21
ENDMDL
