MODEL 1
REMARK VINA RESULT:     -12.1      0.000      0.000
ROOT
ATOM     21  C17 UNL A   1      40.480  27.929  28.738  1.00  0.00    +0.000 C 
ATOM     22  C18 UNL A   1      41.648  28.704  28.235  1.00  0.00    +0.000 C 
ATOM     23  N3  UNL A   1      42.677  29.108  28.906  1.00  0.00    +0.000 N 
ATOM     24  C19 UNL A   1      43.485  29.788  27.998  1.00  0.00    +0.000 C 
ATOM     25  C20 UNL A   1      44.411  30.694  28.416  1.00  0.00    +0.000 C 
ATOM     37  C27 UNL A   1      44.747  30.495  29.802  1.00  0.00    +0.000 C 
ATOM     38  C28 UNL A   1      45.365  29.493  30.521  1.00  0.00    +0.000 C 
ATOM     39  C29 UNL A   1      44.690  29.467  31.777  1.00  0.00    +0.000 C 
ATOM     40  C30 UNL A   1      43.739  30.487  31.772  1.00  0.00    +0.000 C 
ATOM     41  N4  UNL A   1      44.123  31.289  30.730  1.00  0.00    +0.000 N 
ATOM     42  C31 UNL A   1      42.541  30.708  32.544  1.00  0.00    +0.000 C 
ATOM     54  C38 UNL A   1      41.512  31.522  32.168  1.00  0.00    +0.000 C 
ATOM     55  N5  UNL A   1      40.244  31.353  32.702  1.00  0.00    +0.000 N 
ATOM     56  C39 UNL A   1      39.439  31.815  31.787  1.00  0.00    +0.000 C 
ATOM     57  C40 UNL A   1      38.138  31.184  31.450  1.00  0.00    +0.000 C 
ATOM     69  C47 UNL A   1      38.422  29.984  30.881  1.00  0.00    +0.000 C 
ATOM     70  C48 UNL A   1      37.596  28.809  30.702  1.00  0.00    +0.000 C 
ATOM     71  C49 UNL A   1      38.310  27.875  30.040  1.00  0.00    +0.000 C 
ATOM     72  C50 UNL A   1      39.588  28.445  29.609  1.00  0.00    +0.000 C 
ATOM     73  N6  UNL A   1      39.639  29.669  30.243  1.00  0.00    +0.000 N 
ATOM     74  C51 UNL A   1      40.045  32.685  30.792  1.00  0.00    +0.000 C 
ATOM     75  C52 UNL A   1      41.330  32.403  31.019  1.00  0.00    +0.000 C 
ATOM     76  C53 UNL A   1      42.948  29.514  26.691  1.00  0.00    +0.000 C 
ATOM     77  C54 UNL A   1      41.762  28.911  26.783  1.00  0.00    +0.000 C 
ATOM    117  H22 UNL A   1      46.148  28.893  30.217  1.00  0.00    +0.000 H 
ATOM    118  H23 UNL A   1      44.872  28.809  32.551  1.00  0.00    +0.000 H 
ATOM    119  H24 UNL A   1      43.977  32.260  30.659  1.00  0.00    +0.000 H 
ATOM    120  H25 UNL A   1      36.622  28.702  31.028  1.00  0.00    +0.000 H 
ATOM    121  H26 UNL A   1      38.003  26.906  29.862  1.00  0.00    +0.000 H 
ATOM    122  H27 UNL A   1      40.431  30.254  30.248  1.00  0.00    +0.000 H 
ATOM    123  H28 UNL A   1      39.611  33.330  30.113  1.00  0.00    +0.000 H 
ATOM    124  H29 UNL A   1      42.107  32.768  30.446  1.00  0.00    +0.000 H 
ATOM    125  H30 UNL A   1      43.418  29.752  25.803  1.00  0.00    +0.000 H 
ATOM    126  H31 UNL A   1      41.100  28.657  26.034  1.00  0.00    +0.000 H 
ENDROOT
BRANCH   21   20
ATOM     78  C55 UNL A   1      39.444  26.287  27.182  1.00  0.00    +0.000 C 
ATOM     79  C56 UNL A   1      39.342  24.978  26.731  1.00  0.00    +0.000 C 
ATOM     17  C13 UNL A   1      40.174  23.963  27.243  1.00  0.00    +0.000 C 
ATOM     18  C14 UNL A   1      41.199  24.321  28.116  1.00  0.00    +0.000 C 
ATOM     19  C15 UNL A   1      41.285  25.622  28.597  1.00  0.00    +0.000 C 
ATOM    115  H20 UNL A   1      41.896  23.618  28.408  1.00  0.00    +0.000 H 
ATOM    116  H21 UNL A   1      42.026  25.875  29.268  1.00  0.00    +0.000 H 
ATOM     20  C16 UNL A   1      40.367  26.588  28.173  1.00  0.00    +0.000 C 
ATOM    127  H32 UNL A   1      38.841  27.026  26.786  1.00  0.00    +0.000 H 
ATOM    128  H33 UNL A   1      38.644  24.745  26.008  1.00  0.00    +0.000 H 
BRANCH   17   15
ATOM     15  C12 UNL A   1      39.801  22.573  26.867  1.00  0.00    +0.000 C 
ATOM     16  O2  UNL A   1      40.647  21.683  26.984  1.00  0.00    +0.000 O 
BRANCH   15   14
ATOM    114  H19 UNL A   1      37.838  22.626  26.759  1.00  0.00    +0.000 H 
ATOM     14  N2  UNL A   1      38.607  22.201  26.315  1.00  0.00    +0.000 N 
BRANCH   14   13
ATOM    113  H18 UNL A   1      37.805  20.442  25.670  1.00  0.00    +0.000 H 
ATOM     13  C11 UNL A   1      38.211  21.329  25.229  1.00  0.00    +0.000 C 
ATOM    112  H17 UNL A   1      39.072  21.127  24.627  1.00  0.00    +0.000 H 
BRANCH   13   12
ATOM     12  C10 UNL A   1      37.123  21.923  24.333  1.00  0.00    +0.000 C 
ATOM    110  H15 UNL A   1      37.459  21.873  23.319  1.00  0.00    +0.000 H 
ATOM    111  H16 UNL A   1      36.236  21.348  24.502  1.00  0.00    +0.000 H 
BRANCH   12   11
ATOM     11  C9  UNL A   1      36.775  23.380  24.655  1.00  0.00    +0.000 C 
ATOM    108  H13 UNL A   1      37.310  23.662  25.537  1.00  0.00    +0.000 H 
ATOM    109  H14 UNL A   1      37.046  23.950  23.791  1.00  0.00    +0.000 H 
BRANCH   11   10
ATOM     10  C8  UNL A   1      35.285  23.651  24.896  1.00  0.00    +0.000 C 
ATOM    107  H12 UNL A   1      34.751  22.875  24.391  1.00  0.00    +0.000 H 
ATOM    106  H11 UNL A   1      35.059  24.628  24.524  1.00  0.00    +0.000 H 
BRANCH   10    9
ATOM      9  C7  UNL A   1      34.852  23.589  26.366  1.00  0.00    +0.000 C 
ATOM    105  H10 UNL A   1      33.840  23.931  26.413  1.00  0.00    +0.000 H 
ATOM    104  H9  UNL A   1      35.513  24.204  26.942  1.00  0.00    +0.000 H 
BRANCH    9    8
ATOM    102  H7  UNL A   1      35.661  21.619  26.469  1.00  0.00    +0.000 H 
ATOM    103  H8  UNL A   1      35.051  22.244  27.998  1.00  0.00    +0.000 H 
ATOM      8  C6  UNL A   1      34.880  22.174  26.944  1.00  0.00    +0.000 C 
BRANCH    8    7
ATOM    101  H6  UNL A   1      32.992  21.504  27.491  1.00  0.00    +0.000 H 
ATOM      7  N1  UNL A   1      33.620  21.490  26.733  1.00  0.00    +0.000 N 
BRANCH    7    5
ATOM      5  C5  UNL A   1      33.192  20.830  25.617  1.00  0.00    +0.000 C 
ATOM      6  O1  UNL A   1      33.945  20.003  25.099  1.00  0.00    +0.000 O 
BRANCH    5    4
ATOM    100  H5  UNL A   1      31.099  20.968  25.745  1.00  0.00    +0.000 H 
ATOM     99  H4  UNL A   1      31.711  20.573  24.123  1.00  0.00    +0.000 H 
ATOM      4  C4  UNL A   1      31.842  21.170  25.002  1.00  0.00    +0.000 C 
BRANCH    4    3
ATOM    129  H34 UNL A   1      33.075  21.661  22.260  1.00  0.00    +0.000 H 
ATOM      2  C2  UNL A   1      31.121  23.634  25.366  1.00  0.00    +0.000 C 
ATOM      3  C3  UNL A   1      31.699  22.617  24.619  1.00  0.00    +0.000 C 
ATOM    132  H37 UNL A   1      32.218  26.437  22.485  1.00  0.00    +0.000 H 
ATOM    130  H35 UNL A   1      33.717  23.100  20.419  1.00  0.00    +0.000 H 
ATOM    131  H36 UNL A   1      33.318  25.474  20.548  1.00  0.00    +0.000 H 
ATOM     80  C57 UNL A   1      32.179  23.203  23.415  1.00  0.00    +0.000 C 
ATOM     81  C58 UNL A   1      32.862  22.669  22.298  1.00  0.00    +0.000 C 
ATOM     82  C59 UNL A   1      33.250  23.499  21.248  1.00  0.00    +0.000 C 
ATOM     83  C60 UNL A   1      33.011  24.860  21.319  1.00  0.00    +0.000 C 
ATOM     84  C61 UNL A   1      32.357  25.415  22.424  1.00  0.00    +0.000 C 
ATOM     85  C62 UNL A   1      31.889  24.572  23.454  1.00  0.00    +0.000 C 
ATOM     86  N7  UNL A   1      31.111  24.810  24.599  1.00  0.00    +0.000 N 
BRANCH    2    1
ATOM      1  C1  UNL A   1      30.533  23.560  26.743  1.00  0.00    +0.000 C 
ATOM     98  H3  UNL A   1      30.785  24.446  27.286  1.00  0.00    +0.000 H 
ATOM     97  H2  UNL A   1      29.470  23.474  26.672  1.00  0.00    +0.000 H 
ATOM     96  H1  UNL A   1      30.928  22.705  27.252  1.00  0.00    +0.000 H 
ENDBRANCH    2    1
BRANCH   86   87
ATOM     87  C63 UNL A   1      30.414  26.007  24.947  1.00  0.00    +0.000 C 
ATOM     88  O3  UNL A   1      29.202  26.060  24.775  1.00  0.00    +0.000 O 
BRANCH   87   89
ATOM    133  H38 UNL A   1      31.580  26.374  27.372  1.00  0.00    +0.000 H 
ATOM    134  H39 UNL A   1      32.406  28.472  28.294  1.00  0.00    +0.000 H 
ATOM    135  H40 UNL A   1      31.602  30.408  24.644  1.00  0.00    +0.000 H 
ATOM    136  H41 UNL A   1      30.727  28.328  23.734  1.00  0.00    +0.000 H 
ATOM     89  C64 UNL A   1      31.018  27.223  25.516  1.00  0.00    +0.000 C 
ATOM     90  C65 UNL A   1      31.550  27.239  26.808  1.00  0.00    +0.000 C 
ATOM     91  C66 UNL A   1      32.041  28.439  27.330  1.00  0.00    +0.000 C 
ATOM     92  C67 UNL A   1      32.037  29.593  26.544  1.00  0.00    +0.000 C 
ATOM     93 Cl1  UNL A   1      32.598  31.079  27.205  1.00  0.00    +0.000 Cl
ATOM     94  C68 UNL A   1      31.571  29.557  25.229  1.00  0.00    +0.000 C 
ATOM     95  C69 UNL A   1      31.065  28.368  24.709  1.00  0.00    +0.000 C 
ENDBRANCH   87   89
ENDBRANCH   86   87
ENDBRANCH    4    3
ENDBRANCH    5    4
ENDBRANCH    7    5
ENDBRANCH    8    7
ENDBRANCH    9    8
ENDBRANCH   10    9
ENDBRANCH   11   10
ENDBRANCH   12   11
ENDBRANCH   13   12
ENDBRANCH   14   13
ENDBRANCH   15   14
ENDBRANCH   17   15
ENDBRANCH   21   20
BRANCH   25   26
ATOM     33  C25 UNL A   1      44.573  34.424  27.495  1.00  0.00    +0.000 C 
ATOM     34  F4  UNL A   1      43.903  35.549  27.781  1.00  0.00    +0.000 F 
ATOM     35  C26 UNL A   1      44.059  33.197  27.915  1.00  0.00    +0.000 C 
ATOM     36  F5  UNL A   1      42.940  33.271  28.642  1.00  0.00    +0.000 F 
ATOM     26  C21 UNL A   1      44.733  31.977  27.688  1.00  0.00    +0.000 C 
ATOM     27  C22 UNL A   1      45.947  32.080  26.977  1.00  0.00    +0.000 C 
ATOM     28  F1  UNL A   1      46.682  30.989  26.715  1.00  0.00    +0.000 F 
ATOM     29  C23 UNL A   1      46.483  33.316  26.602  1.00  0.00    +0.000 C 
ATOM     30  F2  UNL A   1      47.700  33.372  26.044  1.00  0.00    +0.000 F 
ATOM     31  C24 UNL A   1      45.799  34.488  26.871  1.00  0.00    +0.000 C 
ATOM     32  F3  UNL A   1      46.340  35.676  26.571  1.00  0.00    +0.000 F 
ENDBRANCH   25   26
BRANCH   42   43
ATOM     43  C32 UNL A   1      42.320  29.802  33.724  1.00  0.00    +0.000 C 
ATOM     44  C33 UNL A   1      41.762  28.514  33.626  1.00  0.00    +0.000 C 
ATOM     45  F6  UNL A   1      41.338  28.037  32.448  1.00  0.00    +0.000 F 
ATOM     46  C34 UNL A   1      41.691  27.673  34.736  1.00  0.00    +0.000 C 
ATOM     47  F7  UNL A   1      41.153  26.450  34.622  1.00  0.00    +0.000 F 
ATOM     48  C35 UNL A   1      42.217  28.081  35.952  1.00  0.00    +0.000 C 
ATOM     49  F8  UNL A   1      42.197  27.254  37.007  1.00  0.00    +0.000 F 
ATOM     50  C36 UNL A   1      42.793  29.336  36.065  1.00  0.00    +0.000 C 
ATOM     51  F9  UNL A   1      43.348  29.716  37.225  1.00  0.00    +0.000 F 
ATOM     52  C37 UNL A   1      42.831  30.192  34.968  1.00  0.00    +0.000 C 
ATOM     53  F10 UNL A   1      43.421  31.389  35.106  1.00  0.00    +0.000 F 
ENDBRANCH   42   43
BRANCH   57   58
ATOM     65  C45 UNL A   1      35.565  33.667  30.183  1.00  0.00    +0.000 C 
ATOM     66  F14 UNL A   1      35.317  34.344  29.054  1.00  0.00    +0.000 F 
ATOM     67  C46 UNL A   1      36.534  32.662  30.189  1.00  0.00    +0.000 C 
ATOM     68  F15 UNL A   1      37.197  32.447  29.044  1.00  0.00    +0.000 F 
ATOM     58  C41 UNL A   1      36.884  31.972  31.366  1.00  0.00    +0.000 C 
ATOM     59  C42 UNL A   1      36.174  32.322  32.528  1.00  0.00    +0.000 C 
ATOM     60  F11 UNL A   1      36.472  31.742  33.700  1.00  0.00    +0.000 F 
ATOM     61  C43 UNL A   1      35.205  33.331  32.521  1.00  0.00    +0.000 C 
ATOM     62  F12 UNL A   1      34.600  33.685  33.665  1.00  0.00    +0.000 F 
ATOM     63  C44 UNL A   1      34.913  34.012  31.352  1.00  0.00    +0.000 C 
ATOM     64  F13 UNL A   1      34.036  35.028  31.360  1.00  0.00    +0.000 F 
ENDBRANCH   57   58
TORSDOF 19
ENDMDL
MODEL 2
REMARK VINA RESULT:     -11.8      1.535      2.529
ROOT
ATOM     21  C17 UNL A   1      40.830  28.166  28.484  1.00  0.00    +0.000 C 
ATOM     22  C18 UNL A   1      41.926  29.048  27.996  1.00  0.00    +0.000 C 
ATOM     23  N3  UNL A   1      42.884  29.574  28.687  1.00  0.00    +0.000 N 
ATOM     24  C19 UNL A   1      43.645  30.315  27.787  1.00  0.00    +0.000 C 
ATOM     25  C20 UNL A   1      44.457  31.323  28.208  1.00  0.00    +0.000 C 
ATOM     37  C27 UNL A   1      44.766  31.194  29.608  1.00  0.00    +0.000 C 
ATOM     38  C28 UNL A   1      45.462  30.279  30.372  1.00  0.00    +0.000 C 
ATOM     39  C29 UNL A   1      44.753  30.211  31.608  1.00  0.00    +0.000 C 
ATOM     40  C30 UNL A   1      43.701  31.125  31.547  1.00  0.00    +0.000 C 
ATOM     41  N4  UNL A   1      44.032  31.938  30.496  1.00  0.00    +0.000 N 
ATOM     42  C31 UNL A   1      42.461  31.236  32.276  1.00  0.00    +0.000 C 
ATOM     54  C38 UNL A   1      41.365  31.927  31.848  1.00  0.00    +0.000 C 
ATOM     55  N5  UNL A   1      40.105  31.637  32.347  1.00  0.00    +0.000 N 
ATOM     56  C39 UNL A   1      39.286  31.990  31.396  1.00  0.00    +0.000 C 
ATOM     57  C40 UNL A   1      38.071  31.217  31.036  1.00  0.00    +0.000 C 
ATOM     69  C47 UNL A   1      38.498  30.041  30.508  1.00  0.00    +0.000 C 
ATOM     70  C48 UNL A   1      37.806  28.781  30.336  1.00  0.00    +0.000 C 
ATOM     71  C49 UNL A   1      38.636  27.913  29.720  1.00  0.00    +0.000 C 
ATOM     72  C50 UNL A   1      39.860  28.605  29.314  1.00  0.00    +0.000 C 
ATOM     73  N6  UNL A   1      39.761  29.842  29.916  1.00  0.00    +0.000 N 
ATOM     74  C51 UNL A   1      39.830  32.896  30.397  1.00  0.00    +0.000 C 
ATOM     75  C52 UNL A   1      41.129  32.757  30.670  1.00  0.00    +0.000 C 
ATOM     76  C53 UNL A   1      43.184  29.955  26.472  1.00  0.00    +0.000 C 
ATOM     77  C54 UNL A   1      42.066  29.233  26.543  1.00  0.00    +0.000 C 
ATOM    117  H22 UNL A   1      46.313  29.759  30.109  1.00  0.00    +0.000 H 
ATOM    118  H23 UNL A   1      44.977  29.594  32.404  1.00  0.00    +0.000 H 
ATOM    119  H24 UNL A   1      43.787  32.886  30.395  1.00  0.00    +0.000 H 
ATOM    120  H25 UNL A   1      36.839  28.580  30.635  1.00  0.00    +0.000 H 
ATOM    121  H26 UNL A   1      38.438  26.913  29.559  1.00  0.00    +0.000 H 
ATOM    122  H27 UNL A   1      40.487  30.508  29.930  1.00  0.00    +0.000 H 
ATOM    123  H28 UNL A   1      39.353  33.475  29.688  1.00  0.00    +0.000 H 
ATOM    124  H29 UNL A   1      41.882  33.188  30.112  1.00  0.00    +0.000 H 
ATOM    125  H30 UNL A   1      43.655  30.221  25.593  1.00  0.00    +0.000 H 
ATOM    126  H31 UNL A   1      41.458  28.893  25.782  1.00  0.00    +0.000 H 
ENDROOT
BRANCH   21   20
ATOM     78  C55 UNL A   1      40.233  26.462  26.772  1.00  0.00    +0.000 C 
ATOM     79  C56 UNL A   1      40.263  25.138  26.352  1.00  0.00    +0.000 C 
ATOM     17  C13 UNL A   1      40.953  24.155  27.088  1.00  0.00    +0.000 C 
ATOM     18  C14 UNL A   1      41.724  24.557  28.176  1.00  0.00    +0.000 C 
ATOM     19  C15 UNL A   1      41.672  25.872  28.621  1.00  0.00    +0.000 C 
ATOM    115  H20 UNL A   1      42.336  23.877  28.654  1.00  0.00    +0.000 H 
ATOM    116  H21 UNL A   1      42.220  26.158  29.447  1.00  0.00    +0.000 H 
ATOM     20  C16 UNL A   1      40.877  26.808  27.952  1.00  0.00    +0.000 C 
ATOM    127  H32 UNL A   1      39.739  27.177  26.217  1.00  0.00    +0.000 H 
ATOM    128  H33 UNL A   1      39.769  24.871  25.487  1.00  0.00    +0.000 H 
BRANCH   17   15
ATOM     15  C12 UNL A   1      40.703  22.747  26.675  1.00  0.00    +0.000 C 
ATOM     16  O2  UNL A   1      41.641  22.090  26.219  1.00  0.00    +0.000 O 
BRANCH   15   14
ATOM    114  H19 UNL A   1      39.202  21.857  27.582  1.00  0.00    +0.000 H 
ATOM     14  N2  UNL A   1      39.482  22.133  26.680  1.00  0.00    +0.000 N 
BRANCH   14   13
ATOM    113  H18 UNL A   1      37.893  21.013  26.068  1.00  0.00    +0.000 H 
ATOM     13  C11 UNL A   1      38.505  21.793  25.666  1.00  0.00    +0.000 C 
ATOM    112  H17 UNL A   1      39.027  21.488  24.783  1.00  0.00    +0.000 H 
BRANCH   13   12
ATOM     12  C10 UNL A   1      37.574  22.951  25.301  1.00  0.00    +0.000 C 
ATOM    110  H15 UNL A   1      38.093  23.869  25.482  1.00  0.00    +0.000 H 
ATOM    111  H16 UNL A   1      37.310  22.823  24.272  1.00  0.00    +0.000 H 
BRANCH   12   11
ATOM     11  C9  UNL A   1      36.263  22.974  26.095  1.00  0.00    +0.000 C 
ATOM    108  H13 UNL A   1      36.470  23.378  27.064  1.00  0.00    +0.000 H 
ATOM    109  H14 UNL A   1      35.579  23.565  25.524  1.00  0.00    +0.000 H 
BRANCH   11   10
ATOM     10  C8  UNL A   1      35.596  21.607  26.282  1.00  0.00    +0.000 C 
ATOM    107  H12 UNL A   1      36.279  21.014  26.854  1.00  0.00    +0.000 H 
ATOM    106  H11 UNL A   1      35.393  21.199  25.315  1.00  0.00    +0.000 H 
BRANCH   10    9
ATOM      9  C7  UNL A   1      34.283  21.637  27.073  1.00  0.00    +0.000 C 
ATOM    105  H10 UNL A   1      34.177  22.621  27.475  1.00  0.00    +0.000 H 
ATOM    104  H9  UNL A   1      34.331  20.891  27.840  1.00  0.00    +0.000 H 
BRANCH    9    8
ATOM    102  H7  UNL A   1      33.260  20.546  25.553  1.00  0.00    +0.000 H 
ATOM    103  H8  UNL A   1      32.231  21.133  26.856  1.00  0.00    +0.000 H 
ATOM      8  C6  UNL A   1      33.051  21.364  26.208  1.00  0.00    +0.000 C 
BRANCH    8    7
ATOM    101  H6  UNL A   1      32.057  23.148  25.833  1.00  0.00    +0.000 H 
ATOM      7  N1  UNL A   1      32.694  22.524  25.416  1.00  0.00    +0.000 N 
BRANCH    7    5
ATOM      5  C5  UNL A   1      33.127  22.862  24.166  1.00  0.00    +0.000 C 
ATOM      6  O1  UNL A   1      33.193  21.977  23.310  1.00  0.00    +0.000 O 
BRANCH    5    4
ATOM    100  H5  UNL A   1      33.754  24.349  22.822  1.00  0.00    +0.000 H 
ATOM     99  H4  UNL A   1      34.460  24.484  24.448  1.00  0.00    +0.000 H 
ATOM      4  C4  UNL A   1      33.578  24.285  23.875  1.00  0.00    +0.000 C 
BRANCH    4    3
ATOM    129  H34 UNL A   1      34.780  26.402  25.707  1.00  0.00    +0.000 H 
ATOM      2  C2  UNL A   1      31.222  25.367  23.800  1.00  0.00    +0.000 C 
ATOM      3  C3  UNL A   1      32.548  25.327  24.212  1.00  0.00    +0.000 C 
ATOM    132  H37 UNL A   1      30.541  28.729  26.164  1.00  0.00    +0.000 H 
ATOM    130  H35 UNL A   1      34.631  28.403  27.065  1.00  0.00    +0.000 H 
ATOM    131  H36 UNL A   1      32.519  29.537  27.315  1.00  0.00    +0.000 H 
ATOM     80  C57 UNL A   1      32.756  26.450  25.059  1.00  0.00    +0.000 C 
ATOM     81  C58 UNL A   1      33.885  26.911  25.775  1.00  0.00    +0.000 C 
ATOM     82  C59 UNL A   1      33.796  28.050  26.573  1.00  0.00    +0.000 C 
ATOM     83  C60 UNL A   1      32.585  28.705  26.707  1.00  0.00    +0.000 C 
ATOM     84  C61 UNL A   1      31.448  28.255  26.028  1.00  0.00    +0.000 C 
ATOM     85  C62 UNL A   1      31.549  27.151  25.154  1.00  0.00    +0.000 C 
ATOM     86  N7  UNL A   1      30.640  26.557  24.263  1.00  0.00    +0.000 N 
BRANCH    2    1
ATOM      1  C1  UNL A   1      30.479  24.375  22.957  1.00  0.00    +0.000 C 
ATOM     98  H3  UNL A   1      29.568  24.815  22.611  1.00  0.00    +0.000 H 
ATOM     97  H2  UNL A   1      31.083  24.096  22.120  1.00  0.00    +0.000 H 
ATOM     96  H1  UNL A   1      30.257  23.507  23.543  1.00  0.00    +0.000 H 
ENDBRANCH    2    1
BRANCH   86   87
ATOM     87  C63 UNL A   1      29.359  27.048  23.867  1.00  0.00    +0.000 C 
ATOM     88  O3  UNL A   1      28.358  26.410  24.171  1.00  0.00    +0.000 O 
BRANCH   87   89
ATOM    133  H38 UNL A   1      31.003  28.395  22.178  1.00  0.00    +0.000 H 
ATOM    134  H39 UNL A   1      30.554  30.529  21.092  1.00  0.00    +0.000 H 
ATOM    135  H40 UNL A   1      26.632  30.494  22.619  1.00  0.00    +0.000 H 
ATOM    136  H41 UNL A   1      27.090  28.389  23.749  1.00  0.00    +0.000 H 
ATOM     89  C64 UNL A   1      29.104  28.284  23.108  1.00  0.00    +0.000 C 
ATOM     90  C65 UNL A   1      30.090  28.861  22.302  1.00  0.00    +0.000 C 
ATOM     91  C66 UNL A   1      29.824  30.076  21.663  1.00  0.00    +0.000 C 
ATOM     92  C67 UNL A   1      28.570  30.675  21.801  1.00  0.00    +0.000 C 
ATOM     93 Cl1  UNL A   1      28.263  32.194  21.054  1.00  0.00    +0.000 Cl
ATOM     94  C68 UNL A   1      27.566  30.060  22.549  1.00  0.00    +0.000 C 
ATOM     95  C69 UNL A   1      27.830  28.857  23.201  1.00  0.00    +0.000 C 
ENDBRANCH   87   89
ENDBRANCH   86   87
ENDBRANCH    4    3
ENDBRANCH    5    4
ENDBRANCH    7    5
ENDBRANCH    8    7
ENDBRANCH    9    8
ENDBRANCH   10    9
ENDBRANCH   11   10
ENDBRANCH   12   11
ENDBRANCH   13   12
ENDBRANCH   14   13
ENDBRANCH   15   14
ENDBRANCH   17   15
ENDBRANCH   21   20
BRANCH   25   26
ATOM     33  C25 UNL A   1      44.333  35.043  27.245  1.00  0.00    +0.000 C 
ATOM     34  F4  UNL A   1      43.598  36.125  27.541  1.00  0.00    +0.000 F 
ATOM     35  C26 UNL A   1      43.919  33.790  27.694  1.00  0.00    +0.000 C 
ATOM     36  F5  UNL A   1      42.822  33.797  28.458  1.00  0.00    +0.000 F 
ATOM     26  C21 UNL A   1      44.666  32.616  27.457  1.00  0.00    +0.000 C 
ATOM     27  C22 UNL A   1      45.846  32.792  26.704  1.00  0.00    +0.000 C 
ATOM     28  F1  UNL A   1      46.645  31.750  26.428  1.00  0.00    +0.000 F 
ATOM     29  C23 UNL A   1      46.284  34.057  26.298  1.00  0.00    +0.000 C 
ATOM     30  F2  UNL A   1      47.475  34.188  25.698  1.00  0.00    +0.000 F 
ATOM     31  C24 UNL A   1      45.531  35.183  26.578  1.00  0.00    +0.000 C 
ATOM     32  F3  UNL A   1      45.979  36.401  26.248  1.00  0.00    +0.000 F 
ENDBRANCH   25   26
BRANCH   42   43
ATOM     43  C32 UNL A   1      42.297  30.338  33.473  1.00  0.00    +0.000 C 
ATOM     44  C33 UNL A   1      42.437  30.774  34.802  1.00  0.00    +0.000 C 
ATOM     45  F6  UNL A   1      42.788  32.038  35.077  1.00  0.00    +0.000 F 
ATOM     46  C34 UNL A   1      42.155  29.926  35.873  1.00  0.00    +0.000 C 
ATOM     47  F7  UNL A   1      42.299  30.362  37.134  1.00  0.00    +0.000 F 
ATOM     48  C35 UNL A   1      41.684  28.644  35.638  1.00  0.00    +0.000 C 
ATOM     49  F8  UNL A   1      41.363  27.846  36.666  1.00  0.00    +0.000 F 
ATOM     50  C36 UNL A   1      41.515  28.202  34.336  1.00  0.00    +0.000 C 
ATOM     51  F9  UNL A   1      41.012  26.981  34.104  1.00  0.00    +0.000 F 
ATOM     52  C37 UNL A   1      41.831  29.033  33.266  1.00  0.00    +0.000 C 
ATOM     53  F10 UNL A   1      41.628  28.583  32.018  1.00  0.00    +0.000 F 
ENDBRANCH   42   43
BRANCH   57   58
ATOM     65  C45 UNL A   1      35.324  33.455  29.683  1.00  0.00    +0.000 C 
ATOM     66  F14 UNL A   1      35.076  34.149  28.564  1.00  0.00    +0.000 F 
ATOM     67  C46 UNL A   1      36.397  32.563  29.720  1.00  0.00    +0.000 C 
ATOM     68  F15 UNL A   1      37.153  32.472  28.617  1.00  0.00    +0.000 F 
ATOM     58  C41 UNL A   1      36.745  31.866  30.893  1.00  0.00    +0.000 C 
ATOM     59  C42 UNL A   1      35.926  32.085  32.015  1.00  0.00    +0.000 C 
ATOM     60  F11 UNL A   1      36.209  31.491  33.184  1.00  0.00    +0.000 F 
ATOM     61  C43 UNL A   1      34.851  32.981  31.977  1.00  0.00    +0.000 C 
ATOM     62  F12 UNL A   1      34.137  33.217  33.087  1.00  0.00    +0.000 F 
ATOM     63  C44 UNL A   1      34.561  33.676  30.815  1.00  0.00    +0.000 C 
ATOM     64  F13 UNL A   1      33.578  34.588  30.798  1.00  0.00    +0.000 F 
ENDBRANCH   57   58
TORSDOF 19
ENDMDL
MODEL 3
REMARK VINA RESULT:     -11.4      1.971      3.668
ROOT
ATOM     21  C17 UNL A   1      40.645  27.768  28.675  1.00  0.00    +0.000 C 
ATOM     22  C18 UNL A   1      41.828  28.522  28.175  1.00  0.00    +0.000 C 
ATOM     23  N3  UNL A   1      42.850  28.929  28.854  1.00  0.00    +0.000 N 
ATOM     24  C19 UNL A   1      43.677  29.585  27.946  1.00  0.00    +0.000 C 
ATOM     25  C20 UNL A   1      44.606  30.490  28.360  1.00  0.00    +0.000 C 
ATOM     37  C27 UNL A   1      44.919  30.314  29.754  1.00  0.00    +0.000 C 
ATOM     38  C28 UNL A   1      45.518  29.319  30.501  1.00  0.00    +0.000 C 
ATOM     39  C29 UNL A   1      44.825  29.322  31.747  1.00  0.00    +0.000 C 
ATOM     40  C30 UNL A   1      43.884  30.351  31.710  1.00  0.00    +0.000 C 
ATOM     41  N4  UNL A   1      44.290  31.130  30.659  1.00  0.00    +0.000 N 
ATOM     42  C31 UNL A   1      42.677  30.597  32.460  1.00  0.00    +0.000 C 
ATOM     54  C38 UNL A   1      41.661  31.413  32.055  1.00  0.00    +0.000 C 
ATOM     55  N5  UNL A   1      40.384  31.265  32.572  1.00  0.00    +0.000 N 
ATOM     56  C39 UNL A   1      39.596  31.718  31.637  1.00  0.00    +0.000 C 
ATOM     57  C40 UNL A   1      38.295  31.092  31.293  1.00  0.00    +0.000 C 
ATOM     69  C47 UNL A   1      38.575  29.880  30.750  1.00  0.00    +0.000 C 
ATOM     70  C48 UNL A   1      37.741  28.709  30.581  1.00  0.00    +0.000 C 
ATOM     71  C49 UNL A   1      38.456  27.757  29.946  1.00  0.00    +0.000 C 
ATOM     72  C50 UNL A   1      39.745  28.308  29.524  1.00  0.00    +0.000 C 
ATOM     73  N6  UNL A   1      39.798  29.543  30.136  1.00  0.00    +0.000 N 
ATOM     74  C51 UNL A   1      40.225  32.564  30.636  1.00  0.00    +0.000 C 
ATOM     75  C52 UNL A   1      41.503  32.275  30.887  1.00  0.00    +0.000 C 
ATOM     76  C53 UNL A   1      43.157  29.293  26.636  1.00  0.00    +0.000 C 
ATOM     77  C54 UNL A   1      41.964  28.702  26.721  1.00  0.00    +0.000 C 
ATOM    117  H22 UNL A   1      46.300  28.707  30.219  1.00  0.00    +0.000 H 
ATOM    118  H23 UNL A   1      44.990  28.677  32.535  1.00  0.00    +0.000 H 
ATOM    119  H24 UNL A   1      44.154  32.101  30.569  1.00  0.00    +0.000 H 
ATOM    120  H25 UNL A   1      36.762  28.618  30.895  1.00  0.00    +0.000 H 
ATOM    121  H26 UNL A   1      38.142  26.788  29.781  1.00  0.00    +0.000 H 
ATOM    122  H27 UNL A   1      40.596  30.120  30.142  1.00  0.00    +0.000 H 
ATOM    123  H28 UNL A   1      39.807  33.201  29.939  1.00  0.00    +0.000 H 
ATOM    124  H29 UNL A   1      42.292  32.622  30.319  1.00  0.00    +0.000 H 
ATOM    125  H30 UNL A   1      43.642  29.510  25.751  1.00  0.00    +0.000 H 
ATOM    126  H31 UNL A   1      41.310  28.441  25.967  1.00  0.00    +0.000 H 
ENDROOT
BRANCH   21   20
ATOM     78  C55 UNL A   1      39.569  26.091  27.184  1.00  0.00    +0.000 C 
ATOM     79  C56 UNL A   1      39.467  24.775  26.754  1.00  0.00    +0.000 C 
ATOM     17  C13 UNL A   1      40.333  23.778  27.246  1.00  0.00    +0.000 C 
ATOM     18  C14 UNL A   1      41.387  24.161  28.072  1.00  0.00    +0.000 C 
ATOM     19  C15 UNL A   1      41.474  25.470  28.533  1.00  0.00    +0.000 C 
ATOM    115  H20 UNL A   1      42.105  23.472  28.345  1.00  0.00    +0.000 H 
ATOM    116  H21 UNL A   1      42.239  25.741  29.169  1.00  0.00    +0.000 H 
ATOM     20  C16 UNL A   1      40.528  26.418  28.133  1.00  0.00    +0.000 C 
ATOM    127  H32 UNL A   1      38.941  26.817  26.803  1.00  0.00    +0.000 H 
ATOM    128  H33 UNL A   1      38.744  24.523  26.064  1.00  0.00    +0.000 H 
BRANCH   17   15
ATOM     15  C12 UNL A   1      39.964  22.378  26.904  1.00  0.00    +0.000 C 
ATOM     16  O2  UNL A   1      40.490  21.458  27.534  1.00  0.00    +0.000 O 
BRANCH   15   14
ATOM    114  H19 UNL A   1      39.629  21.837  25.043  1.00  0.00    +0.000 H 
ATOM     14  N2  UNL A   1      39.138  22.011  25.878  1.00  0.00    +0.000 N 
BRANCH   14   13
ATOM    113  H18 UNL A   1      37.284  21.886  26.714  1.00  0.00    +0.000 H 
ATOM     13  C11 UNL A   1      37.710  21.818  25.735  1.00  0.00    +0.000 C 
ATOM    112  H17 UNL A   1      37.542  20.863  25.283  1.00  0.00    +0.000 H 
BRANCH   13   12
ATOM     12  C10 UNL A   1      37.031  22.885  24.874  1.00  0.00    +0.000 C 
ATOM    110  H15 UNL A   1      37.622  23.776  24.917  1.00  0.00    +0.000 H 
ATOM    111  H16 UNL A   1      36.961  22.484  23.885  1.00  0.00    +0.000 H 
BRANCH   12   11
ATOM     11  C9  UNL A   1      35.605  23.231  25.315  1.00  0.00    +0.000 C 
ATOM    108  H13 UNL A   1      34.936  22.542  24.843  1.00  0.00    +0.000 H 
ATOM    109  H14 UNL A   1      35.599  23.166  26.383  1.00  0.00    +0.000 H 
BRANCH   11   10
ATOM     10  C8  UNL A   1      35.146  24.651  24.969  1.00  0.00    +0.000 C 
ATOM    107  H12 UNL A   1      34.619  24.581  24.041  1.00  0.00    +0.000 H 
ATOM    106  H11 UNL A   1      36.012  25.278  24.914  1.00  0.00    +0.000 H 
BRANCH   10    9
ATOM      9  C7  UNL A   1      34.170  25.274  25.974  1.00  0.00    +0.000 C 
ATOM    105  H10 UNL A   1      34.690  25.374  26.902  1.00  0.00    +0.000 H 
ATOM    104  H9  UNL A   1      33.315  24.634  26.058  1.00  0.00    +0.000 H 
BRANCH    9    8
ATOM    102  H7  UNL A   1      32.632  26.723  25.690  1.00  0.00    +0.000 H 
ATOM    103  H8  UNL A   1      34.184  27.387  26.192  1.00  0.00    +0.000 H 
ATOM      8  C6  UNL A   1      33.693  26.669  25.568  1.00  0.00    +0.000 C 
BRANCH    8    7
ATOM    101  H6  UNL A   1      34.952  27.248  24.021  1.00  0.00    +0.000 H 
ATOM      7  N1  UNL A   1      34.025  26.961  24.188  1.00  0.00    +0.000 N 
BRANCH    7    5
ATOM      5  C5  UNL A   1      33.217  26.889  23.090  1.00  0.00    +0.000 C 
ATOM      6  O1  UNL A   1      33.653  27.305  22.013  1.00  0.00    +0.000 O 
BRANCH    5    4
ATOM    100  H5  UNL A   1      31.317  26.513  22.276  1.00  0.00    +0.000 H 
ATOM     99  H4  UNL A   1      31.309  26.911  24.009  1.00  0.00    +0.000 H 
ATOM      4  C4  UNL A   1      31.793  26.369  23.224  1.00  0.00    +0.000 C 
BRANCH    4    3
ATOM    129  H34 UNL A   1      30.269  25.932  25.824  1.00  0.00    +0.000 H 
ATOM      2  C2  UNL A   1      32.249  23.851  22.805  1.00  0.00    +0.000 C 
ATOM      3  C3  UNL A   1      31.713  24.902  23.538  1.00  0.00    +0.000 C 
ATOM    132  H37 UNL A   1      31.035  21.136  25.722  1.00  0.00    +0.000 H 
ATOM    130  H35 UNL A   1      29.387  24.521  27.586  1.00  0.00    +0.000 H 
ATOM    131  H36 UNL A   1      29.796  22.146  27.549  1.00  0.00    +0.000 H 
ATOM     80  C57 UNL A   1      31.091  24.337  24.685  1.00  0.00    +0.000 C 
ATOM     81  C58 UNL A   1      30.407  24.910  25.781  1.00  0.00    +0.000 C 
ATOM     82  C59 UNL A   1      29.917  24.102  26.807  1.00  0.00    +0.000 C 
ATOM     83  C60 UNL A   1      30.144  22.737  26.777  1.00  0.00    +0.000 C 
ATOM     84  C61 UNL A   1      30.838  22.150  25.715  1.00  0.00    +0.000 C 
ATOM     85  C62 UNL A   1      31.266  22.948  24.634  1.00  0.00    +0.000 C 
ATOM     86  N7  UNL A   1      31.861  22.640  23.400  1.00  0.00    +0.000 N 
BRANCH    2    1
ATOM      1  C1  UNL A   1      33.067  23.913  21.551  1.00  0.00    +0.000 C 
ATOM     98  H3  UNL A   1      33.161  22.931  21.138  1.00  0.00    +0.000 H 
ATOM     97  H2  UNL A   1      32.587  24.554  20.844  1.00  0.00    +0.000 H 
ATOM     96  H1  UNL A   1      34.040  24.298  21.780  1.00  0.00    +0.000 H 
ENDBRANCH    2    1
BRANCH   86   87
ATOM     87  C63 UNL A   1      32.044  21.349  22.818  1.00  0.00    +0.000 C 
ATOM     88  O3  UNL A   1      31.568  21.122  21.712  1.00  0.00    +0.000 O 
BRANCH   87   89
ATOM    133  H38 UNL A   1      34.039  21.390  24.659  1.00  0.00    +0.000 H 
ATOM    134  H39 UNL A   1      35.307  19.481  25.486  1.00  0.00    +0.000 H 
ATOM    135  H40 UNL A   1      32.821  16.873  23.308  1.00  0.00    +0.000 H 
ATOM    136  H41 UNL A   1      31.584  18.779  22.439  1.00  0.00    +0.000 H 
ATOM     89  C64 UNL A   1      32.775  20.224  23.425  1.00  0.00    +0.000 C 
ATOM     90  C65 UNL A   1      33.807  20.435  24.344  1.00  0.00    +0.000 C 
ATOM     91  C66 UNL A   1      34.521  19.337  24.832  1.00  0.00    +0.000 C 
ATOM     92  C67 UNL A   1      34.170  18.045  24.434  1.00  0.00    +0.000 C 
ATOM     93 Cl1  UNL A   1      35.082  16.700  25.000  1.00  0.00    +0.000 Cl
ATOM     94  C68 UNL A   1      33.094  17.834  23.572  1.00  0.00    +0.000 C 
ATOM     95  C69 UNL A   1      32.388  18.925  23.069  1.00  0.00    +0.000 C 
ENDBRANCH   87   89
ENDBRANCH   86   87
ENDBRANCH    4    3
ENDBRANCH    5    4
ENDBRANCH    7    5
ENDBRANCH    8    7
ENDBRANCH    9    8
ENDBRANCH   10    9
ENDBRANCH   11   10
ENDBRANCH   12   11
ENDBRANCH   13   12
ENDBRANCH   14   13
ENDBRANCH   15   14
ENDBRANCH   17   15
ENDBRANCH   21   20
BRANCH   25   26
ATOM     33  C25 UNL A   1      44.739  34.189  27.320  1.00  0.00    +0.000 C 
ATOM     34  F4  UNL A   1      44.017  35.303  27.509  1.00  0.00    +0.000 F 
ATOM     35  C26 UNL A   1      44.227  32.963  27.742  1.00  0.00    +0.000 C 
ATOM     36  F5  UNL A   1      43.051  33.027  28.373  1.00  0.00    +0.000 F 
ATOM     26  C21 UNL A   1      44.950  31.757  27.614  1.00  0.00    +0.000 C 
ATOM     27  C22 UNL A   1      46.215  31.873  27.000  1.00  0.00    +0.000 C 
ATOM     28  F1  UNL A   1      46.999  30.796  26.838  1.00  0.00    +0.000 F 
ATOM     29  C23 UNL A   1      46.745  33.111  26.625  1.00  0.00    +0.000 C 
ATOM     30  F2  UNL A   1      48.002  33.185  26.165  1.00  0.00    +0.000 F 
ATOM     31  C24 UNL A   1      46.009  34.270  26.794  1.00  0.00    +0.000 C 
ATOM     32  F3  UNL A   1      46.540  35.463  26.496  1.00  0.00    +0.000 F 
ENDBRANCH   25   26
BRANCH   42   43
ATOM     43  C32 UNL A   1      42.430  29.714  33.653  1.00  0.00    +0.000 C 
ATOM     44  C33 UNL A   1      41.844  28.438  33.572  1.00  0.00    +0.000 C 
ATOM     45  F6  UNL A   1      41.413  27.952  32.400  1.00  0.00    +0.000 F 
ATOM     46  C34 UNL A   1      41.749  27.616  34.695  1.00  0.00    +0.000 C 
ATOM     47  F7  UNL A   1      41.183  26.404  34.597  1.00  0.00    +0.000 F 
ATOM     48  C35 UNL A   1      42.279  28.031  35.907  1.00  0.00    +0.000 C 
ATOM     49  F8  UNL A   1      42.235  27.221  36.974  1.00  0.00    +0.000 F 
ATOM     50  C36 UNL A   1      42.883  29.274  36.003  1.00  0.00    +0.000 C 
ATOM     51  F9  UNL A   1      43.441  29.659  37.159  1.00  0.00    +0.000 F 
ATOM     52  C37 UNL A   1      42.945  30.112  34.893  1.00  0.00    +0.000 C 
ATOM     53  F10 UNL A   1      43.562  31.297  35.015  1.00  0.00    +0.000 F 
ENDBRANCH   42   43
BRANCH   57   58
ATOM     65  C45 UNL A   1      35.801  33.642  30.000  1.00  0.00    +0.000 C 
ATOM     66  F14 UNL A   1      35.617  34.369  28.890  1.00  0.00    +0.000 F 
ATOM     67  C46 UNL A   1      36.766  32.633  30.014  1.00  0.00    +0.000 C 
ATOM     68  F15 UNL A   1      37.489  32.465  28.898  1.00  0.00    +0.000 F 
ATOM     58  C41 UNL A   1      37.050  31.891  31.177  1.00  0.00    +0.000 C 
ATOM     59  C42 UNL A   1      36.279  32.193  32.313  1.00  0.00    +0.000 C 
ATOM     60  F11 UNL A   1      36.512  31.561  33.473  1.00  0.00    +0.000 F 
ATOM     61  C43 UNL A   1      35.315  33.207  32.299  1.00  0.00    +0.000 C 
ATOM     62  F12 UNL A   1      34.650  33.515  33.423  1.00  0.00    +0.000 F 
ATOM     63  C44 UNL A   1      35.088  33.940  31.146  1.00  0.00    +0.000 C 
ATOM     64  F13 UNL A   1      34.216  34.959  31.152  1.00  0.00    +0.000 F 
ENDBRANCH   57   58
TORSDOF 19
ENDMDL
MODEL 4
REMARK VINA RESULT:     -11.3      1.989      3.751
ROOT
ATOM     21  C17 UNL A   1      40.462  27.967  29.207  1.00  0.00    +0.000 C 
ATOM     22  C18 UNL A   1      41.663  28.708  28.731  1.00  0.00    +0.000 C 
ATOM     23  N3  UNL A   1      42.756  28.944  29.382  1.00  0.00    +0.000 N 
ATOM     24  C19 UNL A   1      43.568  29.671  28.516  1.00  0.00    +0.000 C 
ATOM     25  C20 UNL A   1      44.587  30.443  28.984  1.00  0.00    +0.000 C 
ATOM     37  C27 UNL A   1      44.978  30.044  30.311  1.00  0.00    +0.000 C 
ATOM     38  C28 UNL A   1      45.548  28.913  30.860  1.00  0.00    +0.000 C 
ATOM     39  C29 UNL A   1      44.940  28.777  32.143  1.00  0.00    +0.000 C 
ATOM     40  C30 UNL A   1      44.079  29.859  32.324  1.00  0.00    +0.000 C 
ATOM     41  N4  UNL A   1      44.472  30.756  31.367  1.00  0.00    +0.000 N 
ATOM     42  C31 UNL A   1      42.945  30.070  33.192  1.00  0.00    +0.000 C 
ATOM     54  C38 UNL A   1      41.969  31.001  32.984  1.00  0.00    +0.000 C 
ATOM     55  N5  UNL A   1      40.721  30.861  33.571  1.00  0.00    +0.000 N 
ATOM     56  C39 UNL A   1      39.910  31.497  32.773  1.00  0.00    +0.000 C 
ATOM     57  C40 UNL A   1      38.546  31.015  32.442  1.00  0.00    +0.000 C 
ATOM     69  C47 UNL A   1      38.698  29.880  31.713  1.00  0.00    +0.000 C 
ATOM     70  C48 UNL A   1      37.769  28.804  31.442  1.00  0.00    +0.000 C 
ATOM     71  C49 UNL A   1      38.367  27.911  30.626  1.00  0.00    +0.000 C 
ATOM     72  C50 UNL A   1      39.663  28.433  30.190  1.00  0.00    +0.000 C 
ATOM     73  N6  UNL A   1      39.849  29.558  30.966  1.00  0.00    +0.000 N 
ATOM     74  C51 UNL A   1      40.534  32.439  31.857  1.00  0.00    +0.000 C 
ATOM     75  C52 UNL A   1      41.800  32.034  31.967  1.00  0.00    +0.000 C 
ATOM     76  C53 UNL A   1      42.942  29.609  27.221  1.00  0.00    +0.000 C 
ATOM     77  C54 UNL A   1      41.717  29.092  27.312  1.00  0.00    +0.000 C 
ATOM    117  H22 UNL A   1      46.261  28.299  30.436  1.00  0.00    +0.000 H 
ATOM    118  H23 UNL A   1      45.107  28.014  32.817  1.00  0.00    +0.000 H 
ATOM    119  H24 UNL A   1      44.404  31.737  31.427  1.00  0.00    +0.000 H 
ATOM    120  H25 UNL A   1      36.808  28.731  31.813  1.00  0.00    +0.000 H 
ATOM    121  H26 UNL A   1      37.971  26.999  30.349  1.00  0.00    +0.000 H 
ATOM    122  H27 UNL A   1      40.687  30.076  30.994  1.00  0.00    +0.000 H 
ATOM    123  H28 UNL A   1      40.120  33.197  31.292  1.00  0.00    +0.000 H 
ATOM    124  H29 UNL A   1      42.574  32.408  31.396  1.00  0.00    +0.000 H 
ATOM    125  H30 UNL A   1      43.383  29.922  26.342  1.00  0.00    +0.000 H 
ATOM    126  H31 UNL A   1      40.997  28.987  26.580  1.00  0.00    +0.000 H 
ENDROOT
BRANCH   21   20
ATOM     78  C55 UNL A   1      39.204  26.618  27.537  1.00  0.00    +0.000 C 
ATOM     79  C56 UNL A   1      38.971  25.389  26.934  1.00  0.00    +0.000 C 
ATOM     17  C13 UNL A   1      39.750  24.260  27.255  1.00  0.00    +0.000 C 
ATOM     18  C14 UNL A   1      40.852  24.428  28.090  1.00  0.00    +0.000 C 
ATOM     19  C15 UNL A   1      41.071  25.646  28.722  1.00  0.00    +0.000 C 
ATOM    115  H20 UNL A   1      41.509  23.646  28.241  1.00  0.00    +0.000 H 
ATOM    116  H21 UNL A   1      41.871  25.757  29.364  1.00  0.00    +0.000 H 
ATOM     20  C16 UNL A   1      40.209  26.722  28.489  1.00  0.00    +0.000 C 
ATOM    127  H32 UNL A   1      38.638  27.443  27.281  1.00  0.00    +0.000 H 
ATOM    128  H33 UNL A   1      38.213  25.302  26.240  1.00  0.00    +0.000 H 
BRANCH   17   15
ATOM     15  C12 UNL A   1      39.245  22.960  26.736  1.00  0.00    +0.000 C 
ATOM     16  O2  UNL A   1      39.842  21.928  27.051  1.00  0.00    +0.000 O 
BRANCH   15   14
ATOM    114  H19 UNL A   1      38.513  22.677  24.933  1.00  0.00    +0.000 H 
ATOM     14  N2  UNL A   1      38.208  22.814  25.859  1.00  0.00    +0.000 N 
BRANCH   14   13
ATOM    113  H18 UNL A   1      36.530  23.014  26.999  1.00  0.00    +0.000 H 
ATOM     13  C11 UNL A   1      36.764  22.813  25.975  1.00  0.00    +0.000 C 
ATOM    112  H17 UNL A   1      36.401  21.858  25.654  1.00  0.00    +0.000 H 
BRANCH   13   12
ATOM     12  C10 UNL A   1      36.082  23.895  25.136  1.00  0.00    +0.000 C 
ATOM    110  H15 UNL A   1      36.838  24.541  24.743  1.00  0.00    +0.000 H 
ATOM    111  H16 UNL A   1      35.531  23.391  24.371  1.00  0.00    +0.000 H 
BRANCH   12   11
ATOM     11  C9  UNL A   1      35.076  24.749  25.917  1.00  0.00    +0.000 C 
ATOM    108  H13 UNL A   1      34.344  24.094  26.340  1.00  0.00    +0.000 H 
ATOM    109  H14 UNL A   1      35.643  25.284  26.649  1.00  0.00    +0.000 H 
BRANCH   11   10
ATOM     10  C8  UNL A   1      34.343  25.807  25.085  1.00  0.00    +0.000 C 
ATOM    107  H12 UNL A   1      33.495  25.318  24.653  1.00  0.00    +0.000 H 
ATOM    106  H11 UNL A   1      35.024  26.189  24.355  1.00  0.00    +0.000 H 
BRANCH   10    9
ATOM      9  C7  UNL A   1      33.794  26.990  25.891  1.00  0.00    +0.000 C 
ATOM    105  H10 UNL A   1      33.603  27.784  25.201  1.00  0.00    +0.000 H 
ATOM    104  H9  UNL A   1      34.521  27.265  26.629  1.00  0.00    +0.000 H 
BRANCH    9    8
ATOM    102  H7  UNL A   1      32.278  25.631  26.523  1.00  0.00    +0.000 H 
ATOM    103  H8  UNL A   1      32.569  26.973  27.626  1.00  0.00    +0.000 H 
ATOM      8  C6  UNL A   1      32.476  26.679  26.601  1.00  0.00    +0.000 C 
BRANCH    8    7
ATOM    101  H6  UNL A   1      31.155  28.273  26.443  1.00  0.00    +0.000 H 
ATOM      7  N1  UNL A   1      31.373  27.413  26.015  1.00  0.00    +0.000 N 
BRANCH    7    5
ATOM      5  C5  UNL A   1      30.598  27.066  24.946  1.00  0.00    +0.000 C 
ATOM      6  O1  UNL A   1      30.403  27.907  24.066  1.00  0.00    +0.000 O 
BRANCH    5    4
ATOM    100  H5  UNL A   1      29.282  25.694  24.052  1.00  0.00    +0.000 H 
ATOM     99  H4  UNL A   1      29.427  25.530  25.817  1.00  0.00    +0.000 H 
ATOM      4  C4  UNL A   1      29.943  25.693  24.894  1.00  0.00    +0.000 C 
BRANCH    4    3
ATOM    129  H34 UNL A   1      31.371  26.012  22.222  1.00  0.00    +0.000 H 
ATOM      2  C2  UNL A   1      31.162  23.497  25.538  1.00  0.00    +0.000 C 
ATOM      3  C3  UNL A   1      30.917  24.567  24.687  1.00  0.00    +0.000 C 
ATOM    132  H37 UNL A   1      33.763  21.817  22.751  1.00  0.00    +0.000 H 
ATOM    130  H35 UNL A   1      32.915  25.268  20.509  1.00  0.00    +0.000 H 
ATOM    131  H36 UNL A   1      34.077  23.171  20.760  1.00  0.00    +0.000 H 
ATOM     80  C57 UNL A   1      31.739  24.387  23.541  1.00  0.00    +0.000 C 
ATOM     81  C58 UNL A   1      31.901  25.137  22.354  1.00  0.00    +0.000 C 
ATOM     82  C59 UNL A   1      32.773  24.699  21.358  1.00  0.00    +0.000 C 
ATOM     83  C60 UNL A   1      33.447  23.500  21.509  1.00  0.00    +0.000 C 
ATOM     84  C61 UNL A   1      33.285  22.729  22.664  1.00  0.00    +0.000 C 
ATOM     85  C62 UNL A   1      32.467  23.203  23.711  1.00  0.00    +0.000 C 
ATOM     86  N7  UNL A   1      32.212  22.730  25.009  1.00  0.00    +0.000 N 
BRANCH    2    1
ATOM      1  C1  UNL A   1      30.501  23.176  26.844  1.00  0.00    +0.000 C 
ATOM     98  H3  UNL A   1      30.220  22.144  26.856  1.00  0.00    +0.000 H 
ATOM     97  H2  UNL A   1      31.182  23.370  27.645  1.00  0.00    +0.000 H 
ATOM     96  H1  UNL A   1      29.629  23.785  26.960  1.00  0.00    +0.000 H 
ENDBRANCH    2    1
BRANCH   86   87
ATOM     87  C63 UNL A   1      32.882  21.675  25.701  1.00  0.00    +0.000 C 
ATOM     88  O3  UNL A   1      33.208  21.844  26.870  1.00  0.00    +0.000 O 
BRANCH   87   89
ATOM    133  H38 UNL A   1      35.306  20.463  25.540  1.00  0.00    +0.000 H 
ATOM    134  H39 UNL A   1      35.815  18.349  24.442  1.00  0.00    +0.000 H 
ATOM    135  H40 UNL A   1      31.719  17.744  23.683  1.00  0.00    +0.000 H 
ATOM    136  H41 UNL A   1      31.209  19.878  24.733  1.00  0.00    +0.000 H 
ATOM     89  C64 UNL A   1      33.230  20.359  25.140  1.00  0.00    +0.000 C 
ATOM     90  C65 UNL A   1      34.551  19.904  25.112  1.00  0.00    +0.000 C 
ATOM     91  C66 UNL A   1      34.840  18.681  24.498  1.00  0.00    +0.000 C 
ATOM     92  C67 UNL A   1      33.806  17.911  23.962  1.00  0.00    +0.000 C 
ATOM     93 Cl1  UNL A   1      34.170  16.430  23.165  1.00  0.00    +0.000 Cl
ATOM     94  C68 UNL A   1      32.480  18.335  24.055  1.00  0.00    +0.000 C 
ATOM     95  C69 UNL A   1      32.188  19.560  24.651  1.00  0.00    +0.000 C 
ENDBRANCH   87   89
ENDBRANCH   86   87
ENDBRANCH    4    3
ENDBRANCH    5    4
ENDBRANCH    7    5
ENDBRANCH    8    7
ENDBRANCH    9    8
ENDBRANCH   10    9
ENDBRANCH   11   10
ENDBRANCH   12   11
ENDBRANCH   13   12
ENDBRANCH   14   13
ENDBRANCH   15   14
ENDBRANCH   17   15
ENDBRANCH   21   20
BRANCH   25   26
ATOM     33  C25 UNL A   1      46.319  33.123  26.838  1.00  0.00    +0.000 C 
ATOM     34  F4  UNL A   1      47.433  33.243  26.102  1.00  0.00    +0.000 F 
ATOM     35  C26 UNL A   1      46.143  31.993  27.635  1.00  0.00    +0.000 C 
ATOM     36  F5  UNL A   1      47.109  31.074  27.535  1.00  0.00    +0.000 F 
ATOM     26  C21 UNL A   1      44.977  31.781  28.402  1.00  0.00    +0.000 C 
ATOM     27  C22 UNL A   1      44.013  32.809  28.333  1.00  0.00    +0.000 C 
ATOM     28  F1  UNL A   1      42.857  32.712  29.008  1.00  0.00    +0.000 F 
ATOM     29  C23 UNL A   1      44.171  33.917  27.494  1.00  0.00    +0.000 C 
ATOM     30  F2  UNL A   1      43.172  34.801  27.364  1.00  0.00    +0.000 F 
ATOM     31  C24 UNL A   1      45.320  34.068  26.740  1.00  0.00    +0.000 C 
ATOM     32  F3  UNL A   1      45.446  35.093  25.888  1.00  0.00    +0.000 F 
ENDBRANCH   25   26
BRANCH   42   43
ATOM     43  C32 UNL A   1      42.711  29.039  34.262  1.00  0.00    +0.000 C 
ATOM     44  C33 UNL A   1      41.934  27.882  34.075  1.00  0.00    +0.000 C 
ATOM     45  F6  UNL A   1      41.299  27.660  32.916  1.00  0.00    +0.000 F 
ATOM     46  C34 UNL A   1      41.851  26.901  35.064  1.00  0.00    +0.000 C 
ATOM     47  F7  UNL A   1      41.101  25.807  34.867  1.00  0.00    +0.000 F 
ATOM     48  C35 UNL A   1      42.577  27.035  36.237  1.00  0.00    +0.000 C 
ATOM     49  F8  UNL A   1      42.539  26.070  37.166  1.00  0.00    +0.000 F 
ATOM     50  C36 UNL A   1      43.369  28.155  36.432  1.00  0.00    +0.000 C 
ATOM     51  F9  UNL A   1      44.112  28.265  37.541  1.00  0.00    +0.000 F 
ATOM     52  C37 UNL A   1      43.424  29.152  35.462  1.00  0.00    +0.000 C 
ATOM     53  F10 UNL A   1      44.223  30.210  35.671  1.00  0.00    +0.000 F 
ENDBRANCH   42   43
BRANCH   57   58
ATOM     65  C45 UNL A   1      36.009  33.685  31.534  1.00  0.00    +0.000 C 
ATOM     66  F14 UNL A   1      35.643  34.371  30.442  1.00  0.00    +0.000 F 
ATOM     67  C46 UNL A   1      36.886  32.606  31.412  1.00  0.00    +0.000 C 
ATOM     68  F15 UNL A   1      37.345  32.330  30.183  1.00  0.00    +0.000 F 
ATOM     58  C41 UNL A   1      37.359  31.901  32.535  1.00  0.00    +0.000 C 
ATOM     59  C42 UNL A   1      36.867  32.316  33.785  1.00  0.00    +0.000 C 
ATOM     60  F11 UNL A   1      37.296  31.724  34.910  1.00  0.00    +0.000 F 
ATOM     61  C43 UNL A   1      35.990  33.400  33.907  1.00  0.00    +0.000 C 
ATOM     62  F12 UNL A   1      35.598  33.811  35.122  1.00  0.00    +0.000 F 
ATOM     63  C44 UNL A   1      35.574  34.092  32.782  1.00  0.00    +0.000 C 
ATOM     64  F13 UNL A   1      34.791  35.175  32.903  1.00  0.00    +0.000 F 
ENDBRANCH   57   58
TORSDOF 19
ENDMDL
MODEL 5
REMARK VINA RESULT:     -11.1      8.312     14.575
ROOT
ATOM     21  C17 UNL A   1      41.102  34.290  31.111  1.00  0.00    +0.000 C 
ATOM     22  C18 UNL A   1      41.472  33.889  32.496  1.00  0.00    +0.000 C 
ATOM     23  N3  UNL A   1      41.609  32.690  32.962  1.00  0.00    +0.000 N 
ATOM     24  C19 UNL A   1      41.956  32.836  34.302  1.00  0.00    +0.000 C 
ATOM     25  C20 UNL A   1      41.766  31.828  35.196  1.00  0.00    +0.000 C 
ATOM     37  C27 UNL A   1      41.640  30.557  34.530  1.00  0.00    +0.000 C 
ATOM     38  C28 UNL A   1      42.482  29.765  33.776  1.00  0.00    +0.000 C 
ATOM     39  C29 UNL A   1      41.643  29.170  32.788  1.00  0.00    +0.000 C 
ATOM     40  C30 UNL A   1      40.335  29.589  33.029  1.00  0.00    +0.000 C 
ATOM     41  N4  UNL A   1      40.376  30.075  34.309  1.00  0.00    +0.000 N 
ATOM     42  C31 UNL A   1      39.161  29.651  32.193  1.00  0.00    +0.000 C 
ATOM     54  C38 UNL A   1      38.074  30.441  32.436  1.00  0.00    +0.000 C 
ATOM     55  N5  UNL A   1      37.210  30.791  31.411  1.00  0.00    +0.000 N 
ATOM     56  C39 UNL A   1      36.694  31.927  31.789  1.00  0.00    +0.000 C 
ATOM     57  C40 UNL A   1      36.429  33.053  30.859  1.00  0.00    +0.000 C 
ATOM     69  C47 UNL A   1      37.639  33.509  30.444  1.00  0.00    +0.000 C 
ATOM     70  C48 UNL A   1      37.998  34.308  29.291  1.00  0.00    +0.000 C 
ATOM     71  C49 UNL A   1      39.326  34.546  29.327  1.00  0.00    +0.000 C 
ATOM     72  C50 UNL A   1      39.882  34.051  30.587  1.00  0.00    +0.000 C 
ATOM     73  N6  UNL A   1      38.844  33.343  31.155  1.00  0.00    +0.000 N 
ATOM     74  C51 UNL A   1      36.812  32.234  33.206  1.00  0.00    +0.000 C 
ATOM     75  C52 UNL A   1      37.740  31.335  33.540  1.00  0.00    +0.000 C 
ATOM     76  C53 UNL A   1      42.257  34.231  34.495  1.00  0.00    +0.000 C 
ATOM     77  C54 UNL A   1      41.898  34.945  33.428  1.00  0.00    +0.000 C 
ATOM    117  H22 UNL A   1      43.497  29.630  33.901  1.00  0.00    +0.000 H 
ATOM    118  H23 UNL A   1      41.951  28.542  32.029  1.00  0.00    +0.000 H 
ATOM    119  H24 UNL A   1      39.632  30.078  34.953  1.00  0.00    +0.000 H 
ATOM    120  H25 UNL A   1      37.346  34.639  28.562  1.00  0.00    +0.000 H 
ATOM    121  H26 UNL A   1      39.867  35.008  28.579  1.00  0.00    +0.000 H 
ATOM    122  H27 UNL A   1      38.935  32.786  31.963  1.00  0.00    +0.000 H 
ATOM    123  H28 UNL A   1      36.322  32.937  33.781  1.00  0.00    +0.000 H 
ATOM    124  H29 UNL A   1      38.173  31.279  34.475  1.00  0.00    +0.000 H 
ATOM    125  H30 UNL A   1      42.693  34.624  35.344  1.00  0.00    +0.000 H 
ATOM    126  H31 UNL A   1      41.914  35.967  33.291  1.00  0.00    +0.000 H 
ENDROOT
BRANCH   21   20
ATOM     78  C55 UNL A   1      43.417  35.191  30.949  1.00  0.00    +0.000 C 
ATOM     79  C56 UNL A   1      44.359  35.927  30.242  1.00  0.00    +0.000 C 
ATOM     17  C13 UNL A   1      44.067  36.454  28.969  1.00  0.00    +0.000 C 
ATOM     18  C14 UNL A   1      42.859  36.110  28.367  1.00  0.00    +0.000 C 
ATOM     19  C15 UNL A   1      41.899  35.403  29.081  1.00  0.00    +0.000 C 
ATOM    115  H20 UNL A   1      42.675  36.381  27.388  1.00  0.00    +0.000 H 
ATOM    116  H21 UNL A   1      40.993  35.177  28.642  1.00  0.00    +0.000 H 
ATOM     20  C16 UNL A   1      42.159  34.997  30.394  1.00  0.00    +0.000 C 
ATOM    127  H32 UNL A   1      43.647  34.794  31.873  1.00  0.00    +0.000 H 
ATOM    128  H33 UNL A   1      45.288  36.090  30.658  1.00  0.00    +0.000 H 
BRANCH   17   15
ATOM     15  C12 UNL A   1      45.059  37.425  28.431  1.00  0.00    +0.000 C 
ATOM     16  O2  UNL A   1      46.102  36.990  27.938  1.00  0.00    +0.000 O 
BRANCH   15   14
ATOM    114  H19 UNL A   1      45.468  39.246  27.812  1.00  0.00    +0.000 H 
ATOM     14  N2  UNL A   1      44.950  38.785  28.511  1.00  0.00    +0.000 N 
BRANCH   14   13
ATOM    113  H18 UNL A   1      44.965  40.425  29.720  1.00  0.00    +0.000 H 
ATOM     13  C11 UNL A   1      44.250  39.705  29.383  1.00  0.00    +0.000 C 
ATOM    112  H17 UNL A   1      43.823  39.146  30.190  1.00  0.00    +0.000 H 
BRANCH   13   12
ATOM     12  C10 UNL A   1      43.129  40.477  28.685  1.00  0.00    +0.000 C 
ATOM    110  H15 UNL A   1      42.720  41.178  29.382  1.00  0.00    +0.000 H 
ATOM    111  H16 UNL A   1      43.567  40.951  27.832  1.00  0.00    +0.000 H 
BRANCH   12   11
ATOM     11  C9  UNL A   1      41.990  39.593  28.165  1.00  0.00    +0.000 C 
ATOM    108  H13 UNL A   1      42.154  38.598  28.521  1.00  0.00    +0.000 H 
ATOM    109  H14 UNL A   1      41.084  40.031  28.527  1.00  0.00    +0.000 H 
BRANCH   11   10
ATOM     10  C8  UNL A   1      41.860  39.536  26.639  1.00  0.00    +0.000 C 
ATOM    107  H12 UNL A   1      41.166  38.751  26.424  1.00  0.00    +0.000 H 
ATOM    106  H11 UNL A   1      42.832  39.362  26.228  1.00  0.00    +0.000 H 
BRANCH   10    9
ATOM      9  C7  UNL A   1      41.289  40.805  25.996  1.00  0.00    +0.000 C 
ATOM    105  H10 UNL A   1      41.122  41.512  26.781  1.00  0.00    +0.000 H 
ATOM    104  H9  UNL A   1      40.384  40.550  25.485  1.00  0.00    +0.000 H 
BRANCH    9    8
ATOM    102  H7  UNL A   1      42.848  42.175  25.505  1.00  0.00    +0.000 H 
ATOM    103  H8  UNL A   1      42.851  40.689  24.561  1.00  0.00    +0.000 H 
ATOM      8  C6  UNL A   1      42.244  41.457  24.994  1.00  0.00    +0.000 C 
BRANCH    8    7
ATOM    101  H6  UNL A   1      40.539  42.053  23.969  1.00  0.00    +0.000 H 
ATOM      7  N1  UNL A   1      41.520  42.121  23.929  1.00  0.00    +0.000 N 
BRANCH    7    5
ATOM      5  C5  UNL A   1      42.025  42.830  22.876  1.00  0.00    +0.000 C 
ATOM      6  O1  UNL A   1      42.330  44.011  23.057  1.00  0.00    +0.000 O 
BRANCH    5    4
ATOM    100  H5  UNL A   1      41.146  42.135  21.099  1.00  0.00    +0.000 H 
ATOM     99  H4  UNL A   1      42.572  41.211  21.624  1.00  0.00    +0.000 H 
ATOM      4  C4  UNL A   1      42.136  42.181  21.504  1.00  0.00    +0.000 C 
BRANCH    4    3
ATOM    129  H34 UNL A   1      45.094  41.817  22.133  1.00  0.00    +0.000 H 
ATOM      2  C2  UNL A   1      42.528  43.768  19.492  1.00  0.00    +0.000 C 
ATOM      3  C3  UNL A   1      42.973  42.963  20.532  1.00  0.00    +0.000 C 
ATOM    132  H37 UNL A   1      46.441  44.929  18.655  1.00  0.00    +0.000 H 
ATOM    130  H35 UNL A   1      47.443  42.276  21.755  1.00  0.00    +0.000 H 
ATOM    131  H36 UNL A   1      48.106  43.845  20.049  1.00  0.00    +0.000 H 
ATOM     80  C57 UNL A   1      44.393  43.039  20.541  1.00  0.00    +0.000 C 
ATOM     81  C58 UNL A   1      45.376  42.453  21.372  1.00  0.00    +0.000 C 
ATOM     82  C59 UNL A   1      46.727  42.733  21.169  1.00  0.00    +0.000 C 
ATOM     83  C60 UNL A   1      47.106  43.626  20.183  1.00  0.00    +0.000 C 
ATOM     84  C61 UNL A   1      46.151  44.235  19.363  1.00  0.00    +0.000 C 
ATOM     85  C62 UNL A   1      44.789  43.897  19.508  1.00  0.00    +0.000 C 
ATOM     86  N7  UNL A   1      43.640  44.236  18.773  1.00  0.00    +0.000 N 
BRANCH    2    1
ATOM      1  C1  UNL A   1      41.118  44.090  19.102  1.00  0.00    +0.000 C 
ATOM     98  H3  UNL A   1      40.477  43.281  19.382  1.00  0.00    +0.000 H 
ATOM     97  H2  UNL A   1      40.805  44.983  19.600  1.00  0.00    +0.000 H 
ATOM     96  H1  UNL A   1      41.066  44.235  18.043  1.00  0.00    +0.000 H 
ENDBRANCH    2    1
BRANCH   86   87
ATOM     87  C63 UNL A   1      43.575  44.917  17.520  1.00  0.00    +0.000 C 
ATOM     88  O3  UNL A   1      43.339  44.273  16.505  1.00  0.00    +0.000 O 
BRANCH   87   89
ATOM    133  H38 UNL A   1      41.793  46.943  17.821  1.00  0.00    +0.000 H 
ATOM    134  H39 UNL A   1      42.149  49.295  17.293  1.00  0.00    +0.000 H 
ATOM    135  H40 UNL A   1      46.188  48.498  16.415  1.00  0.00    +0.000 H 
ATOM    136  H41 UNL A   1      45.826  46.141  16.891  1.00  0.00    +0.000 H 
ATOM     89  C64 UNL A   1      43.764  46.362  17.312  1.00  0.00    +0.000 C 
ATOM     90  C65 UNL A   1      42.714  47.268  17.486  1.00  0.00    +0.000 C 
ATOM     91  C66 UNL A   1      42.925  48.621  17.200  1.00  0.00    +0.000 C 
ATOM     92  C67 UNL A   1      44.186  49.057  16.791  1.00  0.00    +0.000 C 
ATOM     93 Cl1  UNL A   1      44.429  50.714  16.395  1.00  0.00    +0.000 Cl
ATOM     94  C68 UNL A   1      45.251  48.161  16.688  1.00  0.00    +0.000 C 
ATOM     95  C69 UNL A   1      45.043  46.809  16.955  1.00  0.00    +0.000 C 
ENDBRANCH   87   89
ENDBRANCH   86   87
ENDBRANCH    4    3
ENDBRANCH    5    4
ENDBRANCH    7    5
ENDBRANCH    8    7
ENDBRANCH    9    8
ENDBRANCH   10    9
ENDBRANCH   11   10
ENDBRANCH   12   11
ENDBRANCH   13   12
ENDBRANCH   14   13
ENDBRANCH   15   14
ENDBRANCH   17   15
ENDBRANCH   21   20
BRANCH   25   26
ATOM     33  C25 UNL A   1      41.861  32.442  38.991  1.00  0.00    +0.000 C 
ATOM     34  F4  UNL A   1      42.749  32.355  39.991  1.00  0.00    +0.000 F 
ATOM     35  C26 UNL A   1      42.193  31.935  37.735  1.00  0.00    +0.000 C 
ATOM     36  F5  UNL A   1      43.435  31.449  37.631  1.00  0.00    +0.000 F 
ATOM     26  C21 UNL A   1      41.325  32.031  36.626  1.00  0.00    +0.000 C 
ATOM     27  C22 UNL A   1      40.082  32.648  36.883  1.00  0.00    +0.000 C 
ATOM     28  F1  UNL A   1      39.181  32.808  35.902  1.00  0.00    +0.000 F 
ATOM     29  C23 UNL A   1      39.774  33.200  38.130  1.00  0.00    +0.000 C 
ATOM     30  F2  UNL A   1      38.635  33.889  38.290  1.00  0.00    +0.000 F 
ATOM     31  C24 UNL A   1      40.668  33.104  39.180  1.00  0.00    +0.000 C 
ATOM     32  F3  UNL A   1      40.403  33.689  40.356  1.00  0.00    +0.000 F 
ENDBRANCH   25   26
BRANCH   42   43
ATOM     43  C32 UNL A   1      39.247  28.976  30.852  1.00  0.00    +0.000 C 
ATOM     44  C33 UNL A   1      39.815  29.572  29.712  1.00  0.00    +0.000 C 
ATOM     45  F6  UNL A   1      40.272  30.831  29.750  1.00  0.00    +0.000 F 
ATOM     46  C34 UNL A   1      39.976  28.854  28.527  1.00  0.00    +0.000 C 
ATOM     47  F7  UNL A   1      40.517  29.443  27.450  1.00  0.00    +0.000 F 
ATOM     48  C35 UNL A   1      39.619  27.516  28.472  1.00  0.00    +0.000 C 
ATOM     49  F8  UNL A   1      39.822  26.811  27.350  1.00  0.00    +0.000 F 
ATOM     50  C36 UNL A   1      39.081  26.901  29.591  1.00  0.00    +0.000 C 
ATOM     51  F9  UNL A   1      38.781  25.595  29.558  1.00  0.00    +0.000 F 
ATOM     52  C37 UNL A   1      38.884  27.626  30.763  1.00  0.00    +0.000 C 
ATOM     53  F10 UNL A   1      38.387  26.992  31.836  1.00  0.00    +0.000 F 
ENDBRANCH   42   43
BRANCH   57   58
ATOM     65  C45 UNL A   1      33.266  34.631  29.485  1.00  0.00    +0.000 C 
ATOM     66  F14 UNL A   1      32.574  34.621  28.337  1.00  0.00    +0.000 F 
ATOM     67  C46 UNL A   1      34.315  33.728  29.668  1.00  0.00    +0.000 C 
ATOM     68  F15 UNL A   1      34.595  32.903  28.649  1.00  0.00    +0.000 F 
ATOM     58  C41 UNL A   1      35.119  33.747  30.824  1.00  0.00    +0.000 C 
ATOM     59  C42 UNL A   1      34.781  34.698  31.803  1.00  0.00    +0.000 C 
ATOM     60  F11 UNL A   1      35.520  34.811  32.917  1.00  0.00    +0.000 F 
ATOM     61  C43 UNL A   1      33.731  35.605  31.617  1.00  0.00    +0.000 C 
ATOM     62  F12 UNL A   1      33.485  36.544  32.542  1.00  0.00    +0.000 F 
ATOM     63  C44 UNL A   1      32.985  35.579  30.451  1.00  0.00    +0.000 C 
ATOM     64  F13 UNL A   1      32.026  36.493  30.240  1.00  0.00    +0.000 F 
ENDBRANCH   57   58
TORSDOF 19
ENDMDL
MODEL 6
REMARK VINA RESULT:     -11.0     35.837     41.179
ROOT
ATOM     21  C17 UNL A   1       1.982  11.710  43.036  1.00  0.00    +0.000 C 
ATOM     22  C18 UNL A   1       1.136  12.840  42.562  1.00  0.00    +0.000 C 
ATOM     23  N3  UNL A   1       1.450  13.759  41.708  1.00  0.00    +0.000 N 
ATOM     24  C19 UNL A   1       0.333  14.583  41.604  1.00  0.00    +0.000 C 
ATOM     25  C20 UNL A   1       0.436  15.860  41.142  1.00  0.00    +0.000 C 
ATOM     37  C27 UNL A   1       1.647  16.044  40.385  1.00  0.00    +0.000 C 
ATOM     38  C28 UNL A   1       2.138  15.546  39.195  1.00  0.00    +0.000 C 
ATOM     39  C29 UNL A   1       3.543  15.410  39.402  1.00  0.00    +0.000 C 
ATOM     40  C30 UNL A   1       3.834  15.882  40.682  1.00  0.00    +0.000 C 
ATOM     41  N4  UNL A   1       2.722  16.603  41.027  1.00  0.00    +0.000 N 
ATOM     42  C31 UNL A   1       4.943  15.656  41.576  1.00  0.00    +0.000 C 
ATOM     54  C38 UNL A   1       4.907  15.855  42.926  1.00  0.00    +0.000 C 
ATOM     55  N5  UNL A   1       5.812  15.217  43.760  1.00  0.00    +0.000 N 
ATOM     56  C39 UNL A   1       5.194  15.126  44.905  1.00  0.00    +0.000 C 
ATOM     57  C40 UNL A   1       5.284  13.936  45.788  1.00  0.00    +0.000 C 
ATOM     69  C47 UNL A   1       4.658  12.920  45.140  1.00  0.00    +0.000 C 
ATOM     70  C48 UNL A   1       4.751  11.488  45.325  1.00  0.00    +0.000 C 
ATOM     71  C49 UNL A   1       3.900  10.885  44.467  1.00  0.00    +0.000 C 
ATOM     72  C50 UNL A   1       3.089  11.896  43.786  1.00  0.00    +0.000 C 
ATOM     73  N6  UNL A   1       3.671  13.092  44.148  1.00  0.00    +0.000 N 
ATOM     74  C51 UNL A   1       4.058  16.015  45.083  1.00  0.00    +0.000 C 
ATOM     75  C52 UNL A   1       3.871  16.376  43.812  1.00  0.00    +0.000 C 
ATOM     76  C53 UNL A   1      -0.739  13.905  42.284  1.00  0.00    +0.000 C 
ATOM     77  C54 UNL A   1      -0.279  12.856  42.965  1.00  0.00    +0.000 C 
ATOM    117  H22 UNL A   1       1.606  15.323  38.340  1.00  0.00    +0.000 H 
ATOM    118  H23 UNL A   1       4.222  15.028  38.725  1.00  0.00    +0.000 H 
ATOM    119  H24 UNL A   1       2.699  17.383  41.627  1.00  0.00    +0.000 H 
ATOM    120  H25 UNL A   1       5.366  11.007  45.999  1.00  0.00    +0.000 H 
ATOM    121  H26 UNL A   1       3.830   9.867  44.316  1.00  0.00    +0.000 H 
ATOM    122  H27 UNL A   1       3.426  13.964  43.760  1.00  0.00    +0.000 H 
ATOM    123  H28 UNL A   1       3.547  16.286  45.939  1.00  0.00    +0.000 H 
ATOM    124  H29 UNL A   1       3.082  16.960  43.492  1.00  0.00    +0.000 H 
ATOM    125  H30 UNL A   1      -1.730  14.191  42.247  1.00  0.00    +0.000 H 
ATOM    126  H31 UNL A   1      -0.781  12.222  43.606  1.00  0.00    +0.000 H 
ENDROOT
BRANCH   21   20
ATOM     78  C55 UNL A   1       1.051   9.471  43.594  1.00  0.00    +0.000 C 
ATOM     79  C56 UNL A   1       0.649   8.212  43.170  1.00  0.00    +0.000 C 
ATOM     17  C13 UNL A   1       0.652   7.867  41.804  1.00  0.00    +0.000 C 
ATOM     18  C14 UNL A   1       0.936   8.859  40.868  1.00  0.00    +0.000 C 
ATOM     19  C15 UNL A   1       1.372  10.110  41.287  1.00  0.00    +0.000 C 
ATOM    115  H20 UNL A   1       0.825   8.664  39.861  1.00  0.00    +0.000 H 
ATOM    116  H21 UNL A   1       1.611  10.832  40.590  1.00  0.00    +0.000 H 
ATOM     20  C16 UNL A   1       1.485  10.393  42.651  1.00  0.00    +0.000 C 
ATOM    127  H32 UNL A   1       1.028   9.719  44.596  1.00  0.00    +0.000 H 
ATOM    128  H33 UNL A   1       0.344   7.516  43.868  1.00  0.00    +0.000 H 
BRANCH   17   15
ATOM     15  C12 UNL A   1       0.443   6.425  41.503  1.00  0.00    +0.000 C 
ATOM     16  O2  UNL A   1      -0.276   5.763  42.255  1.00  0.00    +0.000 O 
BRANCH   15   14
ATOM    114  H19 UNL A   1       1.895   5.311  40.781  1.00  0.00    +0.000 H 
ATOM     14  N2  UNL A   1       1.055   5.736  40.494  1.00  0.00    +0.000 N 
BRANCH   14   13
ATOM    113  H18 UNL A   1      -0.301   5.615  38.976  1.00  0.00    +0.000 H 
ATOM     13  C11 UNL A   1       0.754   5.484  39.099  1.00  0.00    +0.000 C 
ATOM    112  H17 UNL A   1       1.072   4.491  38.859  1.00  0.00    +0.000 H 
BRANCH   13   12
ATOM     12  C10 UNL A   1       1.441   6.457  38.140  1.00  0.00    +0.000 C 
ATOM    110  H15 UNL A   1       0.889   6.473  37.224  1.00  0.00    +0.000 H 
ATOM    111  H16 UNL A   1       1.459   7.410  38.626  1.00  0.00    +0.000 H 
BRANCH   12   11
ATOM     11  C9  UNL A   1       2.896   6.096  37.819  1.00  0.00    +0.000 C 
ATOM    108  H13 UNL A   1       3.492   6.328  38.677  1.00  0.00    +0.000 H 
ATOM    109  H14 UNL A   1       2.897   5.057  37.568  1.00  0.00    +0.000 H 
BRANCH   11   10
ATOM     10  C8  UNL A   1       3.494   6.830  36.614  1.00  0.00    +0.000 C 
ATOM    107  H12 UNL A   1       3.815   7.786  36.970  1.00  0.00    +0.000 H 
ATOM    106  H11 UNL A   1       2.743   6.894  35.855  1.00  0.00    +0.000 H 
BRANCH   10    9
ATOM      9  C7  UNL A   1       4.731   6.159  36.004  1.00  0.00    +0.000 C 
ATOM    105  H10 UNL A   1       4.393   5.303  35.461  1.00  0.00    +0.000 H 
ATOM    104  H9  UNL A   1       5.400   5.895  36.797  1.00  0.00    +0.000 H 
BRANCH    9    8
ATOM    102  H7  UNL A   1       6.074   6.444  34.373  1.00  0.00    +0.000 H 
ATOM    103  H8  UNL A   1       4.758   7.612  34.454  1.00  0.00    +0.000 H 
ATOM      8  C6  UNL A   1       5.480   7.056  35.017  1.00  0.00    +0.000 C 
BRANCH    8    7
ATOM    101  H6  UNL A   1       6.247   8.939  35.440  1.00  0.00    +0.000 H 
ATOM      7  N1  UNL A   1       6.343   7.995  35.705  1.00  0.00    +0.000 N 
BRANCH    7    5
ATOM      5  C5  UNL A   1       7.271   7.739  36.672  1.00  0.00    +0.000 C 
ATOM      6  O1  UNL A   1       8.042   6.791  36.509  1.00  0.00    +0.000 O 
BRANCH    5    4
ATOM    100  H5  UNL A   1       8.289   8.951  38.055  1.00  0.00    +0.000 H 
ATOM     99  H4  UNL A   1       7.005   7.946  38.764  1.00  0.00    +0.000 H 
ATOM      4  C4  UNL A   1       7.294   8.573  37.946  1.00  0.00    +0.000 C 
BRANCH    4    3
ATOM    129  H34 UNL A   1       8.452  10.747  36.155  1.00  0.00    +0.000 H 
ATOM      2  C2  UNL A   1       5.169   9.916  38.581  1.00  0.00    +0.000 C 
ATOM      3  C3  UNL A   1       6.373   9.760  37.908  1.00  0.00    +0.000 C 
ATOM    132  H37 UNL A   1       4.839  13.826  37.182  1.00  0.00    +0.000 H 
ATOM    130  H35 UNL A   1       8.410  12.951  35.150  1.00  0.00    +0.000 H 
ATOM    131  H36 UNL A   1       6.632  14.488  35.687  1.00  0.00    +0.000 H 
ATOM     80  C57 UNL A   1       6.608  10.963  37.188  1.00  0.00    +0.000 C 
ATOM     81  C58 UNL A   1       7.666  11.385  36.350  1.00  0.00    +0.000 C 
ATOM     82  C59 UNL A   1       7.654  12.661  35.789  1.00  0.00    +0.000 C 
ATOM     83  C60 UNL A   1       6.627  13.538  36.090  1.00  0.00    +0.000 C 
ATOM     84  C61 UNL A   1       5.580  13.152  36.933  1.00  0.00    +0.000 C 
ATOM     85  C62 UNL A   1       5.543  11.836  37.442  1.00  0.00    +0.000 C 
ATOM     86  N7  UNL A   1       4.586  11.133  38.192  1.00  0.00    +0.000 N 
BRANCH    2    1
ATOM      1  C1  UNL A   1       4.507   8.969  39.536  1.00  0.00    +0.000 C 
ATOM     98  H3  UNL A   1       4.492   7.987  39.111  1.00  0.00    +0.000 H 
ATOM     97  H2  UNL A   1       5.051   8.952  40.456  1.00  0.00    +0.000 H 
ATOM     96  H1  UNL A   1       3.503   9.294  39.720  1.00  0.00    +0.000 H 
ENDBRANCH    2    1
BRANCH   86   87
ATOM     87  C63 UNL A   1       3.255  11.540  38.511  1.00  0.00    +0.000 C 
ATOM     88  O3  UNL A   1       3.057  12.167  39.545  1.00  0.00    +0.000 O 
BRANCH   87   89
ATOM    133  H38 UNL A   1       2.493   9.257  37.254  1.00  0.00    +0.000 H 
ATOM    134  H39 UNL A   1       0.568   8.966  35.790  1.00  0.00    +0.000 H 
ATOM    135  H40 UNL A   1      -0.691  12.890  36.646  1.00  0.00    +0.000 H 
ATOM    136  H41 UNL A   1       1.257  13.204  38.069  1.00  0.00    +0.000 H 
ATOM     89  C64 UNL A   1       2.055  11.280  37.699  1.00  0.00    +0.000 C 
ATOM     90  C65 UNL A   1       1.838  10.038  37.094  1.00  0.00    +0.000 C 
ATOM     91  C66 UNL A   1       0.722   9.867  36.269  1.00  0.00    +0.000 C 
ATOM     92  C67 UNL A   1      -0.182  10.916  36.094  1.00  0.00    +0.000 C 
ATOM     93 Cl1  UNL A   1      -1.528  10.717  35.041  1.00  0.00    +0.000 Cl
ATOM     94  C68 UNL A   1       0.000  12.131  36.756  1.00  0.00    +0.000 C 
ATOM     95  C69 UNL A   1       1.119  12.313  37.567  1.00  0.00    +0.000 C 
ENDBRANCH   87   89
ENDBRANCH   86   87
ENDBRANCH    4    3
ENDBRANCH    5    4
ENDBRANCH    7    5
ENDBRANCH    8    7
ENDBRANCH    9    8
ENDBRANCH   10    9
ENDBRANCH   11   10
ENDBRANCH   12   11
ENDBRANCH   13   12
ENDBRANCH   14   13
ENDBRANCH   15   14
ENDBRANCH   17   15
ENDBRANCH   21   20
BRANCH   25   26
ATOM     33  C25 UNL A   1      -0.545  18.992  43.144  1.00  0.00    +0.000 C 
ATOM     34  F4  UNL A   1      -0.141  19.634  44.249  1.00  0.00    +0.000 F 
ATOM     35  C26 UNL A   1      -0.012  17.738  42.848  1.00  0.00    +0.000 C 
ATOM     36  F5  UNL A   1       0.932  17.310  43.692  1.00  0.00    +0.000 F 
ATOM     26  C21 UNL A   1      -0.359  17.026  41.680  1.00  0.00    +0.000 C 
ATOM     27  C22 UNL A   1      -1.309  17.654  40.847  1.00  0.00    +0.000 C 
ATOM     28  F1  UNL A   1      -1.705  17.077  39.702  1.00  0.00    +0.000 F 
ATOM     29  C23 UNL A   1      -1.803  18.933  41.122  1.00  0.00    +0.000 C 
ATOM     30  F2  UNL A   1      -2.604  19.542  40.237  1.00  0.00    +0.000 F 
ATOM     31  C24 UNL A   1      -1.413  19.605  42.266  1.00  0.00    +0.000 C 
ATOM     32  F3  UNL A   1      -1.833  20.854  42.499  1.00  0.00    +0.000 F 
ENDBRANCH   25   26
BRANCH   42   43
ATOM     43  C32 UNL A   1       6.135  14.935  41.008  1.00  0.00    +0.000 C 
ATOM     44  C33 UNL A   1       6.267  13.535  40.993  1.00  0.00    +0.000 C 
ATOM     45  F6  UNL A   1       5.334  12.750  41.549  1.00  0.00    +0.000 F 
ATOM     46  C34 UNL A   1       7.338  12.919  40.345  1.00  0.00    +0.000 C 
ATOM     47  F7  UNL A   1       7.447  11.582  40.345  1.00  0.00    +0.000 F 
ATOM     48  C35 UNL A   1       8.270  13.684  39.662  1.00  0.00    +0.000 C 
ATOM     49  F8  UNL A   1       9.271  13.091  38.996  1.00  0.00    +0.000 F 
ATOM     50  C36 UNL A   1       8.146  15.064  39.644  1.00  0.00    +0.000 C 
ATOM     51  F9  UNL A   1       9.015  15.805  38.943  1.00  0.00    +0.000 F 
ATOM     52  C37 UNL A   1       7.099  15.683  40.321  1.00  0.00    +0.000 C 
ATOM     53  F10 UNL A   1       6.993  17.019  40.259  1.00  0.00    +0.000 F 
ENDBRANCH   42   43
BRANCH   57   58
ATOM     65  C45 UNL A   1       4.769  14.241  49.534  1.00  0.00    +0.000 C 
ATOM     66  F14 UNL A   1       3.776  14.052  50.414  1.00  0.00    +0.000 F 
ATOM     67  C46 UNL A   1       4.614  13.815  48.213  1.00  0.00    +0.000 C 
ATOM     68  F15 UNL A   1       3.441  13.253  47.887  1.00  0.00    +0.000 F 
ATOM     58  C41 UNL A   1       5.596  14.056  47.233  1.00  0.00    +0.000 C 
ATOM     59  C42 UNL A   1       6.761  14.713  47.667  1.00  0.00    +0.000 C 
ATOM     60  F11 UNL A   1       7.730  15.017  46.790  1.00  0.00    +0.000 F 
ATOM     61  C43 UNL A   1       6.914  15.142  48.990  1.00  0.00    +0.000 C 
ATOM     62  F12 UNL A   1       8.009  15.829  49.348  1.00  0.00    +0.000 F 
ATOM     63  C44 UNL A   1       5.911  14.919  49.918  1.00  0.00    +0.000 C 
ATOM     64  F13 UNL A   1       6.026  15.392  51.167  1.00  0.00    +0.000 F 
ENDBRANCH   57   58
TORSDOF 19
ENDMDL
MODEL 7
REMARK VINA RESULT:     -10.6      9.400     15.016
ROOT
ATOM     21  C17 UNL A   1      45.011  25.061  31.276  1.00  0.00    +0.000 C 
ATOM     22  C18 UNL A   1      45.997  26.134  30.971  1.00  0.00    +0.000 C 
ATOM     23  N3  UNL A   1      45.766  27.296  30.452  1.00  0.00    +0.000 N 
ATOM     24  C19 UNL A   1      47.003  27.929  30.362  1.00  0.00    +0.000 C 
ATOM     25  C20 UNL A   1      47.209  28.960  29.498  1.00  0.00    +0.000 C 
ATOM     37  C27 UNL A   1      45.964  29.564  29.101  1.00  0.00    +0.000 C 
ATOM     38  C28 UNL A   1      44.973  30.273  29.750  1.00  0.00    +0.000 C 
ATOM     39  C29 UNL A   1      43.757  29.870  29.124  1.00  0.00    +0.000 C 
ATOM     40  C30 UNL A   1      44.080  28.984  28.095  1.00  0.00    +0.000 C 
ATOM     41  N4  UNL A   1      45.421  29.181  27.902  1.00  0.00    +0.000 N 
ATOM     42  C31 UNL A   1      43.315  27.981  27.396  1.00  0.00    +0.000 C 
ATOM     54  C38 UNL A   1      43.852  26.934  26.705  1.00  0.00    +0.000 C 
ATOM     55  N5  UNL A   1      43.104  25.796  26.448  1.00  0.00    +0.000 N 
ATOM     56  C39 UNL A   1      43.985  24.841  26.339  1.00  0.00    +0.000 C 
ATOM     57  C40 UNL A   1      43.775  23.473  26.874  1.00  0.00    +0.000 C 
ATOM     69  C47 UNL A   1      43.761  23.580  28.228  1.00  0.00    +0.000 C 
ATOM     70  C48 UNL A   1      43.238  22.684  29.237  1.00  0.00    +0.000 C 
ATOM     71  C49 UNL A   1      43.499  23.205  30.454  1.00  0.00    +0.000 C 
ATOM     72  C50 UNL A   1      44.345  24.391  30.312  1.00  0.00    +0.000 C 
ATOM     73  N6  UNL A   1      44.369  24.625  28.953  1.00  0.00    +0.000 N 
ATOM     74  C51 UNL A   1      45.352  25.268  26.093  1.00  0.00    +0.000 C 
ATOM     75  C52 UNL A   1      45.232  26.558  26.413  1.00  0.00    +0.000 C 
ATOM     76  C53 UNL A   1      47.928  27.123  31.115  1.00  0.00    +0.000 C 
ATOM     77  C54 UNL A   1      47.377  25.957  31.449  1.00  0.00    +0.000 C 
ATOM    117  H22 UNL A   1      45.087  30.949  30.521  1.00  0.00    +0.000 H 
ATOM    118  H23 UNL A   1      42.808  30.178  29.385  1.00  0.00    +0.000 H 
ATOM    119  H24 UNL A   1      45.909  29.066  27.054  1.00  0.00    +0.000 H 
ATOM    120  H25 UNL A   1      42.747  21.794  29.056  1.00  0.00    +0.000 H 
ATOM    121  H26 UNL A   1      43.156  22.825  31.350  1.00  0.00    +0.000 H 
ATOM    122  H27 UNL A   1      44.763  25.426  28.539  1.00  0.00    +0.000 H 
ATOM    123  H28 UNL A   1      46.173  24.733  25.767  1.00  0.00    +0.000 H 
ATOM    124  H29 UNL A   1      46.026  27.217  26.449  1.00  0.00    +0.000 H 
ATOM    125  H30 UNL A   1      48.888  27.411  31.363  1.00  0.00    +0.000 H 
ATOM    126  H31 UNL A   1      47.804  25.144  31.920  1.00  0.00    +0.000 H 
ENDROOT
BRANCH   21   20
ATOM     78  C55 UNL A   1      44.223  25.658  33.560  1.00  0.00    +0.000 C 
ATOM     79  C56 UNL A   1      44.170  25.358  34.915  1.00  0.00    +0.000 C 
ATOM     17  C13 UNL A   1      44.731  24.169  35.422  1.00  0.00    +0.000 C 
ATOM     18  C14 UNL A   1      45.223  23.229  34.520  1.00  0.00    +0.000 C 
ATOM     19  C15 UNL A   1      45.309  23.536  33.167  1.00  0.00    +0.000 C 
ATOM    115  H20 UNL A   1      45.525  22.301  34.856  1.00  0.00    +0.000 H 
ATOM    116  H21 UNL A   1      45.703  22.848  32.507  1.00  0.00    +0.000 H 
ATOM     20  C16 UNL A   1      44.863  24.776  32.700  1.00  0.00    +0.000 C 
ATOM    127  H32 UNL A   1      43.793  26.523  33.197  1.00  0.00    +0.000 H 
ATOM    128  H33 UNL A   1      43.713  26.019  35.561  1.00  0.00    +0.000 H 
BRANCH   17   15
ATOM     15  C12 UNL A   1      44.832  24.085  36.904  1.00  0.00    +0.000 C 
ATOM     16  O2  UNL A   1      44.147  24.851  37.586  1.00  0.00    +0.000 O 
BRANCH   15   14
ATOM    114  H19 UNL A   1      45.226  22.599  38.131  1.00  0.00    +0.000 H 
ATOM     14  N2  UNL A   1      45.693  23.275  37.589  1.00  0.00    +0.000 N 
BRANCH   14   13
ATOM    113  H18 UNL A   1      47.404  23.595  38.649  1.00  0.00    +0.000 H 
ATOM     13  C11 UNL A   1      47.134  23.179  37.701  1.00  0.00    +0.000 C 
ATOM    112  H17 UNL A   1      47.573  23.711  36.882  1.00  0.00    +0.000 H 
BRANCH   13   12
ATOM     12  C10 UNL A   1      47.656  21.741  37.677  1.00  0.00    +0.000 C 
ATOM    110  H15 UNL A   1      48.600  21.718  38.179  1.00  0.00    +0.000 H 
ATOM    111  H16 UNL A   1      46.917  21.137  38.161  1.00  0.00    +0.000 H 
BRANCH   12   11
ATOM     11  C9  UNL A   1      47.844  21.167  36.268  1.00  0.00    +0.000 C 
ATOM    108  H13 UNL A   1      47.571  21.924  35.563  1.00  0.00    +0.000 H 
ATOM    109  H14 UNL A   1      48.869  20.872  36.201  1.00  0.00    +0.000 H 
BRANCH   11   10
ATOM     10  C8  UNL A   1      47.016  19.914  35.964  1.00  0.00    +0.000 C 
ATOM    107  H12 UNL A   1      47.643  19.076  36.188  1.00  0.00    +0.000 H 
ATOM    106  H11 UNL A   1      46.715  19.953  34.939  1.00  0.00    +0.000 H 
BRANCH   10    9
ATOM      9  C7  UNL A   1      45.756  19.752  36.825  1.00  0.00    +0.000 C 
ATOM    105  H10 UNL A   1      44.965  19.448  36.174  1.00  0.00    +0.000 H 
ATOM    104  H9  UNL A   1      45.549  20.688  37.302  1.00  0.00    +0.000 H 
BRANCH    9    8
ATOM    102  H7  UNL A   1      46.847  18.202  37.800  1.00  0.00    +0.000 H 
ATOM    103  H8  UNL A   1      45.808  19.149  38.861  1.00  0.00    +0.000 H 
ATOM      8  C6  UNL A   1      45.896  18.678  37.904  1.00  0.00    +0.000 C 
BRANCH    8    7
ATOM    101  H6  UNL A   1      44.343  17.681  36.949  1.00  0.00    +0.000 H 
ATOM      7  N1  UNL A   1      44.853  17.677  37.792  1.00  0.00    +0.000 N 
BRANCH    7    5
ATOM      5  C5  UNL A   1      44.488  16.730  38.704  1.00  0.00    +0.000 C 
ATOM      6  O1  UNL A   1      45.256  15.788  38.912  1.00  0.00    +0.000 O 
BRANCH    5    4
ATOM    100  H5  UNL A   1      42.461  16.191  38.832  1.00  0.00    +0.000 H 
ATOM     99  H4  UNL A   1      42.820  17.838  39.397  1.00  0.00    +0.000 H 
ATOM      4  C4  UNL A   1      43.130  16.814  39.388  1.00  0.00    +0.000 C 
BRANCH    4    3
ATOM    129  H34 UNL A   1      44.654  18.734  41.196  1.00  0.00    +0.000 H 
ATOM      2  C2  UNL A   1      42.563  15.131  41.277  1.00  0.00    +0.000 C 
ATOM      3  C3  UNL A   1      43.133  16.305  40.802  1.00  0.00    +0.000 C 
ATOM    132  H37 UNL A   1      44.136  15.846  45.067  1.00  0.00    +0.000 H 
ATOM    130  H35 UNL A   1      45.574  19.395  43.338  1.00  0.00    +0.000 H 
ATOM    131  H36 UNL A   1      45.343  17.945  45.250  1.00  0.00    +0.000 H 
ATOM     80  C57 UNL A   1      43.768  16.937  41.905  1.00  0.00    +0.000 C 
ATOM     81  C58 UNL A   1      44.513  18.133  42.022  1.00  0.00    +0.000 C 
ATOM     82  C59 UNL A   1      45.062  18.504  43.249  1.00  0.00    +0.000 C 
ATOM     83  C60 UNL A   1      44.918  17.675  44.348  1.00  0.00    +0.000 C 
ATOM     84  C61 UNL A   1      44.205  16.476  44.252  1.00  0.00    +0.000 C 
ATOM     85  C62 UNL A   1      43.579  16.132  43.035  1.00  0.00    +0.000 C 
ATOM     86  N7  UNL A   1      42.714  15.087  42.672  1.00  0.00    +0.000 N 
BRANCH    2    1
ATOM      1  C1  UNL A   1      41.842  14.068  40.505  1.00  0.00    +0.000 C 
ATOM     98  H3  UNL A   1      41.363  13.396  41.187  1.00  0.00    +0.000 H 
ATOM     97  H2  UNL A   1      41.107  14.521  39.875  1.00  0.00    +0.000 H 
ATOM     96  H1  UNL A   1      42.544  13.526  39.905  1.00  0.00    +0.000 H 
ENDBRANCH    2    1
BRANCH   86   87
ATOM     87  C63 UNL A   1      42.078  14.141  43.533  1.00  0.00    +0.000 C 
ATOM     88  O3  UNL A   1      40.861  14.188  43.671  1.00  0.00    +0.000 O 
BRANCH   87   89
ATOM    133  H38 UNL A   1      42.946  14.157  46.105  1.00  0.00    +0.000 H 
ATOM    134  H39 UNL A   1      44.204  12.403  47.235  1.00  0.00    +0.000 H 
ATOM    135  H40 UNL A   1      43.800   9.922  43.858  1.00  0.00    +0.000 H 
ATOM    136  H41 UNL A   1      42.589  11.689  42.705  1.00  0.00    +0.000 H 
ATOM     89  C64 UNL A   1      42.752  13.077  44.295  1.00  0.00    +0.000 C 
ATOM     90  C65 UNL A   1      43.162  13.273  45.616  1.00  0.00    +0.000 C 
ATOM     91  C66 UNL A   1      43.867  12.258  46.270  1.00  0.00    +0.000 C 
ATOM     92  C67 UNL A   1      44.114  11.050  45.616  1.00  0.00    +0.000 C 
ATOM     93 Cl1  UNL A   1      45.023   9.822  46.407  1.00  0.00    +0.000 Cl
ATOM     94  C68 UNL A   1      43.641  10.831  44.322  1.00  0.00    +0.000 C 
ATOM     95  C69 UNL A   1      42.951  11.845  43.659  1.00  0.00    +0.000 C 
ENDBRANCH   87   89
ENDBRANCH   86   87
ENDBRANCH    4    3
ENDBRANCH    5    4
ENDBRANCH    7    5
ENDBRANCH    8    7
ENDBRANCH    9    8
ENDBRANCH   10    9
ENDBRANCH   11   10
ENDBRANCH   12   11
ENDBRANCH   13   12
ENDBRANCH   14   13
ENDBRANCH   15   14
ENDBRANCH   17   15
ENDBRANCH   21   20
BRANCH   25   26
ATOM     33  C25 UNL A   1      49.929  28.712  26.791  1.00  0.00    +0.000 C 
ATOM     34  F4  UNL A   1      50.286  27.867  25.814  1.00  0.00    +0.000 F 
ATOM     35  C26 UNL A   1      48.945  28.327  27.702  1.00  0.00    +0.000 C 
ATOM     36  F5  UNL A   1      48.389  27.135  27.466  1.00  0.00    +0.000 F 
ATOM     26  C21 UNL A   1      48.490  29.183  28.729  1.00  0.00    +0.000 C 
ATOM     27  C22 UNL A   1      49.121  30.442  28.792  1.00  0.00    +0.000 C 
ATOM     28  F1  UNL A   1      48.760  31.344  29.717  1.00  0.00    +0.000 F 
ATOM     29  C23 UNL A   1      50.071  30.842  27.846  1.00  0.00    +0.000 C 
ATOM     30  F2  UNL A   1      50.547  32.094  27.871  1.00  0.00    +0.000 F 
ATOM     31  C24 UNL A   1      50.466  29.979  26.841  1.00  0.00    +0.000 C 
ATOM     32  F3  UNL A   1      51.326  30.382  25.897  1.00  0.00    +0.000 F 
ENDBRANCH   25   26
BRANCH   42   43
ATOM     43  C32 UNL A   1      41.831  27.967  27.643  1.00  0.00    +0.000 C 
ATOM     44  C33 UNL A   1      41.230  27.342  28.750  1.00  0.00    +0.000 C 
ATOM     45  F6  UNL A   1      41.966  26.661  29.639  1.00  0.00    +0.000 F 
ATOM     46  C34 UNL A   1      39.861  27.463  28.991  1.00  0.00    +0.000 C 
ATOM     47  F7  UNL A   1      39.307  26.856  30.051  1.00  0.00    +0.000 F 
ATOM     48  C35 UNL A   1      39.077  28.248  28.161  1.00  0.00    +0.000 C 
ATOM     49  F8  UNL A   1      37.771  28.408  28.421  1.00  0.00    +0.000 F 
ATOM     50  C36 UNL A   1      39.653  28.893  27.078  1.00  0.00    +0.000 C 
ATOM     51  F9  UNL A   1      38.909  29.693  26.301  1.00  0.00    +0.000 F 
ATOM     52  C37 UNL A   1      41.011  28.742  26.814  1.00  0.00    +0.000 C 
ATOM     53  F10 UNL A   1      41.542  29.404  25.774  1.00  0.00    +0.000 F 
ENDBRANCH   42   43
BRANCH   57   58
ATOM     65  C45 UNL A   1      43.290  20.012  25.398  1.00  0.00    +0.000 C 
ATOM     66  F14 UNL A   1      42.311  19.101  25.315  1.00  0.00    +0.000 F 
ATOM     67  C46 UNL A   1      43.004  21.294  25.871  1.00  0.00    +0.000 C 
ATOM     68  F15 UNL A   1      41.742  21.536  26.251  1.00  0.00    +0.000 F 
ATOM     58  C41 UNL A   1      44.010  22.264  26.046  1.00  0.00    +0.000 C 
ATOM     59  C42 UNL A   1      45.313  21.885  25.679  1.00  0.00    +0.000 C 
ATOM     60  F11 UNL A   1      46.337  22.735  25.852  1.00  0.00    +0.000 F 
ATOM     61  C43 UNL A   1      45.599  20.598  25.208  1.00  0.00    +0.000 C 
ATOM     62  F12 UNL A   1      46.866  20.252  24.936  1.00  0.00    +0.000 F 
ATOM     63  C44 UNL A   1      44.589  19.659  25.082  1.00  0.00    +0.000 C 
ATOM     64  F13 UNL A   1      44.873  18.406  24.699  1.00  0.00    +0.000 F 
ENDBRANCH   57   58
TORSDOF 19
ENDMDL
MODEL 8
REMARK VINA RESULT:     -10.5     34.189     41.001
ROOT
ATOM     21  C17 UNL A   1       9.036  30.049   0.716  1.00  0.00    +0.000 C 
ATOM     22  C18 UNL A   1       8.197  30.877  -0.194  1.00  0.00    +0.000 C 
ATOM     23  N3  UNL A   1       8.099  30.785  -1.480  1.00  0.00    +0.000 N 
ATOM     24  C19 UNL A   1       7.199  31.774  -1.868  1.00  0.00    +0.000 C 
ATOM     25  C20 UNL A   1       7.175  32.249  -3.143  1.00  0.00    +0.000 C 
ATOM     37  C27 UNL A   1       7.801  31.326  -4.055  1.00  0.00    +0.000 C 
ATOM     38  C28 UNL A   1       7.518  30.050  -4.497  1.00  0.00    +0.000 C 
ATOM     39  C29 UNL A   1       8.789  29.423  -4.657  1.00  0.00    +0.000 C 
ATOM     40  C30 UNL A   1       9.772  30.365  -4.356  1.00  0.00    +0.000 C 
ATOM     41  N4  UNL A   1       9.105  31.561  -4.405  1.00  0.00    +0.000 N 
ATOM     42  C31 UNL A   1      11.155  30.243  -3.967  1.00  0.00    +0.000 C 
ATOM     54  C38 UNL A   1      11.872  31.211  -3.327  1.00  0.00    +0.000 C 
ATOM     55  N5  UNL A   1      13.008  30.889  -2.601  1.00  0.00    +0.000 N 
ATOM     56  C39 UNL A   1      13.098  31.825  -1.698  1.00  0.00    +0.000 C 
ATOM     57  C40 UNL A   1      13.518  31.570  -0.298  1.00  0.00    +0.000 C 
ATOM     69  C47 UNL A   1      12.536  30.829   0.277  1.00  0.00    +0.000 C 
ATOM     70  C48 UNL A   1      12.557  29.993   1.458  1.00  0.00    +0.000 C 
ATOM     71  C49 UNL A   1      11.320  29.493   1.656  1.00  0.00    +0.000 C 
ATOM     72  C50 UNL A   1      10.385  30.100   0.707  1.00  0.00    +0.000 C 
ATOM     73  N6  UNL A   1      11.197  30.801  -0.161  1.00  0.00    +0.000 N 
ATOM     74  C51 UNL A   1      12.339  33.036  -1.966  1.00  0.00    +0.000 C 
ATOM     75  C52 UNL A   1      11.539  32.576  -2.930  1.00  0.00    +0.000 C 
ATOM     76  C53 UNL A   1       6.594  32.270  -0.659  1.00  0.00    +0.000 C 
ATOM     77  C54 UNL A   1       7.232  31.806   0.415  1.00  0.00    +0.000 C 
ATOM    117  H22 UNL A   1       6.589  29.639  -4.676  1.00  0.00    +0.000 H 
ATOM    118  H23 UNL A   1       8.951  28.444  -4.942  1.00  0.00    +0.000 H 
ATOM    119  H24 UNL A   1       9.493  32.433  -4.649  1.00  0.00    +0.000 H 
ATOM    120  H25 UNL A   1      13.383  29.809   2.050  1.00  0.00    +0.000 H 
ATOM    121  H26 UNL A   1      11.069  28.789   2.368  1.00  0.00    +0.000 H 
ATOM    122  H27 UNL A   1      10.877  31.231  -0.987  1.00  0.00    +0.000 H 
ATOM    123  H28 UNL A   1      12.402  33.974  -1.538  1.00  0.00    +0.000 H 
ATOM    124  H29 UNL A   1      10.770  33.124  -3.348  1.00  0.00    +0.000 H 
ATOM    125  H30 UNL A   1       5.777  32.900  -0.630  1.00  0.00    +0.000 H 
ATOM    126  H31 UNL A   1       7.088  32.036   1.410  1.00  0.00    +0.000 H 
ENDROOT
BRANCH   21   20
ATOM     78  C55 UNL A   1       8.194  29.510   2.995  1.00  0.00    +0.000 C 
ATOM     79  C56 UNL A   1       7.502  28.645   3.832  1.00  0.00    +0.000 C 
ATOM     17  C13 UNL A   1       6.861  27.497   3.327  1.00  0.00    +0.000 C 
ATOM     18  C14 UNL A   1       6.816  27.315   1.946  1.00  0.00    +0.000 C 
ATOM     19  C15 UNL A   1       7.534  28.157   1.106  1.00  0.00    +0.000 C 
ATOM    115  H20 UNL A   1       6.248  26.551   1.546  1.00  0.00    +0.000 H 
ATOM    116  H21 UNL A   1       7.522  27.999   0.087  1.00  0.00    +0.000 H 
ATOM     20  C16 UNL A   1       8.271  29.218   1.640  1.00  0.00    +0.000 C 
ATOM    127  H32 UNL A   1       8.646  30.357   3.374  1.00  0.00    +0.000 H 
ATOM    128  H33 UNL A   1       7.459  28.846   4.843  1.00  0.00    +0.000 H 
BRANCH   17   15
ATOM     15  C12 UNL A   1       6.374  26.529   4.346  1.00  0.00    +0.000 C 
ATOM     16  O2  UNL A   1       5.194  26.585   4.697  1.00  0.00    +0.000 O 
BRANCH   15   14
ATOM    114  H19 UNL A   1       7.584  24.978   4.387  1.00  0.00    +0.000 H 
ATOM     14  N2  UNL A   1       7.155  25.618   5.001  1.00  0.00    +0.000 N 
BRANCH   14   13
ATOM    113  H18 UNL A   1       6.845  24.607   6.743  1.00  0.00    +0.000 H 
ATOM     13  C11 UNL A   1       7.499  25.375   6.387  1.00  0.00    +0.000 C 
ATOM    112  H17 UNL A   1       7.384  26.291   6.928  1.00  0.00    +0.000 H 
BRANCH   13   12
ATOM     12  C10 UNL A   1       8.930  24.873   6.584  1.00  0.00    +0.000 C 
ATOM    110  H15 UNL A   1       8.896  23.816   6.745  1.00  0.00    +0.000 H 
ATOM    111  H16 UNL A   1       9.474  25.138   5.702  1.00  0.00    +0.000 H 
BRANCH   12   11
ATOM     11  C9  UNL A   1       9.662  25.518   7.766  1.00  0.00    +0.000 C 
ATOM    108  H13 UNL A   1       9.158  26.429   8.011  1.00  0.00    +0.000 H 
ATOM    109  H14 UNL A   1       9.647  24.798   8.556  1.00  0.00    +0.000 H 
BRANCH   11   10
ATOM     10  C8  UNL A   1      11.138  25.846   7.512  1.00  0.00    +0.000 C 
ATOM    107  H12 UNL A   1      11.338  26.760   8.031  1.00  0.00    +0.000 H 
ATOM    106  H11 UNL A   1      11.286  25.921   6.456  1.00  0.00    +0.000 H 
BRANCH   10    9
ATOM      9  C7  UNL A   1      12.128  24.812   8.062  1.00  0.00    +0.000 C 
ATOM    105  H10 UNL A   1      11.586  23.905   8.218  1.00  0.00    +0.000 H 
ATOM    104  H9  UNL A   1      12.547  25.193   8.971  1.00  0.00    +0.000 H 
BRANCH    9    8
ATOM    102  H7  UNL A   1      13.145  25.077   6.206  1.00  0.00    +0.000 H 
ATOM    103  H8  UNL A   1      14.195  24.738   7.578  1.00  0.00    +0.000 H 
ATOM      8  C6  UNL A   1      13.271  24.497   7.095  1.00  0.00    +0.000 C 
BRANCH    8    7
ATOM    101  H6  UNL A   1      13.052  22.465   7.463  1.00  0.00    +0.000 H 
ATOM      7  N1  UNL A   1      13.293  23.092   6.743  1.00  0.00    +0.000 N 
BRANCH    7    5
ATOM      5  C5  UNL A   1      13.606  22.525   5.541  1.00  0.00    +0.000 C 
ATOM      6  O1  UNL A   1      14.791  22.489   5.200  1.00  0.00    +0.000 O 
BRANCH    5    4
ATOM    100  H5  UNL A   1      11.571  22.221   5.117  1.00  0.00    +0.000 H 
ATOM     99  H4  UNL A   1      12.653  20.972   4.460  1.00  0.00    +0.000 H 
ATOM      4  C4  UNL A   1      12.500  22.018   4.627  1.00  0.00    +0.000 C 
BRANCH    4    3
ATOM    129  H34 UNL A   1      11.198  24.757   4.906  1.00  0.00    +0.000 H 
ATOM      2  C2  UNL A   1      12.901  22.221   2.073  1.00  0.00    +0.000 C 
ATOM      3  C3  UNL A   1      12.453  22.710   3.293  1.00  0.00    +0.000 C 
ATOM    132  H37 UNL A   1      11.436  25.601   0.128  1.00  0.00    +0.000 H 
ATOM    130  H35 UNL A   1      10.365  26.843   3.996  1.00  0.00    +0.000 H 
ATOM    131  H36 UNL A   1      10.456  27.246   1.621  1.00  0.00    +0.000 H 
ATOM     80  C57 UNL A   1      11.895  23.995   3.049  1.00  0.00    +0.000 C 
ATOM     81  C58 UNL A   1      11.280  24.946   3.895  1.00  0.00    +0.000 C 
ATOM     82  C59 UNL A   1      10.781  26.137   3.370  1.00  0.00    +0.000 C 
ATOM     83  C60 UNL A   1      10.845  26.370   2.008  1.00  0.00    +0.000 C 
ATOM     84  C61 UNL A   1      11.428  25.435   1.148  1.00  0.00    +0.000 C 
ATOM     85  C62 UNL A   1      12.007  24.263   1.680  1.00  0.00    +0.000 C 
ATOM     86  N7  UNL A   1      12.755  23.224   1.102  1.00  0.00    +0.000 N 
BRANCH    2    1
ATOM      1  C1  UNL A   1      13.501  20.882   1.771  1.00  0.00    +0.000 C 
ATOM     98  H3  UNL A   1      14.280  20.673   2.474  1.00  0.00    +0.000 H 
ATOM     97  H2  UNL A   1      12.746  20.128   1.840  1.00  0.00    +0.000 H 
ATOM     96  H1  UNL A   1      13.908  20.890   0.780  1.00  0.00    +0.000 H 
ENDBRANCH    2    1
BRANCH   86   87
ATOM     87  C63 UNL A   1      13.294  23.167  -0.219  1.00  0.00    +0.000 C 
ATOM     88  O3  UNL A   1      12.581  22.779  -1.137  1.00  0.00    +0.000 O 
BRANCH   87   89
ATOM    133  H38 UNL A   1      15.630  22.753   1.101  1.00  0.00    +0.000 H 
ATOM    134  H39 UNL A   1      17.838  23.558   0.456  1.00  0.00    +0.000 H 
ATOM    135  H40 UNL A   1      16.253  25.051  -3.146  1.00  0.00    +0.000 H 
ATOM    136  H41 UNL A   1      14.037  24.296  -2.485  1.00  0.00    +0.000 H 
ATOM     89  C64 UNL A   1      14.664  23.542  -0.609  1.00  0.00    +0.000 C 
ATOM     90  C65 UNL A   1      15.758  23.274   0.219  1.00  0.00    +0.000 C 
ATOM     91  C66 UNL A   1      17.027  23.720  -0.162  1.00  0.00    +0.000 C 
ATOM     92  C67 UNL A   1      17.196  24.385  -1.378  1.00  0.00    +0.000 C 
ATOM     93 Cl1  UNL A   1      18.751  24.974  -1.820  1.00  0.00    +0.000 Cl
ATOM     94  C68 UNL A   1      16.113  24.587  -2.235  1.00  0.00    +0.000 C 
ATOM     95  C69 UNL A   1      14.843  24.160  -1.854  1.00  0.00    +0.000 C 
ENDBRANCH   87   89
ENDBRANCH   86   87
ENDBRANCH    4    3
ENDBRANCH    5    4
ENDBRANCH    7    5
ENDBRANCH    8    7
ENDBRANCH    9    8
ENDBRANCH   10    9
ENDBRANCH   11   10
ENDBRANCH   12   11
ENDBRANCH   13   12
ENDBRANCH   14   13
ENDBRANCH   15   14
ENDBRANCH   17   15
ENDBRANCH   21   20
BRANCH   25   26
ATOM     33  C25 UNL A   1       7.769  35.952  -3.991  1.00  0.00    +0.000 C 
ATOM     34  F4  UNL A   1       8.738  36.865  -3.837  1.00  0.00    +0.000 F 
ATOM     35  C26 UNL A   1       7.886  34.717  -3.355  1.00  0.00    +0.000 C 
ATOM     36  F5  UNL A   1       9.025  34.533  -2.679  1.00  0.00    +0.000 F 
ATOM     26  C21 UNL A   1       6.926  33.693  -3.508  1.00  0.00    +0.000 C 
ATOM     27  C22 UNL A   1       5.822  34.017  -4.324  1.00  0.00    +0.000 C 
ATOM     28  F1  UNL A   1       4.853  33.117  -4.554  1.00  0.00    +0.000 F 
ATOM     29  C23 UNL A   1       5.733  35.237  -5.000  1.00  0.00    +0.000 C 
ATOM     30  F2  UNL A   1       4.731  35.448  -5.864  1.00  0.00    +0.000 F 
ATOM     31  C24 UNL A   1       6.713  36.200  -4.840  1.00  0.00    +0.000 C 
ATOM     32  F3  UNL A   1       6.664  37.343  -5.536  1.00  0.00    +0.000 F 
ENDBRANCH   25   26
BRANCH   42   43
ATOM     43  C32 UNL A   1      11.768  28.873  -4.070  1.00  0.00    +0.000 C 
ATOM     44  C33 UNL A   1      11.658  27.891  -3.069  1.00  0.00    +0.000 C 
ATOM     45  F6  UNL A   1      11.028  28.152  -1.915  1.00  0.00    +0.000 F 
ATOM     46  C34 UNL A   1      12.144  26.599  -3.270  1.00  0.00    +0.000 C 
ATOM     47  F7  UNL A   1      12.032  25.678  -2.301  1.00  0.00    +0.000 F 
ATOM     48  C35 UNL A   1      12.706  26.250  -4.488  1.00  0.00    +0.000 C 
ATOM     49  F8  UNL A   1      13.126  24.995  -4.701  1.00  0.00    +0.000 F 
ATOM     50  C36 UNL A   1      12.802  27.195  -5.497  1.00  0.00    +0.000 C 
ATOM     51  F9  UNL A   1      13.298  26.849  -6.693  1.00  0.00    +0.000 F 
ATOM     52  C37 UNL A   1      12.352  28.495  -5.285  1.00  0.00    +0.000 C 
ATOM     53  F10 UNL A   1      12.435  29.377  -6.293  1.00  0.00    +0.000 F 
ENDBRANCH   42   43
BRANCH   57   58
ATOM     65  C45 UNL A   1      16.829  32.494   1.306  1.00  0.00    +0.000 C 
ATOM     66  F14 UNL A   1      18.070  31.991   1.372  1.00  0.00    +0.000 F 
ATOM     67  C46 UNL A   1      15.905  31.940   0.418  1.00  0.00    +0.000 C 
ATOM     68  F15 UNL A   1      16.314  30.894  -0.314  1.00  0.00    +0.000 F 
ATOM     58  C41 UNL A   1      14.569  32.382   0.364  1.00  0.00    +0.000 C 
ATOM     59  C42 UNL A   1      14.227  33.441   1.223  1.00  0.00    +0.000 C 
ATOM     60  F11 UNL A   1      12.966  33.896   1.263  1.00  0.00    +0.000 F 
ATOM     61  C43 UNL A   1      15.154  33.993   2.115  1.00  0.00    +0.000 C 
ATOM     62  F12 UNL A   1      14.771  34.953   2.969  1.00  0.00    +0.000 F 
ATOM     63  C44 UNL A   1      16.450  33.508   2.165  1.00  0.00    +0.000 C 
ATOM     64  F13 UNL A   1      17.318  33.987   3.068  1.00  0.00    +0.000 F 
ENDBRANCH   57   58
TORSDOF 19
ENDMDL
MODEL 9
REMARK VINA RESULT:     -10.4     35.883     42.004
ROOT
ATOM     21  C17 UNL A   1       8.967  30.319   0.809  1.00  0.00    +0.000 C 
ATOM     22  C18 UNL A   1       8.152  31.091  -0.168  1.00  0.00    +0.000 C 
ATOM     23  N3  UNL A   1       8.144  30.978  -1.456  1.00  0.00    +0.000 N 
ATOM     24  C19 UNL A   1       7.225  31.915  -1.919  1.00  0.00    +0.000 C 
ATOM     25  C20 UNL A   1       7.264  32.372  -3.201  1.00  0.00    +0.000 C 
ATOM     37  C27 UNL A   1       7.993  31.469  -4.053  1.00  0.00    +0.000 C 
ATOM     38  C28 UNL A   1       7.802  30.175  -4.493  1.00  0.00    +0.000 C 
ATOM     39  C29 UNL A   1       9.109  29.608  -4.557  1.00  0.00    +0.000 C 
ATOM     40  C30 UNL A   1      10.023  30.603  -4.209  1.00  0.00    +0.000 C 
ATOM     41  N4  UNL A   1       9.305  31.763  -4.321  1.00  0.00    +0.000 N 
ATOM     42  C31 UNL A   1      11.382  30.554  -3.727  1.00  0.00    +0.000 C 
ATOM     54  C38 UNL A   1      12.007  31.565  -3.058  1.00  0.00    +0.000 C 
ATOM     55  N5  UNL A   1      13.106  31.309  -2.253  1.00  0.00    +0.000 N 
ATOM     56  C39 UNL A   1      13.090  32.261  -1.362  1.00  0.00    +0.000 C 
ATOM     57  C40 UNL A   1      13.428  32.046   0.067  1.00  0.00    +0.000 C 
ATOM     69  C47 UNL A   1      12.447  31.265   0.588  1.00  0.00    +0.000 C 
ATOM     70  C48 UNL A   1      12.430  30.447   1.782  1.00  0.00    +0.000 C 
ATOM     71  C49 UNL A   1      11.207  29.888   1.906  1.00  0.00    +0.000 C 
ATOM     72  C50 UNL A   1      10.310  30.436   0.888  1.00  0.00    +0.000 C 
ATOM     73  N6  UNL A   1      11.143  31.164   0.064  1.00  0.00    +0.000 N 
ATOM     74  C51 UNL A   1      12.293  33.429  -1.700  1.00  0.00    +0.000 C 
ATOM     75  C52 UNL A   1      11.582  32.917  -2.706  1.00  0.00    +0.000 C 
ATOM     76  C53 UNL A   1       6.518  32.398  -0.761  1.00  0.00    +0.000 C 
ATOM     77  C54 UNL A   1       7.105  31.980   0.360  1.00  0.00    +0.000 C 
ATOM    117  H22 UNL A   1       6.907  29.716  -4.725  1.00  0.00    +0.000 H 
ATOM    118  H23 UNL A   1       9.338  28.636  -4.815  1.00  0.00    +0.000 H 
ATOM    119  H24 UNL A   1       9.665  32.649  -4.553  1.00  0.00    +0.000 H 
ATOM    120  H25 UNL A   1      13.222  30.312   2.430  1.00  0.00    +0.000 H 
ATOM    121  H26 UNL A   1      10.945  29.183   2.612  1.00  0.00    +0.000 H 
ATOM    122  H27 UNL A   1      10.859  31.567  -0.789  1.00  0.00    +0.000 H 
ATOM    123  H28 UNL A   1      12.282  34.374  -1.284  1.00  0.00    +0.000 H 
ATOM    124  H29 UNL A   1      10.818  33.420  -3.182  1.00  0.00    +0.000 H 
ATOM    125  H30 UNL A   1       5.671  32.987  -0.796  1.00  0.00    +0.000 H 
ATOM    126  H31 UNL A   1       6.883  32.216   1.340  1.00  0.00    +0.000 H 
ENDROOT
BRANCH   21   20
ATOM     78  C55 UNL A   1       7.998  29.772   3.035  1.00  0.00    +0.000 C 
ATOM     79  C56 UNL A   1       7.295  28.885   3.840  1.00  0.00    +0.000 C 
ATOM     17  C13 UNL A   1       6.750  27.698   3.313  1.00  0.00    +0.000 C 
ATOM     18  C14 UNL A   1       6.810  27.491   1.937  1.00  0.00    +0.000 C 
ATOM     19  C15 UNL A   1       7.540  28.357   1.132  1.00  0.00    +0.000 C 
ATOM    115  H20 UNL A   1       6.311  26.693   1.514  1.00  0.00    +0.000 H 
ATOM    116  H21 UNL A   1       7.608  28.182   0.117  1.00  0.00    +0.000 H 
ATOM     20  C16 UNL A   1       8.184  29.463   1.694  1.00  0.00    +0.000 C 
ATOM    127  H32 UNL A   1       8.378  30.648   3.427  1.00  0.00    +0.000 H 
ATOM    128  H33 UNL A   1       7.171  29.100   4.841  1.00  0.00    +0.000 H 
BRANCH   17   15
ATOM     15  C12 UNL A   1       6.244  26.721   4.316  1.00  0.00    +0.000 C 
ATOM     16  O2  UNL A   1       5.028  26.527   4.388  1.00  0.00    +0.000 O 
BRANCH   15   14
ATOM    114  H19 UNL A   1       6.733  26.251   6.162  1.00  0.00    +0.000 H 
ATOM     14  N2  UNL A   1       7.015  26.070   5.237  1.00  0.00    +0.000 N 
BRANCH   14   13
ATOM    113  H18 UNL A   1       8.273  24.899   4.141  1.00  0.00    +0.000 H 
ATOM     13  C11 UNL A   1       8.151  25.173   5.168  1.00  0.00    +0.000 C 
ATOM    112  H17 UNL A   1       7.951  24.328   5.793  1.00  0.00    +0.000 H 
BRANCH   13   12
ATOM     12  C10 UNL A   1       9.464  25.812   5.622  1.00  0.00    +0.000 C 
ATOM    110  H15 UNL A   1       9.259  26.434   6.468  1.00  0.00    +0.000 H 
ATOM    111  H16 UNL A   1      10.134  25.010   5.853  1.00  0.00    +0.000 H 
BRANCH   12   11
ATOM     11  C9  UNL A   1      10.148  26.667   4.549  1.00  0.00    +0.000 C 
ATOM    108  H13 UNL A   1       9.708  27.641   4.572  1.00  0.00    +0.000 H 
ATOM    109  H14 UNL A   1      11.191  26.664   4.785  1.00  0.00    +0.000 H 
BRANCH   11   10
ATOM     10  C8  UNL A   1      10.030  26.126   3.120  1.00  0.00    +0.000 C 
ATOM    107  H12 UNL A   1       9.283  26.717   2.634  1.00  0.00    +0.000 H 
ATOM    106  H11 UNL A   1       9.776  25.089   3.175  1.00  0.00    +0.000 H 
BRANCH   10    9
ATOM      9  C7  UNL A   1      11.304  26.261   2.276  1.00  0.00    +0.000 C 
ATOM    105  H10 UNL A   1      12.071  25.703   2.768  1.00  0.00    +0.000 H 
ATOM    104  H9  UNL A   1      11.550  27.300   2.196  1.00  0.00    +0.000 H 
BRANCH    9    8
ATOM    102  H7  UNL A   1      12.075  25.829   0.336  1.00  0.00    +0.000 H 
ATOM    103  H8  UNL A   1      10.924  24.646   0.950  1.00  0.00    +0.000 H 
ATOM      8  C6  UNL A   1      11.158  25.687   0.867  1.00  0.00    +0.000 C 
BRANCH    8    7
ATOM    101  H6  UNL A   1       9.690  27.127   0.574  1.00  0.00    +0.000 H 
ATOM      7  N1  UNL A   1      10.087  26.338   0.138  1.00  0.00    +0.000 N 
BRANCH    7    5
ATOM      5  C5  UNL A   1       9.559  25.998  -1.074  1.00  0.00    +0.000 C 
ATOM      6  O1  UNL A   1       9.280  26.901  -1.866  1.00  0.00    +0.000 O 
BRANCH    5    4
ATOM    100  H5  UNL A   1       8.326  24.515  -1.907  1.00  0.00    +0.000 H 
ATOM     99  H4  UNL A   1       9.243  23.990  -0.477  1.00  0.00    +0.000 H 
ATOM      4  C4  UNL A   1       9.265  24.540  -1.395  1.00  0.00    +0.000 C 
BRANCH    4    3
ATOM    129  H34 UNL A   1       8.906  25.557  -4.243  1.00  0.00    +0.000 H 
ATOM      2  C2  UNL A   1      11.248  22.971  -1.966  1.00  0.00    +0.000 C 
ATOM      3  C3  UNL A   1      10.279  23.905  -2.305  1.00  0.00    +0.000 C 
ATOM    132  H37 UNL A   1      12.379  22.628  -5.961  1.00  0.00    +0.000 H 
ATOM    130  H35 UNL A   1       9.469  25.589  -6.600  1.00  0.00    +0.000 H 
ATOM    131  H36 UNL A   1      11.171  24.111  -7.454  1.00  0.00    +0.000 H 
ATOM     80  C57 UNL A   1      10.389  24.134  -3.704  1.00  0.00    +0.000 C 
ATOM     81  C58 UNL A   1       9.666  24.957  -4.597  1.00  0.00    +0.000 C 
ATOM     82  C59 UNL A   1       9.975  24.961  -5.957  1.00  0.00    +0.000 C 
ATOM     83  C60 UNL A   1      10.960  24.119  -6.443  1.00  0.00    +0.000 C 
ATOM     84  C61 UNL A   1      11.673  23.279  -5.583  1.00  0.00    +0.000 C 
ATOM     85  C62 UNL A   1      11.423  23.328  -4.195  1.00  0.00    +0.000 C 
ATOM     86  N7  UNL A   1      12.044  22.715  -3.094  1.00  0.00    +0.000 N 
BRANCH    2    1
ATOM      1  C1  UNL A   1      11.505  22.337  -0.633  1.00  0.00    +0.000 C 
ATOM     98  H3  UNL A   1      11.112  22.962   0.141  1.00  0.00    +0.000 H 
ATOM     97  H2  UNL A   1      11.028  21.380  -0.596  1.00  0.00    +0.000 H 
ATOM     96  H1  UNL A   1      12.559  22.216  -0.493  1.00  0.00    +0.000 H 
ENDBRANCH    2    1
BRANCH   86   87
ATOM     87  C63 UNL A   1      13.263  21.971  -3.082  1.00  0.00    +0.000 C 
ATOM     88  O3  UNL A   1      14.317  22.560  -2.871  1.00  0.00    +0.000 O 
BRANCH   87   89
ATOM    133  H38 UNL A   1      11.319  20.095  -3.351  1.00  0.00    +0.000 H 
ATOM    134  H39 UNL A   1      11.627  17.686  -3.543  1.00  0.00    +0.000 H 
ATOM    135  H40 UNL A   1      15.800  18.220  -3.686  1.00  0.00    +0.000 H 
ATOM    136  H41 UNL A   1      15.501  20.622  -3.443  1.00  0.00    +0.000 H 
ATOM     89  C64 UNL A   1      13.392  20.521  -3.300  1.00  0.00    +0.000 C 
ATOM     90  C65 UNL A   1      12.269  19.693  -3.384  1.00  0.00    +0.000 C 
ATOM     91  C66 UNL A   1      12.447  18.312  -3.513  1.00  0.00    +0.000 C 
ATOM     92  C67 UNL A   1      13.736  17.781  -3.601  1.00  0.00    +0.000 C 
ATOM     93 Cl1  UNL A   1      13.952  16.078  -3.712  1.00  0.00    +0.000 Cl
ATOM     94  C68 UNL A   1      14.852  18.618  -3.588  1.00  0.00    +0.000 C 
ATOM     95  C69 UNL A   1      14.682  19.994  -3.443  1.00  0.00    +0.000 C 
ENDBRANCH   87   89
ENDBRANCH   86   87
ENDBRANCH    4    3
ENDBRANCH    5    4
ENDBRANCH    7    5
ENDBRANCH    8    7
ENDBRANCH    9    8
ENDBRANCH   10    9
ENDBRANCH   11   10
ENDBRANCH   12   11
ENDBRANCH   13   12
ENDBRANCH   14   13
ENDBRANCH   15   14
ENDBRANCH   17   15
ENDBRANCH   21   20
BRANCH   25   26
ATOM     33  C25 UNL A   1       7.737  36.079  -4.102  1.00  0.00    +0.000 C 
ATOM     34  F4  UNL A   1       8.660  37.036  -3.929  1.00  0.00    +0.000 F 
ATOM     35  C26 UNL A   1       7.879  34.863  -3.436  1.00  0.00    +0.000 C 
ATOM     36  F5  UNL A   1       8.996  34.741  -2.712  1.00  0.00    +0.000 F 
ATOM     26  C21 UNL A   1       6.970  33.797  -3.606  1.00  0.00    +0.000 C 
ATOM     27  C22 UNL A   1       5.886  34.057  -4.471  1.00  0.00    +0.000 C 
ATOM     28  F1  UNL A   1       4.966  33.113  -4.720  1.00  0.00    +0.000 F 
ATOM     29  C23 UNL A   1       5.775  35.260  -5.175  1.00  0.00    +0.000 C 
ATOM     30  F2  UNL A   1       4.800  35.412  -6.083  1.00  0.00    +0.000 F 
ATOM     31  C24 UNL A   1       6.706  36.267  -4.997  1.00  0.00    +0.000 C 
ATOM     32  F3  UNL A   1       6.638  37.393  -5.718  1.00  0.00    +0.000 F 
ENDBRANCH   25   26
BRANCH   42   43
ATOM     43  C32 UNL A   1      12.066  29.214  -3.766  1.00  0.00    +0.000 C 
ATOM     44  C33 UNL A   1      12.195  28.370  -2.649  1.00  0.00    +0.000 C 
ATOM     45  F6  UNL A   1      11.749  28.752  -1.444  1.00  0.00    +0.000 F 
ATOM     46  C34 UNL A   1      12.732  27.089  -2.771  1.00  0.00    +0.000 C 
ATOM     47  F7  UNL A   1      12.849  26.301  -1.692  1.00  0.00    +0.000 F 
ATOM     48  C35 UNL A   1      13.106  26.609  -4.016  1.00  0.00    +0.000 C 
ATOM     49  F8  UNL A   1      13.574  25.359  -4.144  1.00  0.00    +0.000 F 
ATOM     50  C36 UNL A   1      12.965  27.415  -5.135  1.00  0.00    +0.000 C 
ATOM     51  F9  UNL A   1      13.278  26.938  -6.348  1.00  0.00    +0.000 F 
ATOM     52  C37 UNL A   1      12.465  28.707  -5.009  1.00  0.00    +0.000 C 
ATOM     53  F10 UNL A   1      12.314  29.450  -6.117  1.00  0.00    +0.000 F 
ENDBRANCH   42   43
BRANCH   57   58
ATOM     65  C45 UNL A   1      16.622  33.190   1.763  1.00  0.00    +0.000 C 
ATOM     66  F14 UNL A   1      17.904  32.802   1.823  1.00  0.00    +0.000 F 
ATOM     67  C46 UNL A   1      15.763  32.598   0.836  1.00  0.00    +0.000 C 
ATOM     68  F15 UNL A   1      16.274  31.632   0.061  1.00  0.00    +0.000 F 
ATOM     58  C41 UNL A   1      14.392  32.917   0.783  1.00  0.00    +0.000 C 
ATOM     59  C42 UNL A   1      13.944  33.896   1.687  1.00  0.00    +0.000 C 
ATOM     60  F11 UNL A   1      12.646  34.231   1.730  1.00  0.00    +0.000 F 
ATOM     61  C43 UNL A   1      14.807  34.487   2.618  1.00  0.00    +0.000 C 
ATOM     62  F12 UNL A   1      14.327  35.364   3.512  1.00  0.00    +0.000 F 
ATOM     63  C44 UNL A   1      16.141  34.121   2.665  1.00  0.00    +0.000 C 
ATOM     64  F13 UNL A   1      16.952  34.633   3.603  1.00  0.00    +0.000 F 
ENDBRANCH   57   58
TORSDOF 19
ENDMDL
MODEL 10
REMARK VINA RESULT:     -10.3     21.152     28.017
ROOT
ATOM     21  C17 UNL A   1      42.753  12.543  51.014  1.00  0.00    +0.000 C 
ATOM     22  C18 UNL A   1      43.067  11.227  51.636  1.00  0.00    +0.000 C 
ATOM     23  N3  UNL A   1      44.226  10.778  51.995  1.00  0.00    +0.000 N 
ATOM     24  C19 UNL A   1      44.000   9.508  52.517  1.00  0.00    +0.000 C 
ATOM     25  C20 UNL A   1      45.000   8.587  52.595  1.00  0.00    +0.000 C 
ATOM     37  C27 UNL A   1      46.293   9.216  52.537  1.00  0.00    +0.000 C 
ATOM     38  C28 UNL A   1      46.994  10.083  53.350  1.00  0.00    +0.000 C 
ATOM     39  C29 UNL A   1      47.717  10.928  52.457  1.00  0.00    +0.000 C 
ATOM     40  C30 UNL A   1      47.460  10.494  51.157  1.00  0.00    +0.000 C 
ATOM     41  N4  UNL A   1      46.938   9.239  51.327  1.00  0.00    +0.000 N 
ATOM     42  C31 UNL A   1      47.570  11.141  49.873  1.00  0.00    +0.000 C 
ATOM     54  C38 UNL A   1      46.918  10.742  48.742  1.00  0.00    +0.000 C 
ATOM     55  N5  UNL A   1      46.708  11.627  47.696  1.00  0.00    +0.000 N 
ATOM     56  C39 UNL A   1      45.637  11.183  47.100  1.00  0.00    +0.000 C 
ATOM     57  C40 UNL A   1      44.579  12.071  46.555  1.00  0.00    +0.000 C 
ATOM     69  C47 UNL A   1      43.985  12.669  47.620  1.00  0.00    +0.000 C 
ATOM     70  C48 UNL A   1      43.179  13.869  47.695  1.00  0.00    +0.000 C 
ATOM     71  C49 UNL A   1      42.774  14.038  48.971  1.00  0.00    +0.000 C 
ATOM     72  C50 UNL A   1      43.160  12.873  49.769  1.00  0.00    +0.000 C 
ATOM     73  N6  UNL A   1      43.978  12.148  48.929  1.00  0.00    +0.000 N 
ATOM     74  C51 UNL A   1      45.279   9.803  47.388  1.00  0.00    +0.000 C 
ATOM     75  C52 UNL A   1      46.043   9.607  48.464  1.00  0.00    +0.000 C 
ATOM     76  C53 UNL A   1      42.574   9.374  52.661  1.00  0.00    +0.000 C 
ATOM     77  C54 UNL A   1      41.941  10.379  52.056  1.00  0.00    +0.000 C 
ATOM    117  H22 UNL A   1      46.996  10.114  54.382  1.00  0.00    +0.000 H 
ATOM    118  H23 UNL A   1      48.321  11.720  52.726  1.00  0.00    +0.000 H 
ATOM    119  H24 UNL A   1      47.012   8.489  50.694  1.00  0.00    +0.000 H 
ATOM    120  H25 UNL A   1      42.953  14.493  46.904  1.00  0.00    +0.000 H 
ATOM    121  H26 UNL A   1      42.267  14.863  49.330  1.00  0.00    +0.000 H 
ATOM    122  H27 UNL A   1      44.496  11.359  49.211  1.00  0.00    +0.000 H 
ATOM    123  H28 UNL A   1      44.628   9.165  46.904  1.00  0.00    +0.000 H 
ATOM    124  H29 UNL A   1      46.019   8.748  49.036  1.00  0.00    +0.000 H 
ATOM    125  H30 UNL A   1      42.106   8.604  53.164  1.00  0.00    +0.000 H 
ATOM    126  H31 UNL A   1      40.928  10.525  51.919  1.00  0.00    +0.000 H 
ENDROOT
BRANCH   21   20
ATOM     78  C55 UNL A   1      42.508  14.326  52.733  1.00  0.00    +0.000 C 
ATOM     79  C56 UNL A   1      41.678  15.085  53.547  1.00  0.00    +0.000 C 
ATOM     17  C13 UNL A   1      40.277  14.968  53.473  1.00  0.00    +0.000 C 
ATOM     18  C14 UNL A   1      39.728  14.172  52.469  1.00  0.00    +0.000 C 
ATOM     19  C15 UNL A   1      40.551  13.383  51.674  1.00  0.00    +0.000 C 
ATOM    115  H20 UNL A   1      38.708  14.166  52.316  1.00  0.00    +0.000 H 
ATOM    116  H21 UNL A   1      40.139  12.772  50.954  1.00  0.00    +0.000 H 
ATOM     20  C16 UNL A   1      41.938  13.418  51.850  1.00  0.00    +0.000 C 
ATOM    127  H32 UNL A   1      43.534  14.433  52.783  1.00  0.00    +0.000 H 
ATOM    128  H33 UNL A   1      42.097  15.747  54.218  1.00  0.00    +0.000 H 
BRANCH   17   15
ATOM     15  C12 UNL A   1      39.515  15.642  54.559  1.00  0.00    +0.000 C 
ATOM     16  O2  UNL A   1      38.516  15.080  55.015  1.00  0.00    +0.000 O 
BRANCH   15   14
ATOM    114  H19 UNL A   1      40.064  16.873  55.991  1.00  0.00    +0.000 H 
ATOM     14  N2  UNL A   1      39.782  16.889  55.048  1.00  0.00    +0.000 N 
BRANCH   14   13
ATOM    113  H18 UNL A   1      39.520  18.894  55.309  1.00  0.00    +0.000 H 
ATOM     13  C11 UNL A   1      39.748  18.231  54.501  1.00  0.00    +0.000 C 
ATOM    112  H17 UNL A   1      39.009  18.261  53.728  1.00  0.00    +0.000 H 
BRANCH   13   12
ATOM     12  C10 UNL A   1      41.084  18.684  53.910  1.00  0.00    +0.000 C 
ATOM    110  H15 UNL A   1      41.384  19.582  54.409  1.00  0.00    +0.000 H 
ATOM    111  H16 UNL A   1      41.775  17.881  54.057  1.00  0.00    +0.000 H 
BRANCH   12   11
ATOM     11  C9  UNL A   1      41.039  18.961  52.403  1.00  0.00    +0.000 C 
ATOM    108  H13 UNL A   1      40.059  18.719  52.051  1.00  0.00    +0.000 H 
ATOM    109  H14 UNL A   1      41.293  19.993  52.281  1.00  0.00    +0.000 H 
BRANCH   11   10
ATOM     10  C8  UNL A   1      42.052  18.168  51.570  1.00  0.00    +0.000 C 
ATOM    107  H12 UNL A   1      42.171  18.703  50.651  1.00  0.00    +0.000 H 
ATOM    106  H11 UNL A   1      41.671  17.178  51.434  1.00  0.00    +0.000 H 
BRANCH   10    9
ATOM      9  C7  UNL A   1      43.450  18.061  52.191  1.00  0.00    +0.000 C 
ATOM    105  H10 UNL A   1      43.464  17.177  52.791  1.00  0.00    +0.000 H 
ATOM    104  H9  UNL A   1      43.634  18.943  52.769  1.00  0.00    +0.000 H 
BRANCH    9    8
ATOM    102  H7  UNL A   1      45.510  17.994  51.643  1.00  0.00    +0.000 H 
ATOM    103  H8  UNL A   1      44.457  16.971  50.671  1.00  0.00    +0.000 H 
ATOM      8  C6  UNL A   1      44.563  17.921  51.152  1.00  0.00    +0.000 C 
BRANCH    8    7
ATOM    101  H6  UNL A   1      43.986  19.769  50.400  1.00  0.00    +0.000 H 
ATOM      7  N1  UNL A   1      44.476  18.955  50.140  1.00  0.00    +0.000 N 
BRANCH    7    5
ATOM      5  C5  UNL A   1      44.987  18.947  48.874  1.00  0.00    +0.000 C 
ATOM      6  O1  UNL A   1      46.067  19.507  48.674  1.00  0.00    +0.000 O 
BRANCH    5    4
ATOM    100  H5  UNL A   1      43.480  19.041  47.413  1.00  0.00    +0.000 H 
ATOM     99  H4  UNL A   1      43.733  17.422  48.105  1.00  0.00    +0.000 H 
ATOM      4  C4  UNL A   1      44.196  18.315  47.738  1.00  0.00    +0.000 C 
BRANCH    4    3
ATOM    129  H34 UNL A   1      45.627  15.668  48.208  1.00  0.00    +0.000 H 
ATOM      2  C2  UNL A   1      45.194  18.692  45.375  1.00  0.00    +0.000 C 
ATOM      3  C3  UNL A   1      45.035  17.958  46.543  1.00  0.00    +0.000 C 
ATOM    132  H37 UNL A   1      48.007  15.952  43.983  1.00  0.00    +0.000 H 
ATOM    130  H35 UNL A   1      47.154  13.904  47.551  1.00  0.00    +0.000 H 
ATOM    131  H36 UNL A   1      48.357  14.064  45.468  1.00  0.00    +0.000 H 
ATOM     80  C57 UNL A   1      45.853  16.801  46.424  1.00  0.00    +0.000 C 
ATOM     81  C58 UNL A   1      46.105  15.716  47.295  1.00  0.00    +0.000 C 
ATOM     82  C59 UNL A   1      47.000  14.712  46.928  1.00  0.00    +0.000 C 
ATOM     83  C60 UNL A   1      47.681  14.801  45.727  1.00  0.00    +0.000 C 
ATOM     84  C61 UNL A   1      47.465  15.876  44.859  1.00  0.00    +0.000 C 
ATOM     85  C62 UNL A   1      46.503  16.854  45.186  1.00  0.00    +0.000 C 
ATOM     86  N7  UNL A   1      45.986  17.954  44.481  1.00  0.00    +0.000 N 
BRANCH    2    1
ATOM      1  C1  UNL A   1      44.609  20.027  45.027  1.00  0.00    +0.000 C 
ATOM     98  H3  UNL A   1      45.081  20.403  44.144  1.00  0.00    +0.000 H 
ATOM     97  H2  UNL A   1      43.559  19.922  44.855  1.00  0.00    +0.000 H 
ATOM     96  H1  UNL A   1      44.773  20.709  45.837  1.00  0.00    +0.000 H 
ENDBRANCH    2    1
BRANCH   86   87
ATOM     87  C63 UNL A   1      46.194  18.287  43.108  1.00  0.00    +0.000 C 
ATOM     88  O3  UNL A   1      46.946  19.214  42.828  1.00  0.00    +0.000 O 
BRANCH   87   89
ATOM    133  H38 UNL A   1      47.396  17.043  41.015  1.00  0.00    +0.000 H 
ATOM    134  H39 UNL A   1      46.304  16.088  39.058  1.00  0.00    +0.000 H 
ATOM    135  H40 UNL A   1      42.536  16.885  40.757  1.00  0.00    +0.000 H 
ATOM    136  H41 UNL A   1      43.620  17.887  42.690  1.00  0.00    +0.000 H 
ATOM     89  C64 UNL A   1      45.584  17.608  41.953  1.00  0.00    +0.000 C 
ATOM     90  C65 UNL A   1      46.366  17.043  40.941  1.00  0.00    +0.000 C 
ATOM     91  C66 UNL A   1      45.738  16.478  39.827  1.00  0.00    +0.000 C 
ATOM     92  C67 UNL A   1      44.343  16.444  39.758  1.00  0.00    +0.000 C 
ATOM     93 Cl1  UNL A   1      43.574  15.791  38.364  1.00  0.00    +0.000 Cl
ATOM     94  C68 UNL A   1      43.566  16.944  40.802  1.00  0.00    +0.000 C 
ATOM     95  C69 UNL A   1      44.186  17.523  41.908  1.00  0.00    +0.000 C 
ENDBRANCH   87   89
ENDBRANCH   86   87
ENDBRANCH    4    3
ENDBRANCH    5    4
ENDBRANCH    7    5
ENDBRANCH    8    7
ENDBRANCH    9    8
ENDBRANCH   10    9
ENDBRANCH   11   10
ENDBRANCH   12   11
ENDBRANCH   13   12
ENDBRANCH   14   13
ENDBRANCH   15   14
ENDBRANCH   17   15
ENDBRANCH   21   20
BRANCH   25   26
ATOM     33  C25 UNL A   1      44.881   5.166  50.845  1.00  0.00    +0.000 C 
ATOM     34  F4  UNL A   1      44.818   4.689  49.594  1.00  0.00    +0.000 F 
ATOM     35  C26 UNL A   1      44.717   6.533  51.066  1.00  0.00    +0.000 C 
ATOM     36  F5  UNL A   1      44.570   7.271  49.962  1.00  0.00    +0.000 F 
ATOM     26  C21 UNL A   1      44.815   7.108  52.351  1.00  0.00    +0.000 C 
ATOM     27  C22 UNL A   1      45.057   6.201  53.404  1.00  0.00    +0.000 C 
ATOM     28  F1  UNL A   1      45.183   6.635  54.667  1.00  0.00    +0.000 F 
ATOM     29  C23 UNL A   1      45.270   4.839  53.172  1.00  0.00    +0.000 C 
ATOM     30  F2  UNL A   1      45.625   4.039  54.187  1.00  0.00    +0.000 F 
ATOM     31  C24 UNL A   1      45.191   4.324  51.891  1.00  0.00    +0.000 C 
ATOM     32  F3  UNL A   1      45.459   3.033  51.658  1.00  0.00    +0.000 F 
ENDBRANCH   25   26
BRANCH   42   43
ATOM     43  C32 UNL A   1      48.265  12.475  49.844  1.00  0.00    +0.000 C 
ATOM     44  C33 UNL A   1      49.517  12.690  49.240  1.00  0.00    +0.000 C 
ATOM     45  F6  UNL A   1      50.199  11.676  48.691  1.00  0.00    +0.000 F 
ATOM     46  C34 UNL A   1      50.058  13.972  49.139  1.00  0.00    +0.000 C 
ATOM     47  F7  UNL A   1      51.255  14.155  48.562  1.00  0.00    +0.000 F 
ATOM     48  C35 UNL A   1      49.340  15.067  49.594  1.00  0.00    +0.000 C 
ATOM     49  F8  UNL A   1      49.835  16.304  49.451  1.00  0.00    +0.000 F 
ATOM     50  C36 UNL A   1      48.093  14.880  50.170  1.00  0.00    +0.000 C 
ATOM     51  F9  UNL A   1      47.373  15.939  50.566  1.00  0.00    +0.000 F 
ATOM     52  C37 UNL A   1      47.568  13.598  50.307  1.00  0.00    +0.000 C 
ATOM     53  F10 UNL A   1      46.347  13.457  50.843  1.00  0.00    +0.000 F 
ENDBRANCH   42   43
BRANCH   57   58
ATOM     65  C45 UNL A   1      43.154  12.966  43.156  1.00  0.00    +0.000 C 
ATOM     66  F14 UNL A   1      43.016  14.065  42.400  1.00  0.00    +0.000 F 
ATOM     67  C46 UNL A   1      43.940  13.015  44.309  1.00  0.00    +0.000 C 
ATOM     68  F15 UNL A   1      44.502  14.192  44.615  1.00  0.00    +0.000 F 
ATOM     58  C41 UNL A   1      44.057  11.911  45.176  1.00  0.00    +0.000 C 
ATOM     59  C42 UNL A   1      43.372  10.744  44.795  1.00  0.00    +0.000 C 
ATOM     60  F11 UNL A   1      43.398   9.659  45.584  1.00  0.00    +0.000 F 
ATOM     61  C43 UNL A   1      42.582  10.698  43.641  1.00  0.00    +0.000 C 
ATOM     62  F12 UNL A   1      41.887   9.589  43.349  1.00  0.00    +0.000 F 
ATOM     63  C44 UNL A   1      42.462  11.814  42.831  1.00  0.00    +0.000 C 
ATOM     64  F13 UNL A   1      41.649  11.794  41.765  1.00  0.00    +0.000 F 
ENDBRANCH   57   58
TORSDOF 19
ENDMDL
