MODEL 1
REMARK VINA RESULT:     -10.8      0.000      0.000
ROOT
ATOM     30  C24 UNL A   1      40.809  27.742  29.172  1.00  0.00    +0.000 C 
ATOM     31  C25 UNL A   1      40.976  26.335  28.588  1.00  0.00    +0.000 C 
ATOM     32  N4  UNL A   1      41.789  25.379  28.925  1.00  0.00    +0.000 N 
ATOM     33  C26 UNL A   1      41.615  24.329  28.000  1.00  0.00    +0.000 C 
ATOM     34  C27 UNL A   1      42.475  23.275  27.881  1.00  0.00    +0.000 C 
ATOM     46  C34 UNL A   1      43.507  23.350  28.857  1.00  0.00    +0.000 C 
ATOM     47  C35 UNL A   1      43.552  23.032  30.188  1.00  0.00    +0.000 C 
ATOM     48  C36 UNL A   1      44.534  23.890  30.726  1.00  0.00    +0.000 C 
ATOM     49  C37 UNL A   1      45.104  24.642  29.695  1.00  0.00    +0.000 C 
ATOM     50  N5  UNL A   1      44.632  24.067  28.538  1.00  0.00    +0.000 N 
ATOM     51  C38 UNL A   1      45.827  25.891  29.584  1.00  0.00    +0.000 C 
ATOM     63  C45 UNL A   1      46.056  26.584  30.727  1.00  0.00    +0.000 C 
ATOM     64  N6  UNL A   1      45.885  27.951  30.743  1.00  0.00    +0.000 N 
ATOM     65  C46 UNL A   1      45.221  28.143  31.844  1.00  0.00    +0.000 C 
ATOM     66  C47 UNL A   1      44.451  29.361  32.162  1.00  0.00    +0.000 C 
ATOM     78  C54 UNL A   1      43.348  29.321  31.353  1.00  0.00    +0.000 C 
ATOM     79  C55 UNL A   1      42.300  30.313  31.220  1.00  0.00    +0.000 C 
ATOM     80  C56 UNL A   1      41.331  29.849  30.413  1.00  0.00    +0.000 C 
ATOM     81  C57 UNL A   1      41.650  28.490  29.941  1.00  0.00    +0.000 C 
ATOM     82  N7  UNL A   1      42.905  28.291  30.483  1.00  0.00    +0.000 N 
ATOM     83  C58 UNL A   1      45.182  27.015  32.783  1.00  0.00    +0.000 C 
ATOM     84  C59 UNL A   1      45.889  26.130  32.087  1.00  0.00    +0.000 C 
ATOM     85  C60 UNL A   1      40.482  24.675  27.196  1.00  0.00    +0.000 C 
ATOM     86  C61 UNL A   1      40.070  25.911  27.486  1.00  0.00    +0.000 C 
ATOM    114  H26 UNL A   1      42.992  22.322  30.686  1.00  0.00    +0.000 H 
ATOM    115  H27 UNL A   1      44.791  23.952  31.724  1.00  0.00    +0.000 H 
ATOM    116  H28 UNL A   1      45.029  24.155  27.642  1.00  0.00    +0.000 H 
ATOM    117  H29 UNL A   1      42.300  31.238  31.677  1.00  0.00    +0.000 H 
ATOM    118  H30 UNL A   1      40.478  30.374  30.159  1.00  0.00    +0.000 H 
ATOM    119  H31 UNL A   1      43.450  27.497  30.281  1.00  0.00    +0.000 H 
ATOM    120  H32 UNL A   1      44.736  26.933  33.710  1.00  0.00    +0.000 H 
ATOM    121  H33 UNL A   1      46.265  25.247  32.465  1.00  0.00    +0.000 H 
ATOM    122  H34 UNL A   1      40.046  24.057  26.493  1.00  0.00    +0.000 H 
ATOM    123  H35 UNL A   1      39.303  26.445  27.050  1.00  0.00    +0.000 H 
ENDROOT
BRANCH   30   29
ATOM    124  H36 UNL A   1      38.541  27.795  30.627  1.00  0.00    +0.000 H 
ATOM     29  C23 UNL A   1      39.512  28.370  28.834  1.00  0.00    +0.000 C 
ATOM    112  H24 UNL A   1      38.127  30.301  26.476  1.00  0.00    +0.000 H 
ATOM    113  H25 UNL A   1      40.151  29.040  26.930  1.00  0.00    +0.000 H 
ATOM     87  C62 UNL A   1      38.452  28.334  29.751  1.00  0.00    +0.000 C 
ATOM     88  C63 UNL A   1      37.283  29.029  29.471  1.00  0.00    +0.000 C 
ATOM     26  C20 UNL A   1      37.194  29.797  28.307  1.00  0.00    +0.000 C 
ATOM     27  C21 UNL A   1      38.226  29.782  27.363  1.00  0.00    +0.000 C 
ATOM     28  C22 UNL A   1      39.387  29.062  27.623  1.00  0.00    +0.000 C 
ATOM    125  H37 UNL A   1      36.481  28.977  30.121  1.00  0.00    +0.000 H 
BRANCH   26   24
ATOM     25  O2  UNL A   1      35.828  31.670  28.612  1.00  0.00    +0.000 O 
ATOM     24  C19 UNL A   1      36.003  30.622  28.014  1.00  0.00    +0.000 C 
BRANCH   24   23
ATOM    111  H23 UNL A   1      34.788  30.844  26.423  1.00  0.00    +0.000 H 
ATOM     23  N3  UNL A   1      35.074  30.186  27.098  1.00  0.00    +0.000 N 
BRANCH   23   22
ATOM    110  H22 UNL A   1      34.981  28.212  27.674  1.00  0.00    +0.000 H 
ATOM    109  H21 UNL A   1      34.539  28.519  25.997  1.00  0.00    +0.000 H 
ATOM     22  C18 UNL A   1      34.465  28.869  27.007  1.00  0.00    +0.000 C 
BRANCH   22   21
ATOM    107  H19 UNL A   1      32.854  28.231  28.228  1.00  0.00    +0.000 H 
ATOM    108  H20 UNL A   1      32.773  29.920  27.670  1.00  0.00    +0.000 H 
ATOM     21  C17 UNL A   1      32.996  28.907  27.411  1.00  0.00    +0.000 C 
BRANCH   21   20
ATOM    105  H17 UNL A   1      31.427  29.369  26.066  1.00  0.00    +0.000 H 
ATOM    106  H18 UNL A   1      32.653  28.182  25.486  1.00  0.00    +0.000 H 
ATOM     20  C16 UNL A   1      32.030  28.514  26.290  1.00  0.00    +0.000 C 
BRANCH   20   19
ATOM     19  C15 UNL A   1      31.086  27.345  26.574  1.00  0.00    +0.000 C 
ATOM    103  H15 UNL A   1      31.225  27.054  27.595  1.00  0.00    +0.000 H 
ATOM    104  H16 UNL A   1      30.105  27.708  26.350  1.00  0.00    +0.000 H 
BRANCH   19   18
ATOM     18  C14 UNL A   1      31.270  26.098  25.704  1.00  0.00    +0.000 C 
ATOM    101  H13 UNL A   1      30.347  25.555  25.711  1.00  0.00    +0.000 H 
ATOM    102  H14 UNL A   1      31.560  26.462  24.741  1.00  0.00    +0.000 H 
BRANCH   18   17
ATOM     17  C13 UNL A   1      32.380  25.135  26.128  1.00  0.00    +0.000 C 
ATOM     99  H11 UNL A   1      32.778  24.674  25.250  1.00  0.00    +0.000 H 
ATOM    100  H12 UNL A   1      33.107  25.716  26.655  1.00  0.00    +0.000 H 
BRANCH   17   16
ATOM     98  H10 UNL A   1      32.051  24.200  28.005  1.00  0.00    +0.000 H 
ATOM     16  N2  UNL A   1      31.941  24.090  27.033  1.00  0.00    +0.000 N 
BRANCH   16    2
ATOM      1  O1  UNL A   1      30.178  22.660  26.662  1.00  0.00    +0.000 O 
ATOM      2  C1  UNL A   1      31.367  22.937  26.523  1.00  0.00    +0.000 C 
BRANCH    2    3
ATOM     89  H1  UNL A   1      31.878  21.031  25.812  1.00  0.00    +0.000 H 
ATOM     90  H2  UNL A   1      33.233  22.065  26.424  1.00  0.00    +0.000 H 
ATOM      3  C2  UNL A   1      32.339  21.996  25.841  1.00  0.00    +0.000 C 
BRANCH    3    4
ATOM      4  C3  UNL A   1      32.776  22.327  24.439  1.00  0.00    +0.000 C 
ATOM      5  C4  UNL A   1      31.928  22.403  23.338  1.00  0.00    +0.000 C 
ATOM      6  C5  UNL A   1      32.670  22.843  22.225  1.00  0.00    +0.000 C 
ATOM      7  C6  UNL A   1      33.958  23.034  22.657  1.00  0.00    +0.000 C 
ATOM      8  N1  UNL A   1      34.036  22.708  23.996  1.00  0.00    +0.000 N 
ATOM     91  H3  UNL A   1      30.922  22.174  23.339  1.00  0.00    +0.000 H 
ATOM     92  H4  UNL A   1      32.314  22.991  21.267  1.00  0.00    +0.000 H 
ATOM     93  H5  UNL A   1      34.742  23.369  22.076  1.00  0.00    +0.000 H 
BRANCH    8    9
ATOM     97  H9  UNL A   1      37.590  20.460  25.613  1.00  0.00    +0.000 H 
ATOM      9  C7  UNL A   1      35.260  22.672  24.678  1.00  0.00    +0.000 C 
ATOM     10  C8  UNL A   1      35.886  23.856  25.066  1.00  0.00    +0.000 C 
ATOM     11  C9  UNL A   1      37.131  23.783  25.697  1.00  0.00    +0.000 C 
ATOM     12  C10 UNL A   1      37.746  22.545  25.912  1.00  0.00    +0.000 C 
ATOM     13  C11 UNL A   1      37.129  21.373  25.474  1.00  0.00    +0.000 C 
ATOM     14  C12 UNL A   1      35.890  21.444  24.849  1.00  0.00    +0.000 C 
ATOM     15  F1  UNL A   1      35.306  20.320  24.411  1.00  0.00    +0.000 F 
ATOM     94  H6  UNL A   1      35.438  24.769  24.891  1.00  0.00    +0.000 H 
ATOM     95  H7  UNL A   1      37.600  24.649  26.007  1.00  0.00    +0.000 H 
ATOM     96  H8  UNL A   1      38.657  22.499  26.394  1.00  0.00    +0.000 H 
ENDBRANCH    8    9
ENDBRANCH    3    4
ENDBRANCH    2    3
ENDBRANCH   16    2
ENDBRANCH   17   16
ENDBRANCH   18   17
ENDBRANCH   19   18
ENDBRANCH   20   19
ENDBRANCH   21   20
ENDBRANCH   22   21
ENDBRANCH   23   22
ENDBRANCH   24   23
ENDBRANCH   26   24
ENDBRANCH   30   29
BRANCH   34   35
ATOM     35  C28 UNL A   1      42.593  22.202  26.834  1.00  0.00    +0.000 C 
ATOM     36  C29 UNL A   1      43.563  22.214  25.824  1.00  0.00    +0.000 C 
ATOM     37  F2  UNL A   1      44.279  23.316  25.569  1.00  0.00    +0.000 F 
ATOM     38  C30 UNL A   1      43.885  21.054  25.109  1.00  0.00    +0.000 C 
ATOM     39  F3  UNL A   1      44.847  21.094  24.176  1.00  0.00    +0.000 F 
ATOM     40  C31 UNL A   1      43.268  19.847  25.399  1.00  0.00    +0.000 C 
ATOM     41  F4  UNL A   1      43.652  18.722  24.781  1.00  0.00    +0.000 F 
ATOM     42  C32 UNL A   1      42.274  19.808  26.357  1.00  0.00    +0.000 C 
ATOM     43  F5  UNL A   1      41.687  18.644  26.669  1.00  0.00    +0.000 F 
ATOM     44  C33 UNL A   1      41.921  20.972  27.039  1.00  0.00    +0.000 C 
ATOM     45  F6  UNL A   1      40.945  20.867  27.955  1.00  0.00    +0.000 F 
ENDBRANCH   34   35
BRANCH   51   52
ATOM     52  C39 UNL A   1      45.966  26.735  28.337  1.00  0.00    +0.000 C 
ATOM     53  C40 UNL A   1      44.875  27.285  27.642  1.00  0.00    +0.000 C 
ATOM     54  F7  UNL A   1      43.627  26.969  27.980  1.00  0.00    +0.000 F 
ATOM     55  C41 UNL A   1      45.038  28.171  26.579  1.00  0.00    +0.000 C 
ATOM     56  F8  UNL A   1      43.962  28.655  25.938  1.00  0.00    +0.000 F 
ATOM     57  C42 UNL A   1      46.307  28.548  26.183  1.00  0.00    +0.000 C 
ATOM     58  F9  UNL A   1      46.467  29.401  25.162  1.00  0.00    +0.000 F 
ATOM     59  C43 UNL A   1      47.407  28.025  26.842  1.00  0.00    +0.000 C 
ATOM     60  F10 UNL A   1      48.640  28.383  26.458  1.00  0.00    +0.000 F 
ATOM     61  C44 UNL A   1      47.241  27.127  27.900  1.00  0.00    +0.000 C 
ATOM     62  F11 UNL A   1      48.334  26.640  28.506  1.00  0.00    +0.000 F 
ENDBRANCH   51   52
BRANCH   66   67
ATOM     67  C48 UNL A   1      44.958  30.235  33.294  1.00  0.00    +0.000 C 
ATOM     68  C49 UNL A   1      46.206  30.909  33.168  1.00  0.00    +0.000 C 
ATOM     69  F12 UNL A   1      46.841  30.997  31.991  1.00  0.00    +0.000 F 
ATOM     70  C50 UNL A   1      46.867  31.518  34.237  1.00  0.00    +0.000 C 
ATOM     71  F13 UNL A   1      48.090  32.035  34.055  1.00  0.00    +0.000 F 
ATOM     72  C51 UNL A   1      46.275  31.563  35.476  1.00  0.00    +0.000 C 
ATOM     73  F14 UNL A   1      46.913  32.117  36.514  1.00  0.00    +0.000 F 
ATOM     74  C52 UNL A   1      45.004  31.041  35.620  1.00  0.00    +0.000 C 
ATOM     75  F15 UNL A   1      44.386  31.136  36.806  1.00  0.00    +0.000 F 
ATOM     76  C53 UNL A   1      44.357  30.398  34.550  1.00  0.00    +0.000 C 
ATOM     77  F16 UNL A   1      43.116  29.974  34.796  1.00  0.00    +0.000 F 
ENDBRANCH   66   67
TORSDOF 17
ENDMDL
MODEL 2
REMARK VINA RESULT:     -10.8     37.894     42.697
ROOT
ATOM     30  C24 UNL A   1       9.911  50.204   9.891  1.00  0.00    +0.000 C 
ATOM     31  C25 UNL A   1       9.979  49.668  11.325  1.00  0.00    +0.000 C 
ATOM     32  N4  UNL A   1      10.498  50.195  12.393  1.00  0.00    +0.000 N 
ATOM     33  C26 UNL A   1      10.392  49.244  13.430  1.00  0.00    +0.000 C 
ATOM     34  C27 UNL A   1      11.058  49.342  14.618  1.00  0.00    +0.000 C 
ATOM     46  C34 UNL A   1      11.798  50.556  14.686  1.00  0.00    +0.000 C 
ATOM     47  C35 UNL A   1      11.439  51.848  14.961  1.00  0.00    +0.000 C 
ATOM     48  C36 UNL A   1      12.380  52.635  14.265  1.00  0.00    +0.000 C 
ATOM     49  C37 UNL A   1      13.320  51.799  13.655  1.00  0.00    +0.000 C 
ATOM     50  N5  UNL A   1      13.073  50.552  14.181  1.00  0.00    +0.000 N 
ATOM     51  C38 UNL A   1      14.251  51.896  12.552  1.00  0.00    +0.000 C 
ATOM     63  C45 UNL A   1      14.291  53.067  11.870  1.00  0.00    +0.000 C 
ATOM     64  N6  UNL A   1      14.361  53.054  10.493  1.00  0.00    +0.000 N 
ATOM     65  C46 UNL A   1      13.477  53.945  10.154  1.00  0.00    +0.000 C 
ATOM     66  C47 UNL A   1      12.873  54.064   8.813  1.00  0.00    +0.000 C 
ATOM     78  C54 UNL A   1      12.028  52.993   8.693  1.00  0.00    +0.000 C 
ATOM     79  C55 UNL A   1      11.239  52.603   7.542  1.00  0.00    +0.000 C 
ATOM     80  C56 UNL A   1      10.448  51.563   7.862  1.00  0.00    +0.000 C 
ATOM     81  C57 UNL A   1      10.640  51.176   9.271  1.00  0.00    +0.000 C 
ATOM     82  N7  UNL A   1      11.656  52.026   9.661  1.00  0.00    +0.000 N 
ATOM     83  C58 UNL A   1      13.000  54.827  11.227  1.00  0.00    +0.000 C 
ATOM     84  C59 UNL A   1      13.700  54.330  12.242  1.00  0.00    +0.000 C 
ATOM     85  C60 UNL A   1       9.585  48.175  12.923  1.00  0.00    +0.000 C 
ATOM     86  C61 UNL A   1       9.332  48.362  11.627  1.00  0.00    +0.000 C 
ATOM    114  H26 UNL A   1      10.655  52.174  15.548  1.00  0.00    +0.000 H 
ATOM    115  H27 UNL A   1      12.375  53.666  14.213  1.00  0.00    +0.000 H 
ATOM    116  H28 UNL A   1      13.699  49.791  14.192  1.00  0.00    +0.000 H 
ATOM    117  H29 UNL A   1      11.279  53.054   6.615  1.00  0.00    +0.000 H 
ATOM    118  H30 UNL A   1       9.795  51.101   7.210  1.00  0.00    +0.000 H 
ATOM    119  H31 UNL A   1      12.089  51.964  10.543  1.00  0.00    +0.000 H 
ATOM    120  H32 UNL A   1      12.321  55.603  11.200  1.00  0.00    +0.000 H 
ATOM    121  H33 UNL A   1      13.806  54.782  13.163  1.00  0.00    +0.000 H 
ATOM    122  H34 UNL A   1       9.247  47.376  13.482  1.00  0.00    +0.000 H 
ATOM    123  H35 UNL A   1       8.809  47.747  10.985  1.00  0.00    +0.000 H 
ENDROOT
BRANCH   30   29
ATOM    124  H36 UNL A   1      10.196  48.153   8.166  1.00  0.00    +0.000 H 
ATOM     29  C23 UNL A   1       8.875  49.546   9.064  1.00  0.00    +0.000 C 
ATOM    112  H24 UNL A   1       5.565  49.590   8.574  1.00  0.00    +0.000 H 
ATOM    113  H25 UNL A   1       7.318  50.824   9.713  1.00  0.00    +0.000 H 
ATOM     87  C62 UNL A   1       9.212  48.451   8.256  1.00  0.00    +0.000 C 
ATOM     88  C63 UNL A   1       8.209  47.769   7.578  1.00  0.00    +0.000 C 
ATOM     26  C20 UNL A   1       6.874  48.148   7.749  1.00  0.00    +0.000 C 
ATOM     27  C21 UNL A   1       6.546  49.279   8.504  1.00  0.00    +0.000 C 
ATOM     28  C22 UNL A   1       7.549  49.984   9.160  1.00  0.00    +0.000 C 
ATOM    125  H37 UNL A   1       8.449  46.985   6.949  1.00  0.00    +0.000 H 
BRANCH   26   24
ATOM     25  O2  UNL A   1       5.341  46.386   7.650  1.00  0.00    +0.000 O 
ATOM     24  C19 UNL A   1       5.770  47.395   7.118  1.00  0.00    +0.000 C 
BRANCH   24   23
ATOM    111  H23 UNL A   1       4.706  47.156   5.425  1.00  0.00    +0.000 H 
ATOM     23  N3  UNL A   1       5.257  47.811   5.911  1.00  0.00    +0.000 N 
BRANCH   23   22
ATOM    110  H22 UNL A   1       5.769  49.804   6.006  1.00  0.00    +0.000 H 
ATOM    109  H21 UNL A   1       4.493  49.416   4.855  1.00  0.00    +0.000 H 
ATOM     22  C18 UNL A   1       5.429  49.105   5.270  1.00  0.00    +0.000 C 
BRANCH   22   21
ATOM    107  H19 UNL A   1       7.158  48.253   4.386  1.00  0.00    +0.000 H 
ATOM    108  H20 UNL A   1       5.934  48.866   3.246  1.00  0.00    +0.000 H 
ATOM     21  C17 UNL A   1       6.468  49.039   4.157  1.00  0.00    +0.000 C 
BRANCH   21   20
ATOM    105  H17 UNL A   1       7.762  50.272   3.022  1.00  0.00    +0.000 H 
ATOM    106  H18 UNL A   1       6.537  51.120   4.037  1.00  0.00    +0.000 H 
ATOM     20  C16 UNL A   1       7.261  50.335   3.965  1.00  0.00    +0.000 C 
BRANCH   20   19
ATOM     19  C15 UNL A   1       8.312  50.660   5.027  1.00  0.00    +0.000 C 
ATOM    103  H15 UNL A   1       8.474  51.718   5.012  1.00  0.00    +0.000 H 
ATOM    104  H16 UNL A   1       7.914  50.289   5.947  1.00  0.00    +0.000 H 
BRANCH   19   18
ATOM     18  C14 UNL A   1       9.674  49.978   4.864  1.00  0.00    +0.000 C 
ATOM    101  H13 UNL A   1      10.420  50.641   5.252  1.00  0.00    +0.000 H 
ATOM    102  H14 UNL A   1       9.593  49.050   5.390  1.00  0.00    +0.000 H 
BRANCH   18   17
ATOM     17  C13 UNL A   1      10.078  49.605   3.437  1.00  0.00    +0.000 C 
ATOM     99  H11 UNL A   1       9.213  49.236   2.929  1.00  0.00    +0.000 H 
ATOM    100  H12 UNL A   1      10.474  50.491   2.988  1.00  0.00    +0.000 H 
BRANCH   17   16
ATOM     98  H10 UNL A   1      12.058  48.863   3.253  1.00  0.00    +0.000 H 
ATOM     16  N2  UNL A   1      11.117  48.596   3.363  1.00  0.00    +0.000 N 
BRANCH   16    2
ATOM      1  O1  UNL A   1       9.685  46.815   3.098  1.00  0.00    +0.000 O 
ATOM      2  C1  UNL A   1      10.778  47.255   3.447  1.00  0.00    +0.000 C 
BRANCH    2    3
ATOM     89  H1  UNL A   1      12.787  46.819   3.868  1.00  0.00    +0.000 H 
ATOM     90  H2  UNL A   1      11.671  45.408   3.650  1.00  0.00    +0.000 H 
ATOM      3  C2  UNL A   1      11.836  46.375   4.078  1.00  0.00    +0.000 C 
BRANCH    3    4
ATOM      4  C3  UNL A   1      11.768  46.145   5.565  1.00  0.00    +0.000 C 
ATOM      5  C4  UNL A   1      10.830  45.339   6.203  1.00  0.00    +0.000 C 
ATOM      6  C5  UNL A   1      11.144  45.277   7.574  1.00  0.00    +0.000 C 
ATOM      7  C6  UNL A   1      12.269  46.042   7.758  1.00  0.00    +0.000 C 
ATOM      8  N1  UNL A   1      12.646  46.586   6.546  1.00  0.00    +0.000 N 
ATOM     91  H3  UNL A   1      10.036  44.864   5.745  1.00  0.00    +0.000 H 
ATOM     92  H4  UNL A   1      10.627  44.759   8.302  1.00  0.00    +0.000 H 
ATOM     93  H5  UNL A   1      12.756  46.185   8.656  1.00  0.00    +0.000 H 
BRANCH    8    9
ATOM     97  H9  UNL A   1      14.178  50.815   6.800  1.00  0.00    +0.000 H 
ATOM      9  C7  UNL A   1      13.681  47.524   6.448  1.00  0.00    +0.000 C 
ATOM     10  C8  UNL A   1      14.996  47.105   6.244  1.00  0.00    +0.000 C 
ATOM     11  C9  UNL A   1      16.010  48.067   6.203  1.00  0.00    +0.000 C 
ATOM     12  C10 UNL A   1      15.711  49.421   6.390  1.00  0.00    +0.000 C 
ATOM     13  C11 UNL A   1      14.398  49.818   6.642  1.00  0.00    +0.000 C 
ATOM     14  C12 UNL A   1      13.389  48.864   6.679  1.00  0.00    +0.000 C 
ATOM     15  F1  UNL A   1      12.130  49.244   6.940  1.00  0.00    +0.000 F 
ATOM     94  H6  UNL A   1      15.216  46.104   6.124  1.00  0.00    +0.000 H 
ATOM     95  H7  UNL A   1      16.986  47.776   6.035  1.00  0.00    +0.000 H 
ATOM     96  H8  UNL A   1      16.463  50.126   6.341  1.00  0.00    +0.000 H 
ENDBRANCH    8    9
ENDBRANCH    3    4
ENDBRANCH    2    3
ENDBRANCH   16    2
ENDBRANCH   17   16
ENDBRANCH   18   17
ENDBRANCH   19   18
ENDBRANCH   20   19
ENDBRANCH   21   20
ENDBRANCH   22   21
ENDBRANCH   23   22
ENDBRANCH   24   23
ENDBRANCH   26   24
ENDBRANCH   30   29
BRANCH   34   35
ATOM     35  C28 UNL A   1      11.257  48.350  15.730  1.00  0.00    +0.000 C 
ATOM     36  C29 UNL A   1      10.408  48.255  16.840  1.00  0.00    +0.000 C 
ATOM     37  F2  UNL A   1       9.517  49.217  17.111  1.00  0.00    +0.000 F 
ATOM     38  C30 UNL A   1      10.393  47.113  17.650  1.00  0.00    +0.000 C 
ATOM     39  F3  UNL A   1       9.538  47.042  18.680  1.00  0.00    +0.000 F 
ATOM     40  C31 UNL A   1      11.204  46.027  17.361  1.00  0.00    +0.000 C 
ATOM     41  F4  UNL A   1      11.113  44.900  18.080  1.00  0.00    +0.000 F 
ATOM     42  C32 UNL A   1      12.087  46.105  16.302  1.00  0.00    +0.000 C 
ATOM     43  F5  UNL A   1      12.859  45.053  15.992  1.00  0.00    +0.000 F 
ATOM     44  C33 UNL A   1      12.135  47.258  15.520  1.00  0.00    +0.000 C 
ATOM     45  F6  UNL A   1      13.018  47.271  14.510  1.00  0.00    +0.000 F 
ENDBRANCH   34   35
BRANCH   51   52
ATOM     52  C39 UNL A   1      14.854  50.739  11.786  1.00  0.00    +0.000 C 
ATOM     53  C40 UNL A   1      14.092  49.747  11.146  1.00  0.00    +0.000 C 
ATOM     54  F7  UNL A   1      12.771  49.701  11.300  1.00  0.00    +0.000 F 
ATOM     55  C41 UNL A   1      14.668  48.772  10.333  1.00  0.00    +0.000 C 
ATOM     56  F8  UNL A   1      13.896  47.836   9.759  1.00  0.00    +0.000 F 
ATOM     57  C42 UNL A   1      16.034  48.767  10.124  1.00  0.00    +0.000 C 
ATOM     58  F9  UNL A   1      16.591  47.832   9.342  1.00  0.00    +0.000 F 
ATOM     59  C43 UNL A   1      16.818  49.728  10.741  1.00  0.00    +0.000 C 
ATOM     60  F10 UNL A   1      18.144  49.725  10.545  1.00  0.00    +0.000 F 
ATOM     61  C44 UNL A   1      16.239  50.696  11.565  1.00  0.00    +0.000 C 
ATOM     62  F11 UNL A   1      17.037  51.604  12.147  1.00  0.00    +0.000 F 
ENDBRANCH   51   52
BRANCH   66   67
ATOM     67  C48 UNL A   1      13.210  55.299   8.000  1.00  0.00    +0.000 C 
ATOM     68  C49 UNL A   1      14.569  55.697   7.841  1.00  0.00    +0.000 C 
ATOM     69  F12 UNL A   1      15.581  54.887   8.178  1.00  0.00    +0.000 F 
ATOM     70  C50 UNL A   1      14.956  56.940   7.336  1.00  0.00    +0.000 C 
ATOM     71  F13 UNL A   1      16.254  57.277   7.322  1.00  0.00    +0.000 F 
ATOM     72  C51 UNL A   1      14.008  57.823   6.881  1.00  0.00    +0.000 C 
ATOM     73  F14 UNL A   1      14.367  59.029   6.424  1.00  0.00    +0.000 F 
ATOM     74  C52 UNL A   1      12.683  57.432   6.889  1.00  0.00    +0.000 C 
ATOM     75  F15 UNL A   1      11.753  58.257   6.387  1.00  0.00    +0.000 F 
ATOM     76  C53 UNL A   1      12.294  56.194   7.429  1.00  0.00    +0.000 C 
ATOM     77  F16 UNL A   1      10.994  55.908   7.341  1.00  0.00    +0.000 F 
ENDBRANCH   66   67
TORSDOF 17
ENDMDL
MODEL 3
REMARK VINA RESULT:     -10.7     20.029     24.706
ROOT
ATOM     30  C24 UNL A   1      52.221  20.025   9.113  1.00  0.00    +0.000 C 
ATOM     31  C25 UNL A   1      51.952  20.445  10.562  1.00  0.00    +0.000 C 
ATOM     32  N4  UNL A   1      52.587  21.286  11.323  1.00  0.00    +0.000 N 
ATOM     33  C26 UNL A   1      52.000  21.224  12.605  1.00  0.00    +0.000 C 
ATOM     34  C27 UNL A   1      52.566  21.770  13.722  1.00  0.00    +0.000 C 
ATOM     46  C34 UNL A   1      53.767  22.459  13.398  1.00  0.00    +0.000 C 
ATOM     47  C35 UNL A   1      54.014  23.695  12.863  1.00  0.00    +0.000 C 
ATOM     48  C36 UNL A   1      55.249  23.555  12.197  1.00  0.00    +0.000 C 
ATOM     49  C37 UNL A   1      55.746  22.266  12.412  1.00  0.00    +0.000 C 
ATOM     50  N5  UNL A   1      54.932  21.734  13.385  1.00  0.00    +0.000 N 
ATOM     51  C38 UNL A   1      56.686  21.382  11.759  1.00  0.00    +0.000 C 
ATOM     63  C45 UNL A   1      57.291  21.835  10.633  1.00  0.00    +0.000 C 
ATOM     64  N6  UNL A   1      57.431  20.997   9.548  1.00  0.00    +0.000 N 
ATOM     65  C46 UNL A   1      57.066  21.752   8.554  1.00  0.00    +0.000 C 
ATOM     66  C47 UNL A   1      56.664  21.258   7.224  1.00  0.00    +0.000 C 
ATOM     78  C54 UNL A   1      55.436  20.678   7.402  1.00  0.00    +0.000 C 
ATOM     79  C55 UNL A   1      54.627  19.980   6.423  1.00  0.00    +0.000 C 
ATOM     80  C56 UNL A   1      53.435  19.664   6.958  1.00  0.00    +0.000 C 
ATOM     81  C57 UNL A   1      53.345  20.137   8.350  1.00  0.00    +0.000 C 
ATOM     82  N7  UNL A   1      54.610  20.654   8.555  1.00  0.00    +0.000 N 
ATOM     83  C58 UNL A   1      56.974  23.191   8.834  1.00  0.00    +0.000 C 
ATOM     84  C59 UNL A   1      57.312  23.183  10.120  1.00  0.00    +0.000 C 
ATOM     85  C60 UNL A   1      50.831  20.408  12.481  1.00  0.00    +0.000 C 
ATOM     86  C61 UNL A   1      50.768  19.873  11.260  1.00  0.00    +0.000 C 
ATOM    114  H26 UNL A   1      53.427  24.541  12.933  1.00  0.00    +0.000 H 
ATOM    115  H27 UNL A   1      55.712  24.288  11.637  1.00  0.00    +0.000 H 
ATOM    116  H28 UNL A   1      55.146  20.970  13.968  1.00  0.00    +0.000 H 
ATOM    117  H29 UNL A   1      54.923  19.759   5.460  1.00  0.00    +0.000 H 
ATOM    118  H30 UNL A   1      52.685  19.159   6.460  1.00  0.00    +0.000 H 
ATOM    119  H31 UNL A   1      54.914  20.980   9.433  1.00  0.00    +0.000 H 
ATOM    120  H32 UNL A   1      56.721  23.976   8.214  1.00  0.00    +0.000 H 
ATOM    121  H33 UNL A   1      57.554  24.021  10.671  1.00  0.00    +0.000 H 
ATOM    122  H34 UNL A   1      50.135  20.257  13.228  1.00  0.00    +0.000 H 
ATOM    123  H35 UNL A   1      50.064  19.217  10.888  1.00  0.00    +0.000 H 
ENDROOT
BRANCH   30   29
ATOM    124  H36 UNL A   1      50.028  21.222   8.101  1.00  0.00    +0.000 H 
ATOM     29  C23 UNL A   1      51.052  19.401   8.454  1.00  0.00    +0.000 C 
ATOM    112  H24 UNL A   1      49.992  16.407   7.397  1.00  0.00    +0.000 H 
ATOM    113  H25 UNL A   1      51.764  17.423   8.708  1.00  0.00    +0.000 H 
ATOM     87  C62 UNL A   1      50.021  20.202   7.943  1.00  0.00    +0.000 C 
ATOM     88  C63 UNL A   1      48.991  19.611   7.223  1.00  0.00    +0.000 C 
ATOM     26  C20 UNL A   1      49.019  18.236   6.971  1.00  0.00    +0.000 C 
ATOM     27  C21 UNL A   1      50.013  17.429   7.535  1.00  0.00    +0.000 C 
ATOM     28  C22 UNL A   1      51.030  18.011   8.283  1.00  0.00    +0.000 C 
ATOM    125  H37 UNL A   1      48.205  20.186   6.876  1.00  0.00    +0.000 H 
BRANCH   26   24
ATOM     25  O2  UNL A   1      48.041  16.380   5.938  1.00  0.00    +0.000 O 
ATOM     24  C19 UNL A   1      47.991  17.582   6.134  1.00  0.00    +0.000 C 
BRANCH   24   23
ATOM    111  H23 UNL A   1      46.360  18.764   6.156  1.00  0.00    +0.000 H 
ATOM     23  N3  UNL A   1      47.004  18.338   5.544  1.00  0.00    +0.000 N 
BRANCH   23   22
ATOM    110  H22 UNL A   1      47.010  17.679   3.593  1.00  0.00    +0.000 H 
ATOM    109  H21 UNL A   1      47.452  19.370   3.810  1.00  0.00    +0.000 H 
ATOM     22  C18 UNL A   1      46.799  18.582   4.126  1.00  0.00    +0.000 C 
BRANCH   22   21
ATOM    107  H19 UNL A   1      45.051  18.505   2.929  1.00  0.00    +0.000 H 
ATOM    108  H20 UNL A   1      44.776  18.686   4.679  1.00  0.00    +0.000 H 
ATOM     21  C17 UNL A   1      45.358  18.986   3.834  1.00  0.00    +0.000 C 
BRANCH   21   20
ATOM    105  H17 UNL A   1      44.840  20.885   4.615  1.00  0.00    +0.000 H 
ATOM    106  H18 UNL A   1      46.095  20.869   3.321  1.00  0.00    +0.000 H 
ATOM     20  C16 UNL A   1      45.154  20.495   3.670  1.00  0.00    +0.000 C 
BRANCH   20   19
ATOM     19  C15 UNL A   1      44.132  20.940   2.623  1.00  0.00    +0.000 C 
ATOM    103  H15 UNL A   1      43.510  21.686   3.072  1.00  0.00    +0.000 H 
ATOM    104  H16 UNL A   1      44.708  21.289   1.791  1.00  0.00    +0.000 H 
BRANCH   19   18
ATOM     18  C14 UNL A   1      43.219  19.847   2.060  1.00  0.00    +0.000 C 
ATOM    101  H13 UNL A   1      43.792  18.945   1.993  1.00  0.00    +0.000 H 
ATOM    102  H14 UNL A   1      42.389  19.794   2.734  1.00  0.00    +0.000 H 
BRANCH   18   17
ATOM     17  C13 UNL A   1      42.611  20.116   0.683  1.00  0.00    +0.000 C 
ATOM     99  H11 UNL A   1      43.368  20.537   0.057  1.00  0.00    +0.000 H 
ATOM    100  H12 UNL A   1      42.248  19.178   0.319  1.00  0.00    +0.000 H 
BRANCH   17   16
ATOM     98  H10 UNL A   1      41.625  21.995   0.656  1.00  0.00    +0.000 H 
ATOM     16  N2  UNL A   1      41.480  21.024   0.704  1.00  0.00    +0.000 N 
BRANCH   16    2
ATOM      1  O1  UNL A   1      39.870  19.423   0.331  1.00  0.00    +0.000 O 
ATOM      2  C1  UNL A   1      40.194  20.515   0.792  1.00  0.00    +0.000 C 
BRANCH    2    3
ATOM     89  H1  UNL A   1      38.789  22.067   0.662  1.00  0.00    +0.000 H 
ATOM     90  H2  UNL A   1      39.743  21.954   2.198  1.00  0.00    +0.000 H 
ATOM      3  C2  UNL A   1      39.189  21.447   1.437  1.00  0.00    +0.000 C 
BRANCH    3    4
ATOM      4  C3  UNL A   1      38.023  20.832   2.165  1.00  0.00    +0.000 C 
ATOM      5  C4  UNL A   1      38.113  20.137   3.367  1.00  0.00    +0.000 C 
ATOM      6  C5  UNL A   1      36.814  19.808   3.799  1.00  0.00    +0.000 C 
ATOM      7  C6  UNL A   1      35.946  20.309   2.861  1.00  0.00    +0.000 C 
ATOM      8  N1  UNL A   1      36.671  20.918   1.857  1.00  0.00    +0.000 N 
ATOM     91  H3  UNL A   1      38.989  19.901   3.860  1.00  0.00    +0.000 H 
ATOM     92  H4  UNL A   1      36.562  19.289   4.655  1.00  0.00    +0.000 H 
ATOM     93  H5  UNL A   1      34.917  20.242   2.900  1.00  0.00    +0.000 H 
BRANCH    8    9
ATOM     97  H9  UNL A   1      35.781  20.612  -2.549  1.00  0.00    +0.000 H 
ATOM      9  C7  UNL A   1      36.060  21.399   0.691  1.00  0.00    +0.000 C 
ATOM     10  C8  UNL A   1      35.180  22.479   0.751  1.00  0.00    +0.000 C 
ATOM     11  C9  UNL A   1      34.549  22.898  -0.423  1.00  0.00    +0.000 C 
ATOM     12  C10 UNL A   1      34.779  22.229  -1.630  1.00  0.00    +0.000 C 
ATOM     13  C11 UNL A   1      35.625  21.120  -1.664  1.00  0.00    +0.000 C 
ATOM     14  C12 UNL A   1      36.255  20.704  -0.497  1.00  0.00    +0.000 C 
ATOM     15  F1  UNL A   1      37.053  19.628  -0.526  1.00  0.00    +0.000 F 
ATOM     94  H6  UNL A   1      34.998  22.960   1.646  1.00  0.00    +0.000 H 
ATOM     95  H7  UNL A   1      33.908  23.707  -0.400  1.00  0.00    +0.000 H 
ATOM     96  H8  UNL A   1      34.322  22.555  -2.496  1.00  0.00    +0.000 H 
ENDBRANCH    8    9
ENDBRANCH    3    4
ENDBRANCH    2    3
ENDBRANCH   16    2
ENDBRANCH   17   16
ENDBRANCH   18   17
ENDBRANCH   19   18
ENDBRANCH   20   19
ENDBRANCH   21   20
ENDBRANCH   22   21
ENDBRANCH   23   22
ENDBRANCH   24   23
ENDBRANCH   26   24
ENDBRANCH   30   29
BRANCH   34   35
ATOM     35  C28 UNL A   1      52.228  21.620  15.180  1.00  0.00    +0.000 C 
ATOM     36  C29 UNL A   1      53.076  21.002  16.108  1.00  0.00    +0.000 C 
ATOM     37  F2  UNL A   1      54.122  20.271  15.705  1.00  0.00    +0.000 F 
ATOM     38  C30 UNL A   1      52.917  21.200  17.485  1.00  0.00    +0.000 C 
ATOM     39  F3  UNL A   1      53.771  20.624  18.341  1.00  0.00    +0.000 F 
ATOM     40  C31 UNL A   1      51.927  22.040  17.971  1.00  0.00    +0.000 C 
ATOM     41  F4  UNL A   1      51.844  22.304  19.282  1.00  0.00    +0.000 F 
ATOM     42  C32 UNL A   1      51.045  22.629  17.088  1.00  0.00    +0.000 C 
ATOM     43  F5  UNL A   1      50.099  23.465  17.539  1.00  0.00    +0.000 F 
ATOM     44  C33 UNL A   1      51.173  22.397  15.719  1.00  0.00    +0.000 C 
ATOM     45  F6  UNL A   1      50.281  22.997  14.914  1.00  0.00    +0.000 F 
ENDBRANCH   34   35
BRANCH   51   52
ATOM     52  C39 UNL A   1      56.748  19.877  11.905  1.00  0.00    +0.000 C 
ATOM     53  C40 UNL A   1      55.684  19.018  11.579  1.00  0.00    +0.000 C 
ATOM     54  F7  UNL A   1      54.493  19.509  11.244  1.00  0.00    +0.000 F 
ATOM     55  C41 UNL A   1      55.815  17.631  11.591  1.00  0.00    +0.000 C 
ATOM     56  F8  UNL A   1      54.762  16.855  11.288  1.00  0.00    +0.000 F 
ATOM     57  C42 UNL A   1      57.027  17.055  11.920  1.00  0.00    +0.000 C 
ATOM     58  F9  UNL A   1      57.157  15.721  11.933  1.00  0.00    +0.000 F 
ATOM     59  C43 UNL A   1      58.098  17.869  12.251  1.00  0.00    +0.000 C 
ATOM     60  F10 UNL A   1      59.274  17.316  12.576  1.00  0.00    +0.000 F 
ATOM     61  C44 UNL A   1      57.960  19.260  12.249  1.00  0.00    +0.000 C 
ATOM     62  F11 UNL A   1      59.022  20.010  12.581  1.00  0.00    +0.000 F 
ENDBRANCH   51   52
BRANCH   66   67
ATOM     67  C48 UNL A   1      57.571  21.582   6.052  1.00  0.00    +0.000 C 
ATOM     68  C49 UNL A   1      58.392  20.566   5.485  1.00  0.00    +0.000 C 
ATOM     69  F12 UNL A   1      58.218  19.272   5.788  1.00  0.00    +0.000 F 
ATOM     70  C50 UNL A   1      59.432  20.823   4.589  1.00  0.00    +0.000 C 
ATOM     71  F13 UNL A   1      60.226  19.821   4.188  1.00  0.00    +0.000 F 
ATOM     72  C51 UNL A   1      59.653  22.102   4.141  1.00  0.00    +0.000 C 
ATOM     73  F14 UNL A   1      60.666  22.364   3.306  1.00  0.00    +0.000 F 
ATOM     74  C52 UNL A   1      58.799  23.105   4.557  1.00  0.00    +0.000 C 
ATOM     75  F15 UNL A   1      58.961  24.346   4.077  1.00  0.00    +0.000 F 
ATOM     76  C53 UNL A   1      57.775  22.848   5.486  1.00  0.00    +0.000 C 
ATOM     77  F16 UNL A   1      56.987  23.884   5.778  1.00  0.00    +0.000 F 
ENDBRANCH   66   67
TORSDOF 17
ENDMDL
MODEL 4
REMARK VINA RESULT:     -10.7     23.618     27.968
ROOT
ATOM     30  C24 UNL A   1      53.030  17.378   5.736  1.00  0.00    +0.000 C 
ATOM     31  C25 UNL A   1      53.538  16.759   4.429  1.00  0.00    +0.000 C 
ATOM     32  N4  UNL A   1      54.624  16.089   4.186  1.00  0.00    +0.000 N 
ATOM     33  C26 UNL A   1      54.667  15.842   2.797  1.00  0.00    +0.000 C 
ATOM     34  C27 UNL A   1      55.780  15.396   2.143  1.00  0.00    +0.000 C 
ATOM     46  C34 UNL A   1      56.841  15.148   3.057  1.00  0.00    +0.000 C 
ATOM     47  C35 UNL A   1      57.115  14.107   3.903  1.00  0.00    +0.000 C 
ATOM     48  C36 UNL A   1      57.856  14.688   4.954  1.00  0.00    +0.000 C 
ATOM     49  C37 UNL A   1      58.072  16.040   4.675  1.00  0.00    +0.000 C 
ATOM     50  N5  UNL A   1      57.669  16.197   3.368  1.00  0.00    +0.000 N 
ATOM     51  C38 UNL A   1      58.384  17.231   5.434  1.00  0.00    +0.000 C 
ATOM     63  C45 UNL A   1      58.519  17.099   6.776  1.00  0.00    +0.000 C 
ATOM     64  N6  UNL A   1      57.961  18.038   7.616  1.00  0.00    +0.000 N 
ATOM     65  C46 UNL A   1      57.388  17.305   8.525  1.00  0.00    +0.000 C 
ATOM     66  C47 UNL A   1      56.334  17.774   9.445  1.00  0.00    +0.000 C 
ATOM     78  C54 UNL A   1      55.212  17.924   8.675  1.00  0.00    +0.000 C 
ATOM     79  C55 UNL A   1      53.914  18.425   9.076  1.00  0.00    +0.000 C 
ATOM     80  C56 UNL A   1      53.043  18.303   8.059  1.00  0.00    +0.000 C 
ATOM     81  C57 UNL A   1      53.693  17.695   6.885  1.00  0.00    +0.000 C 
ATOM     82  N7  UNL A   1      55.000  17.580   7.315  1.00  0.00    +0.000 N 
ATOM     83  C58 UNL A   1      57.777  15.890   8.555  1.00  0.00    +0.000 C 
ATOM     84  C59 UNL A   1      58.634  15.879   7.539  1.00  0.00    +0.000 C 
ATOM     85  C60 UNL A   1      53.405  16.262   2.267  1.00  0.00    +0.000 C 
ATOM     86  C61 UNL A   1      52.685  16.865   3.214  1.00  0.00    +0.000 C 
ATOM    114  H26 UNL A   1      56.841  13.118   3.795  1.00  0.00    +0.000 H 
ATOM    115  H27 UNL A   1      58.185  14.192   5.797  1.00  0.00    +0.000 H 
ATOM    116  H28 UNL A   1      57.928  16.931   2.765  1.00  0.00    +0.000 H 
ATOM    117  H29 UNL A   1      53.691  18.819  10.003  1.00  0.00    +0.000 H 
ATOM    118  H30 UNL A   1      52.053  18.595   8.097  1.00  0.00    +0.000 H 
ATOM    119  H31 UNL A   1      55.729  17.282   6.723  1.00  0.00    +0.000 H 
ATOM    120  H32 UNL A   1      57.473  15.127   9.181  1.00  0.00    +0.000 H 
ATOM    121  H33 UNL A   1      59.288  15.109   7.327  1.00  0.00    +0.000 H 
ATOM    122  H34 UNL A   1      53.098  16.118   1.293  1.00  0.00    +0.000 H 
ATOM    123  H35 UNL A   1      51.754  17.302   3.125  1.00  0.00    +0.000 H 
ENDROOT
BRANCH   30   29
ATOM    124  H36 UNL A   1      51.791  19.724   5.266  1.00  0.00    +0.000 H 
ATOM     29  C23 UNL A   1      51.578  17.668   5.726  1.00  0.00    +0.000 C 
ATOM    112  H24 UNL A   1      48.639  16.086   5.975  1.00  0.00    +0.000 H 
ATOM    113  H25 UNL A   1      51.019  15.694   6.250  1.00  0.00    +0.000 H 
ATOM     87  C62 UNL A   1      51.120  18.954   5.409  1.00  0.00    +0.000 C 
ATOM     88  C63 UNL A   1      49.755  19.181   5.287  1.00  0.00    +0.000 C 
ATOM     26  C20 UNL A   1      48.859  18.117   5.430  1.00  0.00    +0.000 C 
ATOM     27  C21 UNL A   1      49.313  16.850   5.809  1.00  0.00    +0.000 C 
ATOM     28  C22 UNL A   1      50.676  16.624   5.963  1.00  0.00    +0.000 C 
ATOM    125  H37 UNL A   1      49.404  20.132   5.092  1.00  0.00    +0.000 H 
BRANCH   26   24
ATOM     25  O2  UNL A   1      46.650  18.294   6.175  1.00  0.00    +0.000 O 
ATOM     24  C19 UNL A   1      47.407  18.297   5.220  1.00  0.00    +0.000 C 
BRANCH   24   23
ATOM    111  H23 UNL A   1      47.461  18.940   3.312  1.00  0.00    +0.000 H 
ATOM     23  N3  UNL A   1      46.908  18.426   3.944  1.00  0.00    +0.000 N 
BRANCH   23   22
ATOM    110  H22 UNL A   1      45.324  17.116   4.074  1.00  0.00    +0.000 H 
ATOM    109  H21 UNL A   1      45.836  17.505   2.434  1.00  0.00    +0.000 H 
ATOM     22  C18 UNL A   1      45.662  17.891   3.418  1.00  0.00    +0.000 C 
BRANCH   22   21
ATOM    107  H19 UNL A   1      44.462  19.386   4.322  1.00  0.00    +0.000 H 
ATOM    108  H20 UNL A   1      44.910  19.683   2.623  1.00  0.00    +0.000 H 
ATOM     21  C17 UNL A   1      44.583  18.964   3.346  1.00  0.00    +0.000 C 
BRANCH   21   20
ATOM    105  H17 UNL A   1      43.214  18.483   1.803  1.00  0.00    +0.000 H 
ATOM    106  H18 UNL A   1      43.131  17.468   3.291  1.00  0.00    +0.000 H 
ATOM     20  C16 UNL A   1      43.221  18.449   2.873  1.00  0.00    +0.000 C 
BRANCH   20   19
ATOM     19  C15 UNL A   1      41.989  19.210   3.367  1.00  0.00    +0.000 C 
ATOM    103  H15 UNL A   1      42.192  19.547   4.362  1.00  0.00    +0.000 H 
ATOM    104  H16 UNL A   1      41.835  19.997   2.659  1.00  0.00    +0.000 H 
BRANCH   19   18
ATOM     18  C14 UNL A   1      40.675  18.423   3.399  1.00  0.00    +0.000 C 
ATOM    101  H13 UNL A   1      40.507  18.029   2.418  1.00  0.00    +0.000 H 
ATOM    102  H14 UNL A   1      40.806  17.679   4.156  1.00  0.00    +0.000 H 
BRANCH   18   17
ATOM     17  C13 UNL A   1      39.427  19.206   3.806  1.00  0.00    +0.000 C 
ATOM     99  H11 UNL A   1      39.125  18.876   4.777  1.00  0.00    +0.000 H 
ATOM    100  H12 UNL A   1      39.694  20.242   3.787  1.00  0.00    +0.000 H 
BRANCH   17   16
ATOM     98  H10 UNL A   1      38.123  18.169   2.492  1.00  0.00    +0.000 H 
ATOM     16  N2  UNL A   1      38.307  19.045   2.900  1.00  0.00    +0.000 N 
BRANCH   16    2
ATOM      1  O1  UNL A   1      36.271  20.096   2.691  1.00  0.00    +0.000 O 
ATOM      2  C1  UNL A   1      37.497  20.131   2.611  1.00  0.00    +0.000 C 
BRANCH    2    3
ATOM     89  H1  UNL A   1      38.951  21.623   2.858  1.00  0.00    +0.000 H 
ATOM     90  H2  UNL A   1      37.466  22.074   1.924  1.00  0.00    +0.000 H 
ATOM      3  C2  UNL A   1      38.235  21.355   2.109  1.00  0.00    +0.000 C 
BRANCH    3    4
ATOM      4  C3  UNL A   1      38.973  21.246   0.802  1.00  0.00    +0.000 C 
ATOM      5  C4  UNL A   1      40.288  20.811   0.664  1.00  0.00    +0.000 C 
ATOM      6  C5  UNL A   1      40.599  20.736  -0.707  1.00  0.00    +0.000 C 
ATOM      7  C6  UNL A   1      39.473  21.121  -1.391  1.00  0.00    +0.000 C 
ATOM      8  N1  UNL A   1      38.485  21.448  -0.483  1.00  0.00    +0.000 N 
ATOM     91  H3  UNL A   1      40.929  20.582   1.440  1.00  0.00    +0.000 H 
ATOM     92  H4  UNL A   1      41.501  20.449  -1.120  1.00  0.00    +0.000 H 
ATOM     93  H5  UNL A   1      39.378  21.158  -2.418  1.00  0.00    +0.000 H 
BRANCH    8    9
ATOM     97  H9  UNL A   1      34.034  21.180  -1.120  1.00  0.00    +0.000 H 
ATOM      9  C7  UNL A   1      37.267  22.010  -0.887  1.00  0.00    +0.000 C 
ATOM     10  C8  UNL A   1      37.193  23.358  -1.234  1.00  0.00    +0.000 C 
ATOM     11  C9  UNL A   1      35.950  23.896  -1.581  1.00  0.00    +0.000 C 
ATOM     12  C10 UNL A   1      34.801  23.099  -1.556  1.00  0.00    +0.000 C 
ATOM     13  C11 UNL A   1      34.884  21.765  -1.159  1.00  0.00    +0.000 C 
ATOM     14  C12 UNL A   1      36.119  21.228  -0.817  1.00  0.00    +0.000 C 
ATOM     15  F1  UNL A   1      36.197  19.951  -0.418  1.00  0.00    +0.000 F 
ATOM     94  H6  UNL A   1      38.039  23.948  -1.235  1.00  0.00    +0.000 H 
ATOM     95  H7  UNL A   1      35.880  24.888  -1.858  1.00  0.00    +0.000 H 
ATOM     96  H8  UNL A   1      33.890  23.500  -1.830  1.00  0.00    +0.000 H 
ENDBRANCH    8    9
ENDBRANCH    3    4
ENDBRANCH    2    3
ENDBRANCH   16    2
ENDBRANCH   17   16
ENDBRANCH   18   17
ENDBRANCH   19   18
ENDBRANCH   20   19
ENDBRANCH   21   20
ENDBRANCH   22   21
ENDBRANCH   23   22
ENDBRANCH   24   23
ENDBRANCH   26   24
ENDBRANCH   30   29
BRANCH   34   35
ATOM     35  C28 UNL A   1      56.095  15.293   0.676  1.00  0.00    +0.000 C 
ATOM     36  C29 UNL A   1      56.906  16.210  -0.004  1.00  0.00    +0.000 C 
ATOM     37  F2  UNL A   1      57.237  17.383   0.551  1.00  0.00    +0.000 F 
ATOM     38  C30 UNL A   1      57.476  15.899  -1.245  1.00  0.00    +0.000 C 
ATOM     39  F3  UNL A   1      58.279  16.787  -1.847  1.00  0.00    +0.000 F 
ATOM     40  C31 UNL A   1      57.275  14.657  -1.827  1.00  0.00    +0.000 C 
ATOM     41  F4  UNL A   1      57.903  14.329  -2.963  1.00  0.00    +0.000 F 
ATOM     42  C32 UNL A   1      56.443  13.746  -1.206  1.00  0.00    +0.000 C 
ATOM     43  F5  UNL A   1      56.259  12.531  -1.742  1.00  0.00    +0.000 F 
ATOM     44  C33 UNL A   1      55.839  14.070   0.008  1.00  0.00    +0.000 C 
ATOM     45  F6  UNL A   1      55.039  13.142   0.556  1.00  0.00    +0.000 F 
ENDBRANCH   34   35
BRANCH   51   52
ATOM     52  C39 UNL A   1      58.141  18.660   4.997  1.00  0.00    +0.000 C 
ATOM     53  C40 UNL A   1      56.870  19.174   4.688  1.00  0.00    +0.000 C 
ATOM     54  F7  UNL A   1      55.809  18.373   4.632  1.00  0.00    +0.000 F 
ATOM     55  C41 UNL A   1      56.657  20.526   4.423  1.00  0.00    +0.000 C 
ATOM     56  F8  UNL A   1      55.425  20.963   4.116  1.00  0.00    +0.000 F 
ATOM     57  C42 UNL A   1      57.714  21.414   4.473  1.00  0.00    +0.000 C 
ATOM     58  F9  UNL A   1      57.513  22.714   4.220  1.00  0.00    +0.000 F 
ATOM     59  C43 UNL A   1      58.982  20.943   4.772  1.00  0.00    +0.000 C 
ATOM     60  F10 UNL A   1      60.012  21.799   4.817  1.00  0.00    +0.000 F 
ATOM     61  C44 UNL A   1      59.195  19.585   5.025  1.00  0.00    +0.000 C 
ATOM     62  F11 UNL A   1      60.441  19.172   5.305  1.00  0.00    +0.000 F 
ENDBRANCH   51   52
BRANCH   66   67
ATOM     67  C48 UNL A   1      56.680  17.861  10.919  1.00  0.00    +0.000 C 
ATOM     68  C49 UNL A   1      57.766  18.677  11.348  1.00  0.00    +0.000 C 
ATOM     69  F12 UNL A   1      58.346  19.563  10.528  1.00  0.00    +0.000 F 
ATOM     70  C50 UNL A   1      58.314  18.621  12.632  1.00  0.00    +0.000 C 
ATOM     71  F13 UNL A   1      59.405  19.344  12.920  1.00  0.00    +0.000 F 
ATOM     72  C51 UNL A   1      57.750  17.809  13.586  1.00  0.00    +0.000 C 
ATOM     73  F14 UNL A   1      58.286  17.726  14.809  1.00  0.00    +0.000 F 
ATOM     74  C52 UNL A   1      56.612  17.098  13.259  1.00  0.00    +0.000 C 
ATOM     75  F15 UNL A   1      56.012  16.352  14.198  1.00  0.00    +0.000 F 
ATOM     76  C53 UNL A   1      56.084  17.130  11.956  1.00  0.00    +0.000 C 
ATOM     77  F16 UNL A   1      54.958  16.439  11.772  1.00  0.00    +0.000 F 
ENDBRANCH   66   67
TORSDOF 17
ENDMDL
MODEL 5
REMARK VINA RESULT:     -10.6      1.824      3.165
ROOT
ATOM     30  C24 UNL A   1      40.751  27.796  29.478  1.00  0.00    +0.000 C 
ATOM     31  C25 UNL A   1      40.949  26.418  28.839  1.00  0.00    +0.000 C 
ATOM     32  N4  UNL A   1      41.788  25.470  29.133  1.00  0.00    +0.000 N 
ATOM     33  C26 UNL A   1      41.633  24.452  28.169  1.00  0.00    +0.000 C 
ATOM     34  C27 UNL A   1      42.519  23.426  28.004  1.00  0.00    +0.000 C 
ATOM     46  C34 UNL A   1      43.556  23.488  28.975  1.00  0.00    +0.000 C 
ATOM     47  C35 UNL A   1      43.619  23.120  30.292  1.00  0.00    +0.000 C 
ATOM     48  C36 UNL A   1      44.583  23.981  30.857  1.00  0.00    +0.000 C 
ATOM     49  C37 UNL A   1      45.127  24.787  29.853  1.00  0.00    +0.000 C 
ATOM     50  N5  UNL A   1      44.660  24.246  28.677  1.00  0.00    +0.000 N 
ATOM     51  C38 UNL A   1      45.817  26.057  29.786  1.00  0.00    +0.000 C 
ATOM     63  C45 UNL A   1      46.037  26.710  30.954  1.00  0.00    +0.000 C 
ATOM     64  N6  UNL A   1      45.832  28.071  31.024  1.00  0.00    +0.000 N 
ATOM     65  C46 UNL A   1      45.172  28.204  32.136  1.00  0.00    +0.000 C 
ATOM     66  C47 UNL A   1      44.374  29.389  32.506  1.00  0.00    +0.000 C 
ATOM     78  C54 UNL A   1      43.266  29.352  31.703  1.00  0.00    +0.000 C 
ATOM     79  C55 UNL A   1      42.194  30.322  31.616  1.00  0.00    +0.000 C 
ATOM     80  C56 UNL A   1      41.230  29.865  30.797  1.00  0.00    +0.000 C 
ATOM     81  C57 UNL A   1      41.580  28.535  30.270  1.00  0.00    +0.000 C 
ATOM     82  N7  UNL A   1      42.843  28.347  30.797  1.00  0.00    +0.000 N 
ATOM     83  C58 UNL A   1      45.168  27.039  33.030  1.00  0.00    +0.000 C 
ATOM     84  C59 UNL A   1      45.892  26.201  32.295  1.00  0.00    +0.000 C 
ATOM     85  C60 UNL A   1      40.486  24.801  27.386  1.00  0.00    +0.000 C 
ATOM     86  C61 UNL A   1      40.046  26.014  27.727  1.00  0.00    +0.000 C 
ATOM    114  H26 UNL A   1      43.080  22.378  30.766  1.00  0.00    +0.000 H 
ATOM    115  H27 UNL A   1      44.845  24.011  31.855  1.00  0.00    +0.000 H 
ATOM    116  H28 UNL A   1      45.048  24.379  27.782  1.00  0.00    +0.000 H 
ATOM    117  H29 UNL A   1      42.173  31.229  32.109  1.00  0.00    +0.000 H 
ATOM    118  H30 UNL A   1      40.363  30.378  30.569  1.00  0.00    +0.000 H 
ATOM    119  H31 UNL A   1      43.406  27.574  30.560  1.00  0.00    +0.000 H 
ATOM    120  H32 UNL A   1      44.731  26.910  33.956  1.00  0.00    +0.000 H 
ATOM    121  H33 UNL A   1      46.292  25.312  32.636  1.00  0.00    +0.000 H 
ATOM    122  H34 UNL A   1      40.061  24.200  26.663  1.00  0.00    +0.000 H 
ATOM    123  H35 UNL A   1      39.263  26.545  27.317  1.00  0.00    +0.000 H 
ENDROOT
BRANCH   30   29
ATOM    124  H36 UNL A   1      38.514  27.795  30.981  1.00  0.00    +0.000 H 
ATOM     29  C23 UNL A   1      39.437  28.404  29.174  1.00  0.00    +0.000 C 
ATOM    112  H24 UNL A   1      37.969  30.331  26.864  1.00  0.00    +0.000 H 
ATOM    113  H25 UNL A   1      40.024  29.102  27.263  1.00  0.00    +0.000 H 
ATOM     87  C62 UNL A   1      38.398  28.340  30.112  1.00  0.00    +0.000 C 
ATOM     88  C63 UNL A   1      37.210  29.017  29.863  1.00  0.00    +0.000 C 
ATOM     26  C20 UNL A   1      37.084  29.794  28.708  1.00  0.00    +0.000 C 
ATOM     27  C21 UNL A   1      38.096  29.806  27.743  1.00  0.00    +0.000 C 
ATOM     28  C22 UNL A   1      39.275  29.105  27.972  1.00  0.00    +0.000 C 
ATOM    125  H37 UNL A   1      36.423  28.944  30.528  1.00  0.00    +0.000 H 
BRANCH   26   24
ATOM     25  O2  UNL A   1      35.583  31.519  29.195  1.00  0.00    +0.000 O 
ATOM     24  C19 UNL A   1      35.873  30.601  28.448  1.00  0.00    +0.000 C 
BRANCH   24   23
ATOM    111  H23 UNL A   1      35.082  30.902  26.620  1.00  0.00    +0.000 H 
ATOM     23  N3  UNL A   1      35.053  30.287  27.388  1.00  0.00    +0.000 N 
BRANCH   23   22
ATOM    110  H22 UNL A   1      33.154  29.492  27.463  1.00  0.00    +0.000 H 
ATOM    109  H21 UNL A   1      34.439  28.401  27.972  1.00  0.00    +0.000 H 
ATOM     22  C18 UNL A   1      34.150  29.153  27.268  1.00  0.00    +0.000 C 
BRANCH   22   21
ATOM    107  H19 UNL A   1      33.873  29.312  25.172  1.00  0.00    +0.000 H 
ATOM    108  H20 UNL A   1      35.193  28.237  25.692  1.00  0.00    +0.000 H 
ATOM     21  C17 UNL A   1      34.188  28.560  25.864  1.00  0.00    +0.000 C 
BRANCH   21   20
ATOM    105  H17 UNL A   1      32.470  27.426  26.360  1.00  0.00    +0.000 H 
ATOM    106  H18 UNL A   1      33.021  27.335  24.646  1.00  0.00    +0.000 H 
ATOM     20  C16 UNL A   1      33.292  27.332  25.681  1.00  0.00    +0.000 C 
BRANCH   20   19
ATOM     19  C15 UNL A   1      33.938  25.967  25.923  1.00  0.00    +0.000 C 
ATOM    103  H15 UNL A   1      34.876  26.133  26.411  1.00  0.00    +0.000 H 
ATOM    104  H16 UNL A   1      33.231  25.415  26.506  1.00  0.00    +0.000 H 
BRANCH   19   18
ATOM     18  C14 UNL A   1      34.202  25.113  24.680  1.00  0.00    +0.000 C 
ATOM    101  H13 UNL A   1      35.154  24.639  24.805  1.00  0.00    +0.000 H 
ATOM    102  H14 UNL A   1      33.377  24.434  24.619  1.00  0.00    +0.000 H 
BRANCH   18   17
ATOM     17  C13 UNL A   1      34.222  25.852  23.342  1.00  0.00    +0.000 C 
ATOM     99  H11 UNL A   1      34.325  26.898  23.537  1.00  0.00    +0.000 H 
ATOM    100  H12 UNL A   1      35.042  25.454  22.782  1.00  0.00    +0.000 H 
BRANCH   17   16
ATOM     98  H10 UNL A   1      32.591  26.420  22.109  1.00  0.00    +0.000 H 
ATOM     16  N2  UNL A   1      33.031  25.652  22.539  1.00  0.00    +0.000 N 
BRANCH   16    2
ATOM      1  O1  UNL A   1      33.162  23.444  21.909  1.00  0.00    +0.000 O 
ATOM      2  C1  UNL A   1      32.516  24.376  22.382  1.00  0.00    +0.000 C 
BRANCH    2    3
ATOM     89  H1  UNL A   1      30.793  23.204  22.625  1.00  0.00    +0.000 H 
ATOM     90  H2  UNL A   1      30.545  24.933  22.145  1.00  0.00    +0.000 H 
ATOM      3  C2  UNL A   1      31.058  24.231  22.767  1.00  0.00    +0.000 C 
BRANCH    3    4
ATOM      4  C3  UNL A   1      30.658  24.607  24.169  1.00  0.00    +0.000 C 
ATOM      5  C4  UNL A   1      30.805  23.788  25.285  1.00  0.00    +0.000 C 
ATOM      6  C5  UNL A   1      30.428  24.513  26.432  1.00  0.00    +0.000 C 
ATOM      7  C6  UNL A   1      30.060  25.765  26.006  1.00  0.00    +0.000 C 
ATOM      8  N1  UNL A   1      30.181  25.826  24.632  1.00  0.00    +0.000 N 
ATOM     91  H3  UNL A   1      31.135  22.811  25.273  1.00  0.00    +0.000 H 
ATOM     92  H4  UNL A   1      30.426  24.170  27.405  1.00  0.00    +0.000 H 
ATOM     93  H5  UNL A   1      29.744  26.537  26.614  1.00  0.00    +0.000 H 
BRANCH    8    9
ATOM     97  H9  UNL A   1      26.884  28.396  22.951  1.00  0.00    +0.000 H 
ATOM      9  C7  UNL A   1      29.742  26.938  23.900  1.00  0.00    +0.000 C 
ATOM     10  C8  UNL A   1      30.658  27.885  23.441  1.00  0.00    +0.000 C 
ATOM     11  C9  UNL A   1      30.179  29.008  22.760  1.00  0.00    +0.000 C 
ATOM     12  C10 UNL A   1      28.805  29.188  22.567  1.00  0.00    +0.000 C 
ATOM     13  C11 UNL A   1      27.900  28.256  23.075  1.00  0.00    +0.000 C 
ATOM     14  C12 UNL A   1      28.375  27.137  23.749  1.00  0.00    +0.000 C 
ATOM     15  F1  UNL A   1      27.505  26.252  24.254  1.00  0.00    +0.000 F 
ATOM     94  H6  UNL A   1      31.669  27.759  23.600  1.00  0.00    +0.000 H 
ATOM     95  H7  UNL A   1      30.843  29.709  22.398  1.00  0.00    +0.000 H 
ATOM     96  H8  UNL A   1      28.460  30.011  22.048  1.00  0.00    +0.000 H 
ENDBRANCH    8    9
ENDBRANCH    3    4
ENDBRANCH    2    3
ENDBRANCH   16    2
ENDBRANCH   17   16
ENDBRANCH   18   17
ENDBRANCH   19   18
ENDBRANCH   20   19
ENDBRANCH   21   20
ENDBRANCH   22   21
ENDBRANCH   23   22
ENDBRANCH   24   23
ENDBRANCH   26   24
ENDBRANCH   30   29
BRANCH   34   35
ATOM     35  C28 UNL A   1      42.656  22.397  26.915  1.00  0.00    +0.000 C 
ATOM     36  C29 UNL A   1      43.604  22.484  25.887  1.00  0.00    +0.000 C 
ATOM     37  F2  UNL A   1      44.272  23.622  25.660  1.00  0.00    +0.000 F 
ATOM     38  C30 UNL A   1      43.955  21.365  25.123  1.00  0.00    +0.000 C 
ATOM     39  F3  UNL A   1      44.895  21.477  24.174  1.00  0.00    +0.000 F 
ATOM     40  C31 UNL A   1      43.390  20.125  25.379  1.00  0.00    +0.000 C 
ATOM     41  F4  UNL A   1      43.803  19.039  24.712  1.00  0.00    +0.000 F 
ATOM     42  C32 UNL A   1      42.418  20.013  26.353  1.00  0.00    +0.000 C 
ATOM     43  F5  UNL A   1      41.882  18.816  26.633  1.00  0.00    +0.000 F 
ATOM     44  C33 UNL A   1      42.035  21.135  27.086  1.00  0.00    +0.000 C 
ATOM     45  F6  UNL A   1      41.083  20.959  28.015  1.00  0.00    +0.000 F 
ENDBRANCH   34   35
BRANCH   51   52
ATOM     52  C39 UNL A   1      45.926  26.953  28.572  1.00  0.00    +0.000 C 
ATOM     53  C40 UNL A   1      44.818  27.519  27.919  1.00  0.00    +0.000 C 
ATOM     54  F7  UNL A   1      43.579  27.178  28.266  1.00  0.00    +0.000 F 
ATOM     55  C41 UNL A   1      44.953  28.450  26.890  1.00  0.00    +0.000 C 
ATOM     56  F8  UNL A   1      43.861  28.948  26.289  1.00  0.00    +0.000 F 
ATOM     57  C42 UNL A   1      46.211  28.854  26.487  1.00  0.00    +0.000 C 
ATOM     58  F9  UNL A   1      46.345  29.749  25.499  1.00  0.00    +0.000 F 
ATOM     59  C43 UNL A   1      47.328  28.315  27.105  1.00  0.00    +0.000 C 
ATOM     60  F10 UNL A   1      48.550  28.700  26.715  1.00  0.00    +0.000 F 
ATOM     61  C44 UNL A   1      47.189  27.374  28.128  1.00  0.00    +0.000 C 
ATOM     62  F11 UNL A   1      48.298  26.873  28.695  1.00  0.00    +0.000 F 
ENDBRANCH   51   52
BRANCH   66   67
ATOM     67  C48 UNL A   1      44.867  30.230  33.668  1.00  0.00    +0.000 C 
ATOM     68  C49 UNL A   1      46.045  31.019  33.526  1.00  0.00    +0.000 C 
ATOM     69  F12 UNL A   1      46.603  31.238  32.328  1.00  0.00    +0.000 F 
ATOM     70  C50 UNL A   1      46.710  31.615  34.599  1.00  0.00    +0.000 C 
ATOM     71  F13 UNL A   1      47.873  32.249  34.392  1.00  0.00    +0.000 F 
ATOM     72  C51 UNL A   1      46.187  31.528  35.867  1.00  0.00    +0.000 C 
ATOM     73  F14 UNL A   1      46.833  32.070  36.906  1.00  0.00    +0.000 F 
ATOM     74  C52 UNL A   1      44.975  30.888  36.038  1.00  0.00    +0.000 C 
ATOM     75  F15 UNL A   1      44.419  30.852  37.258  1.00  0.00    +0.000 F 
ATOM     76  C53 UNL A   1      44.326  30.260  34.961  1.00  0.00    +0.000 C 
ATOM     77  F16 UNL A   1      43.142  29.713  35.239  1.00  0.00    +0.000 F 
ENDBRANCH   66   67
TORSDOF 17
ENDMDL
MODEL 6
REMARK VINA RESULT:     -10.6      3.696      6.033
ROOT
ATOM     30  C24 UNL A   1      38.215  30.569  29.712  1.00  0.00    +0.000 C 
ATOM     31  C25 UNL A   1      39.355  29.818  29.016  1.00  0.00    +0.000 C 
ATOM     32  N4  UNL A   1      40.444  29.307  29.506  1.00  0.00    +0.000 N 
ATOM     33  C26 UNL A   1      41.210  28.823  28.424  1.00  0.00    +0.000 C 
ATOM     34  C27 UNL A   1      42.522  28.459  28.530  1.00  0.00    +0.000 C 
ATOM     46  C34 UNL A   1      42.972  28.563  29.875  1.00  0.00    +0.000 C 
ATOM     47  C35 UNL A   1      42.824  27.755  30.970  1.00  0.00    +0.000 C 
ATOM     48  C36 UNL A   1      42.885  28.632  32.073  1.00  0.00    +0.000 C 
ATOM     49  C37 UNL A   1      43.144  29.928  31.617  1.00  0.00    +0.000 C 
ATOM     50  N5  UNL A   1      43.465  29.775  30.288  1.00  0.00    +0.000 N 
ATOM     51  C38 UNL A   1      42.958  31.272  32.118  1.00  0.00    +0.000 C 
ATOM     63  C45 UNL A   1      42.388  31.410  33.341  1.00  0.00    +0.000 C 
ATOM     64  N6  UNL A   1      41.429  32.379  33.543  1.00  0.00    +0.000 N 
ATOM     65  C46 UNL A   1      40.509  31.737  34.200  1.00  0.00    +0.000 C 
ATOM     66  C47 UNL A   1      39.109  32.181  34.341  1.00  0.00    +0.000 C 
ATOM     78  C54 UNL A   1      38.539  31.998  33.110  1.00  0.00    +0.000 C 
ATOM     79  C55 UNL A   1      37.195  32.338  32.688  1.00  0.00    +0.000 C 
ATOM     80  C56 UNL A   1      36.981  31.889  31.439  1.00  0.00    +0.000 C 
ATOM     81  C57 UNL A   1      38.173  31.196  30.922  1.00  0.00    +0.000 C 
ATOM     82  N7  UNL A   1      39.076  31.382  31.950  1.00  0.00    +0.000 N 
ATOM     83  C58 UNL A   1      40.899  30.436  34.759  1.00  0.00    +0.000 C 
ATOM     84  C59 UNL A   1      42.157  30.386  34.331  1.00  0.00    +0.000 C 
ATOM     85  C60 UNL A   1      40.383  28.922  27.260  1.00  0.00    +0.000 C 
ATOM     86  C61 UNL A   1      39.247  29.557  27.554  1.00  0.00    +0.000 C 
ATOM    114  H26 UNL A   1      42.697  26.730  30.984  1.00  0.00    +0.000 H 
ATOM    115  H27 UNL A   1      42.759  28.360  33.060  1.00  0.00    +0.000 H 
ATOM    116  H28 UNL A   1      43.959  30.420  29.732  1.00  0.00    +0.000 H 
ATOM    117  H29 UNL A   1      36.506  32.851  33.261  1.00  0.00    +0.000 H 
ATOM    118  H30 UNL A   1      36.099  32.012  30.915  1.00  0.00    +0.000 H 
ATOM    119  H31 UNL A   1      40.020  31.109  31.884  1.00  0.00    +0.000 H 
ATOM    120  H32 UNL A   1      40.356  29.760  35.318  1.00  0.00    +0.000 H 
ATOM    121  H33 UNL A   1      42.865  29.712  34.660  1.00  0.00    +0.000 H 
ATOM    122  H34 UNL A   1      40.629  28.553  26.328  1.00  0.00    +0.000 H 
ATOM    123  H35 UNL A   1      38.474  29.807  26.918  1.00  0.00    +0.000 H 
ENDROOT
BRANCH   30   29
ATOM    124  H36 UNL A   1      36.572  28.528  29.081  1.00  0.00    +0.000 H 
ATOM     29  C23 UNL A   1      36.964  30.604  28.922  1.00  0.00    +0.000 C 
ATOM    112  H24 UNL A   1      34.911  32.803  27.454  1.00  0.00    +0.000 H 
ATOM    113  H25 UNL A   1      37.090  32.678  28.517  1.00  0.00    +0.000 H 
ATOM     87  C62 UNL A   1      36.213  29.434  28.741  1.00  0.00    +0.000 C 
ATOM     88  C63 UNL A   1      34.982  29.505  28.101  1.00  0.00    +0.000 C 
ATOM     26  C20 UNL A   1      34.483  30.745  27.692  1.00  0.00    +0.000 C 
ATOM     27  C21 UNL A   1      35.260  31.902  27.816  1.00  0.00    +0.000 C 
ATOM     28  C22 UNL A   1      36.507  31.832  28.428  1.00  0.00    +0.000 C 
ATOM    125  H37 UNL A   1      34.439  28.644  27.926  1.00  0.00    +0.000 H 
BRANCH   26   24
ATOM     25  O2  UNL A   1      32.553  31.943  27.140  1.00  0.00    +0.000 O 
ATOM     24  C19 UNL A   1      33.141  30.877  27.088  1.00  0.00    +0.000 C 
BRANCH   24   23
ATOM    111  H23 UNL A   1      32.756  29.625  25.557  1.00  0.00    +0.000 H 
ATOM     23  N3  UNL A   1      32.540  29.785  26.505  1.00  0.00    +0.000 N 
BRANCH   23   22
ATOM    110  H22 UNL A   1      30.643  29.019  26.740  1.00  0.00    +0.000 H 
ATOM    109  H21 UNL A   1      31.651  28.970  28.184  1.00  0.00    +0.000 H 
ATOM     22  C18 UNL A   1      31.626  28.837  27.122  1.00  0.00    +0.000 C 
BRANCH   22   21
ATOM    107  H19 UNL A   1      32.765  27.418  26.035  1.00  0.00    +0.000 H 
ATOM    108  H20 UNL A   1      32.351  26.955  27.704  1.00  0.00    +0.000 H 
ATOM     21  C17 UNL A   1      32.010  27.399  26.793  1.00  0.00    +0.000 C 
BRANCH   21   20
ATOM    105  H17 UNL A   1      30.368  26.110  27.145  1.00  0.00    +0.000 H 
ATOM    106  H18 UNL A   1      30.230  27.209  25.723  1.00  0.00    +0.000 H 
ATOM     20  C16 UNL A   1      30.845  26.542  26.290  1.00  0.00    +0.000 C 
BRANCH   20   19
ATOM     19  C15 UNL A   1      31.194  25.403  25.331  1.00  0.00    +0.000 C 
ATOM    103  H15 UNL A   1      32.258  25.289  25.334  1.00  0.00    +0.000 H 
ATOM    104  H16 UNL A   1      30.659  24.550  25.692  1.00  0.00    +0.000 H 
BRANCH   19   18
ATOM     18  C14 UNL A   1      30.748  25.582  23.876  1.00  0.00    +0.000 C 
ATOM    101  H13 UNL A   1      29.682  25.493  23.848  1.00  0.00    +0.000 H 
ATOM    102  H14 UNL A   1      31.118  26.542  23.581  1.00  0.00    +0.000 H 
BRANCH   18   17
ATOM     17  C13 UNL A   1      31.325  24.592  22.865  1.00  0.00    +0.000 C 
ATOM     99  H11 UNL A   1      30.767  24.675  21.957  1.00  0.00    +0.000 H 
ATOM    100  H12 UNL A   1      32.357  24.847  22.739  1.00  0.00    +0.000 H 
BRANCH   17   16
ATOM     98  H10 UNL A   1      30.568  22.902  23.900  1.00  0.00    +0.000 H 
ATOM     16  N2  UNL A   1      31.285  23.210  23.301  1.00  0.00    +0.000 N 
BRANCH   16    2
ATOM      1  O1  UNL A   1      32.022  21.357  22.155  1.00  0.00    +0.000 O 
ATOM      2  C1  UNL A   1      32.261  22.326  22.871  1.00  0.00    +0.000 C 
BRANCH    2    3
ATOM     89  H1  UNL A   1      33.865  23.630  23.227  1.00  0.00    +0.000 H 
ATOM     90  H2  UNL A   1      34.276  21.892  22.921  1.00  0.00    +0.000 H 
ATOM      3  C2  UNL A   1      33.647  22.600  23.418  1.00  0.00    +0.000 C 
BRANCH    3    4
ATOM      4  C3  UNL A   1      33.888  22.354  24.884  1.00  0.00    +0.000 C 
ATOM      5  C4  UNL A   1      34.141  23.347  25.826  1.00  0.00    +0.000 C 
ATOM      6  C5  UNL A   1      34.204  22.755  27.102  1.00  0.00    +0.000 C 
ATOM      7  C6  UNL A   1      33.986  21.411  26.926  1.00  0.00    +0.000 C 
ATOM      8  N1  UNL A   1      33.810  21.156  25.582  1.00  0.00    +0.000 N 
ATOM     91  H3  UNL A   1      34.261  24.351  25.622  1.00  0.00    +0.000 H 
ATOM     92  H4  UNL A   1      34.381  23.237  27.997  1.00  0.00    +0.000 H 
ATOM     93  H5  UNL A   1      33.957  20.705  27.679  1.00  0.00    +0.000 H 
BRANCH    8    9
ATOM     97  H9  UNL A   1      35.682  17.342  24.082  1.00  0.00    +0.000 H 
ATOM      9  C7  UNL A   1      33.706  19.850  25.085  1.00  0.00    +0.000 C 
ATOM     10  C8  UNL A   1      32.466  19.216  25.021  1.00  0.00    +0.000 C 
ATOM     11  C9  UNL A   1      32.408  17.894  24.569  1.00  0.00    +0.000 C 
ATOM     12  C10 UNL A   1      33.578  17.215  24.211  1.00  0.00    +0.000 C 
ATOM     13  C11 UNL A   1      34.816  17.848  24.327  1.00  0.00    +0.000 C 
ATOM     14  C12 UNL A   1      34.874  19.163  24.773  1.00  0.00    +0.000 C 
ATOM     15  F1  UNL A   1      36.065  19.764  24.902  1.00  0.00    +0.000 F 
ATOM     94  H6  UNL A   1      31.606  19.713  25.303  1.00  0.00    +0.000 H 
ATOM     95  H7  UNL A   1      31.496  17.416  24.499  1.00  0.00    +0.000 H 
ATOM     96  H8  UNL A   1      33.525  16.245  23.862  1.00  0.00    +0.000 H 
ENDBRANCH    8    9
ENDBRANCH    3    4
ENDBRANCH    2    3
ENDBRANCH   16    2
ENDBRANCH   17   16
ENDBRANCH   18   17
ENDBRANCH   19   18
ENDBRANCH   20   19
ENDBRANCH   21   20
ENDBRANCH   22   21
ENDBRANCH   23   22
ENDBRANCH   24   23
ENDBRANCH   26   24
ENDBRANCH   30   29
BRANCH   34   35
ATOM     35  C28 UNL A   1      43.554  28.146  27.481  1.00  0.00    +0.000 C 
ATOM     36  C29 UNL A   1      44.371  29.118  26.889  1.00  0.00    +0.000 C 
ATOM     37  F2  UNL A   1      44.102  30.422  27.028  1.00  0.00    +0.000 F 
ATOM     38  C30 UNL A   1      45.545  28.769  26.211  1.00  0.00    +0.000 C 
ATOM     39  F3  UNL A   1      46.322  29.729  25.691  1.00  0.00    +0.000 F 
ATOM     40  C31 UNL A   1      45.949  27.445  26.128  1.00  0.00    +0.000 C 
ATOM     41  F4  UNL A   1      47.123  27.127  25.566  1.00  0.00    +0.000 F 
ATOM     42  C32 UNL A   1      45.144  26.457  26.659  1.00  0.00    +0.000 C 
ATOM     43  F5  UNL A   1      45.534  25.175  26.612  1.00  0.00    +0.000 F 
ATOM     44  C33 UNL A   1      43.952  26.799  27.296  1.00  0.00    +0.000 C 
ATOM     45  F6  UNL A   1      43.214  25.791  27.788  1.00  0.00    +0.000 F 
ENDBRANCH   34   35
BRANCH   51   52
ATOM     52  C39 UNL A   1      42.901  32.536  31.288  1.00  0.00    +0.000 C 
ATOM     53  C40 UNL A   1      41.837  32.856  30.428  1.00  0.00    +0.000 C 
ATOM     54  F7  UNL A   1      40.865  31.976  30.194  1.00  0.00    +0.000 F 
ATOM     55  C41 UNL A   1      41.743  34.088  29.782  1.00  0.00    +0.000 C 
ATOM     56  F8  UNL A   1      40.714  34.336  28.957  1.00  0.00    +0.000 F 
ATOM     57  C42 UNL A   1      42.713  35.050  29.988  1.00  0.00    +0.000 C 
ATOM     58  F9  UNL A   1      42.627  36.235  29.370  1.00  0.00    +0.000 F 
ATOM     59  C43 UNL A   1      43.780  34.770  30.827  1.00  0.00    +0.000 C 
ATOM     60  F10 UNL A   1      44.726  35.697  31.027  1.00  0.00    +0.000 F 
ATOM     61  C44 UNL A   1      43.876  33.530  31.464  1.00  0.00    +0.000 C 
ATOM     62  F11 UNL A   1      44.929  33.299  32.263  1.00  0.00    +0.000 F 
ENDBRANCH   51   52
BRANCH   66   67
ATOM     67  C48 UNL A   1      38.640  32.591  35.724  1.00  0.00    +0.000 C 
ATOM     68  C49 UNL A   1      38.843  33.926  36.178  1.00  0.00    +0.000 C 
ATOM     69  F12 UNL A   1      39.217  34.903  35.340  1.00  0.00    +0.000 F 
ATOM     70  C50 UNL A   1      38.682  34.324  37.507  1.00  0.00    +0.000 C 
ATOM     71  F13 UNL A   1      39.000  35.574  37.870  1.00  0.00    +0.000 F 
ATOM     72  C51 UNL A   1      38.224  33.428  38.442  1.00  0.00    +0.000 C 
ATOM     73  F14 UNL A   1      38.095  33.790  39.724  1.00  0.00    +0.000 F 
ATOM     74  C52 UNL A   1      37.883  32.155  38.026  1.00  0.00    +0.000 C 
ATOM     75  F15 UNL A   1      37.372  31.290  38.913  1.00  0.00    +0.000 F 
ATOM     76  C53 UNL A   1      38.080  31.749  36.694  1.00  0.00    +0.000 C 
ATOM     77  F16 UNL A   1      37.672  30.513  36.401  1.00  0.00    +0.000 F 
ENDBRANCH   66   67
TORSDOF 17
ENDMDL
MODEL 7
REMARK VINA RESULT:     -10.6     18.602     23.318
ROOT
ATOM     30  C24 UNL A   1      51.908  21.498   9.921  1.00  0.00    +0.000 C 
ATOM     31  C25 UNL A   1      51.998  23.019   9.757  1.00  0.00    +0.000 C 
ATOM     32  N4  UNL A   1      52.955  23.840  10.069  1.00  0.00    +0.000 N 
ATOM     33  C26 UNL A   1      52.490  25.148   9.815  1.00  0.00    +0.000 C 
ATOM     34  C27 UNL A   1      53.119  26.274  10.264  1.00  0.00    +0.000 C 
ATOM     46  C34 UNL A   1      54.325  25.946  10.943  1.00  0.00    +0.000 C 
ATOM     47  C35 UNL A   1      55.578  25.613  10.504  1.00  0.00    +0.000 C 
ATOM     48  C36 UNL A   1      56.110  24.800  11.526  1.00  0.00    +0.000 C 
ATOM     49  C37 UNL A   1      55.196  24.729  12.582  1.00  0.00    +0.000 C 
ATOM     50  N5  UNL A   1      54.244  25.677  12.286  1.00  0.00    +0.000 N 
ATOM     51  C38 UNL A   1      54.936  23.831  13.685  1.00  0.00    +0.000 C 
ATOM     63  C45 UNL A   1      55.735  22.742  13.807  1.00  0.00    +0.000 C 
ATOM     64  N6  UNL A   1      55.181  21.518  14.112  1.00  0.00    +0.000 N 
ATOM     65  C46 UNL A   1      55.772  20.719  13.273  1.00  0.00    +0.000 C 
ATOM     66  C47 UNL A   1      55.287  19.375  12.905  1.00  0.00    +0.000 C 
ATOM     78  C54 UNL A   1      54.181  19.583  12.127  1.00  0.00    +0.000 C 
ATOM     79  C55 UNL A   1      53.289  18.592  11.559  1.00  0.00    +0.000 C 
ATOM     80  C56 UNL A   1      52.391  19.192  10.757  1.00  0.00    +0.000 C 
ATOM     81  C57 UNL A   1      52.618  20.647  10.715  1.00  0.00    +0.000 C 
ATOM     82  N7  UNL A   1      53.648  20.798  11.623  1.00  0.00    +0.000 N 
ATOM     83  C58 UNL A   1      56.958  21.256  12.593  1.00  0.00    +0.000 C 
ATOM     84  C59 UNL A   1      56.977  22.475  13.123  1.00  0.00    +0.000 C 
ATOM     85  C60 UNL A   1      51.235  25.013   9.140  1.00  0.00    +0.000 C 
ATOM     86  C61 UNL A   1      50.864  23.731   9.107  1.00  0.00    +0.000 C 
ATOM    114  H26 UNL A   1      56.032  25.896   9.621  1.00  0.00    +0.000 H 
ATOM    115  H27 UNL A   1      57.029  24.331  11.499  1.00  0.00    +0.000 H 
ATOM    116  H28 UNL A   1      53.616  26.089  12.924  1.00  0.00    +0.000 H 
ATOM    117  H29 UNL A   1      53.335  17.578  11.745  1.00  0.00    +0.000 H 
ATOM    118  H30 UNL A   1      51.646  18.698  10.240  1.00  0.00    +0.000 H 
ATOM    119  H31 UNL A   1      53.986  21.680  11.900  1.00  0.00    +0.000 H 
ATOM    120  H32 UNL A   1      57.589  20.816  11.905  1.00  0.00    +0.000 H 
ATOM    121  H33 UNL A   1      57.768  23.135  13.055  1.00  0.00    +0.000 H 
ATOM    122  H34 UNL A   1      50.696  25.794   8.735  1.00  0.00    +0.000 H 
ATOM    123  H35 UNL A   1      49.996  23.330   8.721  1.00  0.00    +0.000 H 
ENDROOT
BRANCH   30   29
ATOM    124  H36 UNL A   1      49.274  21.206  10.406  1.00  0.00    +0.000 H 
ATOM     29  C23 UNL A   1      50.877  20.872   9.063  1.00  0.00    +0.000 C 
ATOM    112  H24 UNL A   1      50.532  19.543   6.010  1.00  0.00    +0.000 H 
ATOM    113  H25 UNL A   1      52.245  20.328   7.541  1.00  0.00    +0.000 H 
ATOM     87  C62 UNL A   1      49.536  20.859   9.471  1.00  0.00    +0.000 C 
ATOM     88  C63 UNL A   1      48.563  20.377   8.604  1.00  0.00    +0.000 C 
ATOM     26  C20 UNL A   1      48.924  19.959   7.319  1.00  0.00    +0.000 C 
ATOM     27  C21 UNL A   1      50.269  19.912   6.937  1.00  0.00    +0.000 C 
ATOM     28  C22 UNL A   1      51.250  20.365   7.812  1.00  0.00    +0.000 C 
ATOM    125  H37 UNL A   1      47.578  20.326   8.908  1.00  0.00    +0.000 H 
BRANCH   26   24
ATOM     25  O2  UNL A   1      47.273  20.354   5.712  1.00  0.00    +0.000 O 
ATOM     24  C19 UNL A   1      47.911  19.523   6.336  1.00  0.00    +0.000 C 
BRANCH   24   23
ATOM    111  H23 UNL A   1      48.438  17.582   6.232  1.00  0.00    +0.000 H 
ATOM     23  N3  UNL A   1      47.660  18.182   6.156  1.00  0.00    +0.000 N 
BRANCH   23   22
ATOM    110  H22 UNL A   1      45.621  18.295   5.896  1.00  0.00    +0.000 H 
ATOM    109  H21 UNL A   1      46.199  16.790   6.606  1.00  0.00    +0.000 H 
ATOM     22  C18 UNL A   1      46.384  17.546   5.871  1.00  0.00    +0.000 C 
BRANCH   22   21
ATOM    107  H19 UNL A   1      47.355  17.020   4.061  1.00  0.00    +0.000 H 
ATOM    108  H20 UNL A   1      46.110  15.878   4.625  1.00  0.00    +0.000 H 
ATOM     21  C17 UNL A   1      46.380  16.904   4.488  1.00  0.00    +0.000 C 
BRANCH   21   20
ATOM    105  H17 UNL A   1      45.245  16.829   2.702  1.00  0.00    +0.000 H 
ATOM    106  H18 UNL A   1      44.472  17.653   4.107  1.00  0.00    +0.000 H 
ATOM     20  C16 UNL A   1      45.357  17.507   3.523  1.00  0.00    +0.000 C 
BRANCH   20   19
ATOM     19  C15 UNL A   1      45.686  18.884   2.944  1.00  0.00    +0.000 C 
ATOM    103  H15 UNL A   1      45.924  19.533   3.761  1.00  0.00    +0.000 H 
ATOM    104  H16 UNL A   1      46.493  18.721   2.261  1.00  0.00    +0.000 H 
BRANCH   19   18
ATOM     18  C14 UNL A   1      44.581  19.555   2.121  1.00  0.00    +0.000 C 
ATOM    101  H13 UNL A   1      44.889  20.561   1.921  1.00  0.00    +0.000 H 
ATOM    102  H14 UNL A   1      44.467  18.947   1.248  1.00  0.00    +0.000 H 
BRANCH   18   17
ATOM     17  C13 UNL A   1      43.197  19.610   2.766  1.00  0.00    +0.000 C 
ATOM     99  H11 UNL A   1      43.230  19.060   3.682  1.00  0.00    +0.000 H 
ATOM    100  H12 UNL A   1      42.967  20.645   2.914  1.00  0.00    +0.000 H 
BRANCH   17   16
ATOM     98  H10 UNL A   1      41.991  18.088   1.910  1.00  0.00    +0.000 H 
ATOM     16  N2  UNL A   1      42.139  19.060   1.940  1.00  0.00    +0.000 N 
BRANCH   16    2
ATOM      1  O1  UNL A   1      41.728  20.991   0.760  1.00  0.00    +0.000 O 
ATOM      2  C1  UNL A   1      41.338  19.909   1.195  1.00  0.00    +0.000 C 
BRANCH    2    3
ATOM     89  H1  UNL A   1      39.911  18.374   1.119  1.00  0.00    +0.000 H 
ATOM     90  H2  UNL A   1      39.619  19.815   0.061  1.00  0.00    +0.000 H 
ATOM      3  C2  UNL A   1      39.909  19.440   1.019  1.00  0.00    +0.000 C 
BRANCH    3    4
ATOM      4  C3  UNL A   1      38.868  19.977   1.966  1.00  0.00    +0.000 C 
ATOM      5  C4  UNL A   1      38.838  19.735   3.336  1.00  0.00    +0.000 C 
ATOM      6  C5  UNL A   1      37.793  20.487   3.906  1.00  0.00    +0.000 C 
ATOM      7  C6  UNL A   1      37.200  21.181   2.881  1.00  0.00    +0.000 C 
ATOM      8  N1  UNL A   1      37.835  20.866   1.697  1.00  0.00    +0.000 N 
ATOM     91  H3  UNL A   1      39.477  19.108   3.849  1.00  0.00    +0.000 H 
ATOM     92  H4  UNL A   1      37.523  20.511   4.902  1.00  0.00    +0.000 H 
ATOM     93  H5  UNL A   1      36.408  21.835   2.980  1.00  0.00    +0.000 H 
BRANCH    8    9
ATOM     97  H9  UNL A   1      38.284  23.335  -2.044  1.00  0.00    +0.000 H 
ATOM      9  C7  UNL A   1      37.359  21.317   0.459  1.00  0.00    +0.000 C 
ATOM     10  C8  UNL A   1      36.196  20.775  -0.088  1.00  0.00    +0.000 C 
ATOM     11  C9  UNL A   1      35.779  21.212  -1.349  1.00  0.00    +0.000 C 
ATOM     12  C10 UNL A   1      36.530  22.157  -2.056  1.00  0.00    +0.000 C 
ATOM     13  C11 UNL A   1      37.717  22.653  -1.516  1.00  0.00    +0.000 C 
ATOM     14  C12 UNL A   1      38.130  22.222  -0.261  1.00  0.00    +0.000 C 
ATOM     15  F1  UNL A   1      39.280  22.684   0.250  1.00  0.00    +0.000 F 
ATOM     94  H6  UNL A   1      35.653  20.066   0.428  1.00  0.00    +0.000 H 
ATOM     95  H7  UNL A   1      34.911  20.835  -1.761  1.00  0.00    +0.000 H 
ATOM     96  H8  UNL A   1      36.207  22.488  -2.979  1.00  0.00    +0.000 H 
ENDBRANCH    8    9
ENDBRANCH    3    4
ENDBRANCH    2    3
ENDBRANCH   16    2
ENDBRANCH   17   16
ENDBRANCH   18   17
ENDBRANCH   19   18
ENDBRANCH   20   19
ENDBRANCH   21   20
ENDBRANCH   22   21
ENDBRANCH   23   22
ENDBRANCH   24   23
ENDBRANCH   26   24
ENDBRANCH   30   29
BRANCH   34   35
ATOM     35  C28 UNL A   1      52.677  27.711  10.299  1.00  0.00    +0.000 C 
ATOM     36  C29 UNL A   1      52.539  28.447  11.483  1.00  0.00    +0.000 C 
ATOM     37  F2  UNL A   1      52.538  27.839  12.676  1.00  0.00    +0.000 F 
ATOM     38  C30 UNL A   1      52.492  29.846  11.470  1.00  0.00    +0.000 C 
ATOM     39  F3  UNL A   1      52.400  30.518  12.626  1.00  0.00    +0.000 F 
ATOM     40  C31 UNL A   1      52.608  30.550  10.281  1.00  0.00    +0.000 C 
ATOM     41  F4  UNL A   1      52.662  31.888  10.286  1.00  0.00    +0.000 F 
ATOM     42  C32 UNL A   1      52.697  29.856   9.091  1.00  0.00    +0.000 C 
ATOM     43  F5  UNL A   1      52.837  30.520   7.935  1.00  0.00    +0.000 F 
ATOM     44  C33 UNL A   1      52.700  28.462   9.097  1.00  0.00    +0.000 C 
ATOM     45  F6  UNL A   1      52.786  27.848   7.906  1.00  0.00    +0.000 F 
ENDBRANCH   34   35
BRANCH   51   52
ATOM     52  C39 UNL A   1      53.634  23.702  14.446  1.00  0.00    +0.000 C 
ATOM     53  C40 UNL A   1      52.481  23.094  13.919  1.00  0.00    +0.000 C 
ATOM     54  F7  UNL A   1      52.436  22.714  12.645  1.00  0.00    +0.000 F 
ATOM     55  C41 UNL A   1      51.341  22.865  14.688  1.00  0.00    +0.000 C 
ATOM     56  F8  UNL A   1      50.260  22.297  14.131  1.00  0.00    +0.000 F 
ATOM     57  C42 UNL A   1      51.324  23.228  16.021  1.00  0.00    +0.000 C 
ATOM     58  F9  UNL A   1      50.230  23.009  16.764  1.00  0.00    +0.000 F 
ATOM     59  C43 UNL A   1      52.441  23.832  16.575  1.00  0.00    +0.000 C 
ATOM     60  F10 UNL A   1      52.428  24.190  17.866  1.00  0.00    +0.000 F 
ATOM     61  C44 UNL A   1      53.578  24.071  15.798  1.00  0.00    +0.000 C 
ATOM     62  F11 UNL A   1      54.635  24.664  16.374  1.00  0.00    +0.000 F 
ENDBRANCH   51   52
BRANCH   66   67
ATOM     67  C48 UNL A   1      56.122  18.186  13.340  1.00  0.00    +0.000 C 
ATOM     68  C49 UNL A   1      56.353  17.947  14.725  1.00  0.00    +0.000 C 
ATOM     69  F12 UNL A   1      55.660  18.592  15.674  1.00  0.00    +0.000 F 
ATOM     70  C50 UNL A   1      57.304  17.045  15.206  1.00  0.00    +0.000 C 
ATOM     71  F13 UNL A   1      57.534  16.960  16.524  1.00  0.00    +0.000 F 
ATOM     72  C51 UNL A   1      58.019  16.266  14.328  1.00  0.00    +0.000 C 
ATOM     73  F14 UNL A   1      58.954  15.420  14.777  1.00  0.00    +0.000 F 
ATOM     74  C52 UNL A   1      57.738  16.363  12.980  1.00  0.00    +0.000 C 
ATOM     75  F15 UNL A   1      58.379  15.563  12.116  1.00  0.00    +0.000 F 
ATOM     76  C53 UNL A   1      56.804  17.297  12.497  1.00  0.00    +0.000 C 
ATOM     77  F16 UNL A   1      56.584  17.268  11.182  1.00  0.00    +0.000 F 
ENDBRANCH   66   67
TORSDOF 17
ENDMDL
MODEL 8
REMARK VINA RESULT:     -10.5     21.293     26.903
ROOT
ATOM     30  C24 UNL A   1      52.073  19.739   8.279  1.00  0.00    +0.000 C 
ATOM     31  C25 UNL A   1      51.916  20.170   9.741  1.00  0.00    +0.000 C 
ATOM     32  N4  UNL A   1      52.628  20.991  10.454  1.00  0.00    +0.000 N 
ATOM     33  C26 UNL A   1      52.128  20.951  11.772  1.00  0.00    +0.000 C 
ATOM     34  C27 UNL A   1      52.785  21.480  12.846  1.00  0.00    +0.000 C 
ATOM     46  C34 UNL A   1      53.983  22.130  12.439  1.00  0.00    +0.000 C 
ATOM     47  C35 UNL A   1      54.232  23.356  11.884  1.00  0.00    +0.000 C 
ATOM     48  C36 UNL A   1      55.414  23.176  11.136  1.00  0.00    +0.000 C 
ATOM     49  C37 UNL A   1      55.883  21.872  11.322  1.00  0.00    +0.000 C 
ATOM     50  N5  UNL A   1      55.120  21.368  12.351  1.00  0.00    +0.000 N 
ATOM     51  C38 UNL A   1      56.748  20.957  10.611  1.00  0.00    +0.000 C 
ATOM     63  C45 UNL A   1      57.289  21.388   9.445  1.00  0.00    +0.000 C 
ATOM     64  N6  UNL A   1      57.329  20.544   8.356  1.00  0.00    +0.000 N 
ATOM     65  C46 UNL A   1      56.922  21.309   7.386  1.00  0.00    +0.000 C 
ATOM     66  C47 UNL A   1      56.414  20.825   6.088  1.00  0.00    +0.000 C 
ATOM     78  C54 UNL A   1      55.184  20.285   6.351  1.00  0.00    +0.000 C 
ATOM     79  C55 UNL A   1      54.289  19.612   5.432  1.00  0.00    +0.000 C 
ATOM     80  C56 UNL A   1      53.126  19.335   6.048  1.00  0.00    +0.000 C 
ATOM     81  C57 UNL A   1      53.146  19.813   7.441  1.00  0.00    +0.000 C 
ATOM     82  N7  UNL A   1      54.437  20.290   7.557  1.00  0.00    +0.000 N 
ATOM     83  C58 UNL A   1      56.895  22.750   7.665  1.00  0.00    +0.000 C 
ATOM     84  C59 UNL A   1      57.318  22.734   8.925  1.00  0.00    +0.000 C 
ATOM     85  C60 UNL A   1      50.927  20.173  11.731  1.00  0.00    +0.000 C 
ATOM     86  C61 UNL A   1      50.765  19.637  10.520  1.00  0.00    +0.000 C 
ATOM    114  H26 UNL A   1      53.678  24.221  11.990  1.00  0.00    +0.000 H 
ATOM    115  H27 UNL A   1      55.861  23.893  10.543  1.00  0.00    +0.000 H 
ATOM    116  H28 UNL A   1      55.349  20.599  12.921  1.00  0.00    +0.000 H 
ATOM    117  H29 UNL A   1      54.511  19.379   4.452  1.00  0.00    +0.000 H 
ATOM    118  H30 UNL A   1      52.328  18.853   5.604  1.00  0.00    +0.000 H 
ATOM    119  H31 UNL A   1      54.810  20.607   8.411  1.00  0.00    +0.000 H 
ATOM    120  H32 UNL A   1      56.625  23.542   7.061  1.00  0.00    +0.000 H 
ATOM    121  H33 UNL A   1      57.624  23.565   9.456  1.00  0.00    +0.000 H 
ATOM    122  H34 UNL A   1      50.280  20.045  12.525  1.00  0.00    +0.000 H 
ATOM    123  H35 UNL A   1      50.017  19.004  10.199  1.00  0.00    +0.000 H 
ENDROOT
BRANCH   30   29
ATOM    124  H36 UNL A   1      50.109  20.971   6.905  1.00  0.00    +0.000 H 
ATOM     29  C23 UNL A   1      50.842  19.151   7.703  1.00  0.00    +0.000 C 
ATOM    112  H24 UNL A   1      49.381  16.173   7.258  1.00  0.00    +0.000 H 
ATOM    113  H25 UNL A   1      51.248  17.201   8.420  1.00  0.00    +0.000 H 
ATOM     87  C62 UNL A   1      49.955  19.953   6.972  1.00  0.00    +0.000 C 
ATOM     88  C63 UNL A   1      48.868  19.365   6.337  1.00  0.00    +0.000 C 
ATOM     26  C20 UNL A   1      48.701  17.978   6.390  1.00  0.00    +0.000 C 
ATOM     27  C21 UNL A   1      49.549  17.187   7.172  1.00  0.00    +0.000 C 
ATOM     28  C22 UNL A   1      50.621  17.775   7.835  1.00  0.00    +0.000 C 
ATOM    125  H37 UNL A   1      48.186  19.951   5.828  1.00  0.00    +0.000 H 
BRANCH   26   24
ATOM     25  O2  UNL A   1      46.470  17.349   6.084  1.00  0.00    +0.000 O 
ATOM     24  C19 UNL A   1      47.610  17.303   5.656  1.00  0.00    +0.000 C 
BRANCH   24   23
ATOM    111  H23 UNL A   1      47.705  17.044   3.660  1.00  0.00    +0.000 H 
ATOM     23  N3  UNL A   1      47.891  16.588   4.513  1.00  0.00    +0.000 N 
BRANCH   23   22
ATOM    110  H22 UNL A   1      47.931  14.734   3.618  1.00  0.00    +0.000 H 
ATOM    109  H21 UNL A   1      48.272  14.735   5.346  1.00  0.00    +0.000 H 
ATOM     22  C18 UNL A   1      48.431  15.242   4.417  1.00  0.00    +0.000 C 
BRANCH   22   21
ATOM    107  H19 UNL A   1      50.054  15.135   3.057  1.00  0.00    +0.000 H 
ATOM    108  H20 UNL A   1      50.298  16.201   4.463  1.00  0.00    +0.000 H 
ATOM     21  C17 UNL A   1      49.924  15.262   4.112  1.00  0.00    +0.000 C 
BRANCH   21   20
ATOM    105  H17 UNL A   1      50.311  14.059   5.811  1.00  0.00    +0.000 H 
ATOM    106  H18 UNL A   1      50.637  13.305   4.206  1.00  0.00    +0.000 H 
ATOM     20  C16 UNL A   1      50.723  14.171   4.830  1.00  0.00    +0.000 C 
BRANCH   20   19
ATOM     19  C15 UNL A   1      52.226  14.408   4.983  1.00  0.00    +0.000 C 
ATOM    103  H15 UNL A   1      52.645  13.545   5.458  1.00  0.00    +0.000 H 
ATOM    104  H16 UNL A   1      52.590  14.586   3.993  1.00  0.00    +0.000 H 
BRANCH   19   18
ATOM     18  C14 UNL A   1      52.639  15.636   5.800  1.00  0.00    +0.000 C 
ATOM    101  H13 UNL A   1      53.024  16.367   5.119  1.00  0.00    +0.000 H 
ATOM    102  H14 UNL A   1      51.755  15.942   6.320  1.00  0.00    +0.000 H 
BRANCH   18   17
ATOM     17  C13 UNL A   1      53.692  15.406   6.883  1.00  0.00    +0.000 C 
ATOM     99  H11 UNL A   1      53.189  15.178   7.799  1.00  0.00    +0.000 H 
ATOM    100  H12 UNL A   1      54.314  14.605   6.543  1.00  0.00    +0.000 H 
BRANCH   17   16
ATOM     98  H10 UNL A   1      54.190  17.391   7.448  1.00  0.00    +0.000 H 
ATOM     16  N2  UNL A   1      54.562  16.544   7.112  1.00  0.00    +0.000 N 
BRANCH   16    2
ATOM      1  O1  UNL A   1      56.730  17.313   7.134  1.00  0.00    +0.000 O 
ATOM      2  C1  UNL A   1      55.919  16.432   6.857  1.00  0.00    +0.000 C 
BRANCH    2    3
ATOM     89  H1  UNL A   1      55.426  14.704   5.775  1.00  0.00    +0.000 H 
ATOM     90  H2  UNL A   1      56.877  14.607   6.856  1.00  0.00    +0.000 H 
ATOM      3  C2  UNL A   1      56.323  15.166   6.131  1.00  0.00    +0.000 C 
BRANCH    3    4
ATOM      4  C3  UNL A   1      57.258  15.293   4.957  1.00  0.00    +0.000 C 
ATOM      5  C4  UNL A   1      58.636  15.459   5.052  1.00  0.00    +0.000 C 
ATOM      6  C5  UNL A   1      59.187  15.426   3.757  1.00  0.00    +0.000 C 
ATOM      7  C6  UNL A   1      58.141  15.238   2.887  1.00  0.00    +0.000 C 
ATOM      8  N1  UNL A   1      56.965  15.172   3.605  1.00  0.00    +0.000 N 
ATOM     91  H3  UNL A   1      59.166  15.584   5.929  1.00  0.00    +0.000 H 
ATOM     92  H4  UNL A   1      60.183  15.527   3.508  1.00  0.00    +0.000 H 
ATOM     93  H5  UNL A   1      58.222  15.158   1.861  1.00  0.00    +0.000 H 
BRANCH    8    9
ATOM     97  H9  UNL A   1      53.142  17.139   2.259  1.00  0.00    +0.000 H 
ATOM      9  C7  UNL A   1      55.715  15.123   2.973  1.00  0.00    +0.000 C 
ATOM     10  C8  UNL A   1      55.314  13.974   2.293  1.00  0.00    +0.000 C 
ATOM     11  C9  UNL A   1      54.083  13.980   1.630  1.00  0.00    +0.000 C 
ATOM     12  C10 UNL A   1      53.283  15.128   1.630  1.00  0.00    +0.000 C 
ATOM     13  C11 UNL A   1      53.721  16.285   2.274  1.00  0.00    +0.000 C 
ATOM     14  C12 UNL A   1      54.943  16.279   2.936  1.00  0.00    +0.000 C 
ATOM     15  F1  UNL A   1      55.373  17.396   3.539  1.00  0.00    +0.000 F 
ATOM     94  H6  UNL A   1      55.914  13.135   2.279  1.00  0.00    +0.000 H 
ATOM     95  H7  UNL A   1      53.762  13.132   1.137  1.00  0.00    +0.000 H 
ATOM     96  H8  UNL A   1      52.368  15.119   1.153  1.00  0.00    +0.000 H 
ENDBRANCH    8    9
ENDBRANCH    3    4
ENDBRANCH    2    3
ENDBRANCH   16    2
ENDBRANCH   17   16
ENDBRANCH   18   17
ENDBRANCH   19   18
ENDBRANCH   20   19
ENDBRANCH   21   20
ENDBRANCH   22   21
ENDBRANCH   23   22
ENDBRANCH   24   23
ENDBRANCH   26   24
ENDBRANCH   30   29
BRANCH   34   35
ATOM     35  C28 UNL A   1      52.542  21.344  14.324  1.00  0.00    +0.000 C 
ATOM     36  C29 UNL A   1      53.471  20.783  15.210  1.00  0.00    +0.000 C 
ATOM     37  F2  UNL A   1      54.525  20.092  14.757  1.00  0.00    +0.000 F 
ATOM     38  C30 UNL A   1      53.386  21.001  16.590  1.00  0.00    +0.000 C 
ATOM     39  F3  UNL A   1      54.316  20.481  17.403  1.00  0.00    +0.000 F 
ATOM     40  C31 UNL A   1      52.390  21.805  17.122  1.00  0.00    +0.000 C 
ATOM     41  F4  UNL A   1      52.373  22.091  18.430  1.00  0.00    +0.000 F 
ATOM     42  C32 UNL A   1      51.430  22.336  16.283  1.00  0.00    +0.000 C 
ATOM     43  F5  UNL A   1      50.475  23.138  16.777  1.00  0.00    +0.000 F 
ATOM     44  C33 UNL A   1      51.487  22.084  14.913  1.00  0.00    +0.000 C 
ATOM     45  F6  UNL A   1      50.522  22.626  14.154  1.00  0.00    +0.000 F 
ENDBRANCH   34   35
BRANCH   51   52
ATOM     52  C39 UNL A   1      56.772  19.451  10.758  1.00  0.00    +0.000 C 
ATOM     53  C40 UNL A   1      55.659  18.627  10.517  1.00  0.00    +0.000 C 
ATOM     54  F7  UNL A   1      54.463  19.156  10.270  1.00  0.00    +0.000 F 
ATOM     55  C41 UNL A   1      55.745  17.236  10.525  1.00  0.00    +0.000 C 
ATOM     56  F8  UNL A   1      54.648  16.494  10.305  1.00  0.00    +0.000 F 
ATOM     57  C42 UNL A   1      56.959  16.621  10.765  1.00  0.00    +0.000 C 
ATOM     58  F9  UNL A   1      57.046  15.284  10.774  1.00  0.00    +0.000 F 
ATOM     59  C43 UNL A   1      58.078  17.401  11.011  1.00  0.00    +0.000 C 
ATOM     60  F10 UNL A   1      59.257  16.810  11.249  1.00  0.00    +0.000 F 
ATOM     61  C44 UNL A   1      57.986  18.795  11.013  1.00  0.00    +0.000 C 
ATOM     62  F11 UNL A   1      59.093  19.511  11.261  1.00  0.00    +0.000 F 
ENDBRANCH   51   52
BRANCH   66   67
ATOM     67  C48 UNL A   1      57.250  21.118   4.857  1.00  0.00    +0.000 C 
ATOM     68  C49 UNL A   1      57.946  20.062   4.201  1.00  0.00    +0.000 C 
ATOM     69  F12 UNL A   1      57.701  18.776   4.486  1.00  0.00    +0.000 F 
ATOM     70  C50 UNL A   1      58.930  20.270   3.232  1.00  0.00    +0.000 C 
ATOM     71  F13 UNL A   1      59.614  19.225   2.745  1.00  0.00    +0.000 F 
ATOM     72  C51 UNL A   1      59.211  21.543   2.799  1.00  0.00    +0.000 C 
ATOM     73  F14 UNL A   1      60.173  21.755   1.893  1.00  0.00    +0.000 F 
ATOM     74  C52 UNL A   1      58.469  22.592   3.306  1.00  0.00    +0.000 C 
ATOM     75  F15 UNL A   1      58.686  23.832   2.845  1.00  0.00    +0.000 F 
ATOM     76  C53 UNL A   1      57.504  22.382   4.307  1.00  0.00    +0.000 C 
ATOM     77  F16 UNL A   1      56.820  23.463   4.685  1.00  0.00    +0.000 F 
ENDBRANCH   66   67
TORSDOF 17
ENDMDL
MODEL 9
REMARK VINA RESULT:     -10.4     19.612     24.315
ROOT
ATOM     30  C24 UNL A   1      52.314  20.044   9.139  1.00  0.00    +0.000 C 
ATOM     31  C25 UNL A   1      52.001  20.464  10.579  1.00  0.00    +0.000 C 
ATOM     32  N4  UNL A   1      52.586  21.336  11.344  1.00  0.00    +0.000 N 
ATOM     33  C26 UNL A   1      51.978  21.260  12.615  1.00  0.00    +0.000 C 
ATOM     34  C27 UNL A   1      52.499  21.837  13.738  1.00  0.00    +0.000 C 
ATOM     46  C34 UNL A   1      53.677  22.573  13.430  1.00  0.00    +0.000 C 
ATOM     47  C35 UNL A   1      53.883  23.813  12.890  1.00  0.00    +0.000 C 
ATOM     48  C36 UNL A   1      55.136  23.719  12.248  1.00  0.00    +0.000 C 
ATOM     49  C37 UNL A   1      55.681  22.454  12.484  1.00  0.00    +0.000 C 
ATOM     50  N5  UNL A   1      54.870  21.896  13.446  1.00  0.00    +0.000 N 
ATOM     51  C38 UNL A   1      56.668  21.603  11.856  1.00  0.00    +0.000 C 
ATOM     63  C45 UNL A   1      57.276  22.072  10.738  1.00  0.00    +0.000 C 
ATOM     64  N6  UNL A   1      57.471  21.232   9.663  1.00  0.00    +0.000 N 
ATOM     65  C46 UNL A   1      57.094  21.964   8.656  1.00  0.00    +0.000 C 
ATOM     66  C47 UNL A   1      56.738  21.443   7.323  1.00  0.00    +0.000 C 
ATOM     78  C54 UNL A   1      55.532  20.815   7.483  1.00  0.00    +0.000 C 
ATOM     79  C55 UNL A   1      54.772  20.077   6.495  1.00  0.00    +0.000 C 
ATOM     80  C56 UNL A   1      53.583  19.716   7.010  1.00  0.00    +0.000 C 
ATOM     81  C57 UNL A   1      53.447  20.196   8.396  1.00  0.00    +0.000 C 
ATOM     82  N7  UNL A   1      54.686  20.766   8.620  1.00  0.00    +0.000 N 
ATOM     83  C58 UNL A   1      56.938  23.399   8.921  1.00  0.00    +0.000 C 
ATOM     84  C59 UNL A   1      57.251  23.416  10.213  1.00  0.00    +0.000 C 
ATOM     85  C60 UNL A   1      50.845  20.396  12.476  1.00  0.00    +0.000 C 
ATOM     86  C61 UNL A   1      50.828  19.849  11.259  1.00  0.00    +0.000 C 
ATOM    114  H26 UNL A   1      53.261  24.635  12.942  1.00  0.00    +0.000 H 
ATOM    115  H27 UNL A   1      55.579  24.466  11.691  1.00  0.00    +0.000 H 
ATOM    116  H28 UNL A   1      55.104  21.146  14.039  1.00  0.00    +0.000 H 
ATOM    117  H29 UNL A   1      55.095  19.860   5.539  1.00  0.00    +0.000 H 
ATOM    118  H30 UNL A   1      52.864  19.176   6.502  1.00  0.00    +0.000 H 
ATOM    119  H31 UNL A   1      54.959  21.110   9.500  1.00  0.00    +0.000 H 
ATOM    120  H32 UNL A   1      56.665  24.169   8.290  1.00  0.00    +0.000 H 
ATOM    121  H33 UNL A   1      57.449  24.267  10.762  1.00  0.00    +0.000 H 
ATOM    122  H34 UNL A   1      50.142  20.222  13.212  1.00  0.00    +0.000 H 
ATOM    123  H35 UNL A   1      50.159  19.162  10.879  1.00  0.00    +0.000 H 
ENDROOT
BRANCH   30   29
ATOM    124  H36 UNL A   1      50.128  21.147   8.012  1.00  0.00    +0.000 H 
ATOM     29  C23 UNL A   1      51.184  19.367   8.463  1.00  0.00    +0.000 C 
ATOM    112  H24 UNL A   1      50.237  16.312   7.476  1.00  0.00    +0.000 H 
ATOM    113  H25 UNL A   1      51.937  17.419   8.809  1.00  0.00    +0.000 H 
ATOM     87  C62 UNL A   1      50.152  20.122   7.891  1.00  0.00    +0.000 C 
ATOM     88  C63 UNL A   1      49.162  19.481   7.157  1.00  0.00    +0.000 C 
ATOM     26  C20 UNL A   1      49.234  18.099   6.954  1.00  0.00    +0.000 C 
ATOM     27  C21 UNL A   1      50.228  17.338   7.579  1.00  0.00    +0.000 C 
ATOM     28  C22 UNL A   1      51.204  17.972   8.340  1.00  0.00    +0.000 C 
ATOM    125  H37 UNL A   1      48.375  20.022   6.765  1.00  0.00    +0.000 H 
BRANCH   26   24
ATOM     25  O2  UNL A   1      48.413  16.210   5.847  1.00  0.00    +0.000 O 
ATOM     24  C19 UNL A   1      48.252  17.390   6.107  1.00  0.00    +0.000 C 
BRANCH   24   23
ATOM    111  H23 UNL A   1      46.392  18.160   6.163  1.00  0.00    +0.000 H 
ATOM     23  N3  UNL A   1      47.180  18.074   5.580  1.00  0.00    +0.000 N 
BRANCH   23   22
ATOM    110  H22 UNL A   1      46.918  17.910   3.544  1.00  0.00    +0.000 H 
ATOM    109  H21 UNL A   1      47.979  19.219   4.055  1.00  0.00    +0.000 H 
ATOM     22  C18 UNL A   1      47.075  18.685   4.264  1.00  0.00    +0.000 C 
BRANCH   22   21
ATOM    107  H19 UNL A   1      45.344  19.574   5.104  1.00  0.00    +0.000 H 
ATOM    108  H20 UNL A   1      46.311  20.628   4.044  1.00  0.00    +0.000 H 
ATOM     21  C17 UNL A   1      45.900  19.652   4.193  1.00  0.00    +0.000 C 
BRANCH   21   20
ATOM    105  H17 UNL A   1      44.588  20.338   2.679  1.00  0.00    +0.000 H 
ATOM    106  H18 UNL A   1      45.523  18.842   2.309  1.00  0.00    +0.000 H 
ATOM     20  C16 UNL A   1      44.946  19.391   3.024  1.00  0.00    +0.000 C 
BRANCH   20   19
ATOM     19  C15 UNL A   1      43.727  18.513   3.315  1.00  0.00    +0.000 C 
ATOM    103  H15 UNL A   1      43.706  17.733   2.582  1.00  0.00    +0.000 H 
ATOM    104  H16 UNL A   1      43.855  18.170   4.320  1.00  0.00    +0.000 H 
BRANCH   19   18
ATOM     18  C14 UNL A   1      42.366  19.215   3.290  1.00  0.00    +0.000 C 
ATOM    101  H13 UNL A   1      42.288  19.808   4.178  1.00  0.00    +0.000 H 
ATOM    102  H14 UNL A   1      42.352  19.779   2.381  1.00  0.00    +0.000 H 
BRANCH   18   17
ATOM     17  C13 UNL A   1      41.138  18.307   3.227  1.00  0.00    +0.000 C 
ATOM     99  H11 UNL A   1      41.300  17.574   2.466  1.00  0.00    +0.000 H 
ATOM    100  H12 UNL A   1      41.023  17.875   4.198  1.00  0.00    +0.000 H 
BRANCH   17   16
ATOM     98  H10 UNL A   1      39.205  19.092   3.620  1.00  0.00    +0.000 H 
ATOM     16  N2  UNL A   1      39.902  19.006   2.930  1.00  0.00    +0.000 N 
BRANCH   16    2
ATOM      1  O1  UNL A   1      39.942  18.941   0.631  1.00  0.00    +0.000 O 
ATOM      2  C1  UNL A   1      39.707  19.552   1.672  1.00  0.00    +0.000 C 
BRANCH    2    3
ATOM     89  H1  UNL A   1      39.953  21.549   1.080  1.00  0.00    +0.000 H 
ATOM     90  H2  UNL A   1      39.210  21.264   2.707  1.00  0.00    +0.000 H 
ATOM      3  C2  UNL A   1      39.254  20.997   1.673  1.00  0.00    +0.000 C 
BRANCH    3    4
ATOM      4  C3  UNL A   1      37.877  21.305   1.146  1.00  0.00    +0.000 C 
ATOM      5  C4  UNL A   1      37.606  21.815  -0.120  1.00  0.00    +0.000 C 
ATOM      6  C5  UNL A   1      36.210  21.868  -0.298  1.00  0.00    +0.000 C 
ATOM      7  C6  UNL A   1      35.646  21.387   0.857  1.00  0.00    +0.000 C 
ATOM      8  N1  UNL A   1      36.649  21.057   1.746  1.00  0.00    +0.000 N 
ATOM     91  H3  UNL A   1      38.312  22.107  -0.814  1.00  0.00    +0.000 H 
ATOM     92  H4  UNL A   1      35.707  22.205  -1.134  1.00  0.00    +0.000 H 
ATOM     93  H5  UNL A   1      34.633  21.286   1.033  1.00  0.00    +0.000 H 
BRANCH    8    9
ATOM     97  H9  UNL A   1      35.675  22.049   6.031  1.00  0.00    +0.000 H 
ATOM      9  C7  UNL A   1      36.372  20.670   3.063  1.00  0.00    +0.000 C 
ATOM     10  C8  UNL A   1      36.202  19.322   3.380  1.00  0.00    +0.000 C 
ATOM     11  C9  UNL A   1      35.874  18.977   4.694  1.00  0.00    +0.000 C 
ATOM     12  C10 UNL A   1      35.698  19.968   5.666  1.00  0.00    +0.000 C 
ATOM     13  C11 UNL A   1      35.825  21.314   5.321  1.00  0.00    +0.000 C 
ATOM     14  C12 UNL A   1      36.153  21.659   4.015  1.00  0.00    +0.000 C 
ATOM     15  F1  UNL A   1      36.256  22.952   3.680  1.00  0.00    +0.000 F 
ATOM     94  H6  UNL A   1      36.315  18.594   2.658  1.00  0.00    +0.000 H 
ATOM     95  H7  UNL A   1      35.762  17.983   4.950  1.00  0.00    +0.000 H 
ATOM     96  H8  UNL A   1      35.473  19.704   6.638  1.00  0.00    +0.000 H 
ENDBRANCH    8    9
ENDBRANCH    3    4
ENDBRANCH    2    3
ENDBRANCH   16    2
ENDBRANCH   17   16
ENDBRANCH   18   17
ENDBRANCH   19   18
ENDBRANCH   20   19
ENDBRANCH   21   20
ENDBRANCH   22   21
ENDBRANCH   23   22
ENDBRANCH   24   23
ENDBRANCH   26   24
ENDBRANCH   30   29
BRANCH   34   35
ATOM     35  C28 UNL A   1      52.140  21.685  15.190  1.00  0.00    +0.000 C 
ATOM     36  C29 UNL A   1      52.972  21.062  16.129  1.00  0.00    +0.000 C 
ATOM     37  F2  UNL A   1      54.021  20.328  15.740  1.00  0.00    +0.000 F 
ATOM     38  C30 UNL A   1      52.794  21.257  17.504  1.00  0.00    +0.000 C 
ATOM     39  F3  UNL A   1      53.634  20.676  18.371  1.00  0.00    +0.000 F 
ATOM     40  C31 UNL A   1      51.800  22.100  17.978  1.00  0.00    +0.000 C 
ATOM     41  F4  UNL A   1      51.699  22.361  19.288  1.00  0.00    +0.000 F 
ATOM     42  C32 UNL A   1      50.933  22.694  17.083  1.00  0.00    +0.000 C 
ATOM     43  F5  UNL A   1      49.984  23.532  17.523  1.00  0.00    +0.000 F 
ATOM     44  C33 UNL A   1      51.080  22.465  15.716  1.00  0.00    +0.000 C 
ATOM     45  F6  UNL A   1      50.202  23.070  14.900  1.00  0.00    +0.000 F 
ENDBRANCH   34   35
BRANCH   51   52
ATOM     52  C39 UNL A   1      56.789  20.104  12.016  1.00  0.00    +0.000 C 
ATOM     53  C40 UNL A   1      57.907  19.469  12.584  1.00  0.00    +0.000 C 
ATOM     54  F7  UNL A   1      58.999  20.165  12.893  1.00  0.00    +0.000 F 
ATOM     55  C41 UNL A   1      57.935  18.100  12.845  1.00  0.00    +0.000 C 
ATOM     56  F8  UNL A   1      59.035  17.540  13.373  1.00  0.00    +0.000 F 
ATOM     57  C42 UNL A   1      56.832  17.320  12.557  1.00  0.00    +0.000 C 
ATOM     58  F9  UNL A   1      56.854  16.004  12.808  1.00  0.00    +0.000 F 
ATOM     59  C43 UNL A   1      55.712  17.910  11.994  1.00  0.00    +0.000 C 
ATOM     60  F10 UNL A   1      54.641  17.158  11.708  1.00  0.00    +0.000 F 
ATOM     61  C44 UNL A   1      55.692  19.280  11.722  1.00  0.00    +0.000 C 
ATOM     62  F11 UNL A   1      54.588  19.809  11.171  1.00  0.00    +0.000 F 
ENDBRANCH   51   52
BRANCH   66   67
ATOM     67  C48 UNL A   1      57.653  21.795   6.166  1.00  0.00    +0.000 C 
ATOM     68  C49 UNL A   1      58.533  20.811   5.629  1.00  0.00    +0.000 C 
ATOM     69  F12 UNL A   1      58.413  19.515   5.946  1.00  0.00    +0.000 F 
ATOM     70  C50 UNL A   1      59.578  21.106   4.751  1.00  0.00    +0.000 C 
ATOM     71  F13 UNL A   1      60.427  20.137   4.379  1.00  0.00    +0.000 F 
ATOM     72  C51 UNL A   1      59.749  22.389   4.291  1.00  0.00    +0.000 C 
ATOM     73  F14 UNL A   1      60.766  22.687   3.473  1.00  0.00    +0.000 F 
ATOM     74  C52 UNL A   1      58.841  23.355   4.676  1.00  0.00    +0.000 C 
ATOM     75  F15 UNL A   1      58.955  24.597   4.183  1.00  0.00    +0.000 F 
ATOM     76  C53 UNL A   1      57.811  23.062   5.587  1.00  0.00    +0.000 C 
ATOM     77  F16 UNL A   1      56.969  24.064   5.849  1.00  0.00    +0.000 F 
ENDBRANCH   66   67
TORSDOF 17
ENDMDL
MODEL 10
REMARK VINA RESULT:     -10.4     34.357     39.690
ROOT
ATOM     30  C24 UNL A   1      29.244 -12.125  24.250  1.00  0.00    +0.000 C 
ATOM     31  C25 UNL A   1      29.801 -11.127  23.229  1.00  0.00    +0.000 C 
ATOM     32  N4  UNL A   1      31.031 -10.842  22.921  1.00  0.00    +0.000 N 
ATOM     33  C26 UNL A   1      31.000  -9.774  22.000  1.00  0.00    +0.000 C 
ATOM     34  C27 UNL A   1      32.100  -9.041  21.655  1.00  0.00    +0.000 C 
ATOM     46  C34 UNL A   1      33.268  -9.549  22.289  1.00  0.00    +0.000 C 
ATOM     47  C35 UNL A   1      34.086 -10.611  22.014  1.00  0.00    +0.000 C 
ATOM     48  C36 UNL A   1      34.617 -10.986  23.266  1.00  0.00    +0.000 C 
ATOM     49  C37 UNL A   1      34.165 -10.095  24.244  1.00  0.00    +0.000 C 
ATOM     50  N5  UNL A   1      33.569  -9.074  23.540  1.00  0.00    +0.000 N 
ATOM     51  C38 UNL A   1      34.005 -10.109  25.681  1.00  0.00    +0.000 C 
ATOM     63  C45 UNL A   1      34.358 -11.241  26.338  1.00  0.00    +0.000 C 
ATOM     64  N6  UNL A   1      33.551 -11.728  27.344  1.00  0.00    +0.000 N 
ATOM     65  C46 UNL A   1      33.491 -12.998  27.074  1.00  0.00    +0.000 C 
ATOM     66  C47 UNL A   1      32.468 -13.924  27.597  1.00  0.00    +0.000 C 
ATOM     78  C54 UNL A   1      31.309 -13.599  26.944  1.00  0.00    +0.000 C 
ATOM     79  C55 UNL A   1      29.987 -14.160  27.137  1.00  0.00    +0.000 C 
ATOM     80  C56 UNL A   1      29.140 -13.661  26.220  1.00  0.00    +0.000 C 
ATOM     81  C57 UNL A   1      29.836 -12.721  25.324  1.00  0.00    +0.000 C 
ATOM     82  N7  UNL A   1      31.100 -12.684  25.880  1.00  0.00    +0.000 N 
ATOM     83  C58 UNL A   1      34.473 -13.502  26.106  1.00  0.00    +0.000 C 
ATOM     84  C59 UNL A   1      35.105 -12.365  25.828  1.00  0.00    +0.000 C 
ATOM     85  C60 UNL A   1      29.627  -9.580  21.643  1.00  0.00    +0.000 C 
ATOM     86  C61 UNL A   1      28.842 -10.357  22.391  1.00  0.00    +0.000 C 
ATOM    114  H26 UNL A   1      34.274 -11.041  21.094  1.00  0.00    +0.000 H 
ATOM    115  H27 UNL A   1      35.240 -11.791  23.433  1.00  0.00    +0.000 H 
ATOM    116  H28 UNL A   1      33.391  -8.165  23.874  1.00  0.00    +0.000 H 
ATOM    117  H29 UNL A   1      29.734 -14.841  27.870  1.00  0.00    +0.000 H 
ATOM    118  H30 UNL A   1      28.139 -13.904  26.153  1.00  0.00    +0.000 H 
ATOM    119  H31 UNL A   1      31.801 -12.069  25.564  1.00  0.00    +0.000 H 
ATOM    120  H32 UNL A   1      34.628 -14.457  25.747  1.00  0.00    +0.000 H 
ATOM    121  H33 UNL A   1      36.001 -12.297  25.321  1.00  0.00    +0.000 H 
ATOM    122  H34 UNL A   1      29.294  -8.934  20.911  1.00  0.00    +0.000 H 
ATOM    123  H35 UNL A   1      27.812 -10.411  22.388  1.00  0.00    +0.000 H 
ENDROOT
BRANCH   30   29
ATOM    124  H36 UNL A   1      27.029 -11.067  25.363  1.00  0.00    +0.000 H 
ATOM     29  C23 UNL A   1      27.829 -12.486  24.009  1.00  0.00    +0.000 C 
ATOM    112  H24 UNL A   1      25.980 -14.462  22.038  1.00  0.00    +0.000 H 
ATOM    113  H25 UNL A   1      28.292 -14.038  22.646  1.00  0.00    +0.000 H 
ATOM     87  C62 UNL A   1      26.803 -11.782  24.654  1.00  0.00    +0.000 C 
ATOM     88  C63 UNL A   1      25.480 -12.052  24.328  1.00  0.00    +0.000 C 
ATOM     26  C20 UNL A   1      25.188 -12.983  23.326  1.00  0.00    +0.000 C 
ATOM     27  C21 UNL A   1      26.209 -13.731  22.730  1.00  0.00    +0.000 C 
ATOM     28  C22 UNL A   1      27.533 -13.487  23.075  1.00  0.00    +0.000 C 
ATOM    125  H37 UNL A   1      24.715 -11.567  24.824  1.00  0.00    +0.000 H 
BRANCH   26   24
ATOM     25  O2  UNL A   1      23.245 -12.446  22.142  1.00  0.00    +0.000 O 
ATOM     24  C19 UNL A   1      23.800 -13.235  22.887  1.00  0.00    +0.000 C 
BRANCH   24   23
ATOM    111  H23 UNL A   1      23.205 -15.158  22.811  1.00  0.00    +0.000 H 
ATOM     23  N3  UNL A   1      23.122 -14.339  23.352  1.00  0.00    +0.000 N 
BRANCH   23   22
ATOM    110  H22 UNL A   1      22.764 -15.133  25.218  1.00  0.00    +0.000 H 
ATOM    109  H21 UNL A   1      21.322 -14.776  24.271  1.00  0.00    +0.000 H 
ATOM     22  C18 UNL A   1      22.300 -14.440  24.547  1.00  0.00    +0.000 C 
BRANCH   22   21
ATOM    107  H19 UNL A   1      22.662 -12.354  24.650  1.00  0.00    +0.000 H 
ATOM    108  H20 UNL A   1      21.137 -12.906  25.385  1.00  0.00    +0.000 H 
ATOM     21  C17 UNL A   1      22.181 -13.095  25.254  1.00  0.00    +0.000 C 
BRANCH   21   20
ATOM    105  H17 UNL A   1      23.491 -12.236  26.679  1.00  0.00    +0.000 H 
ATOM    106  H18 UNL A   1      21.991 -12.996  27.329  1.00  0.00    +0.000 H 
ATOM     20  C16 UNL A   1      22.815 -13.064  26.648  1.00  0.00    +0.000 C 
BRANCH   20   19
ATOM     19  C15 UNL A   1      23.589 -14.311  27.078  1.00  0.00    +0.000 C 
ATOM    103  H15 UNL A   1      23.195 -14.630  28.021  1.00  0.00    +0.000 H 
ATOM    104  H16 UNL A   1      23.459 -15.017  26.285  1.00  0.00    +0.000 H 
BRANCH   19   18
ATOM     18  C14 UNL A   1      25.104 -14.146  27.237  1.00  0.00    +0.000 C 
ATOM    101  H13 UNL A   1      25.571 -14.568  26.371  1.00  0.00    +0.000 H 
ATOM    102  H14 UNL A   1      25.265 -13.095  27.357  1.00  0.00    +0.000 H 
BRANCH   18   17
ATOM     17  C13 UNL A   1      25.730 -14.799  28.469  1.00  0.00    +0.000 C 
ATOM     99  H11 UNL A   1      24.982 -14.868  29.230  1.00  0.00    +0.000 H 
ATOM    100  H12 UNL A   1      26.094 -15.756  28.159  1.00  0.00    +0.000 H 
BRANCH   17   16
ATOM     98  H10 UNL A   1      27.745 -14.508  29.068  1.00  0.00    +0.000 H 
ATOM     16  N2  UNL A   1      26.865 -14.074  29.009  1.00  0.00    +0.000 N 
BRANCH   16    2
ATOM      1  O1  UNL A   1      25.859 -12.434  30.271  1.00  0.00    +0.000 O 
ATOM      2  C1  UNL A   1      26.701 -12.768  29.440  1.00  0.00    +0.000 C 
BRANCH    2    3
ATOM     89  H1  UNL A   1      27.317 -11.747  27.714  1.00  0.00    +0.000 H 
ATOM     90  H2  UNL A   1      28.588 -12.089  28.960  1.00  0.00    +0.000 H 
ATOM      3  C2  UNL A   1      27.593 -11.758  28.748  1.00  0.00    +0.000 C 
BRANCH    3    4
ATOM      4  C3  UNL A   1      27.557 -10.334  29.236  1.00  0.00    +0.000 C 
ATOM      5  C4  UNL A   1      28.215  -9.864  30.369  1.00  0.00    +0.000 C 
ATOM      6  C5  UNL A   1      28.044  -8.469  30.447  1.00  0.00    +0.000 C 
ATOM      7  C6  UNL A   1      27.289  -8.101  29.361  1.00  0.00    +0.000 C 
ATOM      8  N1  UNL A   1      26.975  -9.229  28.629  1.00  0.00    +0.000 N 
ATOM     91  H3  UNL A   1      28.741 -10.444  31.041  1.00  0.00    +0.000 H 
ATOM     92  H4  UNL A   1      28.413  -7.843  31.180  1.00  0.00    +0.000 H 
ATOM     93  H5  UNL A   1      27.003  -7.137  29.128  1.00  0.00    +0.000 H 
BRANCH    8    9
ATOM     97  H9  UNL A   1      22.935  -9.979  26.781  1.00  0.00    +0.000 H 
ATOM      9  C7  UNL A   1      26.095  -9.181  27.539  1.00  0.00    +0.000 C 
ATOM     10  C8  UNL A   1      26.470  -8.541  26.359  1.00  0.00    +0.000 C 
ATOM     11  C9  UNL A   1      25.547  -8.467  25.311  1.00  0.00    +0.000 C 
ATOM     12  C10 UNL A   1      24.264  -9.005  25.458  1.00  0.00    +0.000 C 
ATOM     13  C11 UNL A   1      23.888  -9.599  26.663  1.00  0.00    +0.000 C 
ATOM     14  C12 UNL A   1      24.806  -9.675  27.703  1.00  0.00    +0.000 C 
ATOM     15  F1  UNL A   1      24.439 -10.229  28.868  1.00  0.00    +0.000 F 
ATOM     94  H6  UNL A   1      27.411  -8.129  26.259  1.00  0.00    +0.000 H 
ATOM     95  H7  UNL A   1      25.814  -8.013  24.424  1.00  0.00    +0.000 H 
ATOM     96  H8  UNL A   1      23.594  -8.962  24.674  1.00  0.00    +0.000 H 
ENDBRANCH    8    9
ENDBRANCH    3    4
ENDBRANCH    2    3
ENDBRANCH   16    2
ENDBRANCH   17   16
ENDBRANCH   18   17
ENDBRANCH   19   18
ENDBRANCH   20   19
ENDBRANCH   21   20
ENDBRANCH   22   21
ENDBRANCH   23   22
ENDBRANCH   24   23
ENDBRANCH   26   24
ENDBRANCH   30   29
BRANCH   34   35
ATOM     35  C28 UNL A   1      32.235  -7.752  20.891  1.00  0.00    +0.000 C 
ATOM     36  C29 UNL A   1      32.203  -6.490  21.497  1.00  0.00    +0.000 C 
ATOM     37  F2  UNL A   1      31.786  -6.342  22.761  1.00  0.00    +0.000 F 
ATOM     38  C30 UNL A   1      32.692  -5.354  20.840  1.00  0.00    +0.000 C 
ATOM     39  F3  UNL A   1      32.681  -4.169  21.467  1.00  0.00    +0.000 F 
ATOM     40  C31 UNL A   1      33.248  -5.450  19.574  1.00  0.00    +0.000 C 
ATOM     41  F4  UNL A   1      33.804  -4.379  18.993  1.00  0.00    +0.000 F 
ATOM     42  C32 UNL A   1      33.253  -6.671  18.929  1.00  0.00    +0.000 C 
ATOM     43  F5  UNL A   1      33.812  -6.787  17.716  1.00  0.00    +0.000 F 
ATOM     44  C33 UNL A   1      32.727  -7.795  19.564  1.00  0.00    +0.000 C 
ATOM     45  F6  UNL A   1      32.759  -8.950  18.880  1.00  0.00    +0.000 F 
ENDBRANCH   34   35
BRANCH   51   52
ATOM     52  C39 UNL A   1      33.093  -9.211  26.489  1.00  0.00    +0.000 C 
ATOM     53  C40 UNL A   1      31.698  -9.164  26.321  1.00  0.00    +0.000 C 
ATOM     54  F7  UNL A   1      31.111  -9.826  25.326  1.00  0.00    +0.000 F 
ATOM     55  C41 UNL A   1      30.869  -8.433  27.170  1.00  0.00    +0.000 C 
ATOM     56  F8  UNL A   1      29.544  -8.408  26.955  1.00  0.00    +0.000 F 
ATOM     57  C42 UNL A   1      31.412  -7.731  28.228  1.00  0.00    +0.000 C 
ATOM     58  F9  UNL A   1      30.618  -7.027  29.046  1.00  0.00    +0.000 F 
ATOM     59  C43 UNL A   1      32.784  -7.751  28.423  1.00  0.00    +0.000 C 
ATOM     60  F10 UNL A   1      33.316  -7.067  29.445  1.00  0.00    +0.000 F 
ATOM     61  C44 UNL A   1      33.613  -8.475  27.564  1.00  0.00    +0.000 C 
ATOM     62  F11 UNL A   1      34.936  -8.462  27.786  1.00  0.00    +0.000 F 
ENDBRANCH   51   52
BRANCH   66   67
ATOM     67  C48 UNL A   1      32.925 -15.000  28.563  1.00  0.00    +0.000 C 
ATOM     68  C49 UNL A   1      32.811 -14.790  29.967  1.00  0.00    +0.000 C 
ATOM     69  F12 UNL A   1      32.093 -13.777  30.470  1.00  0.00    +0.000 F 
ATOM     70  C50 UNL A   1      33.431 -15.599  30.922  1.00  0.00    +0.000 C 
ATOM     71  F13 UNL A   1      33.364 -15.267  32.219  1.00  0.00    +0.000 F 
ATOM     72  C51 UNL A   1      34.128 -16.715  30.530  1.00  0.00    +0.000 C 
ATOM     73  F14 UNL A   1      34.751 -17.480  31.435  1.00  0.00    +0.000 F 
ATOM     74  C52 UNL A   1      34.156 -17.038  29.187  1.00  0.00    +0.000 C 
ATOM     75  F15 UNL A   1      34.776 -18.161  28.795  1.00  0.00    +0.000 F 
ATOM     76  C53 UNL A   1      33.560 -16.203  28.226  1.00  0.00    +0.000 C 
ATOM     77  F16 UNL A   1      33.612 -16.642  26.967  1.00  0.00    +0.000 F 
ENDBRANCH   66   67
TORSDOF 17
ENDMDL
