MODEL 1
REMARK VINA RESULT:      -8.7      0.000      0.000
ROOT
ATOM    140  H42 UNL A   1      24.715  -9.163  29.829  1.00  0.00    +0.000 H 
ATOM    141  H43 UNL A   1      23.219  -9.065  31.962  1.00  0.00    +0.000 H 
ATOM    142  H44 UNL A   1      26.296 -11.748  32.653  1.00  0.00    +0.000 H 
ATOM    143  H45 UNL A   1      29.062 -16.125  36.392  1.00  0.00    +0.000 H 
ATOM    144  H46 UNL A   1      30.577 -16.138  34.353  1.00  0.00    +0.000 H 
ATOM    145  H47 UNL A   1      27.548 -13.374  33.668  1.00  0.00    +0.000 H 
ATOM    146  H48 UNL A   1      24.754 -13.317  37.844  1.00  0.00    +0.000 H 
ATOM    147  H49 UNL A   1      23.219 -11.659  36.641  1.00  0.00    +0.000 H 
ATOM    148  H50 UNL A   1      29.313 -11.680  28.658  1.00  0.00    +0.000 H 
ATOM    149  H51 UNL A   1      30.576 -13.683  29.631  1.00  0.00    +0.000 H 
ATOM     40  C31 UNL A   1      29.740 -14.392  32.260  1.00  0.00    +0.000 C 
ATOM     41  C32 UNL A   1      29.128 -13.367  31.348  1.00  0.00    +0.000 C 
ATOM     42  N5  UNL A   1      28.092 -12.590  31.548  1.00  0.00    +0.000 N 
ATOM     43  C33 UNL A   1      27.982 -11.807  30.407  1.00  0.00    +0.000 C 
ATOM     44  C34 UNL A   1      27.029 -10.896  30.093  1.00  0.00    +0.000 C 
ATOM     56  C41 UNL A   1      25.918 -10.563  30.946  1.00  0.00    +0.000 C 
ATOM     57  C42 UNL A   1      24.870  -9.693  30.701  1.00  0.00    +0.000 C 
ATOM     58  C43 UNL A   1      24.058  -9.653  31.840  1.00  0.00    +0.000 C 
ATOM     59  C44 UNL A   1      24.570 -10.540  32.775  1.00  0.00    +0.000 C 
ATOM     60  N6  UNL A   1      25.714 -11.086  32.215  1.00  0.00    +0.000 N 
ATOM     61  C45 UNL A   1      24.056 -10.862  34.082  1.00  0.00    +0.000 C 
ATOM     73  C52 UNL A   1      24.610 -11.756  34.937  1.00  0.00    +0.000 C 
ATOM     74  N7  UNL A   1      25.744 -12.539  34.768  1.00  0.00    +0.000 N 
ATOM     75  C53 UNL A   1      25.875 -13.230  35.874  1.00  0.00    +0.000 C 
ATOM     76  C54 UNL A   1      26.908 -14.260  36.235  1.00  0.00    +0.000 C 
ATOM     88  C61 UNL A   1      27.875 -14.561  35.347  1.00  0.00    +0.000 C 
ATOM     89  C62 UNL A   1      28.939 -15.540  35.551  1.00  0.00    +0.000 C 
ATOM     90  C63 UNL A   1      29.733 -15.555  34.468  1.00  0.00    +0.000 C 
ATOM     91  C64 UNL A   1      29.209 -14.615  33.477  1.00  0.00    +0.000 C 
ATOM     92  N8  UNL A   1      28.112 -14.062  34.091  1.00  0.00    +0.000 N 
ATOM     93  C65 UNL A   1      24.851 -12.939  36.888  1.00  0.00    +0.000 C 
ATOM     94  C66 UNL A   1      24.082 -12.067  36.251  1.00  0.00    +0.000 C 
ATOM     95  C67 UNL A   1      29.091 -12.156  29.545  1.00  0.00    +0.000 C 
ATOM     96  C68 UNL A   1      29.783 -13.169  30.046  1.00  0.00    +0.000 C 
ENDROOT
BRANCH   40   39
ATOM     97  C69 UNL A   1      32.227 -14.572  32.134  1.00  0.00    +0.000 C 
ATOM     98  C70 UNL A   1      33.388 -15.224  31.725  1.00  0.00    +0.000 C 
ATOM     36  C27 UNL A   1      33.307 -16.485  31.128  1.00  0.00    +0.000 C 
ATOM     37  C28 UNL A   1      32.057 -17.032  30.823  1.00  0.00    +0.000 C 
ATOM     38  C29 UNL A   1      30.892 -16.342  31.163  1.00  0.00    +0.000 C 
ATOM     39  C30 UNL A   1      30.967 -15.120  31.849  1.00  0.00    +0.000 C 
ATOM    138  H40 UNL A   1      31.996 -17.946  30.347  1.00  0.00    +0.000 H 
ATOM    139  H41 UNL A   1      29.971 -16.732  30.910  1.00  0.00    +0.000 H 
ATOM    150  H52 UNL A   1      32.294 -13.682  32.651  1.00  0.00    +0.000 H 
ATOM    151  H53 UNL A   1      34.308 -14.776  31.862  1.00  0.00    +0.000 H 
BRANCH   36   34
ATOM     34  C26 UNL A   1      34.523 -17.254  30.778  1.00  0.00    +0.000 C 
ATOM     35  O5  UNL A   1      35.097 -17.909  31.643  1.00  0.00    +0.000 O 
BRANCH   34   33
ATOM     33  N4  UNL A   1      35.022 -17.224  29.501  1.00  0.00    +0.000 N 
ATOM    137  H39 UNL A   1      35.957 -16.927  29.425  1.00  0.00    +0.000 H 
BRANCH   33   32
ATOM    136  H38 UNL A   1      33.384 -17.887  28.463  1.00  0.00    +0.000 H 
ATOM    135  H37 UNL A   1      34.948 -18.336  27.765  1.00  0.00    +0.000 H 
ATOM     32  C25 UNL A   1      34.380 -17.564  28.243  1.00  0.00    +0.000 C 
BRANCH   32   31
ATOM    133  H35 UNL A   1      35.022 -15.659  27.588  1.00  0.00    +0.000 H 
ATOM    134  H36 UNL A   1      34.427 -16.766  26.312  1.00  0.00    +0.000 H 
ATOM     31  C24 UNL A   1      34.281 -16.374  27.297  1.00  0.00    +0.000 C 
BRANCH   31   30
ATOM    131  H33 UNL A   1      32.769 -15.289  26.285  1.00  0.00    +0.000 H 
ATOM    132  H34 UNL A   1      32.211 -16.402  27.580  1.00  0.00    +0.000 H 
ATOM     30  C23 UNL A   1      32.924 -15.666  27.273  1.00  0.00    +0.000 C 
BRANCH   30   29
ATOM    129  H31 UNL A   1      31.729 -14.466  28.553  1.00  0.00    +0.000 H 
ATOM    130  H32 UNL A   1      33.442 -14.692  29.052  1.00  0.00    +0.000 H 
ATOM     29  C22 UNL A   1      32.757 -14.497  28.254  1.00  0.00    +0.000 C 
BRANCH   29   28
ATOM     28  C21 UNL A   1      33.130 -13.108  27.721  1.00  0.00    +0.000 C 
ATOM    127  H29 UNL A   1      32.339 -12.431  27.968  1.00  0.00    +0.000 H 
ATOM    128  H30 UNL A   1      34.062 -12.847  28.179  1.00  0.00    +0.000 H 
BRANCH   28   27
ATOM     27  C20 UNL A   1      33.355 -13.047  26.217  1.00  0.00    +0.000 C 
ATOM    125  H27 UNL A   1      34.382 -13.268  26.017  1.00  0.00    +0.000 H 
ATOM    126  H28 UNL A   1      32.694 -13.761  25.769  1.00  0.00    +0.000 H 
BRANCH   27   26
ATOM     26  N3  UNL A   1      33.043 -11.756  25.640  1.00  0.00    +0.000 N 
ATOM    124  H26 UNL A   1      32.211 -11.652  25.124  1.00  0.00    +0.000 H 
BRANCH   26   24
ATOM     25  O4  UNL A   1      35.080 -10.891  25.953  1.00  0.00    +0.000 O 
ATOM     24  C19 UNL A   1      33.874 -10.670  25.793  1.00  0.00    +0.000 C 
BRANCH   24   16
ATOM    116  H18 UNL A   1      33.992  -8.676  26.446  1.00  0.00    +0.000 H 
ATOM     16  C11 UNL A   1      33.316  -9.215  25.816  1.00  0.00    +0.000 C 
BRANCH   16   15
ATOM    115  H17 UNL A   1      34.009  -7.673  24.567  1.00  0.00    +0.000 H 
ATOM     15  N2  UNL A   1      33.402  -8.449  24.558  1.00  0.00    +0.000 N 
BRANCH   15   13
ATOM     13  C10 UNL A   1      32.744  -8.682  23.379  1.00  0.00    +0.000 C 
ATOM     14  O3  UNL A   1      33.297  -9.417  22.555  1.00  0.00    +0.000 O 
BRANCH   13   12
ATOM      8  N1  UNL A   1      31.143  -7.540  21.794  1.00  0.00    +0.000 N 
ATOM      9  C6  UNL A   1      30.055  -8.176  21.084  1.00  0.00    +0.000 C 
ATOM     10  C7  UNL A   1      29.236  -8.838  22.176  1.00  0.00    +0.000 C 
ATOM     11  C8  UNL A   1      30.277  -9.206  23.230  1.00  0.00    +0.000 C 
ATOM     12  C9  UNL A   1      31.337  -8.092  23.135  1.00  0.00    +0.000 C 
ATOM    108  H10 UNL A   1      30.427  -8.903  20.393  1.00  0.00    +0.000 H 
ATOM    109  H11 UNL A   1      29.482  -7.483  20.505  1.00  0.00    +0.000 H 
ATOM    110  H12 UNL A   1      28.742  -9.712  21.806  1.00  0.00    +0.000 H 
ATOM    111  H13 UNL A   1      28.463  -8.205  22.558  1.00  0.00    +0.000 H 
ATOM    112  H14 UNL A   1      30.710 -10.160  23.015  1.00  0.00    +0.000 H 
ATOM    114  H16 UNL A   1      31.242  -7.323  23.872  1.00  0.00    +0.000 H 
ATOM    113  H15 UNL A   1      29.853  -9.280  24.209  1.00  0.00    +0.000 H 
BRANCH    8    6
ATOM      6  C5  UNL A   1      31.805  -6.403  21.418  1.00  0.00    +0.000 C 
ATOM      7  O2  UNL A   1      32.586  -5.838  22.161  1.00  0.00    +0.000 O 
BRANCH    6    5
ATOM      1  C1  UNL A   1      31.825  -5.155  17.985  1.00  0.00    +0.000 C 
ATOM      2  C2  UNL A   1      32.402  -6.032  19.104  1.00  0.00    +0.000 C 
ATOM     99  H1  UNL A   1      32.481  -5.176  17.140  1.00  0.00    +0.000 H 
ATOM    100  H2  UNL A   1      31.726  -4.148  18.335  1.00  0.00    +0.000 H 
ATOM    101  H3  UNL A   1      30.864  -5.528  17.698  1.00  0.00    +0.000 H 
ATOM      3  C3  UNL A   1      32.485  -7.483  18.618  1.00  0.00    +0.000 C 
ATOM      4  C4  UNL A   1      33.794  -5.473  19.453  1.00  0.00    +0.000 C 
ATOM      5  O1  UNL A   1      31.444  -5.937  20.196  1.00  0.00    +0.000 O 
ATOM    102  H4  UNL A   1      33.190  -7.550  17.815  1.00  0.00    +0.000 H 
ATOM    103  H5  UNL A   1      31.522  -7.800  18.275  1.00  0.00    +0.000 H 
ATOM    104  H6  UNL A   1      32.801  -8.112  19.424  1.00  0.00    +0.000 H 
ATOM    105  H7  UNL A   1      34.442  -5.576  18.607  1.00  0.00    +0.000 H 
ATOM    106  H8  UNL A   1      34.199  -6.016  20.281  1.00  0.00    +0.000 H 
ATOM    107  H9  UNL A   1      33.707  -4.438  19.712  1.00  0.00    +0.000 H 
ENDBRANCH    6    5
ENDBRANCH    8    6
ENDBRANCH   13   12
ENDBRANCH   15   13
ENDBRANCH   16   15
BRANCH   16   17
ATOM     17  C12 UNL A   1      31.903  -9.189  26.438  1.00  0.00    +0.000 C 
ATOM    117  H19 UNL A   1      31.476 -10.164  26.321  1.00  0.00    +0.000 H 
ATOM    118  H20 UNL A   1      31.373  -8.417  25.922  1.00  0.00    +0.000 H 
BRANCH   17   18
ATOM     18  C13 UNL A   1      31.832  -8.825  27.903  1.00  0.00    +0.000 C 
ATOM     19  C14 UNL A   1      31.699  -9.826  28.876  1.00  0.00    +0.000 C 
ATOM     20  C15 UNL A   1      31.555  -9.493  30.223  1.00  0.00    +0.000 C 
ATOM     21  C16 UNL A   1      31.578  -8.157  30.615  1.00  0.00    +0.000 C 
ATOM     22  C17 UNL A   1      31.756  -7.156  29.661  1.00  0.00    +0.000 C 
ATOM     23  C18 UNL A   1      31.880  -7.487  28.310  1.00  0.00    +0.000 C 
ATOM    119  H21 UNL A   1      31.707 -10.819  28.593  1.00  0.00    +0.000 H 
ATOM    120  H22 UNL A   1      31.432 -10.236  30.929  1.00  0.00    +0.000 H 
ATOM    122  H24 UNL A   1      31.797  -6.168  29.954  1.00  0.00    +0.000 H 
ATOM    123  H25 UNL A   1      32.006  -6.741  27.609  1.00  0.00    +0.000 H 
ATOM    121  H23 UNL A   1      31.462  -7.907  31.610  1.00  0.00    +0.000 H 
ENDBRANCH   17   18
ENDBRANCH   16   17
ENDBRANCH   24   16
ENDBRANCH   26   24
ENDBRANCH   27   26
ENDBRANCH   28   27
ENDBRANCH   29   28
ENDBRANCH   30   29
ENDBRANCH   31   30
ENDBRANCH   32   31
ENDBRANCH   33   32
ENDBRANCH   34   33
ENDBRANCH   36   34
ENDBRANCH   40   39
BRANCH   44   45
ATOM     45  C35 UNL A   1      27.154 -10.197  28.769  1.00  0.00    +0.000 C 
ATOM     46  C36 UNL A   1      27.898  -9.014  28.628  1.00  0.00    +0.000 C 
ATOM     47  F1  UNL A   1      28.509  -8.471  29.692  1.00  0.00    +0.000 F 
ATOM     48  C37 UNL A   1      27.975  -8.355  27.404  1.00  0.00    +0.000 C 
ATOM     49  F2  UNL A   1      28.637  -7.194  27.311  1.00  0.00    +0.000 F 
ATOM     50  C38 UNL A   1      27.346  -8.886  26.288  1.00  0.00    +0.000 C 
ATOM     51  F3  UNL A   1      27.420  -8.249  25.110  1.00  0.00    +0.000 F 
ATOM     52  C39 UNL A   1      26.633 -10.070  26.395  1.00  0.00    +0.000 C 
ATOM     53  F4  UNL A   1      26.038 -10.591  25.313  1.00  0.00    +0.000 F 
ATOM     54  C40 UNL A   1      26.526 -10.714  27.625  1.00  0.00    +0.000 C 
ATOM     55  F5  UNL A   1      25.808 -11.845  27.700  1.00  0.00    +0.000 F 
ENDBRANCH   44   45
BRANCH   61   62
ATOM     65  C48 UNL A   1      21.640  -8.369  35.666  1.00  0.00    +0.000 C 
ATOM     66  F7  UNL A   1      21.689  -7.264  36.423  1.00  0.00    +0.000 F 
ATOM     67  C49 UNL A   1      20.414  -8.895  35.287  1.00  0.00    +0.000 C 
ATOM     68  F8  UNL A   1      19.279  -8.287  35.659  1.00  0.00    +0.000 F 
ATOM     69  C50 UNL A   1      20.364 -10.055  34.530  1.00  0.00    +0.000 C 
ATOM     70  F9  UNL A   1      19.181 -10.557  34.151  1.00  0.00    +0.000 F 
ATOM     71  C51 UNL A   1      21.542 -10.699  34.162  1.00  0.00    +0.000 C 
ATOM     72  F10 UNL A   1      21.462 -11.828  33.441  1.00  0.00    +0.000 F 
ATOM     62  C46 UNL A   1      22.794 -10.179  34.525  1.00  0.00    +0.000 C 
ATOM     63  C47 UNL A   1      22.821  -8.994  35.275  1.00  0.00    +0.000 C 
ATOM     64  F6  UNL A   1      23.993  -8.466  35.660  1.00  0.00    +0.000 F 
ENDBRANCH   61   62
BRANCH   76   77
ATOM     77  C55 UNL A   1      26.852 -14.977  37.535  1.00  0.00    +0.000 C 
ATOM     78  C56 UNL A   1      27.517 -14.470  38.660  1.00  0.00    +0.000 C 
ATOM     79  F11 UNL A   1      28.238 -13.343  38.559  1.00  0.00    +0.000 F 
ATOM     80  C57 UNL A   1      27.474 -15.135  39.884  1.00  0.00    +0.000 C 
ATOM     81  F12 UNL A   1      28.149 -14.647  40.933  1.00  0.00    +0.000 F 
ATOM     82  C58 UNL A   1      26.741 -16.306  40.012  1.00  0.00    +0.000 C 
ATOM     83  F13 UNL A   1      26.692 -16.940  41.191  1.00  0.00    +0.000 F 
ATOM     84  C59 UNL A   1      26.065 -16.820  38.917  1.00  0.00    +0.000 C 
ATOM     85  F14 UNL A   1      25.345 -17.943  39.042  1.00  0.00    +0.000 F 
ATOM     86  C60 UNL A   1      26.130 -16.170  37.686  1.00  0.00    +0.000 C 
ATOM     87  F15 UNL A   1      25.473 -16.694  36.641  1.00  0.00    +0.000 F 
ENDBRANCH   76   77
TORSDOF 22
ENDMDL
MODEL 2
REMARK VINA RESULT:      -8.5      2.305      3.831
ROOT
ATOM    140  H42 UNL A   1      22.534 -10.149  30.255  1.00  0.00    +0.000 H 
ATOM    141  H43 UNL A   1      21.771 -10.057  32.746  1.00  0.00    +0.000 H 
ATOM    142  H44 UNL A   1      25.407 -12.030  32.572  1.00  0.00    +0.000 H 
ATOM    143  H45 UNL A   1      30.037 -15.329  35.481  1.00  0.00    +0.000 H 
ATOM    144  H46 UNL A   1      30.830 -15.322  33.067  1.00  0.00    +0.000 H 
ATOM    145  H47 UNL A   1      27.223 -13.262  33.226  1.00  0.00    +0.000 H 
ATOM    146  H48 UNL A   1      25.880 -13.190  38.068  1.00  0.00    +0.000 H 
ATOM    147  H49 UNL A   1      23.738 -12.002  37.325  1.00  0.00    +0.000 H 
ATOM    148  H50 UNL A   1      26.985 -11.916  27.821  1.00  0.00    +0.000 H 
ATOM    149  H51 UNL A   1      28.877 -13.519  28.457  1.00  0.00    +0.000 H 
ATOM     40  C31 UNL A   1      29.048 -14.034  31.253  1.00  0.00    +0.000 C 
ATOM     41  C32 UNL A   1      27.985 -13.259  30.525  1.00  0.00    +0.000 C 
ATOM     42  N5  UNL A   1      26.919 -12.664  31.000  1.00  0.00    +0.000 N 
ATOM     43  C33 UNL A   1      26.305 -12.062  29.910  1.00  0.00    +0.000 C 
ATOM     44  C34 UNL A   1      25.132 -11.387  29.865  1.00  0.00    +0.000 C 
ATOM     56  C41 UNL A   1      24.287 -11.156  31.008  1.00  0.00    +0.000 C 
ATOM     57  C42 UNL A   1      23.055 -10.528  31.061  1.00  0.00    +0.000 C 
ATOM     58  C43 UNL A   1      22.638 -10.495  32.397  1.00  0.00    +0.000 C 
ATOM     59  C44 UNL A   1      23.584 -11.149  33.169  1.00  0.00    +0.000 C 
ATOM     60  N6  UNL A   1      24.594 -11.545  32.305  1.00  0.00    +0.000 N 
ATOM     61  C45 UNL A   1      23.571 -11.393  34.589  1.00  0.00    +0.000 C 
ATOM     73  C52 UNL A   1      24.535 -12.058  35.274  1.00  0.00    +0.000 C 
ATOM     74  N7  UNL A   1      25.703 -12.637  34.796  1.00  0.00    +0.000 N 
ATOM     75  C53 UNL A   1      26.306 -13.148  35.841  1.00  0.00    +0.000 C 
ATOM     76  C54 UNL A   1      27.594 -13.921  35.912  1.00  0.00    +0.000 C 
ATOM     88  C61 UNL A   1      28.287 -14.149  34.780  1.00  0.00    +0.000 C 
ATOM     89  C62 UNL A   1      29.545 -14.886  34.690  1.00  0.00    +0.000 C 
ATOM     90  C63 UNL A   1      29.957 -14.892  33.413  1.00  0.00    +0.000 C 
ATOM     91  C64 UNL A   1      28.971 -14.194  32.587  1.00  0.00    +0.000 C 
ATOM     92  N8  UNL A   1      28.020 -13.777  33.486  1.00  0.00    +0.000 N 
ATOM     93  C65 UNL A   1      25.601 -12.923  37.111  1.00  0.00    +0.000 C 
ATOM     94  C66 UNL A   1      24.509 -12.292  36.703  1.00  0.00    +0.000 C 
ATOM     95  C67 UNL A   1      27.148 -12.310  28.760  1.00  0.00    +0.000 C 
ATOM     96  C68 UNL A   1      28.158 -13.109  29.073  1.00  0.00    +0.000 C 
ENDROOT
BRANCH   40   39
ATOM     97  C69 UNL A   1      30.121 -15.814  29.869  1.00  0.00    +0.000 C 
ATOM     98  C70 UNL A   1      31.219 -16.348  29.200  1.00  0.00    +0.000 C 
ATOM     36  C27 UNL A   1      32.390 -15.598  29.070  1.00  0.00    +0.000 C 
ATOM     37  C28 UNL A   1      32.505 -14.366  29.723  1.00  0.00    +0.000 C 
ATOM     38  C29 UNL A   1      31.430 -13.866  30.459  1.00  0.00    +0.000 C 
ATOM     39  C30 UNL A   1      30.218 -14.571  30.513  1.00  0.00    +0.000 C 
ATOM    138  H40 UNL A   1      33.383 -13.828  29.660  1.00  0.00    +0.000 H 
ATOM    139  H41 UNL A   1      31.526 -12.972  30.966  1.00  0.00    +0.000 H 
ATOM    150  H52 UNL A   1      29.230 -16.334  29.889  1.00  0.00    +0.000 H 
ATOM    151  H53 UNL A   1      31.168 -17.299  28.801  1.00  0.00    +0.000 H 
BRANCH   36   34
ATOM     34  C26 UNL A   1      33.540 -16.089  28.276  1.00  0.00    +0.000 C 
ATOM     35  O5  UNL A   1      34.272 -16.957  28.743  1.00  0.00    +0.000 O 
BRANCH   34   33
ATOM     33  N4  UNL A   1      33.803 -15.569  27.035  1.00  0.00    +0.000 N 
ATOM    137  H39 UNL A   1      34.757 -15.493  26.807  1.00  0.00    +0.000 H 
BRANCH   33   32
ATOM    136  H38 UNL A   1      31.991 -15.693  26.085  1.00  0.00    +0.000 H 
ATOM    135  H37 UNL A   1      33.352 -15.238  25.049  1.00  0.00    +0.000 H 
ATOM     32  C25 UNL A   1      32.886 -15.113  26.004  1.00  0.00    +0.000 C 
BRANCH   32   31
ATOM    133  H35 UNL A   1      32.211 -13.497  27.189  1.00  0.00    +0.000 H 
ATOM    134  H36 UNL A   1      33.364 -13.081  25.883  1.00  0.00    +0.000 H 
ATOM     31  C24 UNL A   1      32.503 -13.647  26.171  1.00  0.00    +0.000 C 
BRANCH   31   30
ATOM    131  H33 UNL A   1      31.786 -12.574  24.491  1.00  0.00    +0.000 H 
ATOM    132  H34 UNL A   1      30.863 -14.049  24.939  1.00  0.00    +0.000 H 
ATOM     30  C23 UNL A   1      31.360 -13.163  25.275  1.00  0.00    +0.000 C 
BRANCH   30   29
ATOM    129  H31 UNL A   1      29.964 -12.841  26.841  1.00  0.00    +0.000 H 
ATOM    130  H32 UNL A   1      30.732 -11.369  26.152  1.00  0.00    +0.000 H 
ATOM     29  C22 UNL A   1      30.277 -12.318  25.961  1.00  0.00    +0.000 C 
BRANCH   29   28
ATOM     28  C21 UNL A   1      29.026 -12.014  25.128  1.00  0.00    +0.000 C 
ATOM    127  H29 UNL A   1      29.340 -11.679  24.162  1.00  0.00    +0.000 H 
ATOM    128  H30 UNL A   1      28.457 -12.920  25.092  1.00  0.00    +0.000 H 
BRANCH   28   27
ATOM     27  C20 UNL A   1      28.111 -10.953  25.725  1.00  0.00    +0.000 C 
ATOM    125  H27 UNL A   1      27.166 -11.402  25.942  1.00  0.00    +0.000 H 
ATOM    126  H28 UNL A   1      28.593 -10.579  26.605  1.00  0.00    +0.000 H 
BRANCH   27   26
ATOM     26  N3  UNL A   1      27.891  -9.823  24.846  1.00  0.00    +0.000 N 
ATOM    124  H26 UNL A   1      27.294  -9.931  24.070  1.00  0.00    +0.000 H 
BRANCH   26   24
ATOM     25  O4  UNL A   1      27.950  -7.606  24.574  1.00  0.00    +0.000 O 
ATOM     24  C19 UNL A   1      28.492  -8.605  25.061  1.00  0.00    +0.000 C 
BRANCH   24   16
ATOM    116  H18 UNL A   1      29.950  -9.433  26.328  1.00  0.00    +0.000 H 
ATOM     16  C11 UNL A   1      29.835  -8.486  25.844  1.00  0.00    +0.000 C 
BRANCH   16   15
ATOM    115  H17 UNL A   1      31.430  -7.501  24.895  1.00  0.00    +0.000 H 
ATOM     15  N2  UNL A   1      31.069  -8.406  25.041  1.00  0.00    +0.000 N 
BRANCH   15   13
ATOM     13  C10 UNL A   1      31.777  -9.433  24.474  1.00  0.00    +0.000 C 
ATOM     14  O3  UNL A   1      31.341  -9.911  23.423  1.00  0.00    +0.000 O 
BRANCH   13   12
ATOM      8  N1  UNL A   1      34.302  -9.347  24.491  1.00  0.00    +0.000 N 
ATOM      9  C6  UNL A   1      35.119  -8.619  25.436  1.00  0.00    +0.000 C 
ATOM     10  C7  UNL A   1      34.661  -9.128  26.790  1.00  0.00    +0.000 C 
ATOM     11  C8  UNL A   1      33.186  -9.449  26.571  1.00  0.00    +0.000 C 
ATOM     12  C9  UNL A   1      33.103  -9.915  25.105  1.00  0.00    +0.000 C 
ATOM    108  H10 UNL A   1      34.952  -7.566  25.350  1.00  0.00    +0.000 H 
ATOM    109  H11 UNL A   1      36.166  -8.768  25.274  1.00  0.00    +0.000 H 
ATOM    110  H12 UNL A   1      34.782  -8.376  27.542  1.00  0.00    +0.000 H 
ATOM    111  H13 UNL A   1      35.225  -9.972  27.130  1.00  0.00    +0.000 H 
ATOM    112  H14 UNL A   1      32.583  -8.579  26.726  1.00  0.00    +0.000 H 
ATOM    114  H16 UNL A   1      33.085 -10.977  24.976  1.00  0.00    +0.000 H 
ATOM    113  H15 UNL A   1      32.827 -10.191  27.254  1.00  0.00    +0.000 H 
BRANCH    8    6
ATOM      6  C5  UNL A   1      34.653  -9.701  23.217  1.00  0.00    +0.000 C 
ATOM      7  O2  UNL A   1      35.040  -8.881  22.404  1.00  0.00    +0.000 O 
BRANCH    6    5
ATOM      1  C1  UNL A   1      35.091 -13.213  22.309  1.00  0.00    +0.000 C 
ATOM      2  C2  UNL A   1      35.587 -11.918  22.966  1.00  0.00    +0.000 C 
ATOM     99  H1  UNL A   1      35.882 -13.932  22.296  1.00  0.00    +0.000 H 
ATOM    100  H2  UNL A   1      34.779 -13.007  21.306  1.00  0.00    +0.000 H 
ATOM    101  H3  UNL A   1      34.265 -13.602  22.866  1.00  0.00    +0.000 H 
ATOM      3  C3  UNL A   1      35.976 -12.205  24.420  1.00  0.00    +0.000 C 
ATOM      4  C4  UNL A   1      36.793 -11.421  22.147  1.00  0.00    +0.000 C 
ATOM      5  O1  UNL A   1      34.448 -11.013  22.935  1.00  0.00    +0.000 O 
ATOM    102  H4  UNL A   1      36.814 -12.871  24.440  1.00  0.00    +0.000 H 
ATOM    103  H5  UNL A   1      35.150 -12.656  24.928  1.00  0.00    +0.000 H 
ATOM    104  H6  UNL A   1      36.237 -11.289  24.907  1.00  0.00    +0.000 H 
ATOM    105  H7  UNL A   1      37.589 -12.133  22.215  1.00  0.00    +0.000 H 
ATOM    106  H8  UNL A   1      37.124 -10.479  22.532  1.00  0.00    +0.000 H 
ATOM    107  H9  UNL A   1      36.505 -11.306  21.122  1.00  0.00    +0.000 H 
ENDBRANCH    6    5
ENDBRANCH    8    6
ENDBRANCH   13   12
ENDBRANCH   15   13
ENDBRANCH   16   15
BRANCH   16   17
ATOM     17  C12 UNL A   1      29.739  -7.372  26.910  1.00  0.00    +0.000 C 
ATOM    117  H19 UNL A   1      28.710  -7.093  27.000  1.00  0.00    +0.000 H 
ATOM    118  H20 UNL A   1      30.376  -6.585  26.564  1.00  0.00    +0.000 H 
BRANCH   17   18
ATOM     18  C13 UNL A   1      30.245  -7.731  28.288  1.00  0.00    +0.000 C 
ATOM     19  C14 UNL A   1      31.412  -7.139  28.791  1.00  0.00    +0.000 C 
ATOM     20  C15 UNL A   1      31.928  -7.524  30.029  1.00  0.00    +0.000 C 
ATOM     21  C16 UNL A   1      31.262  -8.480  30.793  1.00  0.00    +0.000 C 
ATOM     22  C17 UNL A   1      30.075  -9.041  30.323  1.00  0.00    +0.000 C 
ATOM     23  C18 UNL A   1      29.569  -8.672  29.075  1.00  0.00    +0.000 C 
ATOM    119  H21 UNL A   1      31.896  -6.412  28.239  1.00  0.00    +0.000 H 
ATOM    120  H22 UNL A   1      32.802  -7.100  30.379  1.00  0.00    +0.000 H 
ATOM    122  H24 UNL A   1      29.570  -9.731  30.899  1.00  0.00    +0.000 H 
ATOM    123  H25 UNL A   1      28.694  -9.096  28.730  1.00  0.00    +0.000 H 
ATOM    121  H23 UNL A   1      31.646  -8.772  31.705  1.00  0.00    +0.000 H 
ENDBRANCH   17   18
ENDBRANCH   16   17
ENDBRANCH   24   16
ENDBRANCH   26   24
ENDBRANCH   27   26
ENDBRANCH   28   27
ENDBRANCH   29   28
ENDBRANCH   30   29
ENDBRANCH   31   30
ENDBRANCH   32   31
ENDBRANCH   33   32
ENDBRANCH   34   33
ENDBRANCH   36   34
ENDBRANCH   40   39
BRANCH   44   45
ATOM     45  C35 UNL A   1      24.698 -10.848  28.531  1.00  0.00    +0.000 C 
ATOM     46  C36 UNL A   1      23.679 -11.462  27.785  1.00  0.00    +0.000 C 
ATOM     47  F1  UNL A   1      23.074 -12.566  28.249  1.00  0.00    +0.000 F 
ATOM     48  C37 UNL A   1      23.312 -10.975  26.533  1.00  0.00    +0.000 C 
ATOM     49  F2  UNL A   1      22.382 -11.616  25.813  1.00  0.00    +0.000 F 
ATOM     50  C38 UNL A   1      23.924  -9.842  26.021  1.00  0.00    +0.000 C 
ATOM     51  F3  UNL A   1      23.571  -9.374  24.815  1.00  0.00    +0.000 F 
ATOM     52  C39 UNL A   1      24.910  -9.198  26.754  1.00  0.00    +0.000 C 
ATOM     53  F4  UNL A   1      25.492  -8.095  26.266  1.00  0.00    +0.000 F 
ATOM     54  C40 UNL A   1      25.303  -9.702  27.991  1.00  0.00    +0.000 C 
ATOM     55  F5  UNL A   1      26.277  -9.071  28.664  1.00  0.00    +0.000 F 
ENDBRANCH   44   45
BRANCH   61   62
ATOM     65  C48 UNL A   1      20.203 -11.254  36.376  1.00  0.00    +0.000 C 
ATOM     66  F7  UNL A   1      19.137 -12.042  36.575  1.00  0.00    +0.000 F 
ATOM     67  C49 UNL A   1      20.218  -9.967  36.893  1.00  0.00    +0.000 C 
ATOM     68  F8  UNL A   1      19.178  -9.519  37.610  1.00  0.00    +0.000 F 
ATOM     69  C50 UNL A   1      21.308  -9.143  36.660  1.00  0.00    +0.000 C 
ATOM     70  F9  UNL A   1      21.331  -7.904  37.170  1.00  0.00    +0.000 F 
ATOM     71  C51 UNL A   1      22.378  -9.599  35.896  1.00  0.00    +0.000 C 
ATOM     72  F10 UNL A   1      23.412  -8.773  35.676  1.00  0.00    +0.000 F 
ATOM     62  C46 UNL A   1      22.389 -10.901  35.372  1.00  0.00    +0.000 C 
ATOM     63  C47 UNL A   1      21.285 -11.724  35.637  1.00  0.00    +0.000 C 
ATOM     64  F6  UNL A   1      21.240 -12.972  35.145  1.00  0.00    +0.000 F 
ENDBRANCH   61   62
BRANCH   76   77
ATOM     77  C55 UNL A   1      28.088 -14.467  37.203  1.00  0.00    +0.000 C 
ATOM     78  C56 UNL A   1      27.627 -15.702  37.679  1.00  0.00    +0.000 C 
ATOM     79  F11 UNL A   1      26.708 -16.387  36.982  1.00  0.00    +0.000 F 
ATOM     80  C57 UNL A   1      28.081 -16.223  38.889  1.00  0.00    +0.000 C 
ATOM     81  F12 UNL A   1      27.595 -17.388  39.338  1.00  0.00    +0.000 F 
ATOM     82  C58 UNL A   1      29.026 -15.531  39.632  1.00  0.00    +0.000 C 
ATOM     83  F13 UNL A   1      29.469 -16.037  40.791  1.00  0.00    +0.000 F 
ATOM     84  C59 UNL A   1      29.506 -14.314  39.175  1.00  0.00    +0.000 C 
ATOM     85  F14 UNL A   1      30.429 -13.650  39.884  1.00  0.00    +0.000 F 
ATOM     86  C60 UNL A   1      29.032 -13.779  37.979  1.00  0.00    +0.000 C 
ATOM     87  F15 UNL A   1      29.508 -12.595  37.565  1.00  0.00    +0.000 F 
ENDBRANCH   76   77
TORSDOF 22
ENDMDL
MODEL 3
REMARK VINA RESULT:      -8.1     58.409     66.533
ROOT
ATOM    140  H42 UNL A   1      52.678  51.247  22.552  1.00  0.00    +0.000 H 
ATOM    141  H43 UNL A   1      53.533  53.580  21.762  1.00  0.00    +0.000 H 
ATOM    142  H44 UNL A   1      50.054  52.701  19.695  1.00  0.00    +0.000 H 
ATOM    143  H45 UNL A   1      45.812  54.181  15.157  1.00  0.00    +0.000 H 
ATOM    144  H46 UNL A   1      44.924  51.957  16.006  1.00  0.00    +0.000 H 
ATOM    145  H47 UNL A   1      48.366  52.855  18.156  1.00  0.00    +0.000 H 
ATOM    146  H48 UNL A   1      49.895  57.350  16.511  1.00  0.00    +0.000 H 
ATOM    147  H49 UNL A   1      51.908  57.095  18.071  1.00  0.00    +0.000 H 
ATOM    148  H50 UNL A   1      48.281  48.363  21.458  1.00  0.00    +0.000 H 
ATOM    149  H51 UNL A   1      46.545  48.359  19.576  1.00  0.00    +0.000 H 
ATOM     40  C31 UNL A   1      46.527  50.752  18.032  1.00  0.00    +0.000 C 
ATOM     41  C32 UNL A   1      47.497  50.363  19.113  1.00  0.00    +0.000 C 
ATOM     42  N5  UNL A   1      48.533  51.020  19.574  1.00  0.00    +0.000 N 
ATOM     43  C33 UNL A   1      49.054  50.234  20.593  1.00  0.00    +0.000 C 
ATOM     44  C34 UNL A   1      50.170  50.438  21.334  1.00  0.00    +0.000 C 
ATOM     56  C41 UNL A   1      51.040  51.577  21.188  1.00  0.00    +0.000 C 
ATOM     57  C42 UNL A   1      52.221  51.853  21.853  1.00  0.00    +0.000 C 
ATOM     58  C43 UNL A   1      52.688  53.098  21.416  1.00  0.00    +0.000 C 
ATOM     59  C44 UNL A   1      51.827  53.572  20.440  1.00  0.00    +0.000 C 
ATOM     60  N6  UNL A   1      50.817  52.631  20.314  1.00  0.00    +0.000 N 
ATOM     61  C45 UNL A   1      51.916  54.793  19.680  1.00  0.00    +0.000 C 
ATOM     73  C52 UNL A   1      51.035  55.183  18.726  1.00  0.00    +0.000 C 
ATOM     74  N7  UNL A   1      49.896  54.531  18.272  1.00  0.00    +0.000 N 
ATOM     75  C53 UNL A   1      49.377  55.309  17.353  1.00  0.00    +0.000 C 
ATOM     76  C54 UNL A   1      48.156  55.093  16.503  1.00  0.00    +0.000 C 
ATOM     88  C61 UNL A   1      47.437  53.965  16.660  1.00  0.00    +0.000 C 
ATOM     89  C62 UNL A   1      46.237  53.613  15.906  1.00  0.00    +0.000 C 
ATOM     90  C63 UNL A   1      45.775  52.432  16.347  1.00  0.00    +0.000 C 
ATOM     91  C64 UNL A   1      46.671  51.924  17.387  1.00  0.00    +0.000 C 
ATOM     92  N8  UNL A   1      47.622  52.906  17.514  1.00  0.00    +0.000 N 
ATOM     93  C65 UNL A   1      50.114  56.563  17.142  1.00  0.00    +0.000 C 
ATOM     94  C66 UNL A   1      51.137  56.416  17.973  1.00  0.00    +0.000 C 
ATOM     95  C67 UNL A   1      48.187  49.084  20.726  1.00  0.00    +0.000 C 
ATOM     96  C68 UNL A   1      47.255  49.078  19.784  1.00  0.00    +0.000 C 
ENDROOT
BRANCH   40   39
ATOM     97  C69 UNL A   1      44.157  50.053  18.390  1.00  0.00    +0.000 C 
ATOM     98  C70 UNL A   1      43.075  49.216  18.129  1.00  0.00    +0.000 C 
ATOM     36  C27 UNL A   1      43.159  48.264  17.109  1.00  0.00    +0.000 C 
ATOM     37  C28 UNL A   1      44.371  48.064  16.442  1.00  0.00    +0.000 C 
ATOM     38  C29 UNL A   1      45.480  48.851  16.758  1.00  0.00    +0.000 C 
ATOM     39  C30 UNL A   1      45.373  49.873  17.714  1.00  0.00    +0.000 C 
ATOM    138  H40 UNL A   1      44.446  47.335  15.715  1.00  0.00    +0.000 H 
ATOM    139  H41 UNL A   1      46.382  48.682  16.287  1.00  0.00    +0.000 H 
ATOM    150  H52 UNL A   1      44.063  50.811  19.084  1.00  0.00    +0.000 H 
ATOM    151  H53 UNL A   1      42.211  49.298  18.688  1.00  0.00    +0.000 H 
BRANCH   36   34
ATOM     34  C26 UNL A   1      41.995  47.430  16.732  1.00  0.00    +0.000 C 
ATOM     35  O5  UNL A   1      41.329  47.730  15.745  1.00  0.00    +0.000 O 
BRANCH   34   33
ATOM     33  N4  UNL A   1      41.645  46.340  17.487  1.00  0.00    +0.000 N 
ATOM    137  H39 UNL A   1      40.728  46.012  17.347  1.00  0.00    +0.000 H 
BRANCH   33   32
ATOM    136  H38 UNL A   1      41.742  45.003  19.036  1.00  0.00    +0.000 H 
ATOM    135  H37 UNL A   1      42.958  46.289  19.076  1.00  0.00    +0.000 H 
ATOM     32  C25 UNL A   1      42.423  45.595  18.462  1.00  0.00    +0.000 C 
BRANCH   32   31
ATOM    133  H35 UNL A   1      43.130  43.646  18.047  1.00  0.00    +0.000 H 
ATOM    134  H36 UNL A   1      43.399  44.866  16.764  1.00  0.00    +0.000 H 
ATOM     31  C24 UNL A   1      43.423  44.648  17.811  1.00  0.00    +0.000 C 
BRANCH   31   30
ATOM    131  H33 UNL A   1      45.208  43.909  18.681  1.00  0.00    +0.000 H 
ATOM    132  H34 UNL A   1      45.411  45.114  17.364  1.00  0.00    +0.000 H 
ATOM     30  C23 UNL A   1      44.879  44.829  18.248  1.00  0.00    +0.000 C 
BRANCH   30   29
ATOM    129  H31 UNL A   1      45.235  46.867  18.724  1.00  0.00    +0.000 H 
ATOM    130  H32 UNL A   1      44.316  45.919  19.944  1.00  0.00    +0.000 H 
ATOM     29  C22 UNL A   1      45.142  45.948  19.265  1.00  0.00    +0.000 C 
BRANCH   29   28
ATOM     28  C21 UNL A   1      46.395  45.791  20.136  1.00  0.00    +0.000 C 
ATOM    127  H29 UNL A   1      47.232  46.176  19.591  1.00  0.00    +0.000 H 
ATOM    128  H30 UNL A   1      46.204  46.326  21.043  1.00  0.00    +0.000 H 
BRANCH   28   27
ATOM     27  C20 UNL A   1      46.709  44.356  20.538  1.00  0.00    +0.000 C 
ATOM    125  H27 UNL A   1      45.789  43.851  20.741  1.00  0.00    +0.000 H 
ATOM    126  H28 UNL A   1      47.245  43.910  19.725  1.00  0.00    +0.000 H 
BRANCH   27   26
ATOM     26  N3  UNL A   1      47.554  44.260  21.710  1.00  0.00    +0.000 N 
ATOM    124  H26 UNL A   1      48.327  43.651  21.692  1.00  0.00    +0.000 H 
BRANCH   26   24
ATOM     25  O4  UNL A   1      48.025  45.976  23.062  1.00  0.00    +0.000 O 
ATOM     24  C19 UNL A   1      47.307  44.992  22.848  1.00  0.00    +0.000 C 
BRANCH   24   16
ATOM    116  H18 UNL A   1      46.197  43.504  23.833  1.00  0.00    +0.000 H 
ATOM     16  C11 UNL A   1      46.199  44.574  23.862  1.00  0.00    +0.000 C 
BRANCH   16   15
ATOM    115  H17 UNL A   1      46.646  45.775  25.527  1.00  0.00    +0.000 H 
ATOM     15  N2  UNL A   1      46.468  44.837  25.288  1.00  0.00    +0.000 N 
BRANCH   15   13
ATOM     13  C10 UNL A   1      46.498  43.939  26.322  1.00  0.00    +0.000 C 
ATOM     14  O3  UNL A   1      45.433  43.695  26.896  1.00  0.00    +0.000 O 
BRANCH   13   12
ATOM      8  N1  UNL A   1      48.500  42.594  25.570  1.00  0.00    +0.000 N 
ATOM      9  C6  UNL A   1      49.841  43.102  25.384  1.00  0.00    +0.000 C 
ATOM     10  C7  UNL A   1      50.184  43.741  26.717  1.00  0.00    +0.000 C 
ATOM     11  C8  UNL A   1      48.837  44.242  27.230  1.00  0.00    +0.000 C 
ATOM     12  C9  UNL A   1      47.814  43.220  26.700  1.00  0.00    +0.000 C 
ATOM    108  H10 UNL A   1      49.867  43.827  24.598  1.00  0.00    +0.000 H 
ATOM    109  H11 UNL A   1      50.535  42.337  25.105  1.00  0.00    +0.000 H 
ATOM    110  H12 UNL A   1      50.870  44.551  26.588  1.00  0.00    +0.000 H 
ATOM    111  H13 UNL A   1      50.660  43.062  27.394  1.00  0.00    +0.000 H 
ATOM    112  H14 UNL A   1      48.628  45.220  26.847  1.00  0.00    +0.000 H 
ATOM    114  H16 UNL A   1      47.515  42.479  27.411  1.00  0.00    +0.000 H 
ATOM    113  H15 UNL A   1      48.814  44.324  28.296  1.00  0.00    +0.000 H 
BRANCH    8    6
ATOM      6  C5  UNL A   1      47.952  41.502  24.955  1.00  0.00    +0.000 C 
ATOM      7  O2  UNL A   1      47.861  41.424  23.743  1.00  0.00    +0.000 O 
BRANCH    6    5
ATOM      1  C1  UNL A   1      47.294  38.433  26.825  1.00  0.00    +0.000 C 
ATOM      2  C2  UNL A   1      48.247  39.390  26.096  1.00  0.00    +0.000 C 
ATOM     99  H1  UNL A   1      47.812  37.528  27.066  1.00  0.00    +0.000 H 
ATOM    100  H2  UNL A   1      46.460  38.210  26.192  1.00  0.00    +0.000 H 
ATOM    101  H3  UNL A   1      46.945  38.894  27.725  1.00  0.00    +0.000 H 
ATOM      3  C3  UNL A   1      49.409  39.755  27.027  1.00  0.00    +0.000 C 
ATOM      4  C4  UNL A   1      48.744  38.666  24.830  1.00  0.00    +0.000 C 
ATOM      5  O1  UNL A   1      47.455  40.578  25.816  1.00  0.00    +0.000 O 
ATOM    102  H4  UNL A   1      49.990  38.879  27.231  1.00  0.00    +0.000 H 
ATOM    103  H5  UNL A   1      49.021  40.148  27.943  1.00  0.00    +0.000 H 
ATOM    104  H6  UNL A   1      50.026  40.490  26.556  1.00  0.00    +0.000 H 
ATOM    105  H7  UNL A   1      49.316  37.807  25.112  1.00  0.00    +0.000 H 
ATOM    106  H8  UNL A   1      49.356  39.330  24.256  1.00  0.00    +0.000 H 
ATOM    107  H9  UNL A   1      47.903  38.358  24.243  1.00  0.00    +0.000 H 
ENDBRANCH    6    5
ENDBRANCH    8    6
ENDBRANCH   13   12
ENDBRANCH   15   13
ENDBRANCH   16   15
BRANCH   16   17
ATOM     17  C12 UNL A   1      44.823  45.103  23.403  1.00  0.00    +0.000 C 
ATOM    117  H19 UNL A   1      44.976  45.698  22.526  1.00  0.00    +0.000 H 
ATOM    118  H20 UNL A   1      44.429  45.647  24.236  1.00  0.00    +0.000 H 
BRANCH   17   18
ATOM     18  C13 UNL A   1      43.787  44.053  23.075  1.00  0.00    +0.000 C 
ATOM     19  C14 UNL A   1      43.317  43.907  21.762  1.00  0.00    +0.000 C 
ATOM     20  C15 UNL A   1      42.304  42.993  21.467  1.00  0.00    +0.000 C 
ATOM     21  C16 UNL A   1      41.776  42.191  22.476  1.00  0.00    +0.000 C 
ATOM     22  C17 UNL A   1      42.269  42.295  23.776  1.00  0.00    +0.000 C 
ATOM     23  C18 UNL A   1      43.268  43.224  24.077  1.00  0.00    +0.000 C 
ATOM    119  H21 UNL A   1      43.722  44.482  21.006  1.00  0.00    +0.000 H 
ATOM    120  H22 UNL A   1      41.947  42.911  20.502  1.00  0.00    +0.000 H 
ATOM    122  H24 UNL A   1      41.894  41.684  24.518  1.00  0.00    +0.000 H 
ATOM    123  H25 UNL A   1      43.623  43.300  25.042  1.00  0.00    +0.000 H 
ATOM    121  H23 UNL A   1      41.021  41.521  22.262  1.00  0.00    +0.000 H 
ENDBRANCH   17   18
ENDBRANCH   16   17
ENDBRANCH   24   16
ENDBRANCH   26   24
ENDBRANCH   27   26
ENDBRANCH   28   27
ENDBRANCH   29   28
ENDBRANCH   30   29
ENDBRANCH   31   30
ENDBRANCH   32   31
ENDBRANCH   33   32
ENDBRANCH   34   33
ENDBRANCH   36   34
ENDBRANCH   40   39
BRANCH   44   45
ATOM     45  C35 UNL A   1      50.506  49.405  22.372  1.00  0.00    +0.000 C 
ATOM     46  C36 UNL A   1      51.253  48.259  22.055  1.00  0.00    +0.000 C 
ATOM     47  F1  UNL A   1      51.674  48.055  20.797  1.00  0.00    +0.000 F 
ATOM     48  C37 UNL A   1      51.527  47.290  23.016  1.00  0.00    +0.000 C 
ATOM     49  F2  UNL A   1      52.185  46.175  22.674  1.00  0.00    +0.000 F 
ATOM     50  C38 UNL A   1      51.097  47.467  24.323  1.00  0.00    +0.000 C 
ATOM     51  F3  UNL A   1      51.360  46.533  25.248  1.00  0.00    +0.000 F 
ATOM     52  C39 UNL A   1      50.387  48.607  24.668  1.00  0.00    +0.000 C 
ATOM     53  F4  UNL A   1      49.984  48.785  25.933  1.00  0.00    +0.000 F 
ATOM     54  C40 UNL A   1      50.082  49.561  23.701  1.00  0.00    +0.000 C 
ATOM     55  F5  UNL A   1      49.372  50.641  24.062  1.00  0.00    +0.000 F 
ENDBRANCH   44   45
BRANCH   61   62
ATOM     65  C48 UNL A   1      55.366  56.413  19.482  1.00  0.00    +0.000 C 
ATOM     66  F7  UNL A   1      56.524  56.235  18.832  1.00  0.00    +0.000 F 
ATOM     67  C49 UNL A   1      55.243  57.437  20.409  1.00  0.00    +0.000 C 
ATOM     68  F8  UNL A   1      56.274  58.261  20.640  1.00  0.00    +0.000 F 
ATOM     69  C50 UNL A   1      54.054  57.601  21.103  1.00  0.00    +0.000 C 
ATOM     70  F9  UNL A   1      53.928  58.598  21.989  1.00  0.00    +0.000 F 
ATOM     71  C51 UNL A   1      52.990  56.732  20.882  1.00  0.00    +0.000 C 
ATOM     72  F10 UNL A   1      51.857  56.906  21.578  1.00  0.00    +0.000 F 
ATOM     62  C46 UNL A   1      53.088  55.695  19.940  1.00  0.00    +0.000 C 
ATOM     63  C47 UNL A   1      54.294  55.559  19.236  1.00  0.00    +0.000 C 
ATOM     64  F6  UNL A   1      54.443  54.574  18.337  1.00  0.00    +0.000 F 
ENDBRANCH   61   62
BRANCH   76   77
ATOM     77  C55 UNL A   1      47.758  56.083  15.470  1.00  0.00    +0.000 C 
ATOM     78  C56 UNL A   1      48.090  55.883  14.123  1.00  0.00    +0.000 C 
ATOM     79  F11 UNL A   1      48.800  54.804  13.762  1.00  0.00    +0.000 F 
ATOM     80  C57 UNL A   1      47.725  56.807  13.146  1.00  0.00    +0.000 C 
ATOM     81  F12 UNL A   1      48.087  56.609  11.872  1.00  0.00    +0.000 F 
ATOM     82  C58 UNL A   1      46.996  57.935  13.493  1.00  0.00    +0.000 C 
ATOM     83  F13 UNL A   1      46.637  58.818  12.552  1.00  0.00    +0.000 F 
ATOM     84  C59 UNL A   1      46.645  58.148  14.817  1.00  0.00    +0.000 C 
ATOM     85  F14 UNL A   1      45.930  59.229  15.154  1.00  0.00    +0.000 F 
ATOM     86  C60 UNL A   1      47.034  57.239  15.799  1.00  0.00    +0.000 C 
ATOM     87  F15 UNL A   1      46.688  57.474  17.074  1.00  0.00    +0.000 F 
ENDBRANCH   76   77
TORSDOF 22
ENDMDL
MODEL 4
REMARK VINA RESULT:      -8.0     57.105     64.181
ROOT
ATOM    140  H42 UNL A   1      43.706  45.498  20.441  1.00  0.00    +0.000 H 
ATOM    141  H43 UNL A   1      44.640  44.321  22.571  1.00  0.00    +0.000 H 
ATOM    142  H44 UNL A   1      47.784  44.958  19.953  1.00  0.00    +0.000 H 
ATOM    143  H45 UNL A   1      53.929  44.154  18.414  1.00  0.00    +0.000 H 
ATOM    144  H46 UNL A   1      53.035  45.398  16.386  1.00  0.00    +0.000 H 
ATOM    145  H47 UNL A   1      49.878  44.848  19.035  1.00  0.00    +0.000 H 
ATOM    146  H48 UNL A   1      51.829  42.559  23.060  1.00  0.00    +0.000 H 
ATOM    147  H49 UNL A   1      49.453  42.478  24.008  1.00  0.00    +0.000 H 
ATOM    148  H50 UNL A   1      46.008  47.492  16.016  1.00  0.00    +0.000 H 
ATOM    149  H51 UNL A   1      48.255  47.151  14.838  1.00  0.00    +0.000 H 
ATOM     40  C31 UNL A   1      50.239  45.948  16.489  1.00  0.00    +0.000 C 
ATOM     41  C32 UNL A   1      48.787  46.165  16.809  1.00  0.00    +0.000 C 
ATOM     42  N5  UNL A   1      48.120  45.852  17.893  1.00  0.00    +0.000 N 
ATOM     43  C33 UNL A   1      46.827  46.313  17.685  1.00  0.00    +0.000 C 
ATOM     44  C34 UNL A   1      45.739  46.170  18.480  1.00  0.00    +0.000 C 
ATOM     56  C41 UNL A   1      45.749  45.490  19.750  1.00  0.00    +0.000 C 
ATOM     57  C42 UNL A   1      44.692  45.245  20.608  1.00  0.00    +0.000 C 
ATOM     58  C43 UNL A   1      45.192  44.598  21.744  1.00  0.00    +0.000 C 
ATOM     59  C44 UNL A   1      46.550  44.391  21.569  1.00  0.00    +0.000 C 
ATOM     60  N6  UNL A   1      46.880  44.948  20.343  1.00  0.00    +0.000 N 
ATOM     61  C45 UNL A   1      47.480  43.736  22.455  1.00  0.00    +0.000 C 
ATOM     73  C52 UNL A   1      48.801  43.559  22.204  1.00  0.00    +0.000 C 
ATOM     74  N7  UNL A   1      49.537  43.943  21.091  1.00  0.00    +0.000 N 
ATOM     75  C53 UNL A   1      50.769  43.559  21.323  1.00  0.00    +0.000 C 
ATOM     76  C54 UNL A   1      51.985  43.686  20.448  1.00  0.00    +0.000 C 
ATOM     88  C61 UNL A   1      51.870  44.277  19.243  1.00  0.00    +0.000 C 
ATOM     89  C62 UNL A   1      52.954  44.466  18.284  1.00  0.00    +0.000 C 
ATOM     90  C63 UNL A   1      52.479  45.112  17.208  1.00  0.00    +0.000 C 
ATOM     91  C64 UNL A   1      51.045  45.347  17.385  1.00  0.00    +0.000 C 
ATOM     92  N8  UNL A   1      50.774  44.828  18.627  1.00  0.00    +0.000 N 
ATOM     93  C65 UNL A   1      50.960  42.913  22.629  1.00  0.00    +0.000 C 
ATOM     94  C66 UNL A   1      49.724  42.901  23.107  1.00  0.00    +0.000 C 
ATOM     95  C67 UNL A   1      46.816  46.981  16.402  1.00  0.00    +0.000 C 
ATOM     96  C68 UNL A   1      47.983  46.850  15.787  1.00  0.00    +0.000 C 
ENDROOT
BRANCH   40   39
ATOM     97  C69 UNL A   1      51.241  47.779  15.118  1.00  0.00    +0.000 C 
ATOM     98  C70 UNL A   1      51.742  48.274  13.917  1.00  0.00    +0.000 C 
ATOM     36  C27 UNL A   1      51.920  47.417  12.828  1.00  0.00    +0.000 C 
ATOM     37  C28 UNL A   1      51.472  46.094  12.903  1.00  0.00    +0.000 C 
ATOM     38  C29 UNL A   1      50.898  45.619  14.083  1.00  0.00    +0.000 C 
ATOM     39  C30 UNL A   1      50.805  46.449  15.211  1.00  0.00    +0.000 C 
ATOM    138  H40 UNL A   1      51.567  45.470  12.086  1.00  0.00    +0.000 H 
ATOM    139  H41 UNL A   1      50.540  44.651  14.127  1.00  0.00    +0.000 H 
ATOM    150  H52 UNL A   1      51.191  48.394  15.945  1.00  0.00    +0.000 H 
ATOM    151  H53 UNL A   1      51.982  49.275  13.831  1.00  0.00    +0.000 H 
BRANCH   36   34
ATOM     34  C26 UNL A   1      52.548  47.884  11.571  1.00  0.00    +0.000 C 
ATOM     35  O5  UNL A   1      53.764  48.045  11.524  1.00  0.00    +0.000 O 
BRANCH   34   33
ATOM     33  N4  UNL A   1      51.780  48.155  10.467  1.00  0.00    +0.000 N 
ATOM    137  H39 UNL A   1      51.641  49.111  10.280  1.00  0.00    +0.000 H 
BRANCH   33   32
ATOM    136  H38 UNL A   1      51.580  46.278   9.668  1.00  0.00    +0.000 H 
ATOM    135  H37 UNL A   1      51.294  47.610   8.538  1.00  0.00    +0.000 H 
ATOM     32  C25 UNL A   1      51.141  47.245   9.532  1.00  0.00    +0.000 C 
BRANCH   32   31
ATOM    133  H35 UNL A   1      49.193  46.742   8.880  1.00  0.00    +0.000 H 
ATOM    134  H36 UNL A   1      49.539  46.449  10.613  1.00  0.00    +0.000 H 
ATOM     31  C24 UNL A   1      49.644  47.111   9.778  1.00  0.00    +0.000 C 
BRANCH   31   30
ATOM    131  H33 UNL A   1      49.570  49.222   9.931  1.00  0.00    +0.000 H 
ATOM    132  H34 UNL A   1      48.003  48.397   9.630  1.00  0.00    +0.000 H 
ATOM     30  C23 UNL A   1      48.925  48.404  10.172  1.00  0.00    +0.000 C 
BRANCH   30   29
ATOM    129  H31 UNL A   1      47.573  48.077  11.775  1.00  0.00    +0.000 H 
ATOM    130  H32 UNL A   1      49.321  48.061  12.199  1.00  0.00    +0.000 H 
ATOM     29  C22 UNL A   1      48.533  48.534  11.650  1.00  0.00    +0.000 C 
BRANCH   29   28
ATOM     28  C21 UNL A   1      48.447  49.962  12.205  1.00  0.00    +0.000 C 
ATOM    127  H29 UNL A   1      47.939  49.925  13.146  1.00  0.00    +0.000 H 
ATOM    128  H30 UNL A   1      49.453  50.318  12.287  1.00  0.00    +0.000 H 
BRANCH   28   27
ATOM     27  C20 UNL A   1      47.711  50.946  11.306  1.00  0.00    +0.000 C 
ATOM    125  H27 UNL A   1      48.388  51.289  10.552  1.00  0.00    +0.000 H 
ATOM    126  H28 UNL A   1      46.872  50.427  10.889  1.00  0.00    +0.000 H 
BRANCH   27   26
ATOM     26  N3  UNL A   1      47.193  52.097  12.016  1.00  0.00    +0.000 N 
ATOM    124  H26 UNL A   1      46.232  52.302  11.954  1.00  0.00    +0.000 H 
BRANCH   26   24
ATOM     25  O4  UNL A   1      48.941  53.477  12.199  1.00  0.00    +0.000 O 
ATOM     24  C19 UNL A   1      48.003  52.911  12.773  1.00  0.00    +0.000 C 
BRANCH   24   16
ATOM    116  H18 UNL A   1      48.761  52.979  14.732  1.00  0.00    +0.000 H 
ATOM     16  C11 UNL A   1      47.784  53.078  14.307  1.00  0.00    +0.000 C 
BRANCH   16   15
ATOM    115  H17 UNL A   1      47.134  55.064  14.081  1.00  0.00    +0.000 H 
ATOM     15  N2  UNL A   1      47.384  54.417  14.780  1.00  0.00    +0.000 N 
BRANCH   15   13
ATOM     13  C10 UNL A   1      47.317  54.873  16.071  1.00  0.00    +0.000 C 
ATOM     14  O3  UNL A   1      46.201  55.163  16.513  1.00  0.00    +0.000 O 
BRANCH   13   12
ATOM      8  N1  UNL A   1      48.731  56.203  17.687  1.00  0.00    +0.000 N 
ATOM      9  C6  UNL A   1      48.808  55.995  19.115  1.00  0.00    +0.000 C 
ATOM     10  C7  UNL A   1      49.189  54.534  19.258  1.00  0.00    +0.000 C 
ATOM     11  C8  UNL A   1      48.539  53.875  18.045  1.00  0.00    +0.000 C 
ATOM     12  C9  UNL A   1      48.590  54.952  16.943  1.00  0.00    +0.000 C 
ATOM    108  H10 UNL A   1      47.862  56.188  19.579  1.00  0.00    +0.000 H 
ATOM    109  H11 UNL A   1      49.509  56.650  19.589  1.00  0.00    +0.000 H 
ATOM    110  H12 UNL A   1      48.803  54.124  20.168  1.00  0.00    +0.000 H 
ATOM    111  H13 UNL A   1      50.247  54.382  19.296  1.00  0.00    +0.000 H 
ATOM    112  H14 UNL A   1      47.527  53.603  18.261  1.00  0.00    +0.000 H 
ATOM    114  H16 UNL A   1      49.394  54.839  16.248  1.00  0.00    +0.000 H 
ATOM    113  H15 UNL A   1      49.039  52.975  17.756  1.00  0.00    +0.000 H 
BRANCH    8    6
ATOM      6  C5  UNL A   1      48.983  57.371  17.021  1.00  0.00    +0.000 C 
ATOM      7  O2  UNL A   1      50.116  57.779  16.842  1.00  0.00    +0.000 O 
BRANCH    6    5
ATOM      1  C1  UNL A   1      46.182  59.714  16.900  1.00  0.00    +0.000 C 
ATOM      2  C2  UNL A   1      47.637  59.369  17.243  1.00  0.00    +0.000 C 
ATOM     99  H1  UNL A   1      45.940  60.678  17.296  1.00  0.00    +0.000 H 
ATOM    100  H2  UNL A   1      45.530  58.979  17.326  1.00  0.00    +0.000 H 
ATOM    101  H3  UNL A   1      46.058  59.725  15.837  1.00  0.00    +0.000 H 
ATOM      3  C3  UNL A   1      48.569  60.389  16.581  1.00  0.00    +0.000 C 
ATOM      4  C4  UNL A   1      47.765  59.400  18.778  1.00  0.00    +0.000 C 
ATOM      5  O1  UNL A   1      47.864  58.053  16.665  1.00  0.00    +0.000 O 
ATOM    102  H4  UNL A   1      48.400  61.356  17.008  1.00  0.00    +0.000 H 
ATOM    103  H5  UNL A   1      48.371  60.423  15.531  1.00  0.00    +0.000 H 
ATOM    104  H6  UNL A   1      49.586  60.100  16.743  1.00  0.00    +0.000 H 
ATOM    105  H7  UNL A   1      47.586  60.394  19.131  1.00  0.00    +0.000 H 
ATOM    106  H8  UNL A   1      48.750  59.093  19.060  1.00  0.00    +0.000 H 
ATOM    107  H9  UNL A   1      47.046  58.734  19.209  1.00  0.00    +0.000 H 
ENDBRANCH    6    5
ENDBRANCH    8    6
ENDBRANCH   13   12
ENDBRANCH   15   13
ENDBRANCH   16   15
BRANCH   16   17
ATOM     17  C12 UNL A   1      46.872  51.955  14.847  1.00  0.00    +0.000 C 
ATOM    117  H19 UNL A   1      46.676  51.277  14.041  1.00  0.00    +0.000 H 
ATOM    118  H20 UNL A   1      46.000  52.446  15.225  1.00  0.00    +0.000 H 
BRANCH   17   18
ATOM     18  C13 UNL A   1      47.424  51.154  16.003  1.00  0.00    +0.000 C 
ATOM     19  C14 UNL A   1      46.625  50.883  17.123  1.00  0.00    +0.000 C 
ATOM     20  C15 UNL A   1      47.153  50.212  18.227  1.00  0.00    +0.000 C 
ATOM     21  C16 UNL A   1      48.475  49.774  18.208  1.00  0.00    +0.000 C 
ATOM     22  C17 UNL A   1      49.265  49.997  17.080  1.00  0.00    +0.000 C 
ATOM     23  C18 UNL A   1      48.744  50.686  15.983  1.00  0.00    +0.000 C 
ATOM    119  H21 UNL A   1      45.638  51.184  17.132  1.00  0.00    +0.000 H 
ATOM    120  H22 UNL A   1      46.564  50.040  19.057  1.00  0.00    +0.000 H 
ATOM    122  H24 UNL A   1      50.236  49.652  17.057  1.00  0.00    +0.000 H 
ATOM    123  H25 UNL A   1      49.336  50.854  15.155  1.00  0.00    +0.000 H 
ATOM    121  H23 UNL A   1      48.870  49.285  19.026  1.00  0.00    +0.000 H 
ENDBRANCH   17   18
ENDBRANCH   16   17
ENDBRANCH   24   16
ENDBRANCH   26   24
ENDBRANCH   27   26
ENDBRANCH   28   27
ENDBRANCH   29   28
ENDBRANCH   30   29
ENDBRANCH   31   30
ENDBRANCH   32   31
ENDBRANCH   33   32
ENDBRANCH   34   33
ENDBRANCH   36   34
ENDBRANCH   40   39
BRANCH   44   45
ATOM     45  C35 UNL A   1      44.447  46.765  17.994  1.00  0.00    +0.000 C 
ATOM     46  C36 UNL A   1      44.021  48.037  18.408  1.00  0.00    +0.000 C 
ATOM     47  F1  UNL A   1      44.764  48.751  19.268  1.00  0.00    +0.000 F 
ATOM     48  C37 UNL A   1      42.805  48.562  17.980  1.00  0.00    +0.000 C 
ATOM     49  F2  UNL A   1      42.391  49.751  18.440  1.00  0.00    +0.000 F 
ATOM     50  C38 UNL A   1      42.010  47.846  17.099  1.00  0.00    +0.000 C 
ATOM     51  F3  UNL A   1      40.838  48.352  16.688  1.00  0.00    +0.000 F 
ATOM     52  C39 UNL A   1      42.426  46.601  16.650  1.00  0.00    +0.000 C 
ATOM     53  F4  UNL A   1      41.664  45.915  15.787  1.00  0.00    +0.000 F 
ATOM     54  C40 UNL A   1      43.625  46.059  17.102  1.00  0.00    +0.000 C 
ATOM     55  F5  UNL A   1      43.986  44.842  16.668  1.00  0.00    +0.000 F 
ENDBRANCH   44   45
BRANCH   61   62
ATOM     65  C48 UNL A   1      46.147  41.319  25.089  1.00  0.00    +0.000 C 
ATOM     66  F7  UNL A   1      45.805  40.027  25.187  1.00  0.00    +0.000 F 
ATOM     67  C49 UNL A   1      46.003  42.157  26.184  1.00  0.00    +0.000 C 
ATOM     68  F8  UNL A   1      45.544  41.672  27.346  1.00  0.00    +0.000 F 
ATOM     69  C50 UNL A   1      46.328  43.500  26.073  1.00  0.00    +0.000 C 
ATOM     70  F9  UNL A   1      46.203  44.309  27.134  1.00  0.00    +0.000 F 
ATOM     71  C51 UNL A   1      46.782  44.011  24.861  1.00  0.00    +0.000 C 
ATOM     72  F10 UNL A   1      47.074  45.318  24.779  1.00  0.00    +0.000 F 
ATOM     62  C46 UNL A   1      46.946  43.179  23.742  1.00  0.00    +0.000 C 
ATOM     63  C47 UNL A   1      46.630  41.819  23.883  1.00  0.00    +0.000 C 
ATOM     64  F6  UNL A   1      46.754  40.986  22.839  1.00  0.00    +0.000 F 
ENDBRANCH   61   62
BRANCH   76   77
ATOM     77  C55 UNL A   1      53.296  43.133  20.876  1.00  0.00    +0.000 C 
ATOM     78  C56 UNL A   1      53.748  41.903  20.382  1.00  0.00    +0.000 C 
ATOM     79  F11 UNL A   1      52.980  41.198  19.537  1.00  0.00    +0.000 F 
ATOM     80  C57 UNL A   1      54.975  41.373  20.778  1.00  0.00    +0.000 C 
ATOM     81  F12 UNL A   1      55.366  40.178  20.318  1.00  0.00    +0.000 F 
ATOM     82  C58 UNL A   1      55.785  42.079  21.656  1.00  0.00    +0.000 C 
ATOM     83  F13 UNL A   1      56.968  41.574  22.030  1.00  0.00    +0.000 F 
ATOM     84  C59 UNL A   1      55.364  43.305  22.148  1.00  0.00    +0.000 C 
ATOM     85  F14 UNL A   1      56.151  43.994  22.985  1.00  0.00    +0.000 F 
ATOM     86  C60 UNL A   1      54.126  43.822  21.774  1.00  0.00    +0.000 C 
ATOM     87  F15 UNL A   1      53.740  45.005  22.272  1.00  0.00    +0.000 F 
ENDBRANCH   76   77
TORSDOF 22
ENDMDL
MODEL 5
REMARK VINA RESULT:      -8.0      2.703      4.347
ROOT
ATOM    140  H42 UNL A   1      22.548 -10.040  30.231  1.00  0.00    +0.000 H 
ATOM    141  H43 UNL A   1      21.756  -9.869  32.709  1.00  0.00    +0.000 H 
ATOM    142  H44 UNL A   1      25.324 -11.968  32.626  1.00  0.00    +0.000 H 
ATOM    143  H45 UNL A   1      29.800 -15.360  35.666  1.00  0.00    +0.000 H 
ATOM    144  H46 UNL A   1      30.623 -15.432  33.263  1.00  0.00    +0.000 H 
ATOM    145  H47 UNL A   1      27.087 -13.246  33.330  1.00  0.00    +0.000 H 
ATOM    146  H48 UNL A   1      25.686 -13.025  38.151  1.00  0.00    +0.000 H 
ATOM    147  H49 UNL A   1      23.595 -11.782  37.354  1.00  0.00    +0.000 H 
ATOM    148  H50 UNL A   1      26.966 -12.009  27.895  1.00  0.00    +0.000 H 
ATOM    149  H51 UNL A   1      28.793 -13.662  28.590  1.00  0.00    +0.000 H 
ATOM     40  C31 UNL A   1      28.910 -14.122  31.398  1.00  0.00    +0.000 C 
ATOM     41  C32 UNL A   1      27.884 -13.327  30.640  1.00  0.00    +0.000 C 
ATOM     42  N5  UNL A   1      26.833 -12.686  31.088  1.00  0.00    +0.000 N 
ATOM     43  C33 UNL A   1      26.255 -12.087  29.977  1.00  0.00    +0.000 C 
ATOM     44  C34 UNL A   1      25.106 -11.373  29.902  1.00  0.00    +0.000 C 
ATOM     56  C41 UNL A   1      24.255 -11.090  31.029  1.00  0.00    +0.000 C 
ATOM     57  C42 UNL A   1      23.045 -10.419  31.052  1.00  0.00    +0.000 C 
ATOM     58  C43 UNL A   1      22.612 -10.343  32.380  1.00  0.00    +0.000 C 
ATOM     59  C44 UNL A   1      23.525 -11.013  33.179  1.00  0.00    +0.000 C 
ATOM     60  N6  UNL A   1      24.531 -11.461  32.337  1.00  0.00    +0.000 N 
ATOM     61  C45 UNL A   1      23.485 -11.226  34.604  1.00  0.00    +0.000 C 
ATOM     73  C52 UNL A   1      24.416 -11.908  35.315  1.00  0.00    +0.000 C 
ATOM     74  N7  UNL A   1      25.570 -12.536  34.866  1.00  0.00    +0.000 N 
ATOM     75  C53 UNL A   1      26.142 -13.046  35.930  1.00  0.00    +0.000 C 
ATOM     76  C54 UNL A   1      27.401 -13.860  36.034  1.00  0.00    +0.000 C 
ATOM     88  C61 UNL A   1      28.100 -14.136  34.917  1.00  0.00    +0.000 C 
ATOM     89  C62 UNL A   1      29.333 -14.917  34.859  1.00  0.00    +0.000 C 
ATOM     90  C63 UNL A   1      29.761 -14.965  33.588  1.00  0.00    +0.000 C 
ATOM     91  C64 UNL A   1      28.810 -14.252  32.735  1.00  0.00    +0.000 C 
ATOM     92  N8  UNL A   1      27.863 -13.783  33.612  1.00  0.00    +0.000 N 
ATOM     93  C65 UNL A   1      25.427 -12.770  37.184  1.00  0.00    +0.000 C 
ATOM     94  C66 UNL A   1      24.364 -12.111  36.749  1.00  0.00    +0.000 C 
ATOM     95  C67 UNL A   1      27.103 -12.388  28.845  1.00  0.00    +0.000 C 
ATOM     96  C68 UNL A   1      28.080 -13.214  29.187  1.00  0.00    +0.000 C 
ENDROOT
BRANCH   40   39
ATOM     97  C69 UNL A   1      29.858 -15.716  29.727  1.00  0.00    +0.000 C 
ATOM     98  C70 UNL A   1      30.938 -16.308  29.075  1.00  0.00    +0.000 C 
ATOM     36  C27 UNL A   1      32.232 -15.826  29.290  1.00  0.00    +0.000 C 
ATOM     37  C28 UNL A   1      32.457 -14.841  30.256  1.00  0.00    +0.000 C 
ATOM     38  C29 UNL A   1      31.382 -14.303  30.967  1.00  0.00    +0.000 C 
ATOM     39  C30 UNL A   1      30.070 -14.715  30.686  1.00  0.00    +0.000 C 
ATOM    138  H40 UNL A   1      33.417 -14.511  30.444  1.00  0.00    +0.000 H 
ATOM    139  H41 UNL A   1      31.553 -13.598  31.701  1.00  0.00    +0.000 H 
ATOM    150  H52 UNL A   1      28.897 -16.017  29.502  1.00  0.00    +0.000 H 
ATOM    151  H53 UNL A   1      30.782 -17.101  28.434  1.00  0.00    +0.000 H 
BRANCH   36   34
ATOM     34  C26 UNL A   1      33.390 -16.358  28.536  1.00  0.00    +0.000 C 
ATOM     35  O5  UNL A   1      33.993 -17.338  28.963  1.00  0.00    +0.000 O 
BRANCH   34   33
ATOM     33  N4  UNL A   1      33.804 -15.753  27.376  1.00  0.00    +0.000 N 
ATOM    137  H39 UNL A   1      34.703 -16.009  27.070  1.00  0.00    +0.000 H 
BRANCH   33   32
ATOM    136  H38 UNL A   1      32.068 -14.988  26.604  1.00  0.00    +0.000 H 
ATOM    135  H37 UNL A   1      33.471 -14.900  25.528  1.00  0.00    +0.000 H 
ATOM     32  C25 UNL A   1      33.117 -14.791  26.532  1.00  0.00    +0.000 C 
BRANCH   32   31
ATOM    133  H35 UNL A   1      34.047 -13.367  27.788  1.00  0.00    +0.000 H 
ATOM    134  H36 UNL A   1      33.703 -12.829  26.114  1.00  0.00    +0.000 H 
ATOM     31  C24 UNL A   1      33.348 -13.352  26.978  1.00  0.00    +0.000 C 
BRANCH   31   30
ATOM    131  H33 UNL A   1      31.700 -12.075  26.603  1.00  0.00    +0.000 H 
ATOM    132  H34 UNL A   1      31.446 -13.349  27.843  1.00  0.00    +0.000 H 
ATOM     30  C23 UNL A   1      32.099 -12.601  27.444  1.00  0.00    +0.000 C 
BRANCH   30   29
ATOM    129  H31 UNL A   1      32.992 -12.017  29.278  1.00  0.00    +0.000 H 
ATOM    130  H32 UNL A   1      32.660 -10.696  28.104  1.00  0.00    +0.000 H 
ATOM     29  C22 UNL A   1      32.306 -11.587  28.578  1.00  0.00    +0.000 C 
BRANCH   29   28
ATOM     28  C21 UNL A   1      31.049 -11.170  29.351  1.00  0.00    +0.000 C 
ATOM    127  H29 UNL A   1      30.250 -11.824  29.070  1.00  0.00    +0.000 H 
ATOM    128  H30 UNL A   1      31.296 -11.234  30.391  1.00  0.00    +0.000 H 
BRANCH   28   27
ATOM     27  C20 UNL A   1      30.600  -9.737  29.101  1.00  0.00    +0.000 C 
ATOM    125  H27 UNL A   1      30.446  -9.259  30.045  1.00  0.00    +0.000 H 
ATOM    126  H28 UNL A   1      31.368  -9.260  28.527  1.00  0.00    +0.000 H 
BRANCH   27   26
ATOM     26  N3  UNL A   1      29.374  -9.644  28.335  1.00  0.00    +0.000 N 
ATOM    124  H26 UNL A   1      28.522  -9.883  28.768  1.00  0.00    +0.000 H 
BRANCH   26   24
ATOM     25  O4  UNL A   1      28.691  -8.235  26.741  1.00  0.00    +0.000 O 
ATOM     24  C19 UNL A   1      29.364  -9.233  27.023  1.00  0.00    +0.000 C 
BRANCH   24   16
ATOM    116  H18 UNL A   1      30.616 -10.817  26.441  1.00  0.00    +0.000 H 
ATOM     16  C11 UNL A   1      30.129 -10.022  25.917  1.00  0.00    +0.000 C 
BRANCH   16   15
ATOM    115  H17 UNL A   1      28.750 -10.215  24.343  1.00  0.00    +0.000 H 
ATOM     15  N2  UNL A   1      29.309 -10.763  24.940  1.00  0.00    +0.000 N 
BRANCH   15   13
ATOM     13  C10 UNL A   1      29.228 -12.119  24.759  1.00  0.00    +0.000 C 
ATOM     14  O3  UNL A   1      28.775 -12.791  25.690  1.00  0.00    +0.000 O 
BRANCH   13   12
ATOM      8  N1  UNL A   1      28.542 -12.857  22.443  1.00  0.00    +0.000 N 
ATOM      9  C6  UNL A   1      28.824 -12.156  21.211  1.00  0.00    +0.000 C 
ATOM     10  C7  UNL A   1      30.332 -11.987  21.217  1.00  0.00    +0.000 C 
ATOM     11  C8  UNL A   1      30.672 -11.867  22.700  1.00  0.00    +0.000 C 
ATOM     12  C9  UNL A   1      29.633 -12.756  23.411  1.00  0.00    +0.000 C 
ATOM    108  H10 UNL A   1      28.336 -11.204  21.195  1.00  0.00    +0.000 H 
ATOM    109  H11 UNL A   1      28.474 -12.683  20.348  1.00  0.00    +0.000 H 
ATOM    110  H12 UNL A   1      30.621 -11.105  20.686  1.00  0.00    +0.000 H 
ATOM    111  H13 UNL A   1      30.843 -12.796  20.738  1.00  0.00    +0.000 H 
ATOM    112  H14 UNL A   1      30.585 -10.851  23.025  1.00  0.00    +0.000 H 
ATOM    114  H16 UNL A   1      29.988 -13.730  23.675  1.00  0.00    +0.000 H 
ATOM    113  H15 UNL A   1      31.676 -12.167  22.912  1.00  0.00    +0.000 H 
BRANCH    8    6
ATOM      6  C5  UNL A   1      27.506 -13.723  22.666  1.00  0.00    +0.000 C 
ATOM      7  O2  UNL A   1      27.687 -14.845  23.103  1.00  0.00    +0.000 O 
BRANCH    6    5
ATOM      1  C1  UNL A   1      24.111 -12.373  22.615  1.00  0.00    +0.000 C 
ATOM      2  C2  UNL A   1      25.508 -12.486  23.240  1.00  0.00    +0.000 C 
ATOM     99  H1  UNL A   1      23.470 -11.823  23.271  1.00  0.00    +0.000 H 
ATOM    100  H2  UNL A   1      23.709 -13.353  22.461  1.00  0.00    +0.000 H 
ATOM    101  H3  UNL A   1      24.180 -11.865  21.676  1.00  0.00    +0.000 H 
ATOM      3  C3  UNL A   1      26.105 -11.085  23.403  1.00  0.00    +0.000 C 
ATOM      4  C4  UNL A   1      25.346 -13.193  24.599  1.00  0.00    +0.000 C 
ATOM      5  O1  UNL A   1      26.297 -13.243  22.279  1.00  0.00    +0.000 O 
ATOM    102  H4  UNL A   1      25.523 -10.530  24.110  1.00  0.00    +0.000 H 
ATOM    103  H5  UNL A   1      26.095 -10.580  22.460  1.00  0.00    +0.000 H 
ATOM    104  H6  UNL A   1      27.112 -11.164  23.754  1.00  0.00    +0.000 H 
ATOM    105  H7  UNL A   1      24.758 -12.581  25.251  1.00  0.00    +0.000 H 
ATOM    106  H8  UNL A   1      26.309 -13.355  25.035  1.00  0.00    +0.000 H 
ATOM    107  H9  UNL A   1      24.856 -14.134  24.455  1.00  0.00    +0.000 H 
ENDBRANCH    6    5
ENDBRANCH    8    6
ENDBRANCH   13   12
ENDBRANCH   15   13
ENDBRANCH   16   15
BRANCH   16   17
ATOM     17  C12 UNL A   1      31.189  -9.120  25.248  1.00  0.00    +0.000 C 
ATOM    117  H19 UNL A   1      30.985  -8.109  25.534  1.00  0.00    +0.000 H 
ATOM    118  H20 UNL A   1      31.104  -9.303  24.198  1.00  0.00    +0.000 H 
BRANCH   17   18
ATOM     18  C13 UNL A   1      32.628  -9.420  25.600  1.00  0.00    +0.000 C 
ATOM     19  C14 UNL A   1      33.214  -8.845  26.737  1.00  0.00    +0.000 C 
ATOM     20  C15 UNL A   1      34.563  -9.055  27.024  1.00  0.00    +0.000 C 
ATOM     21  C16 UNL A   1      35.332  -9.871  26.197  1.00  0.00    +0.000 C 
ATOM     22  C17 UNL A   1      34.747 -10.486  25.090  1.00  0.00    +0.000 C 
ATOM     23  C18 UNL A   1      33.402 -10.260  24.790  1.00  0.00    +0.000 C 
ATOM    119  H21 UNL A   1      32.643  -8.259  27.366  1.00  0.00    +0.000 H 
ATOM    120  H22 UNL A   1      34.992  -8.606  27.849  1.00  0.00    +0.000 H 
ATOM    122  H24 UNL A   1      35.310 -11.109  24.491  1.00  0.00    +0.000 H 
ATOM    123  H25 UNL A   1      32.977 -10.713  23.966  1.00  0.00    +0.000 H 
ATOM    121  H23 UNL A   1      36.332 -10.021  26.402  1.00  0.00    +0.000 H 
ENDBRANCH   17   18
ENDBRANCH   16   17
ENDBRANCH   24   16
ENDBRANCH   26   24
ENDBRANCH   27   26
ENDBRANCH   28   27
ENDBRANCH   29   28
ENDBRANCH   30   29
ENDBRANCH   31   30
ENDBRANCH   32   31
ENDBRANCH   33   32
ENDBRANCH   34   33
ENDBRANCH   36   34
ENDBRANCH   40   39
BRANCH   44   45
ATOM     45  C35 UNL A   1      24.708 -10.848  28.551  1.00  0.00    +0.000 C 
ATOM     46  C36 UNL A   1      23.688 -11.451  27.798  1.00  0.00    +0.000 C 
ATOM     47  F1  UNL A   1      23.049 -12.532  28.271  1.00  0.00    +0.000 F 
ATOM     48  C37 UNL A   1      23.354 -10.979  26.532  1.00  0.00    +0.000 C 
ATOM     49  F2  UNL A   1      22.421 -11.611  25.807  1.00  0.00    +0.000 F 
ATOM     50  C38 UNL A   1      24.002  -9.869  26.011  1.00  0.00    +0.000 C 
ATOM     51  F3  UNL A   1      23.681  -9.416  24.791  1.00  0.00    +0.000 F 
ATOM     52  C39 UNL A   1      24.990  -9.237  26.750  1.00  0.00    +0.000 C 
ATOM     53  F4  UNL A   1      25.607  -8.156  26.252  1.00  0.00    +0.000 F 
ATOM     54  C40 UNL A   1      25.350  -9.727  28.002  1.00  0.00    +0.000 C 
ATOM     55  F5  UNL A   1      26.327  -9.107  28.681  1.00  0.00    +0.000 F 
ENDBRANCH   44   45
BRANCH   61   62
ATOM     65  C48 UNL A   1      20.093 -10.928  36.327  1.00  0.00    +0.000 C 
ATOM     66  F7  UNL A   1      18.992 -11.669  36.513  1.00  0.00    +0.000 F 
ATOM     67  C49 UNL A   1      20.153  -9.638  36.831  1.00  0.00    +0.000 C 
ATOM     68  F8  UNL A   1      19.120  -9.140  37.525  1.00  0.00    +0.000 F 
ATOM     69  C50 UNL A   1      21.280  -8.862  36.611  1.00  0.00    +0.000 C 
ATOM     70  F9  UNL A   1      21.346  -7.620  37.110  1.00  0.00    +0.000 F 
ATOM     71  C51 UNL A   1      22.344  -9.370  35.872  1.00  0.00    +0.000 C 
ATOM     72  F10 UNL A   1      23.416  -8.590  35.663  1.00  0.00    +0.000 F 
ATOM     62  C46 UNL A   1      22.310 -10.677  35.360  1.00  0.00    +0.000 C 
ATOM     63  C47 UNL A   1      21.168 -11.451  35.612  1.00  0.00    +0.000 C 
ATOM     64  F6  UNL A   1      21.080 -12.700  35.131  1.00  0.00    +0.000 F 
ENDBRANCH   61   62
BRANCH   76   77
ATOM     77  C55 UNL A   1      27.859 -14.396  37.342  1.00  0.00    +0.000 C 
ATOM     78  C56 UNL A   1      27.272 -15.545  37.889  1.00  0.00    +0.000 C 
ATOM     79  F11 UNL A   1      26.266 -16.154  37.244  1.00  0.00    +0.000 F 
ATOM     80  C57 UNL A   1      27.691 -16.055  39.116  1.00  0.00    +0.000 C 
ATOM     81  F12 UNL A   1      27.088 -17.133  39.632  1.00  0.00    +0.000 F 
ATOM     82  C58 UNL A   1      28.725 -15.440  39.807  1.00  0.00    +0.000 C 
ATOM     83  F13 UNL A   1      29.134 -15.935  40.983  1.00  0.00    +0.000 F 
ATOM     84  C59 UNL A   1      29.330 -14.309  39.280  1.00  0.00    +0.000 C 
ATOM     85  F14 UNL A   1      30.337 -13.721  39.938  1.00  0.00    +0.000 F 
ATOM     86  C60 UNL A   1      28.892 -13.783  38.066  1.00  0.00    +0.000 C 
ATOM     87  F15 UNL A   1      29.489 -12.683  37.584  1.00  0.00    +0.000 F 
ENDBRANCH   76   77
TORSDOF 22
ENDMDL
MODEL 6
REMARK VINA RESULT:      -7.9     65.528     72.049
ROOT
ATOM    140  H42 UNL A   1      15.233  46.835   0.563  1.00  0.00    +0.000 H 
ATOM    141  H43 UNL A   1      13.511  46.526   2.496  1.00  0.00    +0.000 H 
ATOM    142  H44 UNL A   1      14.900  50.425   2.603  1.00  0.00    +0.000 H 
ATOM    143  H45 UNL A   1      15.118  56.126   5.473  1.00  0.00    +0.000 H 
ATOM    144  H46 UNL A   1      16.715  56.454   3.524  1.00  0.00    +0.000 H 
ATOM    145  H47 UNL A   1      15.271  52.560   3.342  1.00  0.00    +0.000 H 
ATOM    146  H48 UNL A   1      11.994  52.119   7.126  1.00  0.00    +0.000 H 
ATOM    147  H49 UNL A   1      11.732  49.666   6.445  1.00  0.00    +0.000 H 
ATOM    148  H50 UNL A   1      17.967  51.065  -1.303  1.00  0.00    +0.000 H 
ATOM    149  H51 UNL A   1      18.619  53.354  -0.361  1.00  0.00    +0.000 H 
ATOM     40  C31 UNL A   1      17.089  54.132   1.912  1.00  0.00    +0.000 C 
ATOM     41  C32 UNL A   1      17.066  52.809   1.199  1.00  0.00    +0.000 C 
ATOM     42  N5  UNL A   1      16.359  51.737   1.460  1.00  0.00    +0.000 N 
ATOM     43  C33 UNL A   1      16.688  50.819   0.472  1.00  0.00    +0.000 C 
ATOM     44  C34 UNL A   1      16.280  49.534   0.340  1.00  0.00    +0.000 C 
ATOM     56  C41 UNL A   1      15.375  48.876   1.247  1.00  0.00    +0.000 C 
ATOM     57  C42 UNL A   1      14.939  47.563   1.232  1.00  0.00    +0.000 C 
ATOM     58  C43 UNL A   1      14.027  47.394   2.281  1.00  0.00    +0.000 C 
ATOM     59  C44 UNL A   1      13.937  48.585   2.981  1.00  0.00    +0.000 C 
ATOM     60  N6  UNL A   1      14.765  49.488   2.332  1.00  0.00    +0.000 N 
ATOM     61  C45 UNL A   1      13.152  48.881   4.153  1.00  0.00    +0.000 C 
ATOM     73  C52 UNL A   1      13.127  50.076   4.793  1.00  0.00    +0.000 C 
ATOM     74  N7  UNL A   1      13.820  51.241   4.491  1.00  0.00    +0.000 N 
ATOM     75  C53 UNL A   1      13.456  52.121   5.392  1.00  0.00    +0.000 C 
ATOM     76  C54 UNL A   1      13.911  53.543   5.572  1.00  0.00    +0.000 C 
ATOM     88  C61 UNL A   1      14.814  54.057   4.715  1.00  0.00    +0.000 C 
ATOM     89  C62 UNL A   1      15.355  55.413   4.766  1.00  0.00    +0.000 C 
ATOM     90  C63 UNL A   1      16.207  55.582   3.743  1.00  0.00    +0.000 C 
ATOM     91  C64 UNL A   1      16.304  54.332   2.988  1.00  0.00    +0.000 C 
ATOM     92  N8  UNL A   1      15.433  53.487   3.631  1.00  0.00    +0.000 N 
ATOM     93  C65 UNL A   1      12.463  51.620   6.353  1.00  0.00    +0.000 C 
ATOM     94  C66 UNL A   1      12.329  50.359   5.969  1.00  0.00    +0.000 C 
ATOM     95  C67 UNL A   1      17.610  51.478  -0.428  1.00  0.00    +0.000 C 
ATOM     96  C68 UNL A   1      17.935  52.682   0.020  1.00  0.00    +0.000 C 
ENDROOT
BRANCH   40   39
ATOM     97  C69 UNL A   1      19.168  55.511   1.997  1.00  0.00    +0.000 C 
ATOM     98  C70 UNL A   1      19.953  56.571   1.549  1.00  0.00    +0.000 C 
ATOM     36  C27 UNL A   1      19.562  57.303   0.424  1.00  0.00    +0.000 C 
ATOM     37  C28 UNL A   1      18.320  57.056  -0.170  1.00  0.00    +0.000 C 
ATOM     38  C29 UNL A   1      17.498  56.044   0.329  1.00  0.00    +0.000 C 
ATOM     39  C30 UNL A   1      17.929  55.243   1.398  1.00  0.00    +0.000 C 
ATOM    138  H40 UNL A   1      18.012  57.621  -0.976  1.00  0.00    +0.000 H 
ATOM    139  H41 UNL A   1      16.569  55.883  -0.091  1.00  0.00    +0.000 H 
ATOM    150  H52 UNL A   1      19.502  54.919   2.773  1.00  0.00    +0.000 H 
ATOM    151  H53 UNL A   1      20.823  56.816   2.047  1.00  0.00    +0.000 H 
BRANCH   36   34
ATOM     34  C26 UNL A   1      20.421  58.366  -0.144  1.00  0.00    +0.000 C 
ATOM     35  O5  UNL A   1      19.998  59.516  -0.211  1.00  0.00    +0.000 O 
BRANCH   34   33
ATOM     33  N4  UNL A   1      21.677  58.072  -0.611  1.00  0.00    +0.000 N 
ATOM    137  H39 UNL A   1      22.340  58.792  -0.510  1.00  0.00    +0.000 H 
BRANCH   33   32
ATOM    136  H38 UNL A   1      22.183  56.090  -0.490  1.00  0.00    +0.000 H 
ATOM    135  H37 UNL A   1      23.159  57.047  -1.615  1.00  0.00    +0.000 H 
ATOM     32  C25 UNL A   1      22.177  56.859  -1.234  1.00  0.00    +0.000 C 
BRANCH   32   31
ATOM    133  H35 UNL A   1      21.738  55.505  -2.798  1.00  0.00    +0.000 H 
ATOM    134  H36 UNL A   1      20.325  56.215  -1.958  1.00  0.00    +0.000 H 
ATOM     31  C24 UNL A   1      21.293  56.384  -2.381  1.00  0.00    +0.000 C 
BRANCH   31   30
ATOM    131  H33 UNL A   1      21.242  58.372  -3.111  1.00  0.00    +0.000 H 
ATOM    132  H34 UNL A   1      21.786  57.116  -4.275  1.00  0.00    +0.000 H 
ATOM     30  C23 UNL A   1      21.088  57.394  -3.513  1.00  0.00    +0.000 C 
BRANCH   30   29
ATOM    129  H31 UNL A   1      19.852  57.615  -5.224  1.00  0.00    +0.000 H 
ATOM    130  H32 UNL A   1      19.317  56.397  -4.015  1.00  0.00    +0.000 H 
ATOM     29  C22 UNL A   1      19.711  57.376  -4.191  1.00  0.00    +0.000 C 
BRANCH   29   28
ATOM     28  C21 UNL A   1      18.666  58.347  -3.626  1.00  0.00    +0.000 C 
ATOM    127  H29 UNL A   1      18.702  58.293  -2.558  1.00  0.00    +0.000 H 
ATOM    128  H30 UNL A   1      18.915  59.316  -4.004  1.00  0.00    +0.000 H 
BRANCH   28   27
ATOM     27  C20 UNL A   1      17.236  58.064  -4.068  1.00  0.00    +0.000 C 
ATOM    125  H27 UNL A   1      16.644  58.933  -3.878  1.00  0.00    +0.000 H 
ATOM    126  H28 UNL A   1      17.270  57.817  -5.109  1.00  0.00    +0.000 H 
BRANCH   27   26
ATOM     26  N3  UNL A   1      16.634  56.940  -3.381  1.00  0.00    +0.000 N 
ATOM    124  H26 UNL A   1      16.429  57.020  -2.422  1.00  0.00    +0.000 H 
BRANCH   26   24
ATOM     25  O4  UNL A   1      15.735  55.836  -5.104  1.00  0.00    +0.000 O 
ATOM     24  C19 UNL A   1      16.342  55.762  -4.029  1.00  0.00    +0.000 C 
BRANCH   24   16
ATOM    116  H18 UNL A   1      17.482  54.598  -2.703  1.00  0.00    +0.000 H 
ATOM     16  C11 UNL A   1      16.713  54.379  -3.413  1.00  0.00    +0.000 C 
BRANCH   16   15
ATOM    115  H17 UNL A   1      16.026  53.310  -1.739  1.00  0.00    +0.000 H 
ATOM     15  N2  UNL A   1      15.694  53.734  -2.564  1.00  0.00    +0.000 N 
BRANCH   15   13
ATOM     13  C10 UNL A   1      14.343  53.653  -2.777  1.00  0.00    +0.000 C 
ATOM     14  O3  UNL A   1      13.962  53.040  -3.779  1.00  0.00    +0.000 O 
BRANCH   13   12
ATOM      8  N1  UNL A   1      13.574  53.830  -0.378  1.00  0.00    +0.000 N 
ATOM      9  C6  UNL A   1      13.823  54.941   0.512  1.00  0.00    +0.000 C 
ATOM     10  C7  UNL A   1      13.286  56.145  -0.238  1.00  0.00    +0.000 C 
ATOM     11  C8  UNL A   1      13.517  55.785  -1.703  1.00  0.00    +0.000 C 
ATOM     12  C9  UNL A   1      13.349  54.255  -1.759  1.00  0.00    +0.000 C 
ATOM    108  H10 UNL A   1      14.871  55.048   0.702  1.00  0.00    +0.000 H 
ATOM    109  H11 UNL A   1      13.360  54.814   1.468  1.00  0.00    +0.000 H 
ATOM    110  H12 UNL A   1      13.822  57.032   0.027  1.00  0.00    +0.000 H 
ATOM    111  H13 UNL A   1      12.259  56.349  -0.017  1.00  0.00    +0.000 H 
ATOM    112  H14 UNL A   1      14.502  56.069  -2.010  1.00  0.00    +0.000 H 
ATOM    114  H16 UNL A   1      12.390  53.924  -2.099  1.00  0.00    +0.000 H 
ATOM    113  H15 UNL A   1      12.839  56.292  -2.357  1.00  0.00    +0.000 H 
BRANCH    8    6
ATOM      6  C5  UNL A   1      13.333  52.534  -0.012  1.00  0.00    +0.000 C 
ATOM      7  O2  UNL A   1      13.574  51.599  -0.755  1.00  0.00    +0.000 O 
BRANCH    6    5
ATOM      1  C1  UNL A   1      10.893  52.203   2.687  1.00  0.00    +0.000 C 
ATOM      2  C2  UNL A   1      11.361  51.930   1.251  1.00  0.00    +0.000 C 
ATOM     99  H1  UNL A   1       9.881  51.875   2.802  1.00  0.00    +0.000 H 
ATOM    100  H2  UNL A   1      10.953  53.253   2.889  1.00  0.00    +0.000 H 
ATOM    101  H3  UNL A   1      11.520  51.673   3.374  1.00  0.00    +0.000 H 
ATOM      3  C3  UNL A   1      11.331  50.421   0.987  1.00  0.00    +0.000 C 
ATOM      4  C4  UNL A   1      10.407  52.688   0.308  1.00  0.00    +0.000 C 
ATOM      5  O1  UNL A   1      12.735  52.408   1.200  1.00  0.00    +0.000 O 
ATOM    102  H4  UNL A   1      10.319  50.073   1.026  1.00  0.00    +0.000 H 
ATOM    103  H5  UNL A   1      11.910  49.917   1.732  1.00  0.00    +0.000 H 
ATOM    104  H6  UNL A   1      11.740  50.220   0.020  1.00  0.00    +0.000 H 
ATOM    105  H7  UNL A   1       9.420  52.285   0.399  1.00  0.00    +0.000 H 
ATOM    106  H8  UNL A   1      10.745  52.580  -0.702  1.00  0.00    +0.000 H 
ATOM    107  H9  UNL A   1      10.395  53.725   0.572  1.00  0.00    +0.000 H 
ENDBRANCH    6    5
ENDBRANCH    8    6
ENDBRANCH   13   12
ENDBRANCH   15   13
ENDBRANCH   16   15
BRANCH   16   17
ATOM     17  C12 UNL A   1      17.270  53.437  -4.502  1.00  0.00    +0.000 C 
ATOM    117  H19 UNL A   1      16.581  53.439  -5.321  1.00  0.00    +0.000 H 
ATOM    118  H20 UNL A   1      17.383  52.483  -4.030  1.00  0.00    +0.000 H 
BRANCH   17   18
ATOM     18  C13 UNL A   1      18.636  53.788  -5.043  1.00  0.00    +0.000 C 
ATOM     19  C14 UNL A   1      18.766  54.390  -6.304  1.00  0.00    +0.000 C 
ATOM     20  C15 UNL A   1      20.027  54.646  -6.843  1.00  0.00    +0.000 C 
ATOM     21  C16 UNL A   1      21.172  54.335  -6.113  1.00  0.00    +0.000 C 
ATOM     22  C17 UNL A   1      21.054  53.778  -4.840  1.00  0.00    +0.000 C 
ATOM     23  C18 UNL A   1      19.793  53.503  -4.307  1.00  0.00    +0.000 C 
ATOM    119  H21 UNL A   1      17.920  54.645  -6.838  1.00  0.00    +0.000 H 
ATOM    120  H22 UNL A   1      20.111  55.065  -7.782  1.00  0.00    +0.000 H 
ATOM    122  H24 UNL A   1      21.901  53.570  -4.290  1.00  0.00    +0.000 H 
ATOM    123  H25 UNL A   1      19.713  53.086  -3.367  1.00  0.00    +0.000 H 
ATOM    121  H23 UNL A   1      22.105  54.514  -6.514  1.00  0.00    +0.000 H 
ENDBRANCH   17   18
ENDBRANCH   16   17
ENDBRANCH   24   16
ENDBRANCH   26   24
ENDBRANCH   27   26
ENDBRANCH   28   27
ENDBRANCH   29   28
ENDBRANCH   30   29
ENDBRANCH   31   30
ENDBRANCH   32   31
ENDBRANCH   33   32
ENDBRANCH   34   33
ENDBRANCH   36   34
ENDBRANCH   40   39
BRANCH   44   45
ATOM     45  C35 UNL A   1      16.812  48.759  -0.832  1.00  0.00    +0.000 C 
ATOM     46  C36 UNL A   1      18.053  48.105  -0.781  1.00  0.00    +0.000 C 
ATOM     47  F1  UNL A   1      18.806  48.173   0.328  1.00  0.00    +0.000 F 
ATOM     48  C37 UNL A   1      18.553  47.421  -1.886  1.00  0.00    +0.000 C 
ATOM     49  F2  UNL A   1      19.768  46.860  -1.833  1.00  0.00    +0.000 F 
ATOM     50  C38 UNL A   1      17.803  47.341  -3.050  1.00  0.00    +0.000 C 
ATOM     51  F3  UNL A   1      18.285  46.684  -4.115  1.00  0.00    +0.000 F 
ATOM     52  C39 UNL A   1      16.559  47.951  -3.114  1.00  0.00    +0.000 C 
ATOM     53  F4  UNL A   1      15.829  47.862  -4.234  1.00  0.00    +0.000 F 
ATOM     54  C40 UNL A   1      16.073  48.664  -2.022  1.00  0.00    +0.000 C 
ATOM     55  F5  UNL A   1      14.877  49.263  -2.125  1.00  0.00    +0.000 F 
ENDBRANCH   44   45
BRANCH   61   62
ATOM     65  C48 UNL A   1      11.967  45.990   6.345  1.00  0.00    +0.000 C 
ATOM     66  F7  UNL A   1      12.434  45.232   7.346  1.00  0.00    +0.000 F 
ATOM     67  C49 UNL A   1      10.702  45.755   5.829  1.00  0.00    +0.000 C 
ATOM     68  F8  UNL A   1       9.936  44.784   6.347  1.00  0.00    +0.000 F 
ATOM     69  C50 UNL A   1      10.233  46.520   4.773  1.00  0.00    +0.000 C 
ATOM     70  F9  UNL A   1       9.004  46.303   4.283  1.00  0.00    +0.000 F 
ATOM     71  C51 UNL A   1      11.036  47.513   4.219  1.00  0.00    +0.000 C 
ATOM     72  F10 UNL A   1      10.560  48.227   3.188  1.00  0.00    +0.000 F 
ATOM     62  C46 UNL A   1      12.316  47.776   4.732  1.00  0.00    +0.000 C 
ATOM     63  C47 UNL A   1      12.762  47.003   5.813  1.00  0.00    +0.000 C 
ATOM     64  F6  UNL A   1      13.985  47.205   6.329  1.00  0.00    +0.000 F 
ENDBRANCH   61   62
BRANCH   76   77
ATOM     77  C55 UNL A   1      13.412  54.369   6.701  1.00  0.00    +0.000 C 
ATOM     78  C56 UNL A   1      14.000  54.275   7.970  1.00  0.00    +0.000 C 
ATOM     79  F11 UNL A   1      15.003  53.410   8.180  1.00  0.00    +0.000 F 
ATOM     80  C57 UNL A   1      13.538  55.043   9.037  1.00  0.00    +0.000 C 
ATOM     81  F12 UNL A   1      14.094  54.906  10.248  1.00  0.00    +0.000 F 
ATOM     82  C58 UNL A   1      12.497  55.940   8.848  1.00  0.00    +0.000 C 
ATOM     83  F13 UNL A   1      12.059  56.685   9.872  1.00  0.00    +0.000 F 
ATOM     84  C59 UNL A   1      11.908  56.060   7.599  1.00  0.00    +0.000 C 
ATOM     85  F14 UNL A   1      10.912  56.935   7.410  1.00  0.00    +0.000 F 
ATOM     86  C60 UNL A   1      12.351  55.272   6.538  1.00  0.00    +0.000 C 
ATOM     87  F15 UNL A   1      11.758  55.402   5.342  1.00  0.00    +0.000 F 
ENDBRANCH   76   77
TORSDOF 22
ENDMDL
MODEL 7
REMARK VINA RESULT:      -7.9     65.166     71.758
ROOT
ATOM    140  H42 UNL A   1      14.853  46.689   0.999  1.00  0.00    +0.000 H 
ATOM    141  H43 UNL A   1      13.155  46.358   2.950  1.00  0.00    +0.000 H 
ATOM    142  H44 UNL A   1      14.546  50.256   3.083  1.00  0.00    +0.000 H 
ATOM    143  H45 UNL A   1      14.801  55.923   6.014  1.00  0.00    +0.000 H 
ATOM    144  H46 UNL A   1      16.373  56.274   4.049  1.00  0.00    +0.000 H 
ATOM    145  H47 UNL A   1      14.926  52.382   3.841  1.00  0.00    +0.000 H 
ATOM    146  H48 UNL A   1      11.698  51.898   7.662  1.00  0.00    +0.000 H 
ATOM    147  H49 UNL A   1      11.426  49.453   6.956  1.00  0.00    +0.000 H 
ATOM    148  H50 UNL A   1      17.563  50.940  -0.854  1.00  0.00    +0.000 H 
ATOM    149  H51 UNL A   1      18.227  53.218   0.106  1.00  0.00    +0.000 H 
ATOM     40  C31 UNL A   1      16.726  53.970   2.407  1.00  0.00    +0.000 C 
ATOM     41  C32 UNL A   1      16.694  52.655   1.679  1.00  0.00    +0.000 C 
ATOM     42  N5  UNL A   1      15.990  51.580   1.936  1.00  0.00    +0.000 N 
ATOM     43  C33 UNL A   1      16.307  50.674   0.934  1.00  0.00    +0.000 C 
ATOM     44  C34 UNL A   1      15.897  49.390   0.793  1.00  0.00    +0.000 C 
ATOM     56  C41 UNL A   1      15.004  48.722   1.704  1.00  0.00    +0.000 C 
ATOM     57  C42 UNL A   1      14.567  47.409   1.680  1.00  0.00    +0.000 C 
ATOM     58  C43 UNL A   1      13.669  47.228   2.738  1.00  0.00    +0.000 C 
ATOM     59  C44 UNL A   1      13.587  48.412   3.453  1.00  0.00    +0.000 C 
ATOM     60  N6  UNL A   1      14.407  49.322   2.804  1.00  0.00    +0.000 N 
ATOM     61  C45 UNL A   1      12.817  48.694   4.638  1.00  0.00    +0.000 C 
ATOM     73  C52 UNL A   1      12.801  49.882   5.291  1.00  0.00    +0.000 C 
ATOM     74  N7  UNL A   1      13.490  51.051   4.994  1.00  0.00    +0.000 N 
ATOM     75  C53 UNL A   1      13.137  51.920   5.909  1.00  0.00    +0.000 C 
ATOM     76  C54 UNL A   1      13.595  53.340   6.099  1.00  0.00    +0.000 C 
ATOM     88  C61 UNL A   1      14.487  53.863   5.237  1.00  0.00    +0.000 C 
ATOM     89  C62 UNL A   1      15.029  55.219   5.296  1.00  0.00    +0.000 C 
ATOM     90  C63 UNL A   1      15.868  55.399   4.264  1.00  0.00    +0.000 C 
ATOM     91  C64 UNL A   1      15.955  54.158   3.494  1.00  0.00    +0.000 C 
ATOM     92  N8  UNL A   1      15.093  53.306   4.139  1.00  0.00    +0.000 N 
ATOM     93  C65 UNL A   1      12.156  51.408   6.877  1.00  0.00    +0.000 C 
ATOM     94  C66 UNL A   1      12.018  50.151   6.480  1.00  0.00    +0.000 C 
ATOM     95  C67 UNL A   1      17.217  51.342   0.030  1.00  0.00    +0.000 C 
ATOM     96  C68 UNL A   1      17.548  52.541   0.487  1.00  0.00    +0.000 C 
ENDROOT
BRANCH   40   39
ATOM     97  C69 UNL A   1      18.875  55.240   2.356  1.00  0.00    +0.000 C 
ATOM     98  C70 UNL A   1      19.659  56.302   1.911  1.00  0.00    +0.000 C 
ATOM     36  C27 UNL A   1      19.178  57.156   0.915  1.00  0.00    +0.000 C 
ATOM     37  C28 UNL A   1      17.862  57.023   0.460  1.00  0.00    +0.000 C 
ATOM     38  C29 UNL A   1      17.050  56.006   0.964  1.00  0.00    +0.000 C 
ATOM     39  C30 UNL A   1      17.560  55.087   1.894  1.00  0.00    +0.000 C 
ATOM    138  H40 UNL A   1      17.492  57.677  -0.248  1.00  0.00    +0.000 H 
ATOM    139  H41 UNL A   1      16.070  55.928   0.650  1.00  0.00    +0.000 H 
ATOM    150  H52 UNL A   1      19.265  54.562   3.028  1.00  0.00    +0.000 H 
ATOM    151  H53 UNL A   1      20.595  56.459   2.318  1.00  0.00    +0.000 H 
BRANCH   36   34
ATOM     34  C26 UNL A   1      20.022  58.229   0.343  1.00  0.00    +0.000 C 
ATOM     35  O5  UNL A   1      19.740  59.404   0.562  1.00  0.00    +0.000 O 
BRANCH   34   33
ATOM     33  N4  UNL A   1      21.102  57.922  -0.444  1.00  0.00    +0.000 N 
ATOM    137  H39 UNL A   1      21.802  58.612  -0.480  1.00  0.00    +0.000 H 
BRANCH   33   32
ATOM    136  H38 UNL A   1      21.360  55.893  -0.569  1.00  0.00    +0.000 H 
ATOM    135  H37 UNL A   1      22.319  56.844  -1.713  1.00  0.00    +0.000 H 
ATOM     32  C25 UNL A   1      21.370  56.732  -1.233  1.00  0.00    +0.000 C 
BRANCH   32   31
ATOM    133  H35 UNL A   1      20.628  55.659  -2.897  1.00  0.00    +0.000 H 
ATOM    134  H36 UNL A   1      19.395  56.311  -1.773  1.00  0.00    +0.000 H 
ATOM     31  C24 UNL A   1      20.310  56.487  -2.300  1.00  0.00    +0.000 C 
BRANCH   31   30
ATOM    131  H33 UNL A   1      20.207  58.568  -2.685  1.00  0.00    +0.000 H 
ATOM    132  H34 UNL A   1      20.694  57.532  -4.069  1.00  0.00    +0.000 H 
ATOM     30  C23 UNL A   1      20.037  57.668  -3.236  1.00  0.00    +0.000 C 
BRANCH   30   29
ATOM    129  H31 UNL A   1      18.709  58.139  -4.823  1.00  0.00    +0.000 H 
ATOM    130  H32 UNL A   1      18.242  56.744  -3.791  1.00  0.00    +0.000 H 
ATOM     29  C22 UNL A   1      18.625  57.742  -3.833  1.00  0.00    +0.000 C 
BRANCH   29   28
ATOM     28  C21 UNL A   1      17.611  58.603  -3.069  1.00  0.00    +0.000 C 
ATOM    127  H29 UNL A   1      17.956  58.712  -2.062  1.00  0.00    +0.000 H 
ATOM    128  H30 UNL A   1      17.547  59.535  -3.593  1.00  0.00    +0.000 H 
BRANCH   28   27
ATOM     27  C20 UNL A   1      16.200  58.032  -3.029  1.00  0.00    +0.000 C 
ATOM    125  H27 UNL A   1      15.595  58.665  -2.415  1.00  0.00    +0.000 H 
ATOM    126  H28 UNL A   1      15.847  57.991  -4.039  1.00  0.00    +0.000 H 
BRANCH   27   26
ATOM     26  N3  UNL A   1      16.140  56.686  -2.500  1.00  0.00    +0.000 N 
ATOM    124  H26 UNL A   1      16.403  56.528  -1.565  1.00  0.00    +0.000 H 
BRANCH   26   24
ATOM     25  O4  UNL A   1      15.037  55.865  -4.262  1.00  0.00    +0.000 O 
ATOM     24  C19 UNL A   1      15.726  55.620  -3.265  1.00  0.00    +0.000 C 
BRANCH   24   16
ATOM    116  H18 UNL A   1      16.878  54.240  -2.177  1.00  0.00    +0.000 H 
ATOM     16  C11 UNL A   1      16.065  54.152  -2.867  1.00  0.00    +0.000 C 
BRANCH   16   15
ATOM    115  H17 UNL A   1      15.411  52.918  -1.296  1.00  0.00    +0.000 H 
ATOM     15  N2  UNL A   1      15.062  53.431  -2.060  1.00  0.00    +0.000 N 
BRANCH   15   13
ATOM     13  C10 UNL A   1      13.704  53.389  -2.240  1.00  0.00    +0.000 C 
ATOM     14  O3  UNL A   1      13.285  52.888  -3.288  1.00  0.00    +0.000 O 
BRANCH   13   12
ATOM      8  N1  UNL A   1      13.034  53.356   0.195  1.00  0.00    +0.000 N 
ATOM      9  C6  UNL A   1      13.313  54.391   1.165  1.00  0.00    +0.000 C 
ATOM     10  C7  UNL A   1      12.738  55.649   0.541  1.00  0.00    +0.000 C 
ATOM     11  C8  UNL A   1      12.910  55.415  -0.956  1.00  0.00    +0.000 C 
ATOM     12  C9  UNL A   1      12.749  53.893  -1.135  1.00  0.00    +0.000 C 
ATOM    108  H10 UNL A   1      14.367  54.492   1.320  1.00  0.00    +0.000 H 
ATOM    109  H11 UNL A   1      12.891  54.179   2.125  1.00  0.00    +0.000 H 
ATOM    110  H12 UNL A   1      13.279  56.515   0.859  1.00  0.00    +0.000 H 
ATOM    111  H13 UNL A   1      11.720  55.823   0.820  1.00  0.00    +0.000 H 
ATOM    112  H14 UNL A   1      13.880  55.733  -1.278  1.00  0.00    +0.000 H 
ATOM    114  H16 UNL A   1      11.780  53.584  -1.462  1.00  0.00    +0.000 H 
ATOM    113  H15 UNL A   1      12.203  55.969  -1.537  1.00  0.00    +0.000 H 
BRANCH    8    6
ATOM      6  C5  UNL A   1      12.817  52.031   0.459  1.00  0.00    +0.000 C 
ATOM      7  O2  UNL A   1      13.075  51.161  -0.353  1.00  0.00    +0.000 O 
BRANCH    6    5
ATOM      1  C1  UNL A   1      10.381  51.439   3.117  1.00  0.00    +0.000 C 
ATOM      2  C2  UNL A   1      10.858  51.284   1.667  1.00  0.00    +0.000 C 
ATOM     99  H1  UNL A   1       9.378  51.076   3.204  1.00  0.00    +0.000 H 
ATOM    100  H2  UNL A   1      10.411  52.473   3.395  1.00  0.00    +0.000 H 
ATOM    101  H3  UNL A   1      11.020  50.878   3.766  1.00  0.00    +0.000 H 
ATOM      3  C3  UNL A   1      10.870  49.799   1.294  1.00  0.00    +0.000 C 
ATOM      4  C4  UNL A   1       9.887  52.083   0.777  1.00  0.00    +0.000 C 
ATOM      5  O1  UNL A   1      12.219  51.801   1.656  1.00  0.00    +0.000 O 
ATOM    102  H4  UNL A   1       9.868  49.421   1.303  1.00  0.00    +0.000 H 
ATOM    103  H5  UNL A   1      11.461  49.257   2.003  1.00  0.00    +0.000 H 
ATOM    104  H6  UNL A   1      11.287  49.679   0.317  1.00  0.00    +0.000 H 
ATOM    105  H7  UNL A   1       8.911  51.648   0.835  1.00  0.00    +0.000 H 
ATOM    106  H8  UNL A   1      10.229  52.058  -0.236  1.00  0.00    +0.000 H 
ATOM    107  H9  UNL A   1       9.845  53.098   1.116  1.00  0.00    +0.000 H 
ENDBRANCH    6    5
ENDBRANCH    8    6
ENDBRANCH   13   12
ENDBRANCH   15   13
ENDBRANCH   16   15
BRANCH   16   17
ATOM     17  C12 UNL A   1      16.526  53.351  -4.105  1.00  0.00    +0.000 C 
ATOM    117  H19 UNL A   1      15.880  53.607  -4.919  1.00  0.00    +0.000 H 
ATOM    118  H20 UNL A   1      16.480  52.322  -3.818  1.00  0.00    +0.000 H 
BRANCH   17   18
ATOM     18  C13 UNL A   1      17.950  53.588  -4.551  1.00  0.00    +0.000 C 
ATOM     19  C14 UNL A   1      18.234  54.541  -5.540  1.00  0.00    +0.000 C 
ATOM     20  C15 UNL A   1      19.536  54.710  -6.013  1.00  0.00    +0.000 C 
ATOM     21  C16 UNL A   1      20.574  53.950  -5.477  1.00  0.00    +0.000 C 
ATOM     22  C17 UNL A   1      20.310  53.032  -4.461  1.00  0.00    +0.000 C 
ATOM     23  C18 UNL A   1      19.004  52.848  -4.001  1.00  0.00    +0.000 C 
ATOM    119  H21 UNL A   1      17.472  55.123  -5.923  1.00  0.00    +0.000 H 
ATOM    120  H22 UNL A   1      19.730  55.396  -6.758  1.00  0.00    +0.000 H 
ATOM    122  H24 UNL A   1      21.082  52.487  -4.048  1.00  0.00    +0.000 H 
ATOM    123  H25 UNL A   1      18.815  52.163  -3.254  1.00  0.00    +0.000 H 
ATOM    121  H23 UNL A   1      21.536  54.067  -5.831  1.00  0.00    +0.000 H 
ENDBRANCH   17   18
ENDBRANCH   16   17
ENDBRANCH   24   16
ENDBRANCH   26   24
ENDBRANCH   27   26
ENDBRANCH   28   27
ENDBRANCH   29   28
ENDBRANCH   30   29
ENDBRANCH   31   30
ENDBRANCH   32   31
ENDBRANCH   33   32
ENDBRANCH   34   33
ENDBRANCH   36   34
ENDBRANCH   40   39
BRANCH   44   45
ATOM     45  C35 UNL A   1      16.414  48.628  -0.395  1.00  0.00    +0.000 C 
ATOM     46  C36 UNL A   1      15.630  48.434  -1.543  1.00  0.00    +0.000 C 
ATOM     47  F1  UNL A   1      14.381  48.921  -1.597  1.00  0.00    +0.000 F 
ATOM     48  C37 UNL A   1      16.106  47.694  -2.622  1.00  0.00    +0.000 C 
ATOM     49  F2  UNL A   1      15.315  47.470  -3.680  1.00  0.00    +0.000 F 
ATOM     50  C38 UNL A   1      17.389  47.170  -2.593  1.00  0.00    +0.000 C 
ATOM     51  F3  UNL A   1      17.846  46.457  -3.633  1.00  0.00    +0.000 F 
ATOM     52  C39 UNL A   1      18.195  47.377  -1.483  1.00  0.00    +0.000 C 
ATOM     53  F4  UNL A   1      19.440  46.882  -1.461  1.00  0.00    +0.000 F 
ATOM     54  C40 UNL A   1      17.709  48.087  -0.389  1.00  0.00    +0.000 C 
ATOM     55  F5  UNL A   1      18.505  48.247   0.679  1.00  0.00    +0.000 F 
ENDBRANCH   44   45
BRANCH   61   62
ATOM     65  C48 UNL A   1       9.935  46.285   5.307  1.00  0.00    +0.000 C 
ATOM     66  F7  UNL A   1       8.672  46.090   4.901  1.00  0.00    +0.000 F 
ATOM     67  C49 UNL A   1      10.486  45.457   6.273  1.00  0.00    +0.000 C 
ATOM     68  F8  UNL A   1       9.766  44.449   6.784  1.00  0.00    +0.000 F 
ATOM     69  C50 UNL A   1      11.781  45.678   6.714  1.00  0.00    +0.000 C 
ATOM     70  F9  UNL A   1      12.321  44.871   7.637  1.00  0.00    +0.000 F 
ATOM     71  C51 UNL A   1      12.523  46.738   6.201  1.00  0.00    +0.000 C 
ATOM     72  F10 UNL A   1      13.768  46.936   6.657  1.00  0.00    +0.000 F 
ATOM     62  C46 UNL A   1      11.989  47.583   5.214  1.00  0.00    +0.000 C 
ATOM     63  C47 UNL A   1      10.683  47.328   4.769  1.00  0.00    +0.000 C 
ATOM     64  F6  UNL A   1      10.122  48.116   3.839  1.00  0.00    +0.000 F 
ENDBRANCH   61   62
BRANCH   76   77
ATOM     77  C55 UNL A   1      13.110  54.153   7.244  1.00  0.00    +0.000 C 
ATOM     78  C56 UNL A   1      11.995  54.990   7.103  1.00  0.00    +0.000 C 
ATOM     79  F11 UNL A   1      11.375  55.085   5.918  1.00  0.00    +0.000 F 
ATOM     80  C57 UNL A   1      11.533  55.760   8.169  1.00  0.00    +0.000 C 
ATOM     81  F12 UNL A   1      10.487  56.580   7.996  1.00  0.00    +0.000 F 
ATOM     82  C58 UNL A   1      12.160  55.686   9.403  1.00  0.00    +0.000 C 
ATOM     83  F13 UNL A   1      11.710  56.419  10.430  1.00  0.00    +0.000 F 
ATOM     84  C59 UNL A   1      13.258  54.855   9.570  1.00  0.00    +0.000 C 
ATOM     85  F14 UNL A   1      13.857  54.771  10.765  1.00  0.00    +0.000 F 
ATOM     86  C60 UNL A   1      13.737  54.106   8.498  1.00  0.00    +0.000 C 
ATOM     87  F15 UNL A   1      14.806  53.317   8.685  1.00  0.00    +0.000 F 
ENDBRANCH   76   77
TORSDOF 22
ENDMDL
MODEL 8
REMARK VINA RESULT:      -7.8      2.856      4.387
ROOT
ATOM    140  H42 UNL A   1      22.812  -9.995  30.235  1.00  0.00    +0.000 H 
ATOM    141  H43 UNL A   1      21.993  -9.874  32.707  1.00  0.00    +0.000 H 
ATOM    142  H44 UNL A   1      25.557 -11.980  32.621  1.00  0.00    +0.000 H 
ATOM    143  H45 UNL A   1      29.990 -15.446  35.640  1.00  0.00    +0.000 H 
ATOM    144  H46 UNL A   1      30.840 -15.469  33.246  1.00  0.00    +0.000 H 
ATOM    145  H47 UNL A   1      27.309 -13.277  33.318  1.00  0.00    +0.000 H 
ATOM    146  H48 UNL A   1      25.853 -13.153  38.126  1.00  0.00    +0.000 H 
ATOM    147  H49 UNL A   1      23.775 -11.888  37.332  1.00  0.00    +0.000 H 
ATOM    148  H50 UNL A   1      27.252 -11.926  27.909  1.00  0.00    +0.000 H 
ATOM    149  H51 UNL A   1      29.068 -13.598  28.590  1.00  0.00    +0.000 H 
ATOM     40  C31 UNL A   1      29.151 -14.117  31.389  1.00  0.00    +0.000 C 
ATOM     41  C32 UNL A   1      28.137 -13.304  30.636  1.00  0.00    +0.000 C 
ATOM     42  N5  UNL A   1      27.082 -12.670  31.086  1.00  0.00    +0.000 N 
ATOM     43  C33 UNL A   1      26.517 -12.046  29.981  1.00  0.00    +0.000 C 
ATOM     44  C34 UNL A   1      25.371 -11.328  29.908  1.00  0.00    +0.000 C 
ATOM     56  C41 UNL A   1      24.508 -11.066  31.030  1.00  0.00    +0.000 C 
ATOM     57  C42 UNL A   1      23.299 -10.393  31.054  1.00  0.00    +0.000 C 
ATOM     58  C43 UNL A   1      22.851 -10.343  32.379  1.00  0.00    +0.000 C 
ATOM     59  C44 UNL A   1      23.754 -11.032  33.173  1.00  0.00    +0.000 C 
ATOM     60  N6  UNL A   1      24.768 -11.465  32.334  1.00  0.00    +0.000 N 
ATOM     61  C45 UNL A   1      23.697 -11.274  34.593  1.00  0.00    +0.000 C 
ATOM     73  C52 UNL A   1      24.619 -11.974  35.300  1.00  0.00    +0.000 C 
ATOM     74  N7  UNL A   1      25.776 -12.596  34.851  1.00  0.00    +0.000 N 
ATOM     75  C53 UNL A   1      26.334 -13.129  35.910  1.00  0.00    +0.000 C 
ATOM     76  C54 UNL A   1      27.591 -13.948  36.012  1.00  0.00    +0.000 C 
ATOM     88  C61 UNL A   1      28.302 -14.203  34.897  1.00  0.00    +0.000 C 
ATOM     89  C62 UNL A   1      29.533 -14.986  34.837  1.00  0.00    +0.000 C 
ATOM     90  C63 UNL A   1      29.976 -15.008  33.570  1.00  0.00    +0.000 C 
ATOM     91  C64 UNL A   1      29.036 -14.274  32.721  1.00  0.00    +0.000 C 
ATOM     92  N8  UNL A   1      28.081 -13.822  33.597  1.00  0.00    +0.000 N 
ATOM     93  C65 UNL A   1      25.607 -12.877  37.162  1.00  0.00    +0.000 C 
ATOM     94  C66 UNL A   1      24.549 -12.206  36.729  1.00  0.00    +0.000 C 
ATOM     95  C67 UNL A   1      27.378 -12.325  28.852  1.00  0.00    +0.000 C 
ATOM     96  C68 UNL A   1      28.349 -13.161  29.188  1.00  0.00    +0.000 C 
ENDROOT
BRANCH   40   39
ATOM     97  C69 UNL A   1      30.198 -15.947  30.050  1.00  0.00    +0.000 C 
ATOM     98  C70 UNL A   1      31.292 -16.522  29.409  1.00  0.00    +0.000 C 
ATOM     36  C27 UNL A   1      32.486 -15.806  29.288  1.00  0.00    +0.000 C 
ATOM     37  C28 UNL A   1      32.623 -14.568  29.924  1.00  0.00    +0.000 C 
ATOM     38  C29 UNL A   1      31.550 -14.027  30.634  1.00  0.00    +0.000 C 
ATOM     39  C30 UNL A   1      30.318 -14.698  30.678  1.00  0.00    +0.000 C 
ATOM    138  H40 UNL A   1      33.517 -14.055  29.868  1.00  0.00    +0.000 H 
ATOM    139  H41 UNL A   1      31.663 -13.128  31.129  1.00  0.00    +0.000 H 
ATOM    150  H52 UNL A   1      29.293 -16.443  30.064  1.00  0.00    +0.000 H 
ATOM    151  H53 UNL A   1      31.222 -17.477  29.023  1.00  0.00    +0.000 H 
BRANCH   36   34
ATOM     34  C26 UNL A   1      33.634 -16.341  28.521  1.00  0.00    +0.000 C 
ATOM     35  O5  UNL A   1      34.433 -17.093  29.072  1.00  0.00    +0.000 O 
BRANCH   34   33
ATOM     33  N4  UNL A   1      33.822 -15.987  27.209  1.00  0.00    +0.000 N 
ATOM    137  H39 UNL A   1      34.705 -16.213  26.838  1.00  0.00    +0.000 H 
BRANCH   33   32
ATOM    136  H38 UNL A   1      31.917 -15.528  26.612  1.00  0.00    +0.000 H 
ATOM    135  H37 UNL A   1      33.091 -15.712  25.300  1.00  0.00    +0.000 H 
ATOM     32  C25 UNL A   1      32.916 -15.329  26.284  1.00  0.00    +0.000 C 
BRANCH   32   31
ATOM    133  H35 UNL A   1      33.929 -13.576  26.894  1.00  0.00    +0.000 H 
ATOM    134  H36 UNL A   1      33.257 -13.555  25.234  1.00  0.00    +0.000 H 
ATOM     31  C24 UNL A   1      33.101 -13.817  26.259  1.00  0.00    +0.000 C 
BRANCH   31   30
ATOM    131  H33 UNL A   1      31.329 -12.727  25.860  1.00  0.00    +0.000 H 
ATOM    132  H34 UNL A   1      31.368 -13.631  27.412  1.00  0.00    +0.000 H 
ATOM     30  C23 UNL A   1      31.894 -13.001  26.726  1.00  0.00    +0.000 C 
BRANCH   30   29
ATOM    129  H31 UNL A   1      32.998 -11.938  28.195  1.00  0.00    +0.000 H 
ATOM    130  H32 UNL A   1      32.463 -10.986  26.766  1.00  0.00    +0.000 H 
ATOM     29  C22 UNL A   1      32.209 -11.717  27.506  1.00  0.00    +0.000 C 
BRANCH   29   28
ATOM     28  C21 UNL A   1      31.050 -11.107  28.304  1.00  0.00    +0.000 C 
ATOM    127  H29 UNL A   1      30.256 -11.823  28.340  1.00  0.00    +0.000 H 
ATOM    128  H30 UNL A   1      31.440 -10.865  29.271  1.00  0.00    +0.000 H 
BRANCH   28   27
ATOM     27  C20 UNL A   1      30.496  -9.812  27.725  1.00  0.00    +0.000 C 
ATOM    125  H27 UNL A   1      30.251  -9.156  28.533  1.00  0.00    +0.000 H 
ATOM    126  H28 UNL A   1      31.252  -9.402  27.088  1.00  0.00    +0.000 H 
BRANCH   27   26
ATOM     26  N3  UNL A   1      29.312 -10.005  26.915  1.00  0.00    +0.000 N 
ATOM    124  H26 UNL A   1      28.487 -10.328  27.344  1.00  0.00    +0.000 H 
BRANCH   26   24
ATOM     25  O4  UNL A   1      28.835  -8.672  25.186  1.00  0.00    +0.000 O 
ATOM     24  C19 UNL A   1      29.304  -9.752  25.563  1.00  0.00    +0.000 C 
BRANCH   24   16
ATOM    116  H18 UNL A   1      30.314 -11.543  25.129  1.00  0.00    +0.000 H 
ATOM     16  C11 UNL A   1      29.820 -10.804  24.534  1.00  0.00    +0.000 C 
BRANCH   16   15
ATOM    115  H17 UNL A   1      29.064 -12.528  23.602  1.00  0.00    +0.000 H 
ATOM     15  N2  UNL A   1      28.799 -11.610  23.839  1.00  0.00    +0.000 N 
BRANCH   15   13
ATOM     13  C10 UNL A   1      27.528 -11.242  23.482  1.00  0.00    +0.000 C 
ATOM     14  O3  UNL A   1      27.401 -10.548  22.469  1.00  0.00    +0.000 O 
BRANCH   13   12
ATOM      8  N1  UNL A   1      25.441 -12.661  23.563  1.00  0.00    +0.000 N 
ATOM      9  C6  UNL A   1      25.311 -13.942  24.222  1.00  0.00    +0.000 C 
ATOM     10  C7  UNL A   1      25.745 -13.669  25.651  1.00  0.00    +0.000 C 
ATOM     11  C8  UNL A   1      26.787 -12.565  25.503  1.00  0.00    +0.000 C 
ATOM     12  C9  UNL A   1      26.310 -11.739  24.293  1.00  0.00    +0.000 C 
ATOM    108  H10 UNL A   1      25.948 -14.670  23.765  1.00  0.00    +0.000 H 
ATOM    109  H11 UNL A   1      24.319 -14.336  24.163  1.00  0.00    +0.000 H 
ATOM    110  H12 UNL A   1      26.174 -14.543  26.094  1.00  0.00    +0.000 H 
ATOM    111  H13 UNL A   1      24.930 -13.391  26.286  1.00  0.00    +0.000 H 
ATOM    112  H14 UNL A   1      27.755 -12.982  25.319  1.00  0.00    +0.000 H 
ATOM    114  H16 UNL A   1      25.779 -10.846  24.545  1.00  0.00    +0.000 H 
ATOM    113  H15 UNL A   1      26.877 -11.972  26.389  1.00  0.00    +0.000 H 
BRANCH    8    6
ATOM      6  C5  UNL A   1      24.694 -12.210  22.509  1.00  0.00    +0.000 C 
ATOM      7  O2  UNL A   1      24.173 -11.110  22.514  1.00  0.00    +0.000 O 
BRANCH    6    5
ATOM      1  C1  UNL A   1      24.764 -14.002  19.326  1.00  0.00    +0.000 C 
ATOM      2  C2  UNL A   1      25.404 -13.067  20.362  1.00  0.00    +0.000 C 
ATOM     99  H1  UNL A   1      25.359 -14.010  18.437  1.00  0.00    +0.000 H 
ATOM    100  H2  UNL A   1      23.778 -13.656  19.093  1.00  0.00    +0.000 H 
ATOM    101  H3  UNL A   1      24.708 -14.993  19.726  1.00  0.00    +0.000 H 
ATOM      3  C3  UNL A   1      26.790 -13.600  20.736  1.00  0.00    +0.000 C 
ATOM      4  C4  UNL A   1      25.490 -11.667  19.724  1.00  0.00    +0.000 C 
ATOM      5  O1  UNL A   1      24.528 -13.127  21.523  1.00  0.00    +0.000 O 
ATOM    102  H4  UNL A   1      27.433 -13.555  19.881  1.00  0.00    +0.000 H 
ATOM    103  H5  UNL A   1      26.706 -14.614  21.066  1.00  0.00    +0.000 H 
ATOM    104  H6  UNL A   1      27.202 -13.003  21.523  1.00  0.00    +0.000 H 
ATOM    105  H7  UNL A   1      26.148 -11.700  18.881  1.00  0.00    +0.000 H 
ATOM    106  H8  UNL A   1      25.865 -10.970  20.443  1.00  0.00    +0.000 H 
ATOM    107  H9  UNL A   1      24.515 -11.361  19.404  1.00  0.00    +0.000 H 
ENDBRANCH    6    5
ENDBRANCH    8    6
ENDBRANCH   13   12
ENDBRANCH   15   13
ENDBRANCH   16   15
BRANCH   16   17
ATOM     17  C12 UNL A   1      30.836 -10.158  23.567  1.00  0.00    +0.000 C 
ATOM    117  H19 UNL A   1      30.554  -9.134  23.432  1.00  0.00    +0.000 H 
ATOM    118  H20 UNL A   1      30.796 -10.743  22.672  1.00  0.00    +0.000 H 
BRANCH   17   18
ATOM     18  C13 UNL A   1      32.280 -10.186  24.011  1.00  0.00    +0.000 C 
ATOM     19  C14 UNL A   1      33.139 -11.200  23.562  1.00  0.00    +0.000 C 
ATOM     20  C15 UNL A   1      34.452 -11.278  24.029  1.00  0.00    +0.000 C 
ATOM     21  C16 UNL A   1      34.930 -10.322  24.922  1.00  0.00    +0.000 C 
ATOM     22  C17 UNL A   1      34.098  -9.283  25.339  1.00  0.00    +0.000 C 
ATOM     23  C18 UNL A   1      32.778  -9.216  24.888  1.00  0.00    +0.000 C 
ATOM    119  H21 UNL A   1      32.797 -11.897  22.881  1.00  0.00    +0.000 H 
ATOM    120  H22 UNL A   1      35.069 -12.042  23.712  1.00  0.00    +0.000 H 
ATOM    122  H24 UNL A   1      34.459  -8.562  25.982  1.00  0.00    +0.000 H 
ATOM    123  H25 UNL A   1      32.166  -8.448  25.205  1.00  0.00    +0.000 H 
ATOM    121  H23 UNL A   1      35.897 -10.382  25.276  1.00  0.00    +0.000 H 
ENDBRANCH   17   18
ENDBRANCH   16   17
ENDBRANCH   24   16
ENDBRANCH   26   24
ENDBRANCH   27   26
ENDBRANCH   28   27
ENDBRANCH   29   28
ENDBRANCH   30   29
ENDBRANCH   31   30
ENDBRANCH   32   31
ENDBRANCH   33   32
ENDBRANCH   34   33
ENDBRANCH   36   34
ENDBRANCH   40   39
BRANCH   44   45
ATOM     45  C35 UNL A   1      24.990 -10.774  28.564  1.00  0.00    +0.000 C 
ATOM     46  C36 UNL A   1      25.680  -9.694  27.990  1.00  0.00    +0.000 C 
ATOM     47  F1  UNL A   1      26.699  -9.118  28.647  1.00  0.00    +0.000 F 
ATOM     48  C37 UNL A   1      25.293  -9.165  26.761  1.00  0.00    +0.000 C 
ATOM     49  F2  UNL A   1      25.927  -8.094  26.266  1.00  0.00    +0.000 F 
ATOM     50  C38 UNL A   1      24.238  -9.731  26.062  1.00  0.00    +0.000 C 
ATOM     51  F3  UNL A   1      23.866  -9.220  24.880  1.00  0.00    +0.000 F 
ATOM     52  C39 UNL A   1      23.563 -10.819  26.593  1.00  0.00    +0.000 C 
ATOM     53  F4  UNL A   1      22.552 -11.375  25.911  1.00  0.00    +0.000 F 
ATOM     54  C40 UNL A   1      23.925 -11.329  27.837  1.00  0.00    +0.000 C 
ATOM     55  F5  UNL A   1      23.235 -12.367  28.334  1.00  0.00    +0.000 F 
ENDBRANCH   44   45
BRANCH   61   62
ATOM     65  C48 UNL A   1      20.299 -11.014  36.308  1.00  0.00    +0.000 C 
ATOM     66  F7  UNL A   1      19.205 -11.767  36.492  1.00  0.00    +0.000 F 
ATOM     67  C49 UNL A   1      20.344  -9.724  36.815  1.00  0.00    +0.000 C 
ATOM     68  F8  UNL A   1      19.305  -9.237  37.506  1.00  0.00    +0.000 F 
ATOM     69  C50 UNL A   1      21.464  -8.936  36.598  1.00  0.00    +0.000 C 
ATOM     70  F9  UNL A   1      21.515  -7.694  37.098  1.00  0.00    +0.000 F 
ATOM     71  C51 UNL A   1      22.535  -9.432  35.860  1.00  0.00    +0.000 C 
ATOM     72  F10 UNL A   1      23.598  -8.641  35.654  1.00  0.00    +0.000 F 
ATOM     62  C46 UNL A   1      22.515 -10.739  35.347  1.00  0.00    +0.000 C 
ATOM     63  C47 UNL A   1      21.380 -11.525  35.596  1.00  0.00    +0.000 C 
ATOM     64  F6  UNL A   1      21.307 -12.775  35.113  1.00  0.00    +0.000 F 
ENDBRANCH   61   62
BRANCH   76   77
ATOM     77  C55 UNL A   1      28.032 -14.512  37.313  1.00  0.00    +0.000 C 
ATOM     78  C56 UNL A   1      27.466 -15.694  37.809  1.00  0.00    +0.000 C 
ATOM     79  F11 UNL A   1      26.494 -16.310  37.121  1.00  0.00    +0.000 F 
ATOM     80  C57 UNL A   1      27.870 -16.231  39.030  1.00  0.00    +0.000 C 
ATOM     81  F12 UNL A   1      27.286 -17.341  39.497  1.00  0.00    +0.000 F 
ATOM     82  C58 UNL A   1      28.869 -15.609  39.765  1.00  0.00    +0.000 C 
ATOM     83  F13 UNL A   1      29.264 -16.130  40.935  1.00  0.00    +0.000 F 
ATOM     84  C59 UNL A   1      29.453 -14.446  39.289  1.00  0.00    +0.000 C 
ATOM     85  F14 UNL A   1      30.428 -13.851  39.990  1.00  0.00    +0.000 F 
ATOM     86  C60 UNL A   1      29.030 -13.893  38.082  1.00  0.00    +0.000 C 
ATOM     87  F15 UNL A   1      29.607 -12.762  37.649  1.00  0.00    +0.000 F 
ENDBRANCH   76   77
TORSDOF 22
ENDMDL
MODEL 9
REMARK VINA RESULT:      -7.8     40.175     45.069
ROOT
ATOM    140  H42 UNL A   1      36.775  33.165  34.373  1.00  0.00    +0.000 H 
ATOM    141  H43 UNL A   1      35.849  32.953  31.945  1.00  0.00    +0.000 H 
ATOM    142  H44 UNL A   1      39.141  30.467  32.305  1.00  0.00    +0.000 H 
ATOM    143  H45 UNL A   1      43.365  26.488  29.638  1.00  0.00    +0.000 H 
ATOM    144  H46 UNL A   1      44.199  26.616  32.035  1.00  0.00    +0.000 H 
ATOM    145  H47 UNL A   1      40.845  29.053  31.725  1.00  0.00    +0.000 H 
ATOM    146  H48 UNL A   1      39.200  28.551  27.003  1.00  0.00    +0.000 H 
ATOM    147  H49 UNL A   1      37.418  30.297  27.574  1.00  0.00    +0.000 H 
ATOM    148  H50 UNL A   1      40.700  30.668  37.059  1.00  0.00    +0.000 H 
ATOM    149  H51 UNL A   1      42.769  29.316  36.392  1.00  0.00    +0.000 H 
ATOM     40  C31 UNL A   1      42.703  28.379  33.703  1.00  0.00    +0.000 C 
ATOM     41  C32 UNL A   1      41.731  29.306  34.376  1.00  0.00    +0.000 C 
ATOM     42  N5  UNL A   1      40.661  29.885  33.888  1.00  0.00    +0.000 N 
ATOM     43  C33 UNL A   1      40.105  30.599  34.940  1.00  0.00    +0.000 C 
ATOM     44  C34 UNL A   1      39.030  31.423  34.930  1.00  0.00    +0.000 C 
ATOM     56  C41 UNL A   1      38.233  31.699  33.762  1.00  0.00    +0.000 C 
ATOM     57  C42 UNL A   1      37.155  32.556  33.632  1.00  0.00    +0.000 C 
ATOM     58  C43 UNL A   1      36.670  32.455  32.324  1.00  0.00    +0.000 C 
ATOM     59  C44 UNL A   1      37.478  31.574  31.623  1.00  0.00    +0.000 C 
ATOM     60  N6  UNL A   1      38.430  31.113  32.519  1.00  0.00    +0.000 N 
ATOM     61  C45 UNL A   1      37.388  31.180  30.240  1.00  0.00    +0.000 C 
ATOM     73  C52 UNL A   1      38.231  30.318  29.619  1.00  0.00    +0.000 C 
ATOM     74  N7  UNL A   1      39.329  29.645  30.139  1.00  0.00    +0.000 N 
ATOM     75  C53 UNL A   1      39.811  28.926  29.155  1.00  0.00    +0.000 C 
ATOM     76  C54 UNL A   1      41.014  28.024  29.136  1.00  0.00    +0.000 C 
ATOM     88  C61 UNL A   1      41.743  27.878  30.259  1.00  0.00    +0.000 C 
ATOM     89  C62 UNL A   1      42.936  27.046  30.393  1.00  0.00    +0.000 C 
ATOM     90  C63 UNL A   1      43.383  27.123  31.656  1.00  0.00    +0.000 C 
ATOM     91  C64 UNL A   1      42.531  28.043  32.411  1.00  0.00    +0.000 C 
ATOM     92  N8  UNL A   1      41.577  28.433  31.503  1.00  0.00    +0.000 N 
ATOM     93  C65 UNL A   1      39.050  29.037  27.902  1.00  0.00    +0.000 C 
ATOM     94  C66 UNL A   1      38.125  29.928  28.228  1.00  0.00    +0.000 C 
ATOM     95  C67 UNL A   1      40.917  30.334  36.108  1.00  0.00    +0.000 C 
ATOM     96  C68 UNL A   1      41.977  29.603  35.795  1.00  0.00    +0.000 C 
ENDROOT
BRANCH   40   39
ATOM     97  C69 UNL A   1      43.596  26.629  35.245  1.00  0.00    +0.000 C 
ATOM     98  C70 UNL A   1      44.625  26.076  36.004  1.00  0.00    +0.000 C 
ATOM     36  C27 UNL A   1      45.918  26.598  35.913  1.00  0.00    +0.000 C 
ATOM     37  C28 UNL A   1      46.150  27.756  35.163  1.00  0.00    +0.000 C 
ATOM     38  C29 UNL A   1      45.101  28.356  34.466  1.00  0.00    +0.000 C 
ATOM     39  C30 UNL A   1      43.821  27.781  34.477  1.00  0.00    +0.000 C 
ATOM    138  H40 UNL A   1      47.097  28.165  35.126  1.00  0.00    +0.000 H 
ATOM    139  H41 UNL A   1      45.267  29.228  33.938  1.00  0.00    +0.000 H 
ATOM    150  H52 UNL A   1      42.663  26.189  35.249  1.00  0.00    +0.000 H 
ATOM    151  H53 UNL A   1      44.433  25.281  36.633  1.00  0.00    +0.000 H 
BRANCH   36   34
ATOM     34  C26 UNL A   1      47.057  25.970  36.621  1.00  0.00    +0.000 C 
ATOM     35  O5  UNL A   1      47.612  24.992  36.128  1.00  0.00    +0.000 O 
BRANCH   34   33
ATOM     33  N4  UNL A   1      47.482  26.461  37.829  1.00  0.00    +0.000 N 
ATOM    137  H39 UNL A   1      47.051  26.061  38.617  1.00  0.00    +0.000 H 
BRANCH   33   32
ATOM    136  H38 UNL A   1      48.819  27.876  37.188  1.00  0.00    +0.000 H 
ATOM    135  H37 UNL A   1      49.269  27.038  38.681  1.00  0.00    +0.000 H 
ATOM     32  C25 UNL A   1      48.473  27.482  38.121  1.00  0.00    +0.000 C 
BRANCH   32   31
ATOM    133  H35 UNL A   1      47.249  28.234  39.672  1.00  0.00    +0.000 H 
ATOM    134  H36 UNL A   1      48.738  29.168  39.327  1.00  0.00    +0.000 H 
ATOM     31  C24 UNL A   1      47.898  28.641  38.925  1.00  0.00    +0.000 C 
BRANCH   31   30
ATOM    131  H33 UNL A   1      47.573  30.621  38.244  1.00  0.00    +0.000 H 
ATOM    132  H34 UNL A   1      47.105  29.308  37.110  1.00  0.00    +0.000 H 
ATOM     30  C23 UNL A   1      47.102  29.669  38.117  1.00  0.00    +0.000 C 
BRANCH   30   29
ATOM    129  H31 UNL A   1      45.224  28.844  38.663  1.00  0.00    +0.000 H 
ATOM    130  H32 UNL A   1      45.610  30.458  39.357  1.00  0.00    +0.000 H 
ATOM     29  C22 UNL A   1      45.622  29.824  38.495  1.00  0.00    +0.000 C 
BRANCH   29   28
ATOM     28  C21 UNL A   1      44.728  30.519  37.461  1.00  0.00    +0.000 C 
ATOM    127  H29 UNL A   1      44.453  29.800  36.718  1.00  0.00    +0.000 H 
ATOM    128  H30 UNL A   1      43.888  30.909  37.997  1.00  0.00    +0.000 H 
BRANCH   28   27
ATOM     27  C20 UNL A   1      45.378  31.703  36.757  1.00  0.00    +0.000 C 
ATOM    125  H27 UNL A   1      45.556  32.472  37.479  1.00  0.00    +0.000 H 
ATOM    126  H28 UNL A   1      46.286  31.347  36.314  1.00  0.00    +0.000 H 
BRANCH   27   26
ATOM     26  N3  UNL A   1      44.568  32.254  35.690  1.00  0.00    +0.000 N 
ATOM    124  H26 UNL A   1      43.619  31.999  35.632  1.00  0.00    +0.000 H 
BRANCH   26   24
ATOM     25  O4  UNL A   1      45.485  34.220  35.155  1.00  0.00    +0.000 O 
ATOM     24  C19 UNL A   1      45.085  33.120  34.756  1.00  0.00    +0.000 C 
BRANCH   24   16
ATOM    116  H18 UNL A   1      44.257  33.232  32.828  1.00  0.00    +0.000 H 
ATOM     16  C11 UNL A   1      45.122  32.756  33.240  1.00  0.00    +0.000 C 
BRANCH   16   15
ATOM    115  H17 UNL A   1      47.119  33.222  32.782  1.00  0.00    +0.000 H 
ATOM     15  N2  UNL A   1      46.206  33.354  32.438  1.00  0.00    +0.000 N 
BRANCH   15   13
ATOM     13  C10 UNL A   1      46.101  34.069  31.274  1.00  0.00    +0.000 C 
ATOM     14  O3  UNL A   1      46.462  33.514  30.232  1.00  0.00    +0.000 O 
BRANCH   13   12
ATOM      8  N1  UNL A   1      44.089  35.539  31.683  1.00  0.00    +0.000 N 
ATOM      9  C6  UNL A   1      43.875  36.381  32.840  1.00  0.00    +0.000 C 
ATOM     10  C7  UNL A   1      45.111  37.259  32.893  1.00  0.00    +0.000 C 
ATOM     11  C8  UNL A   1      46.208  36.365  32.322  1.00  0.00    +0.000 C 
ATOM     12  C9  UNL A   1      45.492  35.489  31.276  1.00  0.00    +0.000 C 
ATOM    108  H10 UNL A   1      43.789  35.791  33.728  1.00  0.00    +0.000 H 
ATOM    109  H11 UNL A   1      42.971  36.949  32.773  1.00  0.00    +0.000 H 
ATOM    110  H12 UNL A   1      45.335  37.543  33.900  1.00  0.00    +0.000 H 
ATOM    111  H13 UNL A   1      44.995  38.174  32.351  1.00  0.00    +0.000 H 
ATOM    112  H14 UNL A   1      46.640  35.760  33.092  1.00  0.00    +0.000 H 
ATOM    114  H16 UNL A   1      45.600  35.824  30.267  1.00  0.00    +0.000 H 
ATOM    113  H15 UNL A   1      47.011  36.931  31.897  1.00  0.00    +0.000 H 
BRANCH    8    6
ATOM      6  C5  UNL A   1      43.121  35.008  30.875  1.00  0.00    +0.000 C 
ATOM      7  O2  UNL A   1      43.387  34.505  29.798  1.00  0.00    +0.000 O 
BRANCH    6    5
ATOM      1  C1  UNL A   1      39.623  34.515  31.807  1.00  0.00    +0.000 C 
ATOM      2  C2  UNL A   1      41.050  33.989  31.598  1.00  0.00    +0.000 C 
ATOM     99  H1  UNL A   1      38.965  33.694  31.998  1.00  0.00    +0.000 H 
ATOM    100  H2  UNL A   1      39.301  35.034  30.928  1.00  0.00    +0.000 H 
ATOM    101  H3  UNL A   1      39.608  35.185  32.641  1.00  0.00    +0.000 H 
ATOM      3  C3  UNL A   1      41.529  33.300  32.879  1.00  0.00    +0.000 C 
ATOM      4  C4  UNL A   1      41.007  33.008  30.411  1.00  0.00    +0.000 C 
ATOM      5  O1  UNL A   1      41.860  35.172  31.348  1.00  0.00    +0.000 O 
ATOM    102  H4  UNL A   1      40.931  32.430  33.061  1.00  0.00    +0.000 H 
ATOM    103  H5  UNL A   1      41.435  33.975  33.704  1.00  0.00    +0.000 H 
ATOM    104  H6  UNL A   1      42.553  33.012  32.768  1.00  0.00    +0.000 H 
ATOM    105  H7  UNL A   1      40.396  32.167  30.665  1.00  0.00    +0.000 H 
ATOM    106  H8  UNL A   1      41.998  32.674  30.187  1.00  0.00    +0.000 H 
ATOM    107  H9  UNL A   1      40.594  33.502  29.555  1.00  0.00    +0.000 H 
ENDBRANCH    6    5
ENDBRANCH    8    6
ENDBRANCH   13   12
ENDBRANCH   15   13
ENDBRANCH   16   15
BRANCH   16   17
ATOM     17  C12 UNL A   1      45.008  31.228  33.051  1.00  0.00    +0.000 C 
ATOM    117  H19 UNL A   1      44.104  30.905  33.524  1.00  0.00    +0.000 H 
ATOM    118  H20 UNL A   1      45.897  30.816  33.481  1.00  0.00    +0.000 H 
BRANCH   17   18
ATOM     18  C13 UNL A   1      44.982  30.740  31.621  1.00  0.00    +0.000 C 
ATOM     19  C14 UNL A   1      43.945  31.127  30.759  1.00  0.00    +0.000 C 
ATOM     20  C15 UNL A   1      43.872  30.618  29.462  1.00  0.00    +0.000 C 
ATOM     21  C16 UNL A   1      44.854  29.745  29.001  1.00  0.00    +0.000 C 
ATOM     22  C17 UNL A   1      45.915  29.390  29.834  1.00  0.00    +0.000 C 
ATOM     23  C18 UNL A   1      45.978  29.882  31.139  1.00  0.00    +0.000 C 
ATOM    119  H21 UNL A   1      43.229  31.793  31.088  1.00  0.00    +0.000 H 
ATOM    120  H22 UNL A   1      43.091  30.889  28.844  1.00  0.00    +0.000 H 
ATOM    122  H24 UNL A   1      46.655  28.761  29.485  1.00  0.00    +0.000 H 
ATOM    123  H25 UNL A   1      46.762  29.610  31.752  1.00  0.00    +0.000 H 
ATOM    121  H23 UNL A   1      44.797  29.360  28.045  1.00  0.00    +0.000 H 
ENDBRANCH   17   18
ENDBRANCH   16   17
ENDBRANCH   24   16
ENDBRANCH   26   24
ENDBRANCH   27   26
ENDBRANCH   28   27
ENDBRANCH   29   28
ENDBRANCH   30   29
ENDBRANCH   31   30
ENDBRANCH   32   31
ENDBRANCH   33   32
ENDBRANCH   34   33
ENDBRANCH   36   34
ENDBRANCH   40   39
BRANCH   44   45
ATOM     45  C35 UNL A   1      38.655  32.084  36.227  1.00  0.00    +0.000 C 
ATOM     46  C36 UNL A   1      37.931  31.402  37.218  1.00  0.00    +0.000 C 
ATOM     47  F1  UNL A   1      37.541  30.134  37.016  1.00  0.00    +0.000 F 
ATOM     48  C37 UNL A   1      37.557  32.036  38.399  1.00  0.00    +0.000 C 
ATOM     49  F2  UNL A   1      36.811  31.384  39.301  1.00  0.00    +0.000 F 
ATOM     50  C38 UNL A   1      37.936  33.349  38.633  1.00  0.00    +0.000 C 
ATOM     51  F3  UNL A   1      37.574  33.959  39.771  1.00  0.00    +0.000 F 
ATOM     52  C39 UNL A   1      38.680  34.033  37.683  1.00  0.00    +0.000 C 
ATOM     53  F4  UNL A   1      39.058  35.297  37.916  1.00  0.00    +0.000 F 
ATOM     54  C40 UNL A   1      39.026  33.412  36.486  1.00  0.00    +0.000 C 
ATOM     55  F5  UNL A   1      39.725  34.110  35.578  1.00  0.00    +0.000 F 
ENDBRANCH   44   45
BRANCH   61   62
ATOM     65  C48 UNL A   1      34.211  31.611  28.171  1.00  0.00    +0.000 C 
ATOM     66  F7  UNL A   1      33.219  30.854  27.683  1.00  0.00    +0.000 F 
ATOM     67  C49 UNL A   1      34.237  32.972  27.906  1.00  0.00    +0.000 C 
ATOM     68  F8  UNL A   1      33.260  33.534  27.181  1.00  0.00    +0.000 F 
ATOM     69  C50 UNL A   1      35.281  33.749  28.385  1.00  0.00    +0.000 C 
ATOM     70  F9  UNL A   1      35.301  35.066  28.142  1.00  0.00    +0.000 F 
ATOM     71  C51 UNL A   1      36.308  33.163  29.119  1.00  0.00    +0.000 C 
ATOM     72  F10 UNL A   1      37.312  33.937  29.557  1.00  0.00    +0.000 F 
ATOM     62  C46 UNL A   1      36.296  31.789  29.409  1.00  0.00    +0.000 C 
ATOM     63  C47 UNL A   1      35.221  31.026  28.930  1.00  0.00    +0.000 C 
ATOM     64  F6  UNL A   1      35.172  29.706  29.167  1.00  0.00    +0.000 F 
ENDBRANCH   61   62
BRANCH   76   77
ATOM     77  C55 UNL A   1      41.429  27.328  27.891  1.00  0.00    +0.000 C 
ATOM     78  C56 UNL A   1      41.173  25.962  27.717  1.00  0.00    +0.000 C 
ATOM     79  F11 UNL A   1      40.575  25.263  28.693  1.00  0.00    +0.000 F 
ATOM     80  C57 UNL A   1      41.561  25.298  26.554  1.00  0.00    +0.000 C 
ATOM     81  F12 UNL A   1      41.336  23.984  26.430  1.00  0.00    +0.000 F 
ATOM     82  C58 UNL A   1      42.187  25.996  25.532  1.00  0.00    +0.000 C 
ATOM     83  F13 UNL A   1      42.552  25.360  24.411  1.00  0.00    +0.000 F 
ATOM     84  C59 UNL A   1      42.439  27.351  25.677  1.00  0.00    +0.000 C 
ATOM     85  F14 UNL A   1      43.032  28.030  24.685  1.00  0.00    +0.000 F 
ATOM     86  C60 UNL A   1      42.077  28.010  26.850  1.00  0.00    +0.000 C 
ATOM     87  F15 UNL A   1      42.341  29.319  26.966  1.00  0.00    +0.000 F 
ENDBRANCH   76   77
TORSDOF 22
ENDMDL
MODEL 10
REMARK VINA RESULT:      -7.8     36.299     42.156
ROOT
ATOM    140  H42 UNL A   1      36.768  33.320  34.449  1.00  0.00    +0.000 H 
ATOM    141  H43 UNL A   1      35.838  33.152  32.019  1.00  0.00    +0.000 H 
ATOM    142  H44 UNL A   1      39.076  30.592  32.354  1.00  0.00    +0.000 H 
ATOM    143  H45 UNL A   1      43.215  26.550  29.648  1.00  0.00    +0.000 H 
ATOM    144  H46 UNL A   1      44.050  26.636  32.046  1.00  0.00    +0.000 H 
ATOM    145  H47 UNL A   1      40.750  29.148  31.760  1.00  0.00    +0.000 H 
ATOM    146  H48 UNL A   1      39.095  28.728  27.034  1.00  0.00    +0.000 H 
ATOM    147  H49 UNL A   1      37.351  30.506  27.622  1.00  0.00    +0.000 H 
ATOM    148  H50 UNL A   1      40.638  30.713  37.110  1.00  0.00    +0.000 H 
ATOM    149  H51 UNL A   1      42.678  29.324  36.429  1.00  0.00    +0.000 H 
ATOM     40  C31 UNL A   1      42.593  28.415  33.732  1.00  0.00    +0.000 C 
ATOM     41  C32 UNL A   1      41.640  29.356  34.414  1.00  0.00    +0.000 C 
ATOM     42  N5  UNL A   1      40.583  29.962  33.931  1.00  0.00    +0.000 N 
ATOM     43  C33 UNL A   1      40.042  30.678  34.991  1.00  0.00    +0.000 C 
ATOM     44  C34 UNL A   1      38.985  31.525  34.988  1.00  0.00    +0.000 C 
ATOM     56  C41 UNL A   1      38.195  31.829  33.823  1.00  0.00    +0.000 C 
ATOM     57  C42 UNL A   1      37.136  32.711  33.702  1.00  0.00    +0.000 C 
ATOM     58  C43 UNL A   1      36.648  32.632  32.393  1.00  0.00    +0.000 C 
ATOM     59  C44 UNL A   1      37.438  31.742  31.683  1.00  0.00    +0.000 C 
ATOM     60  N6  UNL A   1      38.379  31.251  32.575  1.00  0.00    +0.000 N 
ATOM     61  C45 UNL A   1      37.340  31.363  30.296  1.00  0.00    +0.000 C 
ATOM     73  C52 UNL A   1      38.164  30.489  29.667  1.00  0.00    +0.000 C 
ATOM     74  N7  UNL A   1      39.247  29.788  30.180  1.00  0.00    +0.000 N 
ATOM     75  C53 UNL A   1      39.714  29.068  29.189  1.00  0.00    +0.000 C 
ATOM     76  C54 UNL A   1      40.897  28.141  29.162  1.00  0.00    +0.000 C 
ATOM     88  C61 UNL A   1      41.623  27.968  30.283  1.00  0.00    +0.000 C 
ATOM     89  C62 UNL A   1      42.798  27.110  30.409  1.00  0.00    +0.000 C 
ATOM     90  C63 UNL A   1      43.246  27.165  31.673  1.00  0.00    +0.000 C 
ATOM     91  C64 UNL A   1      42.414  28.095  32.436  1.00  0.00    +0.000 C 
ATOM     92  N8  UNL A   1      41.469  28.514  31.533  1.00  0.00    +0.000 N 
ATOM     93  C65 UNL A   1      38.956  29.208  27.937  1.00  0.00    +0.000 C 
ATOM     94  C66 UNL A   1      38.050  30.116  28.272  1.00  0.00    +0.000 C 
ATOM     95  C67 UNL A   1      40.848  30.383  36.156  1.00  0.00    +0.000 C 
ATOM     96  C68 UNL A   1      41.893  29.633  35.836  1.00  0.00    +0.000 C 
ENDROOT
BRANCH   40   39
ATOM     97  C69 UNL A   1      43.481  26.562  35.151  1.00  0.00    +0.000 C 
ATOM     98  C70 UNL A   1      44.496  25.976  35.903  1.00  0.00    +0.000 C 
ATOM     36  C27 UNL A   1      45.772  26.545  35.919  1.00  0.00    +0.000 C 
ATOM     37  C28 UNL A   1      45.994  27.773  35.287  1.00  0.00    +0.000 C 
ATOM     38  C29 UNL A   1      44.955  28.401  34.598  1.00  0.00    +0.000 C 
ATOM     39  C30 UNL A   1      43.697  27.785  34.499  1.00  0.00    +0.000 C 
ATOM    138  H40 UNL A   1      46.926  28.214  35.330  1.00  0.00    +0.000 H 
ATOM    139  H41 UNL A   1      45.112  29.321  34.159  1.00  0.00    +0.000 H 
ATOM    150  H52 UNL A   1      42.565  26.094  35.073  1.00  0.00    +0.000 H 
ATOM    151  H53 UNL A   1      44.306  25.121  36.449  1.00  0.00    +0.000 H 
BRANCH   36   34
ATOM     34  C26 UNL A   1      46.902  25.893  36.620  1.00  0.00    +0.000 C 
ATOM     35  O5  UNL A   1      47.948  26.512  36.789  1.00  0.00    +0.000 O 
BRANCH   34   33
ATOM     33  N4  UNL A   1      46.793  24.599  37.062  1.00  0.00    +0.000 N 
ATOM    137  H39 UNL A   1      47.118  23.915  36.434  1.00  0.00    +0.000 H 
BRANCH   33   32
ATOM    136  H38 UNL A   1      45.244  23.836  38.165  1.00  0.00    +0.000 H 
ATOM    135  H37 UNL A   1      46.388  24.838  39.071  1.00  0.00    +0.000 H 
ATOM     32  C25 UNL A   1      46.273  24.086  38.318  1.00  0.00    +0.000 C 
BRANCH   32   31
ATOM    133  H35 UNL A   1      47.874  22.712  38.180  1.00  0.00    +0.000 H 
ATOM    134  H36 UNL A   1      47.192  22.958  39.818  1.00  0.00    +0.000 H 
ATOM     31  C24 UNL A   1      46.992  22.823  38.776  1.00  0.00    +0.000 C 
BRANCH   31   30
ATOM    131  H33 UNL A   1      45.186  21.738  39.000  1.00  0.00    +0.000 H 
ATOM    132  H34 UNL A   1      46.246  21.236  37.639  1.00  0.00    +0.000 H 
ATOM     30  C23 UNL A   1      46.180  21.530  38.665  1.00  0.00    +0.000 C 
BRANCH   30   29
ATOM    129  H31 UNL A   1      47.668  20.598  39.858  1.00  0.00    +0.000 H 
ATOM    130  H32 UNL A   1      45.967  20.145  40.221  1.00  0.00    +0.000 H 
ATOM     29  C22 UNL A   1      46.706  20.334  39.471  1.00  0.00    +0.000 C 
BRANCH   29   28
ATOM     28  C21 UNL A   1      46.858  19.015  38.703  1.00  0.00    +0.000 C 
ATOM    127  H29 UNL A   1      46.463  19.153  37.718  1.00  0.00    +0.000 H 
ATOM    128  H30 UNL A   1      47.903  18.780  38.704  1.00  0.00    +0.000 H 
BRANCH   28   27
ATOM     27  C20 UNL A   1      46.147  17.828  39.338  1.00  0.00    +0.000 C 
ATOM    125  H27 UNL A   1      45.445  17.436  38.634  1.00  0.00    +0.000 H 
ATOM    126  H28 UNL A   1      46.899  17.112  39.600  1.00  0.00    +0.000 H 
BRANCH   27   26
ATOM     26  N3  UNL A   1      45.437  18.167  40.554  1.00  0.00    +0.000 N 
ATOM    124  H26 UNL A   1      45.408  19.107  40.843  1.00  0.00    +0.000 H 
BRANCH   26   24
ATOM     25  O4  UNL A   1      43.865  16.598  40.801  1.00  0.00    +0.000 O 
ATOM     24  C19 UNL A   1      44.804  17.214  41.318  1.00  0.00    +0.000 C 
BRANCH   24   16
ATOM    116  H18 UNL A   1      44.295  16.964  43.341  1.00  0.00    +0.000 H 
ATOM     16  C11 UNL A   1      45.217  16.951  42.798  1.00  0.00    +0.000 C 
BRANCH   16   15
ATOM    115  H17 UNL A   1      46.267  15.172  42.411  1.00  0.00    +0.000 H 
ATOM     15  N2  UNL A   1      45.734  15.606  43.116  1.00  0.00    +0.000 N 
BRANCH   15   13
ATOM     13  C10 UNL A   1      45.568  14.887  44.270  1.00  0.00    +0.000 C 
ATOM     14  O3  UNL A   1      46.587  14.531  44.869  1.00  0.00    +0.000 O 
BRANCH   13   12
ATOM      8  N1  UNL A   1      43.925  13.202  45.186  1.00  0.00    +0.000 N 
ATOM      9  C6  UNL A   1      43.557  13.046  46.576  1.00  0.00    +0.000 C 
ATOM     10  C7  UNL A   1      43.088  14.427  46.993  1.00  0.00    +0.000 C 
ATOM     11  C8  UNL A   1      43.935  15.365  46.138  1.00  0.00    +0.000 C 
ATOM     12  C9  UNL A   1      44.153  14.599  44.819  1.00  0.00    +0.000 C 
ATOM    108  H10 UNL A   1      44.400  12.738  47.159  1.00  0.00    +0.000 H 
ATOM    109  H11 UNL A   1      42.807  12.297  46.720  1.00  0.00    +0.000 H 
ATOM    110  H12 UNL A   1      43.267  14.593  48.035  1.00  0.00    +0.000 H 
ATOM    111  H13 UNL A   1      42.038  14.570  46.852  1.00  0.00    +0.000 H 
ATOM    112  H14 UNL A   1      44.871  15.569  46.616  1.00  0.00    +0.000 H 
ATOM    114  H16 UNL A   1      43.498  14.887  44.024  1.00  0.00    +0.000 H 
ATOM    113  H15 UNL A   1      43.461  16.312  45.985  1.00  0.00    +0.000 H 
BRANCH    8    6
ATOM      6  C5  UNL A   1      43.864  12.239  44.216  1.00  0.00    +0.000 C 
ATOM      7  O2  UNL A   1      44.432  11.169  44.334  1.00  0.00    +0.000 O 
BRANCH    6    5
ATOM      1  C1  UNL A   1      41.450  12.531  41.489  1.00  0.00    +0.000 C 
ATOM      2  C2  UNL A   1      41.803  12.221  42.950  1.00  0.00    +0.000 C 
ATOM     99  H1  UNL A   1      40.433  12.258  41.301  1.00  0.00    +0.000 H 
ATOM    100  H2  UNL A   1      42.095  11.976  40.840  1.00  0.00    +0.000 H 
ATOM    101  H3  UNL A   1      41.577  13.578  41.306  1.00  0.00    +0.000 H 
ATOM      3  C3  UNL A   1      40.919  13.063  43.875  1.00  0.00    +0.000 C 
ATOM      4  C4  UNL A   1      41.572  10.713  43.166  1.00  0.00    +0.000 C 
ATOM      5  O1  UNL A   1      43.193  12.626  43.101  1.00  0.00    +0.000 O 
ATOM    102  H4  UNL A   1      39.897  12.763  43.761  1.00  0.00    +0.000 H 
ATOM    103  H5  UNL A   1      41.017  14.097  43.618  1.00  0.00    +0.000 H 
ATOM    104  H6  UNL A   1      41.222  12.916  44.890  1.00  0.00    +0.000 H 
ATOM    105  H7  UNL A   1      40.533  10.490  43.039  1.00  0.00    +0.000 H 
ATOM    106  H8  UNL A   1      41.876  10.443  44.155  1.00  0.00    +0.000 H 
ATOM    107  H9  UNL A   1      42.146  10.158  42.452  1.00  0.00    +0.000 H 
ENDBRANCH    6    5
ENDBRANCH    8    6
ENDBRANCH   13   12
ENDBRANCH   15   13
ENDBRANCH   16   15
BRANCH   16   17
ATOM     17  C12 UNL A   1      46.133  18.083  43.311  1.00  0.00    +0.000 C 
ATOM    117  H19 UNL A   1      45.863  18.981  42.796  1.00  0.00    +0.000 H 
ATOM    118  H20 UNL A   1      47.133  17.755  43.121  1.00  0.00    +0.000 H 
BRANCH   17   18
ATOM     18  C13 UNL A   1      46.069  18.363  44.795  1.00  0.00    +0.000 C 
ATOM     19  C14 UNL A   1      47.127  17.983  45.633  1.00  0.00    +0.000 C 
ATOM     20  C15 UNL A   1      47.041  18.167  47.014  1.00  0.00    +0.000 C 
ATOM     21  C16 UNL A   1      45.911  18.765  47.567  1.00  0.00    +0.000 C 
ATOM     22  C17 UNL A   1      44.873  19.189  46.737  1.00  0.00    +0.000 C 
ATOM     23  C18 UNL A   1      44.949  18.987  45.357  1.00  0.00    +0.000 C 
ATOM    119  H21 UNL A   1      47.977  17.562  45.226  1.00  0.00    +0.000 H 
ATOM    120  H22 UNL A   1      47.814  17.861  47.625  1.00  0.00    +0.000 H 
ATOM    122  H24 UNL A   1      44.047  19.653  47.144  1.00  0.00    +0.000 H 
ATOM    123  H25 UNL A   1      44.175  19.297  44.750  1.00  0.00    +0.000 H 
ATOM    121  H23 UNL A   1      45.841  18.894  48.588  1.00  0.00    +0.000 H 
ENDBRANCH   17   18
ENDBRANCH   16   17
ENDBRANCH   24   16
ENDBRANCH   26   24
ENDBRANCH   27   26
ENDBRANCH   28   27
ENDBRANCH   29   28
ENDBRANCH   30   29
ENDBRANCH   31   30
ENDBRANCH   32   31
ENDBRANCH   33   32
ENDBRANCH   34   33
ENDBRANCH   36   34
ENDBRANCH   40   39
BRANCH   44   45
ATOM     45  C35 UNL A   1      38.624  32.180  36.292  1.00  0.00    +0.000 C 
ATOM     46  C36 UNL A   1      38.971  33.513  36.567  1.00  0.00    +0.000 C 
ATOM     47  F1  UNL A   1      39.655  34.232  35.663  1.00  0.00    +0.000 F 
ATOM     48  C37 UNL A   1      38.665  34.097  37.793  1.00  0.00    +0.000 C 
ATOM     49  F2  UNL A   1      39.064  35.349  38.055  1.00  0.00    +0.000 F 
ATOM     50  C38 UNL A   1      37.968  33.377  38.751  1.00  0.00    +0.000 C 
ATOM     51  F3  UNL A   1      37.675  33.940  39.932  1.00  0.00    +0.000 F 
ATOM     52  C39 UNL A   1      37.585  32.070  38.489  1.00  0.00    +0.000 C 
ATOM     53  F4  UNL A   1      36.900  31.379  39.410  1.00  0.00    +0.000 F 
ATOM     54  C40 UNL A   1      37.920  31.472  37.278  1.00  0.00    +0.000 C 
ATOM     55  F5  UNL A   1      37.556  30.198  37.066  1.00  0.00    +0.000 F 
ENDBRANCH   44   45
BRANCH   61   62
ATOM     65  C48 UNL A   1      34.188  31.876  28.206  1.00  0.00    +0.000 C 
ATOM     66  F7  UNL A   1      33.197  31.140  27.685  1.00  0.00    +0.000 F 
ATOM     67  C49 UNL A   1      34.227  33.243  27.981  1.00  0.00    +0.000 C 
ATOM     68  F8  UNL A   1      33.262  33.833  27.261  1.00  0.00    +0.000 F 
ATOM     69  C50 UNL A   1      35.270  33.999  28.494  1.00  0.00    +0.000 C 
ATOM     70  F9  UNL A   1      35.302  35.323  28.289  1.00  0.00    +0.000 F 
ATOM     71  C51 UNL A   1      36.285  33.385  29.221  1.00  0.00    +0.000 C 
ATOM     72  F10 UNL A   1      37.289  34.139  29.693  1.00  0.00    +0.000 F 
ATOM     62  C46 UNL A   1      36.261  32.003  29.471  1.00  0.00    +0.000 C 
ATOM     63  C47 UNL A   1      35.186  31.262  28.958  1.00  0.00    +0.000 C 
ATOM     64  F6  UNL A   1      35.126  29.936  29.156  1.00  0.00    +0.000 F 
ENDBRANCH   61   62
BRANCH   76   77
ATOM     77  C55 UNL A   1      41.298  27.449  27.910  1.00  0.00    +0.000 C 
ATOM     78  C56 UNL A   1      42.078  28.106  26.949  1.00  0.00    +0.000 C 
ATOM     79  F11 UNL A   1      42.443  29.382  27.142  1.00  0.00    +0.000 F 
ATOM     80  C57 UNL A   1      42.457  27.468  25.769  1.00  0.00    +0.000 C 
ATOM     81  F12 UNL A   1      43.171  28.132  24.851  1.00  0.00    +0.000 F 
ATOM     82  C58 UNL A   1      42.087  26.151  25.542  1.00  0.00    +0.000 C 
ATOM     83  F13 UNL A   1      42.459  25.535  24.412  1.00  0.00    +0.000 F 
ATOM     84  C59 UNL A   1      41.326  25.476  26.484  1.00  0.00    +0.000 C 
ATOM     85  F14 UNL A   1      40.978  24.200  26.273  1.00  0.00    +0.000 F 
ATOM     86  C60 UNL A   1      40.923  26.122  27.651  1.00  0.00    +0.000 C 
ATOM     87  F15 UNL A   1      40.180  25.448  28.541  1.00  0.00    +0.000 F 
ENDBRANCH   76   77
TORSDOF 22
ENDMDL
