MODEL 1
REMARK VINA RESULT:      -6.5      0.000      0.000
ROOT
ATOM    141  H46 UNL A   1       0.935  -0.743  30.251  1.00  0.00    +0.000 H 
ATOM    142  H47 UNL A   1       1.068  -1.478  27.753  1.00  0.00    +0.000 H 
ATOM    143  H48 UNL A   1       3.396  -4.066  29.997  1.00  0.00    +0.000 H 
ATOM    144  H49 UNL A   1       7.605  -8.846  30.284  1.00  0.00    +0.000 H 
ATOM    145  H50 UNL A   1       7.399  -8.186  32.728  1.00  0.00    +0.000 H 
ATOM    146  H51 UNL A   1       5.020  -5.600  30.506  1.00  0.00    +0.000 H 
ATOM    147  H52 UNL A   1       5.281  -7.244  25.753  1.00  0.00    +0.000 H 
ATOM    148  H53 UNL A   1       3.717  -5.313  25.133  1.00  0.00    +0.000 H 
ATOM    149  H54 UNL A   1       2.930  -2.739  34.815  1.00  0.00    +0.000 H 
ATOM    150  H55 UNL A   1       4.764  -4.422  35.417  1.00  0.00    +0.000 H 
ATOM     37  C32 UNL A   1       5.662  -5.976  33.204  1.00  0.00    +0.000 C 
ATOM     38  C33 UNL A   1       4.680  -4.839  33.189  1.00  0.00    +0.000 C 
ATOM     39  N3  UNL A   1       4.034  -4.319  32.176  1.00  0.00    +0.000 N 
ATOM     40  C34 UNL A   1       3.229  -3.324  32.713  1.00  0.00    +0.000 C 
ATOM     41  C35 UNL A   1       2.405  -2.465  32.067  1.00  0.00    +0.000 C 
ATOM     53  C42 UNL A   1       2.220  -2.433  30.639  1.00  0.00    +0.000 C 
ATOM     54  C43 UNL A   1       1.467  -1.549  29.885  1.00  0.00    +0.000 C 
ATOM     55  C44 UNL A   1       1.549  -1.936  28.544  1.00  0.00    +0.000 C 
ATOM     56  C45 UNL A   1       2.385  -3.037  28.456  1.00  0.00    +0.000 C 
ATOM     57  N4  UNL A   1       2.792  -3.330  29.748  1.00  0.00    +0.000 N 
ATOM     58  C46 UNL A   1       2.779  -3.773  27.283  1.00  0.00    +0.000 C 
ATOM     70  C53 UNL A   1       3.646  -4.814  27.276  1.00  0.00    +0.000 C 
ATOM     71  N5  UNL A   1       4.318  -5.395  28.342  1.00  0.00    +0.000 N 
ATOM     72  C54 UNL A   1       5.024  -6.375  27.832  1.00  0.00    +0.000 C 
ATOM     73  C55 UNL A   1       5.953  -7.333  28.522  1.00  0.00    +0.000 C 
ATOM     85  C62 UNL A   1       6.152  -7.221  29.849  1.00  0.00    +0.000 C 
ATOM     86  C63 UNL A   1       7.013  -8.084  30.650  1.00  0.00    +0.000 C 
ATOM     87  C64 UNL A   1       6.914  -7.727  31.941  1.00  0.00    +0.000 C 
ATOM     88  C65 UNL A   1       6.007  -6.584  32.053  1.00  0.00    +0.000 C 
ATOM     89  N6  UNL A   1       5.620  -6.338  30.758  1.00  0.00    +0.000 N 
ATOM     90  C66 UNL A   1       4.863  -6.538  26.380  1.00  0.00    +0.000 C 
ATOM     91  C67 UNL A   1       4.038  -5.542  26.087  1.00  0.00    +0.000 C 
ATOM     92  C68 UNL A   1       3.438  -3.337  34.146  1.00  0.00    +0.000 C 
ATOM     93  C69 UNL A   1       4.366  -4.221  34.486  1.00  0.00    +0.000 C 
ENDROOT
BRANCH   37   36
ATOM     33  C28 UNL A   1       7.308  -7.653  36.782  1.00  0.00    +0.000 C 
ATOM     34  C29 UNL A   1       7.870  -6.492  36.244  1.00  0.00    +0.000 C 
ATOM     35  C30 UNL A   1       7.304  -5.907  35.110  1.00  0.00    +0.000 C 
ATOM     36  C31 UNL A   1       6.192  -6.498  34.488  1.00  0.00    +0.000 C 
ATOM    139  H44 UNL A   1       8.702  -6.068  36.685  1.00  0.00    +0.000 H 
ATOM    140  H45 UNL A   1       7.705  -5.037  34.726  1.00  0.00    +0.000 H 
ATOM    151  H56 UNL A   1       4.770  -8.058  34.636  1.00  0.00    +0.000 H 
ATOM    152  H57 UNL A   1       5.660  -8.974  36.697  1.00  0.00    +0.000 H 
ATOM     94  C70 UNL A   1       5.602  -7.630  35.072  1.00  0.00    +0.000 C 
ATOM     95  C71 UNL A   1       6.133  -8.180  36.238  1.00  0.00    +0.000 C 
BRANCH   33   31
ATOM     31  C27 UNL A   1       7.979  -8.305  37.928  1.00  0.00    +0.000 C 
ATOM     32  O3  UNL A   1       8.195  -9.513  37.899  1.00  0.00    +0.000 O 
BRANCH   31   30
ATOM    138  H43 UNL A   1       7.603  -7.063  39.453  1.00  0.00    +0.000 H 
ATOM     30  N2  UNL A   1       8.335  -7.566  39.030  1.00  0.00    +0.000 N 
BRANCH   30   29
ATOM    137  H42 UNL A   1       9.923  -8.375  40.046  1.00  0.00    +0.000 H 
ATOM     29  C26 UNL A   1       9.636  -7.417  39.664  1.00  0.00    +0.000 C 
ATOM    136  H41 UNL A   1       9.556  -6.689  40.445  1.00  0.00    +0.000 H 
BRANCH   29   28
ATOM     28  C25 UNL A   1      10.717  -6.967  38.686  1.00  0.00    +0.000 C 
ATOM    134  H39 UNL A   1      11.592  -7.558  38.863  1.00  0.00    +0.000 H 
ATOM    135  H40 UNL A   1      10.306  -7.098  37.707  1.00  0.00    +0.000 H 
BRANCH   28   27
ATOM     27  C24 UNL A   1      11.114  -5.493  38.788  1.00  0.00    +0.000 C 
ATOM    132  H37 UNL A   1      10.620  -4.963  38.000  1.00  0.00    +0.000 H 
ATOM    133  H38 UNL A   1      10.822  -5.178  39.768  1.00  0.00    +0.000 H 
BRANCH   27   26
ATOM     26  C23 UNL A   1      12.615  -5.205  38.682  1.00  0.00    +0.000 C 
ATOM    130  H35 UNL A   1      13.141  -6.045  39.085  1.00  0.00    +0.000 H 
ATOM    131  H36 UNL A   1      12.807  -5.031  37.643  1.00  0.00    +0.000 H 
BRANCH   26   25
ATOM     25  C22 UNL A   1      13.103  -3.947  39.413  1.00  0.00    +0.000 C 
ATOM    129  H34 UNL A   1      12.803  -3.112  38.814  1.00  0.00    +0.000 H 
ATOM    128  H33 UNL A   1      14.164  -4.018  39.531  1.00  0.00    +0.000 H 
BRANCH   25   24
ATOM    126  H31 UNL A   1      11.663  -3.051  40.705  1.00  0.00    +0.000 H 
ATOM    127  H32 UNL A   1      12.154  -4.678  41.167  1.00  0.00    +0.000 H 
ATOM     24  C21 UNL A   1      12.483  -3.731  40.794  1.00  0.00    +0.000 C 
BRANCH   24   23
ATOM    125  H30 UNL A   1      14.391  -3.397  41.546  1.00  0.00    +0.000 H 
ATOM     23  N1  UNL A   1      13.447  -3.185  41.729  1.00  0.00    +0.000 N 
BRANCH   23   21
ATOM     21  C20 UNL A   1      13.212  -2.413  42.829  1.00  0.00    +0.000 C 
ATOM     22  O2  UNL A   1      12.227  -2.658  43.529  1.00  0.00    +0.000 O 
BRANCH   21   20
ATOM    124  H29 UNL A   1      13.847  -0.463  42.485  1.00  0.00    +0.000 H 
ATOM    123  H28 UNL A   1      15.160  -1.603  42.989  1.00  0.00    +0.000 H 
ATOM     20  C19 UNL A   1      14.161  -1.248  43.139  1.00  0.00    +0.000 C 
BRANCH   20   19
ATOM     19  O1  UNL A   1      14.106  -0.676  44.440  1.00  0.00    +0.000 O 
BRANCH   19   18
ATOM    121  H26 UNL A   1      13.623   1.308  44.308  1.00  0.00    +0.000 H 
ATOM     18  C18 UNL A   1      13.156   0.382  44.570  1.00  0.00    +0.000 C 
ATOM    122  H27 UNL A   1      12.329   0.187  43.919  1.00  0.00    +0.000 H 
BRANCH   18   17
ATOM     17  C17 UNL A   1      12.652   0.467  45.978  1.00  0.00    +0.000 C 
ATOM    120  H25 UNL A   1      13.332   0.398  46.750  1.00  0.00    +0.000 H 
BRANCH   17   16
ATOM    119  H24 UNL A   1      10.891   1.493  45.960  1.00  0.00    +0.000 H 
ATOM     16  C16 UNL A   1      11.354   0.628  46.278  1.00  0.00    +0.000 C 
BRANCH   16   15
ATOM    117  H22 UNL A   1      11.173  -1.126  47.432  1.00  0.00    +0.000 H 
ATOM    118  H23 UNL A   1      10.029   0.162  47.832  1.00  0.00    +0.000 H 
ATOM     15  C15 UNL A   1      10.527  -0.365  47.045  1.00  0.00    +0.000 C 
BRANCH   15   14
ATOM    115  H20 UNL A   1       9.904  -1.356  45.259  1.00  0.00    +0.000 H 
ATOM    116  H21 UNL A   1       9.047  -1.849  46.730  1.00  0.00    +0.000 H 
ATOM     14  C14 UNL A   1       9.450  -1.030  46.172  1.00  0.00    +0.000 C 
BRANCH   14   13
ATOM    114  H19 UNL A   1       8.279   0.300  44.890  1.00  0.00    +0.000 H 
ATOM     13  C13 UNL A   1       8.309  -0.108  45.838  1.00  0.00    +0.000 C 
BRANCH   13   12
ATOM    113  H18 UNL A   1       7.020  -0.491  47.375  1.00  0.00    +0.000 H 
ATOM     12  C12 UNL A   1       7.326   0.219  46.692  1.00  0.00    +0.000 C 
BRANCH   12   11
ATOM     11  C11 UNL A   1       6.647   1.558  46.711  1.00  0.00    +0.000 C 
ATOM    111  H16 UNL A   1       5.675   1.455  47.147  1.00  0.00    +0.000 H 
ATOM    112  H17 UNL A   1       7.236   2.240  47.289  1.00  0.00    +0.000 H 
BRANCH   11   10
ATOM     10  C10 UNL A   1       6.509   2.093  45.315  1.00  0.00    +0.000 C 
ATOM    110  H15 UNL A   1       7.168   2.827  45.011  1.00  0.00    +0.000 H 
BRANCH   10    9
ATOM      9  C9  UNL A   1       5.583   1.675  44.437  1.00  0.00    +0.000 C 
ATOM    109  H14 UNL A   1       4.919   0.948  44.745  1.00  0.00    +0.000 H 
BRANCH    9    8
ATOM    107  H12 UNL A   1       4.422   2.397  42.829  1.00  0.00    +0.000 H 
ATOM    108  H13 UNL A   1       6.026   3.097  42.947  1.00  0.00    +0.000 H 
ATOM      8  C8  UNL A   1       5.452   2.198  43.036  1.00  0.00    +0.000 C 
BRANCH    8    7
ATOM    106  H11 UNL A   1       5.870   1.404  41.045  1.00  0.00    +0.000 H 
ATOM      7  C7  UNL A   1       5.970   1.192  42.049  1.00  0.00    +0.000 C 
BRANCH    7    6
ATOM    105  H10 UNL A   1       5.969  -0.690  42.841  1.00  0.00    +0.000 H 
ATOM      6  C6  UNL A   1       6.555   0.032  42.392  1.00  0.00    +0.000 C 
BRANCH    6    5
ATOM      5  C5  UNL A   1       8.005  -0.281  42.165  1.00  0.00    +0.000 C 
ATOM    103  H8  UNL A   1       8.365  -0.885  42.972  1.00  0.00    +0.000 H 
ATOM    104  H9  UNL A   1       8.102  -0.805  41.237  1.00  0.00    +0.000 H 
BRANCH    5    4
ATOM      4  C4  UNL A   1       8.817   0.981  42.093  1.00  0.00    +0.000 C 
ATOM    102  H7  UNL A   1       8.722   1.569  41.251  1.00  0.00    +0.000 H 
BRANCH    4    3
ATOM      3  C3  UNL A   1       9.659   1.391  43.055  1.00  0.00    +0.000 C 
ATOM    101  H6  UNL A   1       9.962   0.703  43.761  1.00  0.00    +0.000 H 
BRANCH    3    2
ATOM      2  C2  UNL A   1      10.184   2.793  43.165  1.00  0.00    +0.000 C 
ATOM     99  H4  UNL A   1      11.251   2.761  43.240  1.00  0.00    +0.000 H 
ATOM    100  H5  UNL A   1       9.883   3.337  42.295  1.00  0.00    +0.000 H 
BRANCH    2    1
ATOM      1  C1  UNL A   1       9.624   3.498  44.391  1.00  0.00    +0.000 C 
ATOM     98  H3  UNL A   1       9.121   2.786  45.013  1.00  0.00    +0.000 H 
ATOM     97  H2  UNL A   1      10.424   3.949  44.940  1.00  0.00    +0.000 H 
ATOM     96  H1  UNL A   1       8.931   4.253  44.082  1.00  0.00    +0.000 H 
ENDBRANCH    2    1
ENDBRANCH    3    2
ENDBRANCH    4    3
ENDBRANCH    5    4
ENDBRANCH    6    5
ENDBRANCH    7    6
ENDBRANCH    8    7
ENDBRANCH    9    8
ENDBRANCH   10    9
ENDBRANCH   11   10
ENDBRANCH   12   11
ENDBRANCH   13   12
ENDBRANCH   14   13
ENDBRANCH   15   14
ENDBRANCH   16   15
ENDBRANCH   17   16
ENDBRANCH   18   17
ENDBRANCH   19   18
ENDBRANCH   20   19
ENDBRANCH   21   20
ENDBRANCH   23   21
ENDBRANCH   24   23
ENDBRANCH   25   24
ENDBRANCH   26   25
ENDBRANCH   27   26
ENDBRANCH   28   27
ENDBRANCH   29   28
ENDBRANCH   30   29
ENDBRANCH   31   30
ENDBRANCH   33   31
ENDBRANCH   37   36
BRANCH   41   42
ATOM     42  C36 UNL A   1       1.639  -1.478  32.896  1.00  0.00    +0.000 C 
ATOM     43  C37 UNL A   1       2.157  -0.206  33.184  1.00  0.00    +0.000 C 
ATOM     44  F1  UNL A   1       3.385   0.133  32.767  1.00  0.00    +0.000 F 
ATOM     45  C38 UNL A   1       1.423   0.712  33.931  1.00  0.00    +0.000 C 
ATOM     46  F2  UNL A   1       1.952   1.908  34.226  1.00  0.00    +0.000 F 
ATOM     47  C39 UNL A   1       0.150   0.389  34.376  1.00  0.00    +0.000 C 
ATOM     48  F3  UNL A   1      -0.559   1.277  35.087  1.00  0.00    +0.000 F 
ATOM     49  C40 UNL A   1      -0.387  -0.857  34.090  1.00  0.00    +0.000 C 
ATOM     50  F4  UNL A   1      -1.621  -1.167  34.510  1.00  0.00    +0.000 F 
ATOM     51  C41 UNL A   1       0.354  -1.787  33.365  1.00  0.00    +0.000 C 
ATOM     52  F5  UNL A   1      -0.188  -2.988  33.111  1.00  0.00    +0.000 F 
ENDBRANCH   41   42
BRANCH   58   59
ATOM     65  F8  UNL A   1       0.596  -2.095  22.353  1.00  0.00    +0.000 F 
ATOM     66  C51 UNL A   1       2.298  -1.943  23.983  1.00  0.00    +0.000 C 
ATOM     67  F9  UNL A   1       2.916  -0.992  23.269  1.00  0.00    +0.000 F 
ATOM     68  C52 UNL A   1       2.847  -2.372  25.188  1.00  0.00    +0.000 C 
ATOM     69  F10 UNL A   1       3.999  -1.827  25.605  1.00  0.00    +0.000 F 
ATOM     59  C47 UNL A   1       2.206  -3.350  25.964  1.00  0.00    +0.000 C 
ATOM     60  C48 UNL A   1       1.002  -3.887  25.486  1.00  0.00    +0.000 C 
ATOM     61  F6  UNL A   1       0.363  -4.838  26.184  1.00  0.00    +0.000 F 
ATOM     62  C49 UNL A   1       0.470  -3.473  24.268  1.00  0.00    +0.000 C 
ATOM     63  F7  UNL A   1      -0.661  -4.027  23.811  1.00  0.00    +0.000 F 
ATOM     64  C50 UNL A   1       1.114  -2.497  23.522  1.00  0.00    +0.000 C 
ENDBRANCH   58   59
BRANCH   73   74
ATOM     74  C56 UNL A   1       6.662  -8.389  27.757  1.00  0.00    +0.000 C 
ATOM     75  C57 UNL A   1       7.850  -8.102  27.071  1.00  0.00    +0.000 C 
ATOM     76  F11 UNL A   1       8.346  -6.856  27.085  1.00  0.00    +0.000 F 
ATOM     77  C58 UNL A   1       8.513  -9.084  26.338  1.00  0.00    +0.000 C 
ATOM     78  F12 UNL A   1       9.625  -8.774  25.660  1.00  0.00    +0.000 F 
ATOM     79  C59 UNL A   1       8.013 -10.377  26.298  1.00  0.00    +0.000 C 
ATOM     80  F13 UNL A   1       8.653 -11.323  25.596  1.00  0.00    +0.000 F 
ATOM     81  C60 UNL A   1       6.847 -10.688  26.981  1.00  0.00    +0.000 C 
ATOM     82  F14 UNL A   1       6.368 -11.939  26.954  1.00  0.00    +0.000 F 
ATOM     83  C61 UNL A   1       6.171  -9.701  27.694  1.00  0.00    +0.000 C 
ATOM     84  F15 UNL A   1       5.039 -10.026  28.336  1.00  0.00    +0.000 F 
ENDBRANCH   73   74
TORSDOF 34
ENDMDL
MODEL 2
REMARK VINA RESULT:      -6.3     46.189     54.140
ROOT
ATOM    141  H46 UNL A   1      27.969  45.678  49.301  1.00  0.00    +0.000 H 
ATOM    142  H47 UNL A   1      29.642  47.676  49.211  1.00  0.00    +0.000 H 
ATOM    143  H48 UNL A   1      31.247  44.535  47.041  1.00  0.00    +0.000 H 
ATOM    144  H49 UNL A   1      36.138  41.975  43.850  1.00  0.00    +0.000 H 
ATOM    145  H50 UNL A   1      34.465  40.064  43.861  1.00  0.00    +0.000 H 
ATOM    146  H51 UNL A   1      32.810  43.216  46.009  1.00  0.00    +0.000 H 
ATOM    147  H52 UNL A   1      36.092  47.014  45.612  1.00  0.00    +0.000 H 
ATOM    148  H53 UNL A   1      34.482  48.388  47.053  1.00  0.00    +0.000 H 
ATOM    149  H54 UNL A   1      27.894  40.800  47.067  1.00  0.00    +0.000 H 
ATOM    150  H55 UNL A   1      29.627  39.287  45.942  1.00  0.00    +0.000 H 
ATOM     37  C32 UNL A   1      32.049  40.626  45.267  1.00  0.00    +0.000 C 
ATOM     38  C33 UNL A   1      30.873  41.181  46.020  1.00  0.00    +0.000 C 
ATOM     39  N3  UNL A   1      30.704  42.377  46.524  1.00  0.00    +0.000 N 
ATOM     40  C34 UNL A   1      29.432  42.376  47.079  1.00  0.00    +0.000 C 
ATOM     41  C35 UNL A   1      28.810  43.366  47.762  1.00  0.00    +0.000 C 
ATOM     53  C42 UNL A   1      29.394  44.651  48.048  1.00  0.00    +0.000 C 
ATOM     54  C43 UNL A   1      28.872  45.689  48.800  1.00  0.00    +0.000 C 
ATOM     55  C44 UNL A   1      29.775  46.756  48.762  1.00  0.00    +0.000 C 
ATOM     56  C45 UNL A   1      30.879  46.369  48.019  1.00  0.00    +0.000 C 
ATOM     57  N4  UNL A   1      30.633  45.074  47.590  1.00  0.00    +0.000 N 
ATOM     58  C46 UNL A   1      32.067  47.124  47.718  1.00  0.00    +0.000 C 
ATOM     70  C53 UNL A   1      33.130  46.651  47.022  1.00  0.00    +0.000 C 
ATOM     71  N5  UNL A   1      33.314  45.398  46.458  1.00  0.00    +0.000 N 
ATOM     72  C54 UNL A   1      34.491  45.432  45.881  1.00  0.00    +0.000 C 
ATOM     73  C55 UNL A   1      35.209  44.347  45.129  1.00  0.00    +0.000 C 
ATOM     85  C62 UNL A   1      34.632  43.137  45.002  1.00  0.00    +0.000 C 
ATOM     86  C63 UNL A   1      35.206  41.998  44.293  1.00  0.00    +0.000 C 
ATOM     87  C64 UNL A   1      34.326  40.983  44.309  1.00  0.00    +0.000 C 
ATOM     88  C65 UNL A   1      33.139  41.390  45.063  1.00  0.00    +0.000 C 
ATOM     89  N6  UNL A   1      33.420  42.676  45.456  1.00  0.00    +0.000 N 
ATOM     90  C66 UNL A   1      35.180  46.724  45.998  1.00  0.00    +0.000 C 
ATOM     91  C67 UNL A   1      34.322  47.421  46.731  1.00  0.00    +0.000 C 
ATOM     92  C68 UNL A   1      28.856  41.074  46.817  1.00  0.00    +0.000 C 
ATOM     93  C69 UNL A   1      29.727  40.279  46.210  1.00  0.00    +0.000 C 
ENDROOT
BRANCH   37   36
ATOM     33  C28 UNL A   1      31.673  36.677  43.658  1.00  0.00    +0.000 C 
ATOM     34  C29 UNL A   1      31.295  37.776  42.881  1.00  0.00    +0.000 C 
ATOM     35  C30 UNL A   1      31.467  39.069  43.377  1.00  0.00    +0.000 C 
ATOM     36  C31 UNL A   1      31.989  39.271  44.665  1.00  0.00    +0.000 C 
ATOM    139  H44 UNL A   1      30.889  37.630  41.943  1.00  0.00    +0.000 H 
ATOM    140  H45 UNL A   1      31.210  39.881  42.794  1.00  0.00    +0.000 H 
ATOM    151  H56 UNL A   1      32.824  38.302  46.350  1.00  0.00    +0.000 H 
ATOM    152  H57 UNL A   1      32.673  36.069  45.418  1.00  0.00    +0.000 H 
ATOM     94  C70 UNL A   1      32.418  38.162  45.411  1.00  0.00    +0.000 C 
ATOM     95  C71 UNL A   1      32.299  36.874  44.892  1.00  0.00    +0.000 C 
BRANCH   33   31
ATOM     31  C27 UNL A   1      31.396  35.316  43.150  1.00  0.00    +0.000 C 
ATOM     32  O3  UNL A   1      32.078  34.857  42.239  1.00  0.00    +0.000 O 
BRANCH   31   30
ATOM    138  H43 UNL A   1      30.518  34.230  44.585  1.00  0.00    +0.000 H 
ATOM     30  N2  UNL A   1      30.364  34.579  43.678  1.00  0.00    +0.000 N 
BRANCH   30   29
ATOM    137  H42 UNL A   1      28.927  33.187  43.225  1.00  0.00    +0.000 H 
ATOM     29  C26 UNL A   1      29.076  34.239  43.093  1.00  0.00    +0.000 C 
ATOM    136  H41 UNL A   1      29.088  34.507  42.056  1.00  0.00    +0.000 H 
BRANCH   29   28
ATOM     28  C25 UNL A   1      27.915  34.960  43.770  1.00  0.00    +0.000 C 
ATOM    134  H39 UNL A   1      27.518  35.674  43.077  1.00  0.00    +0.000 H 
ATOM    135  H40 UNL A   1      27.214  34.201  44.047  1.00  0.00    +0.000 H 
BRANCH   28   27
ATOM     27  C24 UNL A   1      28.273  35.701  45.059  1.00  0.00    +0.000 C 
ATOM    132  H37 UNL A   1      27.687  35.286  45.853  1.00  0.00    +0.000 H 
ATOM    133  H38 UNL A   1      29.327  35.573  45.189  1.00  0.00    +0.000 H 
BRANCH   27   26
ATOM     26  C23 UNL A   1      28.033  37.215  45.039  1.00  0.00    +0.000 C 
ATOM    130  H35 UNL A   1      28.944  37.697  45.325  1.00  0.00    +0.000 H 
ATOM    131  H36 UNL A   1      27.712  37.447  44.044  1.00  0.00    +0.000 H 
BRANCH   26   25
ATOM     25  C22 UNL A   1      26.920  37.723  45.966  1.00  0.00    +0.000 C 
ATOM    129  H34 UNL A   1      26.676  38.711  45.633  1.00  0.00    +0.000 H 
ATOM    128  H33 UNL A   1      27.284  37.697  46.972  1.00  0.00    +0.000 H 
BRANCH   25   24
ATOM    126  H31 UNL A   1      25.486  36.547  44.913  1.00  0.00    +0.000 H 
ATOM    127  H32 UNL A   1      25.697  36.109  46.606  1.00  0.00    +0.000 H 
ATOM     24  C21 UNL A   1      25.622  36.916  45.908  1.00  0.00    +0.000 C 
BRANCH   24   23
ATOM    125  H30 UNL A   1      24.424  38.612  45.843  1.00  0.00    +0.000 H 
ATOM     23  N1  UNL A   1      24.477  37.726  46.270  1.00  0.00    +0.000 N 
BRANCH   23   21
ATOM     21  C20 UNL A   1      23.461  37.417  47.127  1.00  0.00    +0.000 C 
ATOM     22  O2  UNL A   1      23.625  37.600  48.335  1.00  0.00    +0.000 O 
BRANCH   21   20
ATOM    124  H29 UNL A   1      21.758  36.247  47.366  1.00  0.00    +0.000 H 
ATOM    123  H28 UNL A   1      22.425  36.267  45.684  1.00  0.00    +0.000 H 
ATOM     20  C19 UNL A   1      22.165  36.821  46.562  1.00  0.00    +0.000 C 
BRANCH   20   19
ATOM     19  O1  UNL A   1      21.125  37.722  46.201  1.00  0.00    +0.000 O 
BRANCH   19   18
ATOM    121  H26 UNL A   1      20.287  37.557  44.341  1.00  0.00    +0.000 H 
ATOM     18  C18 UNL A   1      20.147  37.161  45.325  1.00  0.00    +0.000 C 
ATOM    122  H27 UNL A   1      20.260  36.097  45.315  1.00  0.00    +0.000 H 
BRANCH   18   17
ATOM     17  C17 UNL A   1      18.765  37.494  45.796  1.00  0.00    +0.000 C 
ATOM    120  H25 UNL A   1      18.166  38.080  45.193  1.00  0.00    +0.000 H 
BRANCH   17   16
ATOM    119  H24 UNL A   1      18.888  37.118  47.795  1.00  0.00    +0.000 H 
ATOM     16  C16 UNL A   1      18.272  37.066  46.969  1.00  0.00    +0.000 C 
BRANCH   16   15
ATOM    117  H22 UNL A   1      16.201  37.100  46.584  1.00  0.00    +0.000 H 
ATOM    118  H23 UNL A   1      16.895  35.493  46.844  1.00  0.00    +0.000 H 
ATOM     15  C15 UNL A   1      16.888  36.515  47.162  1.00  0.00    +0.000 C 
BRANCH   15   14
ATOM    115  H20 UNL A   1      16.386  35.540  48.994  1.00  0.00    +0.000 H 
ATOM    116  H21 UNL A   1      17.168  37.121  49.173  1.00  0.00    +0.000 H 
ATOM     14  C14 UNL A   1      16.445  36.546  48.634  1.00  0.00    +0.000 C 
BRANCH   14   13
ATOM    114  H19 UNL A   1      14.540  37.410  47.995  1.00  0.00    +0.000 H 
ATOM     13  C13 UNL A   1      15.107  37.205  48.833  1.00  0.00    +0.000 C 
BRANCH   13   12
ATOM    113  H18 UNL A   1      13.772  37.032  50.369  1.00  0.00    +0.000 H 
ATOM     12  C12 UNL A   1      14.601  37.543  50.030  1.00  0.00    +0.000 C 
BRANCH   12   11
ATOM     11  C11 UNL A   1      15.172  38.624  50.903  1.00  0.00    +0.000 C 
ATOM    111  H16 UNL A   1      15.690  39.334  50.293  1.00  0.00    +0.000 H 
ATOM    112  H17 UNL A   1      14.373  39.106  51.428  1.00  0.00    +0.000 H 
BRANCH   11   10
ATOM     10  C10 UNL A   1      16.128  38.037  51.901  1.00  0.00    +0.000 C 
ATOM    110  H15 UNL A   1      15.770  37.321  52.552  1.00  0.00    +0.000 H 
BRANCH   10    9
ATOM      9  C9  UNL A   1      17.421  38.386  51.998  1.00  0.00    +0.000 C 
ATOM    109  H14 UNL A   1      17.647  39.282  52.456  1.00  0.00    +0.000 H 
BRANCH    9    8
ATOM    107  H12 UNL A   1      19.239  37.351  52.285  1.00  0.00    +0.000 H 
ATOM    108  H13 UNL A   1      18.170  36.638  51.091  1.00  0.00    +0.000 H 
ATOM      8  C8  UNL A   1      18.560  37.554  51.484  1.00  0.00    +0.000 C 
BRANCH    8    7
ATOM    106  H11 UNL A   1      20.184  37.886  50.061  1.00  0.00    +0.000 H 
ATOM      7  C7  UNL A   1      19.289  38.281  50.390  1.00  0.00    +0.000 C 
BRANCH    7    6
ATOM    105  H10 UNL A   1      18.075  39.338  49.134  1.00  0.00    +0.000 H 
ATOM      6  C6  UNL A   1      18.849  39.412  49.813  1.00  0.00    +0.000 C 
BRANCH    6    5
ATOM      5  C5  UNL A   1      19.413  40.775  50.091  1.00  0.00    +0.000 C 
ATOM    103  H8  UNL A   1      19.793  40.800  51.091  1.00  0.00    +0.000 H 
ATOM    104  H9  UNL A   1      20.198  40.970  49.390  1.00  0.00    +0.000 H 
BRANCH    5    4
ATOM      4  C4  UNL A   1      18.356  41.830  49.937  1.00  0.00    +0.000 C 
ATOM    102  H7  UNL A   1      18.610  42.699  49.443  1.00  0.00    +0.000 H 
BRANCH    4    3
ATOM      3  C3  UNL A   1      17.102  41.714  50.403  1.00  0.00    +0.000 C 
ATOM    101  H6  UNL A   1      16.368  41.404  49.747  1.00  0.00    +0.000 H 
BRANCH    3    2
ATOM      2  C2  UNL A   1      16.704  42.012  51.819  1.00  0.00    +0.000 C 
ATOM     99  H4  UNL A   1      15.714  41.640  51.988  1.00  0.00    +0.000 H 
ATOM    100  H5  UNL A   1      17.403  41.536  52.474  1.00  0.00    +0.000 H 
BRANCH    2    1
ATOM      1  C1  UNL A   1      16.725  43.507  52.096  1.00  0.00    +0.000 C 
ATOM     98  H3  UNL A   1      16.866  44.038  51.178  1.00  0.00    +0.000 H 
ATOM     97  H2  UNL A   1      15.795  43.801  52.538  1.00  0.00    +0.000 H 
ATOM     96  H1  UNL A   1      17.527  43.734  52.767  1.00  0.00    +0.000 H 
ENDBRANCH    2    1
ENDBRANCH    3    2
ENDBRANCH    4    3
ENDBRANCH    5    4
ENDBRANCH    6    5
ENDBRANCH    7    6
ENDBRANCH    8    7
ENDBRANCH    9    8
ENDBRANCH   10    9
ENDBRANCH   11   10
ENDBRANCH   12   11
ENDBRANCH   13   12
ENDBRANCH   14   13
ENDBRANCH   15   14
ENDBRANCH   16   15
ENDBRANCH   17   16
ENDBRANCH   18   17
ENDBRANCH   19   18
ENDBRANCH   20   19
ENDBRANCH   21   20
ENDBRANCH   23   21
ENDBRANCH   24   23
ENDBRANCH   25   24
ENDBRANCH   26   25
ENDBRANCH   27   26
ENDBRANCH   28   27
ENDBRANCH   29   28
ENDBRANCH   30   29
ENDBRANCH   31   30
ENDBRANCH   33   31
ENDBRANCH   37   36
BRANCH   41   42
ATOM     42  C36 UNL A   1      27.419  43.101  48.258  1.00  0.00    +0.000 C 
ATOM     43  C37 UNL A   1      26.292  43.515  47.532  1.00  0.00    +0.000 C 
ATOM     44  F1  UNL A   1      26.439  44.213  46.396  1.00  0.00    +0.000 F 
ATOM     45  C38 UNL A   1      25.006  43.237  47.989  1.00  0.00    +0.000 C 
ATOM     46  F2  UNL A   1      23.944  43.674  47.299  1.00  0.00    +0.000 F 
ATOM     47  C39 UNL A   1      24.823  42.517  49.160  1.00  0.00    +0.000 C 
ATOM     48  F3  UNL A   1      23.585  42.243  49.593  1.00  0.00    +0.000 F 
ATOM     49  C40 UNL A   1      25.924  42.086  49.885  1.00  0.00    +0.000 C 
ATOM     50  F4  UNL A   1      25.749  41.381  51.012  1.00  0.00    +0.000 F 
ATOM     51  C41 UNL A   1      27.211  42.383  49.445  1.00  0.00    +0.000 C 
ATOM     52  F5  UNL A   1      28.256  41.961  50.172  1.00  0.00    +0.000 F 
ENDBRANCH   41   42
BRANCH   58   59
ATOM     65  F8  UNL A   1      32.448  52.451  49.551  1.00  0.00    +0.000 F 
ATOM     66  C51 UNL A   1      31.803  50.915  47.877  1.00  0.00    +0.000 C 
ATOM     67  F9  UNL A   1      31.377  51.920  47.099  1.00  0.00    +0.000 F 
ATOM     68  C52 UNL A   1      31.690  49.600  47.434  1.00  0.00    +0.000 C 
ATOM     69  F10 UNL A   1      31.142  49.366  46.233  1.00  0.00    +0.000 F 
ATOM     59  C47 UNL A   1      32.150  48.532  48.222  1.00  0.00    +0.000 C 
ATOM     60  C48 UNL A   1      32.718  48.830  49.469  1.00  0.00    +0.000 C 
ATOM     61  F6  UNL A   1      33.153  47.842  50.265  1.00  0.00    +0.000 F 
ATOM     62  C49 UNL A   1      32.806  50.144  49.918  1.00  0.00    +0.000 C 
ATOM     63  F7  UNL A   1      33.316  50.404  51.130  1.00  0.00    +0.000 F 
ATOM     64  C50 UNL A   1      32.356  51.186  49.120  1.00  0.00    +0.000 C 
ENDBRANCH   58   59
BRANCH   73   74
ATOM     74  C56 UNL A   1      36.549  44.591  44.538  1.00  0.00    +0.000 C 
ATOM     75  C57 UNL A   1      36.682  45.279  43.324  1.00  0.00    +0.000 C 
ATOM     76  F11 UNL A   1      35.590  45.704  42.673  1.00  0.00    +0.000 F 
ATOM     77  C58 UNL A   1      37.935  45.499  42.756  1.00  0.00    +0.000 C 
ATOM     78  F12 UNL A   1      38.032  46.124  41.576  1.00  0.00    +0.000 F 
ATOM     79  C59 UNL A   1      39.079  45.058  43.404  1.00  0.00    +0.000 C 
ATOM     80  F13 UNL A   1      40.285  45.273  42.859  1.00  0.00    +0.000 F 
ATOM     81  C60 UNL A   1      38.972  44.387  44.614  1.00  0.00    +0.000 C 
ATOM     82  F14 UNL A   1      40.076  43.971  45.248  1.00  0.00    +0.000 F 
ATOM     83  C61 UNL A   1      37.718  44.146  45.170  1.00  0.00    +0.000 C 
ATOM     84  F15 UNL A   1      37.643  43.486  46.335  1.00  0.00    +0.000 F 
ENDBRANCH   73   74
TORSDOF 34
ENDMDL
MODEL 3
REMARK VINA RESULT:      -6.3     19.825     26.749
ROOT
ATOM    141  H46 UNL A   1       0.091  20.823  45.509  1.00  0.00    +0.000 H 
ATOM    142  H47 UNL A   1      -2.480  21.181  45.269  1.00  0.00    +0.000 H 
ATOM    143  H48 UNL A   1      -1.297  18.340  42.497  1.00  0.00    +0.000 H 
ATOM    144  H49 UNL A   1      -2.654  14.619  37.500  1.00  0.00    +0.000 H 
ATOM    145  H50 UNL A   1      -0.166  14.203  37.800  1.00  0.00    +0.000 H 
ATOM    146  H51 UNL A   1      -1.333  17.025  40.622  1.00  0.00    +0.000 H 
ATOM    147  H52 UNL A   1      -6.322  17.486  40.113  1.00  0.00    +0.000 H 
ATOM    148  H53 UNL A   1      -6.227  19.213  42.001  1.00  0.00    +0.000 H 
ATOM    149  H54 UNL A   1       3.614  17.533  43.150  1.00  0.00    +0.000 H 
ATOM    150  H55 UNL A   1       3.617  16.082  41.041  1.00  0.00    +0.000 H 
ATOM     37  C32 UNL A   1       1.033  15.715  39.899  1.00  0.00    +0.000 C 
ATOM     38  C33 UNL A   1       1.405  16.582  41.068  1.00  0.00    +0.000 C 
ATOM     39  N3  UNL A   1       0.641  17.348  41.805  1.00  0.00    +0.000 N 
ATOM     40  C34 UNL A   1       1.475  17.895  42.770  1.00  0.00    +0.000 C 
ATOM     41  C35 UNL A   1       1.169  18.790  43.739  1.00  0.00    +0.000 C 
ATOM     53  C42 UNL A   1      -0.139  19.359  43.940  1.00  0.00    +0.000 C 
ATOM     54  C43 UNL A   1      -0.528  20.331  44.845  1.00  0.00    +0.000 C 
ATOM     55  C44 UNL A   1      -1.905  20.533  44.707  1.00  0.00    +0.000 C 
ATOM     56  C45 UNL A   1      -2.368  19.714  43.689  1.00  0.00    +0.000 C 
ATOM     57  N4  UNL A   1      -1.273  19.002  43.225  1.00  0.00    +0.000 N 
ATOM     58  C46 UNL A   1      -3.708  19.586  43.180  1.00  0.00    +0.000 C 
ATOM     70  C53 UNL A   1      -4.071  18.795  42.141  1.00  0.00    +0.000 C 
ATOM     71  N5  UNL A   1      -3.280  17.957  41.367  1.00  0.00    +0.000 N 
ATOM     72  C54 UNL A   1      -4.090  17.396  40.502  1.00  0.00    +0.000 C 
ATOM     73  C55 UNL A   1      -3.776  16.412  39.411  1.00  0.00    +0.000 C 
ATOM     85  C62 UNL A   1      -2.503  16.015  39.224  1.00  0.00    +0.000 C 
ATOM     86  C63 UNL A   1      -2.055  15.061  38.215  1.00  0.00    +0.000 C 
ATOM     87  C64 UNL A   1      -0.737  14.851  38.366  1.00  0.00    +0.000 C 
ATOM     88  C65 UNL A   1      -0.240  15.685  39.462  1.00  0.00    +0.000 C 
ATOM     89  N6  UNL A   1      -1.355  16.359  39.897  1.00  0.00    +0.000 N 
ATOM     90  C66 UNL A   1      -5.495  17.802  40.644  1.00  0.00    +0.000 C 
ATOM     91  C67 UNL A   1      -5.423  18.679  41.636  1.00  0.00    +0.000 C 
ATOM     92  C68 UNL A   1       2.796  17.346  42.550  1.00  0.00    +0.000 C 
ATOM     93  C69 UNL A   1       2.818  16.569  41.476  1.00  0.00    +0.000 C 
ENDROOT
BRANCH   37   36
ATOM     33  C28 UNL A   1       4.099  13.231  38.239  1.00  0.00    +0.000 C 
ATOM     34  C29 UNL A   1       3.206  12.693  39.172  1.00  0.00    +0.000 C 
ATOM     35  C30 UNL A   1       2.170  13.480  39.675  1.00  0.00    +0.000 C 
ATOM     36  C31 UNL A   1       2.038  14.820  39.273  1.00  0.00    +0.000 C 
ATOM    139  H44 UNL A   1       3.315  11.716  39.487  1.00  0.00    +0.000 H 
ATOM    140  H45 UNL A   1       1.497  13.078  40.346  1.00  0.00    +0.000 H 
ATOM    151  H56 UNL A   1       2.801  16.306  37.974  1.00  0.00    +0.000 H 
ATOM    152  H57 UNL A   1       4.497  14.884  36.985  1.00  0.00    +0.000 H 
ATOM     94  C70 UNL A   1       2.904  15.329  38.293  1.00  0.00    +0.000 C 
ATOM     95  C71 UNL A   1       3.903  14.525  37.748  1.00  0.00    +0.000 C 
BRANCH   33   31
ATOM     31  C27 UNL A   1       5.242  12.407  37.791  1.00  0.00    +0.000 C 
ATOM     32  O3  UNL A   1       5.416  12.211  36.591  1.00  0.00    +0.000 O 
BRANCH   31   30
ATOM    138  H43 UNL A   1       6.279  10.886  38.578  1.00  0.00    +0.000 H 
ATOM     30  N2  UNL A   1       6.089  11.842  38.712  1.00  0.00    +0.000 N 
BRANCH   30   29
ATOM    137  H42 UNL A   1       7.141  11.659  40.463  1.00  0.00    +0.000 H 
ATOM     29  C26 UNL A   1       6.747  12.449  39.859  1.00  0.00    +0.000 C 
ATOM    136  H41 UNL A   1       6.029  13.036  40.396  1.00  0.00    +0.000 H 
BRANCH   29   28
ATOM     28  C25 UNL A   1       7.911  13.349  39.459  1.00  0.00    +0.000 C 
ATOM    134  H39 UNL A   1       8.808  12.936  39.873  1.00  0.00    +0.000 H 
ATOM    135  H40 UNL A   1       7.911  13.380  38.389  1.00  0.00    +0.000 H 
BRANCH   28   27
ATOM     27  C24 UNL A   1       7.802  14.802  39.926  1.00  0.00    +0.000 C 
ATOM    132  H37 UNL A   1       6.852  15.181  39.608  1.00  0.00    +0.000 H 
ATOM    133  H38 UNL A   1       7.923  14.779  40.989  1.00  0.00    +0.000 H 
BRANCH   27   26
ATOM     26  C23 UNL A   1       8.886  15.748  39.399  1.00  0.00    +0.000 C 
ATOM    130  H35 UNL A   1       9.838  15.348  39.680  1.00  0.00    +0.000 H 
ATOM    131  H36 UNL A   1       8.735  15.806  38.341  1.00  0.00    +0.000 H 
BRANCH   26   25
ATOM     25  C22 UNL A   1       8.812  17.194  39.911  1.00  0.00    +0.000 C 
ATOM    129  H34 UNL A   1       8.102  17.195  40.712  1.00  0.00    +0.000 H 
ATOM    128  H33 UNL A   1       8.526  17.823  39.095  1.00  0.00    +0.000 H 
BRANCH   25   24
ATOM    126  H31 UNL A   1       9.928  18.671  40.968  1.00  0.00    +0.000 H 
ATOM    127  H32 UNL A   1      10.493  17.018  41.197  1.00  0.00    +0.000 H 
ATOM     24  C21 UNL A   1      10.119  17.732  40.493  1.00  0.00    +0.000 C 
BRANCH   24   23
ATOM    125  H30 UNL A   1      10.963  17.442  38.617  1.00  0.00    +0.000 H 
ATOM     23  N1  UNL A   1      11.121  17.921  39.462  1.00  0.00    +0.000 N 
BRANCH   23   21
ATOM     21  C20 UNL A   1      12.254  18.680  39.516  1.00  0.00    +0.000 C 
ATOM     22  O2  UNL A   1      12.507  19.438  38.577  1.00  0.00    +0.000 O 
BRANCH   21   20
ATOM    124  H29 UNL A   1      14.027  19.159  40.491  1.00  0.00    +0.000 H 
ATOM    123  H28 UNL A   1      13.400  17.497  40.844  1.00  0.00    +0.000 H 
ATOM     20  C19 UNL A   1      13.187  18.540  40.725  1.00  0.00    +0.000 C 
BRANCH   20   19
ATOM     19  O1  UNL A   1      12.722  19.023  41.979  1.00  0.00    +0.000 O 
BRANCH   19   18
ATOM    121  H26 UNL A   1      11.274  20.291  41.283  1.00  0.00    +0.000 H 
ATOM     18  C18 UNL A   1      12.133  20.323  41.920  1.00  0.00    +0.000 C 
ATOM    122  H27 UNL A   1      11.850  20.619  42.909  1.00  0.00    +0.000 H 
BRANCH   18   17
ATOM     17  C17 UNL A   1      13.110  21.320  41.378  1.00  0.00    +0.000 C 
ATOM    120  H25 UNL A   1      13.085  21.536  40.370  1.00  0.00    +0.000 H 
BRANCH   17   16
ATOM    119  H24 UNL A   1      14.032  21.712  43.152  1.00  0.00    +0.000 H 
ATOM     16  C16 UNL A   1      14.017  21.942  42.147  1.00  0.00    +0.000 C 
BRANCH   16   15
ATOM    117  H22 UNL A   1      15.998  22.555  41.775  1.00  0.00    +0.000 H 
ATOM    118  H23 UNL A   1      14.797  23.136  40.614  1.00  0.00    +0.000 H 
ATOM     15  C15 UNL A   1      15.012  22.951  41.645  1.00  0.00    +0.000 C 
BRANCH   15   14
ATOM    115  H20 UNL A   1      14.746  24.091  43.431  1.00  0.00    +0.000 H 
ATOM    116  H21 UNL A   1      15.835  24.813  42.232  1.00  0.00    +0.000 H 
ATOM     14  C14 UNL A   1      14.915  24.291  42.393  1.00  0.00    +0.000 C 
BRANCH   14   13
ATOM    114  H19 UNL A   1      12.864  25.041  42.292  1.00  0.00    +0.000 H 
ATOM     13  C13 UNL A   1      13.804  25.170  41.886  1.00  0.00    +0.000 C 
BRANCH   13   12
ATOM    113  H18 UNL A   1      13.202  26.227  40.246  1.00  0.00    +0.000 H 
ATOM     12  C12 UNL A   1      13.955  26.111  40.941  1.00  0.00    +0.000 C 
BRANCH   12   11
ATOM     11  C11 UNL A   1      15.158  27.005  40.837  1.00  0.00    +0.000 C 
ATOM    111  H16 UNL A   1      16.045  26.407  40.858  1.00  0.00    +0.000 H 
ATOM    112  H17 UNL A   1      15.107  27.553  39.919  1.00  0.00    +0.000 H 
BRANCH   11   10
ATOM     10  C10 UNL A   1      15.188  27.975  41.983  1.00  0.00    +0.000 C 
ATOM    110  H15 UNL A   1      14.390  28.621  42.091  1.00  0.00    +0.000 H 
BRANCH   10    9
ATOM      9  C9  UNL A   1      16.187  28.053  42.876  1.00  0.00    +0.000 C 
ATOM    109  H14 UNL A   1      16.846  27.262  42.935  1.00  0.00    +0.000 H 
BRANCH    9    8
ATOM    107  H12 UNL A   1      15.746  29.138  44.633  1.00  0.00    +0.000 H 
ATOM    108  H13 UNL A   1      17.424  29.212  44.127  1.00  0.00    +0.000 H 
ATOM      8  C8  UNL A   1      16.407  29.220  43.796  1.00  0.00    +0.000 C 
BRANCH    8    7
ATOM    106  H11 UNL A   1      15.224  30.965  43.224  1.00  0.00    +0.000 H 
ATOM      7  C7  UNL A   1      16.139  30.511  43.078  1.00  0.00    +0.000 C 
BRANCH    7    6
ATOM    105  H10 UNL A   1      16.989  30.865  41.256  1.00  0.00    +0.000 H 
ATOM      6  C6  UNL A   1      17.016  31.114  42.257  1.00  0.00    +0.000 C 
BRANCH    6    5
ATOM      5  C5  UNL A   1      18.033  32.124  42.704  1.00  0.00    +0.000 C 
ATOM    103  H8  UNL A   1      18.483  32.573  41.844  1.00  0.00    +0.000 H 
ATOM    104  H9  UNL A   1      17.541  32.867  43.297  1.00  0.00    +0.000 H 
BRANCH    5    4
ATOM      4  C4  UNL A   1      19.100  31.473  43.537  1.00  0.00    +0.000 C 
ATOM    102  H7  UNL A   1      18.943  30.504  43.853  1.00  0.00    +0.000 H 
BRANCH    4    3
ATOM      3  C3  UNL A   1      20.247  32.073  43.895  1.00  0.00    +0.000 C 
ATOM    101  H6  UNL A   1      21.019  32.091  43.211  1.00  0.00    +0.000 H 
BRANCH    3    2
ATOM      2  C2  UNL A   1      20.472  32.718  45.232  1.00  0.00    +0.000 C 
ATOM     99  H4  UNL A   1      19.524  32.919  45.686  1.00  0.00    +0.000 H 
ATOM    100  H5  UNL A   1      21.047  32.048  45.837  1.00  0.00    +0.000 H 
BRANCH    2    1
ATOM      1  C1  UNL A   1      21.242  34.022  45.093  1.00  0.00    +0.000 C 
ATOM     98  H3  UNL A   1      22.206  33.824  44.673  1.00  0.00    +0.000 H 
ATOM     97  H2  UNL A   1      20.704  34.688  44.452  1.00  0.00    +0.000 H 
ATOM     96  H1  UNL A   1      21.359  34.471  46.058  1.00  0.00    +0.000 H 
ENDBRANCH    2    1
ENDBRANCH    3    2
ENDBRANCH    4    3
ENDBRANCH    5    4
ENDBRANCH    6    5
ENDBRANCH    7    6
ENDBRANCH    8    7
ENDBRANCH    9    8
ENDBRANCH   10    9
ENDBRANCH   11   10
ENDBRANCH   12   11
ENDBRANCH   13   12
ENDBRANCH   14   13
ENDBRANCH   15   14
ENDBRANCH   16   15
ENDBRANCH   17   16
ENDBRANCH   18   17
ENDBRANCH   19   18
ENDBRANCH   20   19
ENDBRANCH   21   20
ENDBRANCH   23   21
ENDBRANCH   24   23
ENDBRANCH   25   24
ENDBRANCH   26   25
ENDBRANCH   27   26
ENDBRANCH   28   27
ENDBRANCH   29   28
ENDBRANCH   30   29
ENDBRANCH   31   30
ENDBRANCH   33   31
ENDBRANCH   37   36
BRANCH   41   42
ATOM     42  C36 UNL A   1       2.271  19.221  44.662  1.00  0.00    +0.000 C 
ATOM     43  C37 UNL A   1       2.637  18.450  45.775  1.00  0.00    +0.000 C 
ATOM     44  F1  UNL A   1       1.963  17.329  46.071  1.00  0.00    +0.000 F 
ATOM     45  C38 UNL A   1       3.681  18.846  46.607  1.00  0.00    +0.000 C 
ATOM     46  F2  UNL A   1       3.990  18.114  47.686  1.00  0.00    +0.000 F 
ATOM     47  C39 UNL A   1       4.396  20.001  46.326  1.00  0.00    +0.000 C 
ATOM     48  F3  UNL A   1       5.406  20.375  47.122  1.00  0.00    +0.000 F 
ATOM     49  C40 UNL A   1       4.060  20.770  45.222  1.00  0.00    +0.000 C 
ATOM     50  F4  UNL A   1       4.757  21.881  44.943  1.00  0.00    +0.000 F 
ATOM     51  C41 UNL A   1       3.001  20.391  44.402  1.00  0.00    +0.000 C 
ATOM     52  F5  UNL A   1       2.693  21.159  43.346  1.00  0.00    +0.000 F 
ENDBRANCH   41   42
BRANCH   58   59
ATOM     65  F8  UNL A   1      -7.838  22.587  45.593  1.00  0.00    +0.000 F 
ATOM     66  C51 UNL A   1      -6.560  20.604  45.482  1.00  0.00    +0.000 C 
ATOM     67  F9  UNL A   1      -7.269  20.074  46.488  1.00  0.00    +0.000 F 
ATOM     68  C52 UNL A   1      -5.528  19.873  44.900  1.00  0.00    +0.000 C 
ATOM     69  F10 UNL A   1      -5.257  18.647  45.373  1.00  0.00    +0.000 F 
ATOM     59  C47 UNL A   1      -4.786  20.398  43.830  1.00  0.00    +0.000 C 
ATOM     60  C48 UNL A   1      -5.111  21.683  43.371  1.00  0.00    +0.000 C 
ATOM     61  F6  UNL A   1      -4.418  22.234  42.364  1.00  0.00    +0.000 F 
ATOM     62  C49 UNL A   1      -6.127  22.420  43.972  1.00  0.00    +0.000 C 
ATOM     63  F7  UNL A   1      -6.396  23.661  43.543  1.00  0.00    +0.000 F 
ATOM     64  C50 UNL A   1      -6.856  21.878  45.021  1.00  0.00    +0.000 C 
ENDBRANCH   58   59
BRANCH   73   74
ATOM     74  C56 UNL A   1      -4.850  15.884  38.532  1.00  0.00    +0.000 C 
ATOM     75  C57 UNL A   1      -5.501  14.682  38.840  1.00  0.00    +0.000 C 
ATOM     76  F11 UNL A   1      -5.141  13.985  39.926  1.00  0.00    +0.000 F 
ATOM     77  C58 UNL A   1      -6.499  14.173  38.011  1.00  0.00    +0.000 C 
ATOM     78  F12 UNL A   1      -7.079  13.003  38.307  1.00  0.00    +0.000 F 
ATOM     79  C59 UNL A   1      -6.882  14.870  36.874  1.00  0.00    +0.000 C 
ATOM     80  F13 UNL A   1      -7.845  14.382  36.080  1.00  0.00    +0.000 F 
ATOM     81  C60 UNL A   1      -6.260  16.069  36.558  1.00  0.00    +0.000 C 
ATOM     82  F14 UNL A   1      -6.636  16.750  35.467  1.00  0.00    +0.000 F 
ATOM     83  C61 UNL A   1      -5.246  16.566  37.372  1.00  0.00    +0.000 C 
ATOM     84  F15 UNL A   1      -4.654  17.722  37.037  1.00  0.00    +0.000 F 
ENDBRANCH   73   74
TORSDOF 34
ENDMDL
MODEL 4
REMARK VINA RESULT:      -6.1     43.188     51.331
ROOT
ATOM    141  H46 UNL A   1      11.002  34.541  -3.244  1.00  0.00    +0.000 H 
ATOM    142  H47 UNL A   1      12.685  34.031  -1.319  1.00  0.00    +0.000 H 
ATOM    143  H48 UNL A   1       9.706  31.154  -1.240  1.00  0.00    +0.000 H 
ATOM    144  H49 UNL A   1       6.913  26.195   1.632  1.00  0.00    +0.000 H 
ATOM    145  H50 UNL A   1       5.327  26.638  -0.301  1.00  0.00    +0.000 H 
ATOM    146  H51 UNL A   1       8.328  29.513  -0.431  1.00  0.00    +0.000 H 
ATOM    147  H52 UNL A   1      11.547  28.298   3.245  1.00  0.00    +0.000 H 
ATOM    148  H53 UNL A   1      12.922  30.341   2.544  1.00  0.00    +0.000 H 
ATOM    149  H54 UNL A   1       6.620  32.057  -5.094  1.00  0.00    +0.000 H 
ATOM    150  H55 UNL A   1       5.039  30.250  -4.202  1.00  0.00    +0.000 H 
ATOM     37  C32 UNL A   1       6.051  28.867  -1.926  1.00  0.00    +0.000 C 
ATOM     38  C33 UNL A   1       6.665  30.041  -2.633  1.00  0.00    +0.000 C 
ATOM     39  N3  UNL A   1       7.777  30.678  -2.366  1.00  0.00    +0.000 N 
ATOM     40  C34 UNL A   1       7.898  31.653  -3.347  1.00  0.00    +0.000 C 
ATOM     41  C35 UNL A   1       8.856  32.601  -3.479  1.00  0.00    +0.000 C 
ATOM     53  C42 UNL A   1       9.965  32.770  -2.576  1.00  0.00    +0.000 C 
ATOM     54  C43 UNL A   1      10.943  33.750  -2.583  1.00  0.00    +0.000 C 
ATOM     55  C44 UNL A   1      11.838  33.483  -1.542  1.00  0.00    +0.000 C 
ATOM     56  C45 UNL A   1      11.397  32.360  -0.862  1.00  0.00    +0.000 C 
ATOM     57  N4  UNL A   1      10.245  31.934  -1.505  1.00  0.00    +0.000 N 
ATOM     58  C46 UNL A   1      11.984  31.718   0.286  1.00  0.00    +0.000 C 
ATOM     70  C53 UNL A   1      11.459  30.646   0.927  1.00  0.00    +0.000 C 
ATOM     71  N5  UNL A   1      10.297  29.943   0.642  1.00  0.00    +0.000 N 
ATOM     72  C54 UNL A   1      10.228  28.985   1.534  1.00  0.00    +0.000 C 
ATOM     73  C55 UNL A   1       9.172  27.930   1.711  1.00  0.00    +0.000 C 
ATOM     85  C62 UNL A   1       8.110  27.913   0.884  1.00  0.00    +0.000 C 
ATOM     86  C63 UNL A   1       7.019  26.945   0.931  1.00  0.00    +0.000 C 
ATOM     87  C64 UNL A   1       6.174  27.187  -0.083  1.00  0.00    +0.000 C 
ATOM     88  C65 UNL A   1       6.646  28.352  -0.833  1.00  0.00    +0.000 C 
ATOM     89  N6  UNL A   1       7.789  28.731  -0.172  1.00  0.00    +0.000 N 
ATOM     90  C66 UNL A   1      11.354  28.961   2.478  1.00  0.00    +0.000 C 
ATOM     91  C67 UNL A   1      12.058  30.013   2.084  1.00  0.00    +0.000 C 
ATOM     92  C68 UNL A   1       6.767  31.501  -4.238  1.00  0.00    +0.000 C 
ATOM     93  C69 UNL A   1       5.946  30.552  -3.811  1.00  0.00    +0.000 C 
ENDROOT
BRANCH   37   36
ATOM     33  C28 UNL A   1       2.590  26.782  -3.343  1.00  0.00    +0.000 C 
ATOM     34  C29 UNL A   1       2.437  27.834  -2.434  1.00  0.00    +0.000 C 
ATOM     35  C30 UNL A   1       3.554  28.555  -2.011  1.00  0.00    +0.000 C 
ATOM     36  C31 UNL A   1       4.836  28.209  -2.469  1.00  0.00    +0.000 C 
ATOM    139  H44 UNL A   1       1.498  28.076  -2.078  1.00  0.00    +0.000 H 
ATOM    140  H45 UNL A   1       3.439  29.347  -1.359  1.00  0.00    +0.000 H 
ATOM    151  H56 UNL A   1       5.906  26.942  -3.784  1.00  0.00    +0.000 H 
ATOM    152  H57 UNL A   1       3.943  25.802  -4.637  1.00  0.00    +0.000 H 
ATOM     94  C70 UNL A   1       4.970  27.189  -3.425  1.00  0.00    +0.000 C 
ATOM     95  C71 UNL A   1       3.847  26.508  -3.890  1.00  0.00    +0.000 C 
BRANCH   33   31
ATOM     31  C27 UNL A   1       1.405  25.975  -3.705  1.00  0.00    +0.000 C 
ATOM     32  O3  UNL A   1       1.549  24.938  -4.345  1.00  0.00    +0.000 O 
BRANCH   31   30
ATOM    138  H43 UNL A   1      -0.087  27.308  -3.639  1.00  0.00    +0.000 H 
ATOM     30  N2  UNL A   1       0.148  26.397  -3.348  1.00  0.00    +0.000 N 
BRANCH   30   29
ATOM    137  H42 UNL A   1      -1.115  24.796  -3.134  1.00  0.00    +0.000 H 
ATOM     29  C26 UNL A   1      -0.888  25.697  -2.604  1.00  0.00    +0.000 C 
ATOM    136  H41 UNL A   1      -1.745  26.335  -2.526  1.00  0.00    +0.000 H 
BRANCH   29   28
ATOM     28  C25 UNL A   1      -0.439  25.308  -1.199  1.00  0.00    +0.000 C 
ATOM    134  H39 UNL A   1      -0.943  24.403  -0.928  1.00  0.00    +0.000 H 
ATOM    135  H40 UNL A   1       0.625  25.206  -1.244  1.00  0.00    +0.000 H 
BRANCH   28   27
ATOM     27  C24 UNL A   1      -0.722  26.349  -0.114  1.00  0.00    +0.000 C 
ATOM    132  H37 UNL A   1      -0.212  27.252  -0.381  1.00  0.00    +0.000 H 
ATOM    133  H38 UNL A   1      -1.786  26.451  -0.075  1.00  0.00    +0.000 H 
BRANCH   27   26
ATOM     26  C23 UNL A   1      -0.283  25.962   1.302  1.00  0.00    +0.000 C 
ATOM    130  H35 UNL A   1      -0.790  25.058   1.568  1.00  0.00    +0.000 H 
ATOM    131  H36 UNL A   1       0.782  25.867   1.263  1.00  0.00    +0.000 H 
BRANCH   26   25
ATOM     25  C22 UNL A   1      -0.570  27.002   2.394  1.00  0.00    +0.000 C 
ATOM    129  H34 UNL A   1      -1.227  26.531   3.096  1.00  0.00    +0.000 H 
ATOM    128  H33 UNL A   1      -1.002  27.864   1.930  1.00  0.00    +0.000 H 
BRANCH   25   24
ATOM    126  H31 UNL A   1       0.491  28.441   3.555  1.00  0.00    +0.000 H 
ATOM    127  H32 UNL A   1       0.808  26.764   3.992  1.00  0.00    +0.000 H 
ATOM     24  C21 UNL A   1       0.658  27.451   3.186  1.00  0.00    +0.000 C 
BRANCH   24   23
ATOM    125  H30 UNL A   1       2.203  26.566   2.117  1.00  0.00    +0.000 H 
ATOM     23  N1  UNL A   1       1.850  27.452   2.361  1.00  0.00    +0.000 N 
BRANCH   23   21
ATOM     21  C20 UNL A   1       2.544  28.525   1.882  1.00  0.00    +0.000 C 
ATOM     22  O2  UNL A   1       3.773  28.529   1.976  1.00  0.00    +0.000 O 
BRANCH   21   20
ATOM    124  H29 UNL A   1       1.319  30.190   2.109  1.00  0.00    +0.000 H 
ATOM    123  H28 UNL A   1       1.087  29.294   0.553  1.00  0.00    +0.000 H 
ATOM     20  C19 UNL A   1       1.769  29.700   1.272  1.00  0.00    +0.000 C 
BRANCH   20   19
ATOM     19  O1  UNL A   1       2.516  30.719   0.619  1.00  0.00    +0.000 O 
BRANCH   19   18
ATOM    121  H26 UNL A   1       1.026  31.999   1.193  1.00  0.00    +0.000 H 
ATOM     18  C18 UNL A   1       1.812  31.952   0.469  1.00  0.00    +0.000 C 
ATOM    122  H27 UNL A   1       2.498  32.761   0.614  1.00  0.00    +0.000 H 
BRANCH   18   17
ATOM     17  C17 UNL A   1       1.224  32.059  -0.904  1.00  0.00    +0.000 C 
ATOM    120  H25 UNL A   1       0.273  32.445  -1.004  1.00  0.00    +0.000 H 
BRANCH   17   16
ATOM    119  H24 UNL A   1       2.083  30.667  -2.120  1.00  0.00    +0.000 H 
ATOM     16  C16 UNL A   1       1.880  31.672  -2.009  1.00  0.00    +0.000 C 
BRANCH   16   15
ATOM    117  H22 UNL A   1       1.593  33.352  -3.248  1.00  0.00    +0.000 H 
ATOM    118  H23 UNL A   1       3.270  33.033  -2.786  1.00  0.00    +0.000 H 
ATOM     15  C15 UNL A   1       2.341  32.602  -3.096  1.00  0.00    +0.000 C 
BRANCH   15   14
ATOM    115  H20 UNL A   1       3.403  31.194  -4.300  1.00  0.00    +0.000 H 
ATOM    116  H21 UNL A   1       1.680  31.361  -4.682  1.00  0.00    +0.000 H 
ATOM     14  C14 UNL A   1       2.585  31.872  -4.427  1.00  0.00    +0.000 C 
BRANCH   14   13
ATOM    114  H19 UNL A   1       2.166  33.003  -6.252  1.00  0.00    +0.000 H 
ATOM     13  C13 UNL A   1       2.908  32.807  -5.561  1.00  0.00    +0.000 C 
BRANCH   13   12
ATOM    113  H18 UNL A   1       4.823  32.896  -6.265  1.00  0.00    +0.000 H 
ATOM     12  C12 UNL A   1       4.098  33.403  -5.734  1.00  0.00    +0.000 C 
BRANCH   12   11
ATOM     11  C11 UNL A   1       4.436  34.765  -5.200  1.00  0.00    +0.000 C 
ATOM    111  H16 UNL A   1       4.801  34.671  -4.199  1.00  0.00    +0.000 H 
ATOM    112  H17 UNL A   1       5.185  35.208  -5.822  1.00  0.00    +0.000 H 
BRANCH   11   10
ATOM     10  C10 UNL A   1       3.218  35.643  -5.201  1.00  0.00    +0.000 C 
ATOM    110  H15 UNL A   1       2.585  35.595  -4.387  1.00  0.00    +0.000 H 
BRANCH   10    9
ATOM      9  C9  UNL A   1       2.901  36.488  -6.195  1.00  0.00    +0.000 C 
ATOM    109  H14 UNL A   1       1.929  36.831  -6.247  1.00  0.00    +0.000 H 
BRANCH    9    8
ATOM    107  H12 UNL A   1       4.695  36.289  -7.290  1.00  0.00    +0.000 H 
ATOM    108  H13 UNL A   1       3.369  37.013  -8.181  1.00  0.00    +0.000 H 
ATOM      8  C8  UNL A   1       3.870  36.967  -7.237  1.00  0.00    +0.000 C 
BRANCH    8    7
ATOM    106  H11 UNL A   1       5.238  38.666  -7.357  1.00  0.00    +0.000 H 
ATOM      7  C7  UNL A   1       4.378  38.337  -6.890  1.00  0.00    +0.000 C 
BRANCH    7    6
ATOM    105  H10 UNL A   1       3.979  39.018  -5.007  1.00  0.00    +0.000 H 
ATOM      6  C6  UNL A   1       3.785  39.162  -6.011  1.00  0.00    +0.000 C 
BRANCH    6    5
ATOM      5  C5  UNL A   1       2.858  40.278  -6.394  1.00  0.00    +0.000 C 
ATOM    103  H8  UNL A   1       3.120  40.634  -7.369  1.00  0.00    +0.000 H 
ATOM    104  H9  UNL A   1       1.854  39.905  -6.392  1.00  0.00    +0.000 H 
BRANCH    5    4
ATOM      4  C4  UNL A   1       2.952  41.411  -5.413  1.00  0.00    +0.000 C 
ATOM    102  H7  UNL A   1       2.171  41.546  -4.754  1.00  0.00    +0.000 H 
BRANCH    4    3
ATOM      3  C3  UNL A   1       3.991  42.259  -5.340  1.00  0.00    +0.000 C 
ATOM    101  H6  UNL A   1       4.378  42.473  -4.407  1.00  0.00    +0.000 H 
BRANCH    3    2
ATOM      2  C2  UNL A   1       4.621  42.916  -6.533  1.00  0.00    +0.000 C 
ATOM     99  H4  UNL A   1       5.542  43.372  -6.234  1.00  0.00    +0.000 H 
ATOM    100  H5  UNL A   1       4.794  42.168  -7.279  1.00  0.00    +0.000 H 
BRANCH    2    1
ATOM      1  C1  UNL A   1       3.710  43.981  -7.123  1.00  0.00    +0.000 C 
ATOM     98  H3  UNL A   1       3.599  43.814  -8.174  1.00  0.00    +0.000 H 
ATOM     97  H2  UNL A   1       2.750  43.931  -6.651  1.00  0.00    +0.000 H 
ATOM     96  H1  UNL A   1       4.138  44.948  -6.958  1.00  0.00    +0.000 H 
ENDBRANCH    2    1
ENDBRANCH    3    2
ENDBRANCH    4    3
ENDBRANCH    5    4
ENDBRANCH    6    5
ENDBRANCH    7    6
ENDBRANCH    8    7
ENDBRANCH    9    8
ENDBRANCH   10    9
ENDBRANCH   11   10
ENDBRANCH   12   11
ENDBRANCH   13   12
ENDBRANCH   14   13
ENDBRANCH   15   14
ENDBRANCH   16   15
ENDBRANCH   17   16
ENDBRANCH   18   17
ENDBRANCH   19   18
ENDBRANCH   20   19
ENDBRANCH   21   20
ENDBRANCH   23   21
ENDBRANCH   24   23
ENDBRANCH   25   24
ENDBRANCH   26   25
ENDBRANCH   27   26
ENDBRANCH   28   27
ENDBRANCH   29   28
ENDBRANCH   30   29
ENDBRANCH   31   30
ENDBRANCH   33   31
ENDBRANCH   37   36
BRANCH   41   42
ATOM     42  C36 UNL A   1       8.750  33.540  -4.643  1.00  0.00    +0.000 C 
ATOM     43  C37 UNL A   1       9.294  33.218  -5.896  1.00  0.00    +0.000 C 
ATOM     44  F1  UNL A   1       9.979  32.077  -6.061  1.00  0.00    +0.000 F 
ATOM     45  C38 UNL A   1       9.163  34.087  -6.976  1.00  0.00    +0.000 C 
ATOM     46  F2  UNL A   1       9.724  33.777  -8.154  1.00  0.00    +0.000 F 
ATOM     47  C39 UNL A   1       8.461  35.274  -6.835  1.00  0.00    +0.000 C 
ATOM     48  F3  UNL A   1       8.327  36.104  -7.879  1.00  0.00    +0.000 F 
ATOM     49  C40 UNL A   1       7.901  35.604  -5.610  1.00  0.00    +0.000 C 
ATOM     50  F4  UNL A   1       7.213  36.747  -5.474  1.00  0.00    +0.000 F 
ATOM     51  C41 UNL A   1       8.052  34.751  -4.520  1.00  0.00    +0.000 C 
ATOM     52  F5  UNL A   1       7.508  35.101  -3.345  1.00  0.00    +0.000 F 
ENDBRANCH   41   42
BRANCH   58   59
ATOM     65  F8  UNL A   1      16.808  33.767   2.388  1.00  0.00    +0.000 F 
ATOM     66  C51 UNL A   1      15.680  32.171   1.062  1.00  0.00    +0.000 C 
ATOM     67  F9  UNL A   1      16.841  31.566   0.778  1.00  0.00    +0.000 F 
ATOM     68  C52 UNL A   1      14.493  31.679   0.527  1.00  0.00    +0.000 C 
ATOM     69  F10 UNL A   1      14.540  30.607  -0.277  1.00  0.00    +0.000 F 
ATOM     59  C47 UNL A   1      13.262  32.282   0.828  1.00  0.00    +0.000 C 
ATOM     60  C48 UNL A   1      13.265  33.399   1.676  1.00  0.00    +0.000 C 
ATOM     61  F6  UNL A   1      12.115  34.021   1.978  1.00  0.00    +0.000 F 
ATOM     62  C49 UNL A   1      14.457  33.903   2.189  1.00  0.00    +0.000 C 
ATOM     63  F7  UNL A   1      14.442  34.995   2.966  1.00  0.00    +0.000 F 
ATOM     64  C50 UNL A   1      15.662  33.285   1.888  1.00  0.00    +0.000 C 
ENDBRANCH   58   59
BRANCH   73   74
ATOM     74  C56 UNL A   1       9.283  26.919   2.792  1.00  0.00    +0.000 C 
ATOM     75  C57 UNL A   1       9.796  25.642   2.529  1.00  0.00    +0.000 C 
ATOM     76  F11 UNL A   1      10.172  25.315   1.284  1.00  0.00    +0.000 F 
ATOM     77  C58 UNL A   1       9.888  24.683   3.536  1.00  0.00    +0.000 C 
ATOM     78  F12 UNL A   1      10.346  23.457   3.249  1.00  0.00    +0.000 F 
ATOM     79  C59 UNL A   1       9.494  24.992   4.829  1.00  0.00    +0.000 C 
ATOM     80  F13 UNL A   1       9.587  24.071   5.798  1.00  0.00    +0.000 F 
ATOM     81  C60 UNL A   1       8.997  26.255   5.115  1.00  0.00    +0.000 C 
ATOM     82  F14 UNL A   1       8.627  26.560   6.366  1.00  0.00    +0.000 F 
ATOM     83  C61 UNL A   1       8.882  27.206   4.105  1.00  0.00    +0.000 C 
ATOM     84  F15 UNL A   1       8.387  28.415   4.407  1.00  0.00    +0.000 F 
ENDBRANCH   73   74
TORSDOF 34
ENDMDL
MODEL 5
REMARK VINA RESULT:      -6.1     75.285     80.423
ROOT
ATOM    141  H46 UNL A   1      48.612  56.081  18.201  1.00  0.00    +0.000 H 
ATOM    142  H47 UNL A   1      49.569  54.288  19.834  1.00  0.00    +0.000 H 
ATOM    143  H48 UNL A   1      51.906  57.694  20.126  1.00  0.00    +0.000 H 
ATOM    144  H49 UNL A   1      57.100  60.636  22.367  1.00  0.00    +0.000 H 
ATOM    145  H50 UNL A   1      56.111  62.412  20.845  1.00  0.00    +0.000 H 
ATOM    146  H51 UNL A   1      53.721  59.021  20.564  1.00  0.00    +0.000 H 
ATOM    147  H52 UNL A   1      55.619  55.733  23.872  1.00  0.00    +0.000 H 
ATOM    148  H53 UNL A   1      53.773  54.119  23.134  1.00  0.00    +0.000 H 
ATOM    149  H54 UNL A   1      49.893  61.180  17.127  1.00  0.00    +0.000 H 
ATOM    150  H55 UNL A   1      51.923  62.677  17.569  1.00  0.00    +0.000 H 
ATOM     37  C32 UNL A   1      53.751  61.597  19.468  1.00  0.00    +0.000 C 
ATOM     38  C33 UNL A   1      52.521  60.945  18.906  1.00  0.00    +0.000 C 
ATOM     39  N3  UNL A   1      52.026  59.759  19.156  1.00  0.00    +0.000 N 
ATOM     40  C34 UNL A   1      50.861  59.670  18.405  1.00  0.00    +0.000 C 
ATOM     41  C35 UNL A   1      50.014  58.620  18.285  1.00  0.00    +0.000 C 
ATOM     53  C42 UNL A   1      50.189  57.352  18.945  1.00  0.00    +0.000 C 
ATOM     54  C43 UNL A   1      49.427  56.203  18.823  1.00  0.00    +0.000 C 
ATOM     55  C44 UNL A   1      49.948  55.238  19.690  1.00  0.00    +0.000 C 
ATOM     56  C45 UNL A   1      51.059  55.771  20.323  1.00  0.00    +0.000 C 
ATOM     57  N4  UNL A   1      51.197  57.068  19.854  1.00  0.00    +0.000 N 
ATOM     58  C46 UNL A   1      51.928  55.148  21.288  1.00  0.00    +0.000 C 
ATOM     70  C53 UNL A   1      53.030  55.725  21.824  1.00  0.00    +0.000 C 
ATOM     71  N5  UNL A   1      53.553  56.989  21.591  1.00  0.00    +0.000 N 
ATOM     72  C54 UNL A   1      54.614  57.086  22.355  1.00  0.00    +0.000 C 
ATOM     73  C55 UNL A   1      55.577  58.231  22.498  1.00  0.00    +0.000 C 
ATOM     85  C62 UNL A   1      55.397  59.342  21.759  1.00  0.00    +0.000 C 
ATOM     86  C63 UNL A   1      56.243  60.530  21.802  1.00  0.00    +0.000 C 
ATOM     87  C64 UNL A   1      55.727  61.465  20.988  1.00  0.00    +0.000 C 
ATOM     88  C65 UNL A   1      54.531  60.926  20.337  1.00  0.00    +0.000 C 
ATOM     89  N6  UNL A   1      54.426  59.652  20.838  1.00  0.00    +0.000 N 
ATOM     90  C66 UNL A   1      54.874  55.895  23.176  1.00  0.00    +0.000 C 
ATOM     91  C67 UNL A   1      53.898  55.084  22.790  1.00  0.00    +0.000 C 
ATOM     92  C68 UNL A   1      50.702  60.935  17.719  1.00  0.00    +0.000 C 
ATOM     93  C69 UNL A   1      51.729  61.739  17.953  1.00  0.00    +0.000 C 
ENDROOT
BRANCH   37   36
ATOM     33  C28 UNL A   1      54.494  65.669  18.375  1.00  0.00    +0.000 C 
ATOM     34  C29 UNL A   1      53.807  65.388  19.560  1.00  0.00    +0.000 C 
ATOM     35  C30 UNL A   1      53.611  64.063  19.952  1.00  0.00    +0.000 C 
ATOM     36  C31 UNL A   1      54.071  63.010  19.145  1.00  0.00    +0.000 C 
ATOM    139  H44 UNL A   1      53.447  66.160  20.144  1.00  0.00    +0.000 H 
ATOM    140  H45 UNL A   1      53.124  63.856  20.838  1.00  0.00    +0.000 H 
ATOM    151  H56 UNL A   1      55.172  62.538  17.401  1.00  0.00    +0.000 H 
ATOM    152  H57 UNL A   1      55.650  64.841  16.812  1.00  0.00    +0.000 H 
ATOM     94  C70 UNL A   1      54.809  63.305  17.989  1.00  0.00    +0.000 C 
ATOM     95  C71 UNL A   1      55.056  64.630  17.628  1.00  0.00    +0.000 C 
BRANCH   33   31
ATOM     31  C27 UNL A   1      54.609  67.076  17.935  1.00  0.00    +0.000 C 
ATOM     32  O3  UNL A   1      55.437  67.812  18.464  1.00  0.00    +0.000 O 
BRANCH   31   30
ATOM    138  H43 UNL A   1      54.227  67.888  16.145  1.00  0.00    +0.000 H 
ATOM     30  N2  UNL A   1      53.777  67.564  16.957  1.00  0.00    +0.000 N 
BRANCH   30   29
ATOM    137  H42 UNL A   1      52.058  68.358  16.171  1.00  0.00    +0.000 H 
ATOM     29  C26 UNL A   1      52.326  67.672  16.946  1.00  0.00    +0.000 C 
ATOM    136  H41 UNL A   1      52.000  68.015  17.907  1.00  0.00    +0.000 H 
BRANCH   29   28
ATOM     28  C25 UNL A   1      51.641  66.343  16.646  1.00  0.00    +0.000 C 
ATOM    134  H39 UNL A   1      51.103  66.447  15.725  1.00  0.00    +0.000 H 
ATOM    135  H40 UNL A   1      52.419  65.610  16.603  1.00  0.00    +0.000 H 
BRANCH   28   27
ATOM     27  C24 UNL A   1      50.659  65.860  17.715  1.00  0.00    +0.000 C 
ATOM    132  H37 UNL A   1      49.706  65.717  17.249  1.00  0.00    +0.000 H 
ATOM    133  H38 UNL A   1      51.081  64.962  18.117  1.00  0.00    +0.000 H 
BRANCH   27   26
ATOM     26  C23 UNL A   1      50.463  66.804  18.906  1.00  0.00    +0.000 C 
ATOM    130  H35 UNL A   1      51.387  67.318  19.074  1.00  0.00    +0.000 H 
ATOM    131  H36 UNL A   1      49.651  67.448  18.638  1.00  0.00    +0.000 H 
BRANCH   26   25
ATOM     25  C22 UNL A   1      50.049  66.134  20.223  1.00  0.00    +0.000 C 
ATOM    129  H34 UNL A   1      50.916  66.140  20.852  1.00  0.00    +0.000 H 
ATOM    128  H33 UNL A   1      49.699  65.148  20.002  1.00  0.00    +0.000 H 
BRANCH   25   24
ATOM    126  H31 UNL A   1      49.367  67.749  21.437  1.00  0.00    +0.000 H 
ATOM    127  H32 UNL A   1      48.169  67.118  20.310  1.00  0.00    +0.000 H 
ATOM     24  C21 UNL A   1      48.952  66.868  20.995  1.00  0.00    +0.000 C 
BRANCH   24   23
ATOM    125  H30 UNL A   1      48.985  65.334  22.396  1.00  0.00    +0.000 H 
ATOM     23  N1  UNL A   1      48.392  66.036  22.042  1.00  0.00    +0.000 N 
BRANCH   23   21
ATOM     21  C20 UNL A   1      47.148  66.103  22.597  1.00  0.00    +0.000 C 
ATOM     22  O2  UNL A   1      46.974  65.639  23.726  1.00  0.00    +0.000 O 
BRANCH   21   20
ATOM    124  H29 UNL A   1      45.235  65.978  21.790  1.00  0.00    +0.000 H 
ATOM    123  H28 UNL A   1      46.395  66.976  20.823  1.00  0.00    +0.000 H 
ATOM     20  C19 UNL A   1      46.003  66.723  21.786  1.00  0.00    +0.000 C 
BRANCH   20   19
ATOM     19  O1  UNL A   1      45.376  67.888  22.309  1.00  0.00    +0.000 O 
BRANCH   19   18
ATOM    121  H26 UNL A   1      43.820  69.148  21.884  1.00  0.00    +0.000 H 
ATOM     18  C18 UNL A   1      44.568  68.589  21.362  1.00  0.00    +0.000 C 
ATOM    122  H27 UNL A   1      45.193  69.246  20.794  1.00  0.00    +0.000 H 
BRANCH   18   17
ATOM     17  C17 UNL A   1      43.901  67.629  20.427  1.00  0.00    +0.000 C 
ATOM    120  H25 UNL A   1      43.736  66.662  20.747  1.00  0.00    +0.000 H 
BRANCH   17   16
ATOM    119  H24 UNL A   1      43.066  68.894  19.065  1.00  0.00    +0.000 H 
ATOM     16  C16 UNL A   1      43.509  67.971  19.189  1.00  0.00    +0.000 C 
BRANCH   16   15
ATOM    117  H22 UNL A   1      42.700  66.833  17.612  1.00  0.00    +0.000 H 
ATOM    118  H23 UNL A   1      44.218  67.663  17.243  1.00  0.00    +0.000 H 
ATOM     15  C15 UNL A   1      43.671  67.104  17.973  1.00  0.00    +0.000 C 
BRANCH   15   14
ATOM    115  H20 UNL A   1      45.014  65.961  19.176  1.00  0.00    +0.000 H 
ATOM    116  H21 UNL A   1      43.756  65.021  18.354  1.00  0.00    +0.000 H 
ATOM     14  C14 UNL A   1      44.463  65.820  18.270  1.00  0.00    +0.000 C 
BRANCH   14   13
ATOM    114  H19 UNL A   1      45.045  65.305  16.226  1.00  0.00    +0.000 H 
ATOM     13  C13 UNL A   1      45.426  65.454  17.174  1.00  0.00    +0.000 C 
BRANCH   13   12
ATOM    113  H18 UNL A   1      47.246  66.019  17.907  1.00  0.00    +0.000 H 
ATOM     12  C12 UNL A   1      46.750  65.310  17.346  1.00  0.00    +0.000 C 
BRANCH   12   11
ATOM     11  C11 UNL A   1      47.549  64.177  16.770  1.00  0.00    +0.000 C 
ATOM    111  H16 UNL A   1      47.070  63.823  15.881  1.00  0.00    +0.000 H 
ATOM    112  H17 UNL A   1      48.534  64.526  16.541  1.00  0.00    +0.000 H 
BRANCH   11   10
ATOM     10  C10 UNL A   1      47.648  63.052  17.760  1.00  0.00    +0.000 C 
ATOM    110  H15 UNL A   1      47.413  62.100  17.436  1.00  0.00    +0.000 H 
BRANCH   10    9
ATOM      9  C9  UNL A   1      48.025  63.206  19.039  1.00  0.00    +0.000 C 
ATOM    109  H14 UNL A   1      49.032  63.298  19.238  1.00  0.00    +0.000 H 
BRANCH    9    8
ATOM    107  H12 UNL A   1      47.586  62.955  21.089  1.00  0.00    +0.000 H 
ATOM    108  H13 UNL A   1      46.702  64.251  20.303  1.00  0.00    +0.000 H 
ATOM      8  C8  UNL A   1      47.073  63.253  20.199  1.00  0.00    +0.000 C 
BRANCH    8    7
ATOM    106  H11 UNL A   1      46.112  61.397  19.564  1.00  0.00    +0.000 H 
ATOM      7  C7  UNL A   1      45.913  62.327  19.964  1.00  0.00    +0.000 C 
BRANCH    7    6
ATOM    105  H10 UNL A   1      43.897  62.167  19.691  1.00  0.00    +0.000 H 
ATOM      6  C6  UNL A   1      44.635  62.633  20.241  1.00  0.00    +0.000 C 
BRANCH    6    5
ATOM      5  C5  UNL A   1      44.213  63.613  21.297  1.00  0.00    +0.000 C 
ATOM    103  H8  UNL A   1      44.691  64.553  21.116  1.00  0.00    +0.000 H 
ATOM    104  H9  UNL A   1      43.149  63.723  21.256  1.00  0.00    +0.000 H 
BRANCH    5    4
ATOM      4  C4  UNL A   1      44.593  63.120  22.664  1.00  0.00    +0.000 C 
ATOM    102  H7  UNL A   1      45.311  62.383  22.729  1.00  0.00    +0.000 H 
BRANCH    4    3
ATOM      3  C3  UNL A   1      44.058  63.580  23.806  1.00  0.00    +0.000 C 
ATOM    101  H6  UNL A   1      44.675  63.676  24.628  1.00  0.00    +0.000 H 
BRANCH    3    2
ATOM      2  C2  UNL A   1      42.614  63.961  23.961  1.00  0.00    +0.000 C 
ATOM     99  H4  UNL A   1      42.536  64.741  24.689  1.00  0.00    +0.000 H 
ATOM    100  H5  UNL A   1      42.249  64.292  23.012  1.00  0.00    +0.000 H 
BRANCH    2    1
ATOM      1  C1  UNL A   1      41.776  62.775  24.412  1.00  0.00    +0.000 C 
ATOM     98  H3  UNL A   1      40.745  62.964  24.194  1.00  0.00    +0.000 H 
ATOM     97  H2  UNL A   1      42.095  61.895  23.894  1.00  0.00    +0.000 H 
ATOM     96  H1  UNL A   1      41.897  62.633  25.466  1.00  0.00    +0.000 H 
ENDBRANCH    2    1
ENDBRANCH    3    2
ENDBRANCH    4    3
ENDBRANCH    5    4
ENDBRANCH    6    5
ENDBRANCH    7    6
ENDBRANCH    8    7
ENDBRANCH    9    8
ENDBRANCH   10    9
ENDBRANCH   11   10
ENDBRANCH   12   11
ENDBRANCH   13   12
ENDBRANCH   14   13
ENDBRANCH   15   14
ENDBRANCH   16   15
ENDBRANCH   17   16
ENDBRANCH   18   17
ENDBRANCH   19   18
ENDBRANCH   20   19
ENDBRANCH   21   20
ENDBRANCH   23   21
ENDBRANCH   24   23
ENDBRANCH   25   24
ENDBRANCH   26   25
ENDBRANCH   27   26
ENDBRANCH   28   27
ENDBRANCH   29   28
ENDBRANCH   30   29
ENDBRANCH   31   30
ENDBRANCH   33   31
ENDBRANCH   37   36
BRANCH   41   42
ATOM     42  C36 UNL A   1      48.815  58.791  17.400  1.00  0.00    +0.000 C 
ATOM     43  C37 UNL A   1      47.614  59.327  17.889  1.00  0.00    +0.000 C 
ATOM     44  F1  UNL A   1      47.496  59.645  19.186  1.00  0.00    +0.000 F 
ATOM     45  C38 UNL A   1      46.519  59.507  17.049  1.00  0.00    +0.000 C 
ATOM     46  F2  UNL A   1      45.369  59.985  17.546  1.00  0.00    +0.000 F 
ATOM     47  C39 UNL A   1      46.611  59.187  15.703  1.00  0.00    +0.000 C 
ATOM     48  F3  UNL A   1      45.558  59.371  14.895  1.00  0.00    +0.000 F 
ATOM     49  C40 UNL A   1      47.794  58.671  15.196  1.00  0.00    +0.000 C 
ATOM     50  F4  UNL A   1      47.889  58.370  13.893  1.00  0.00    +0.000 F 
ATOM     51  C41 UNL A   1      48.884  58.465  16.037  1.00  0.00    +0.000 C 
ATOM     52  F5  UNL A   1      50.013  57.955  15.520  1.00  0.00    +0.000 F 
ENDBRANCH   41   42
BRANCH   58   59
ATOM     65  F8  UNL A   1      50.769  49.895  23.005  1.00  0.00    +0.000 F 
ATOM     66  C51 UNL A   1      50.557  52.229  23.303  1.00  0.00    +0.000 C 
ATOM     67  F9  UNL A   1      49.827  52.034  24.411  1.00  0.00    +0.000 F 
ATOM     68  C52 UNL A   1      50.825  53.523  22.867  1.00  0.00    +0.000 C 
ATOM     69  F10 UNL A   1      50.333  54.556  23.567  1.00  0.00    +0.000 F 
ATOM     59  C47 UNL A   1      51.605  53.751  21.723  1.00  0.00    +0.000 C 
ATOM     60  C48 UNL A   1      52.098  52.637  21.028  1.00  0.00    +0.000 C 
ATOM     61  F6  UNL A   1      52.833  52.805  19.919  1.00  0.00    +0.000 F 
ATOM     62  C49 UNL A   1      51.807  51.344  21.454  1.00  0.00    +0.000 C 
ATOM     63  F7  UNL A   1      52.256  50.293  20.754  1.00  0.00    +0.000 F 
ATOM     64  C50 UNL A   1      51.043  51.140  22.594  1.00  0.00    +0.000 C 
ENDBRANCH   58   59
BRANCH   73   74
ATOM     74  C56 UNL A   1      56.727  58.144  23.433  1.00  0.00    +0.000 C 
ATOM     75  C57 UNL A   1      57.912  57.502  23.053  1.00  0.00    +0.000 C 
ATOM     76  F11 UNL A   1      58.009  56.937  21.841  1.00  0.00    +0.000 F 
ATOM     77  C58 UNL A   1      58.990  57.403  23.931  1.00  0.00    +0.000 C 
ATOM     78  F12 UNL A   1      60.098  56.749  23.558  1.00  0.00    +0.000 F 
ATOM     79  C59 UNL A   1      58.910  57.968  25.196  1.00  0.00    +0.000 C 
ATOM     80  F13 UNL A   1      59.949  57.876  26.038  1.00  0.00    +0.000 F 
ATOM     81  C60 UNL A   1      57.752  58.622  25.588  1.00  0.00    +0.000 C 
ATOM     82  F14 UNL A   1      57.677  59.179  26.804  1.00  0.00    +0.000 F 
ATOM     83  C61 UNL A   1      56.666  58.699  24.720  1.00  0.00    +0.000 C 
ATOM     84  F15 UNL A   1      55.554  59.327  25.128  1.00  0.00    +0.000 F 
ENDBRANCH   73   74
TORSDOF 34
ENDMDL
MODEL 6
REMARK VINA RESULT:      -5.7     41.575     48.832
ROOT
ATOM    141  H46 UNL A   1      25.445  34.194  55.070  1.00  0.00    +0.000 H 
ATOM    142  H47 UNL A   1      25.342  31.622  55.487  1.00  0.00    +0.000 H 
ATOM    143  H48 UNL A   1      27.635  32.303  52.106  1.00  0.00    +0.000 H 
ATOM    144  H49 UNL A   1      30.774  30.051  47.034  1.00  0.00    +0.000 H 
ATOM    145  H50 UNL A   1      30.950  32.560  46.684  1.00  0.00    +0.000 H 
ATOM    146  H51 UNL A   1      28.681  31.909  50.106  1.00  0.00    +0.000 H 
ATOM    147  H52 UNL A   1      28.708  26.926  50.837  1.00  0.00    +0.000 H 
ATOM    148  H53 UNL A   1      27.252  27.349  52.901  1.00  0.00    +0.000 H 
ATOM    149  H54 UNL A   1      27.978  37.271  51.477  1.00  0.00    +0.000 H 
ATOM    150  H55 UNL A   1      29.122  36.868  49.222  1.00  0.00    +0.000 H 
ATOM     37  C32 UNL A   1      29.614  34.118  48.662  1.00  0.00    +0.000 C 
ATOM     38  C33 UNL A   1      28.877  34.698  49.835  1.00  0.00    +0.000 C 
ATOM     39  N3  UNL A   1      28.306  34.082  50.840  1.00  0.00    +0.000 N 
ATOM     40  C34 UNL A   1      27.805  35.083  51.661  1.00  0.00    +0.000 C 
ATOM     41  C35 UNL A   1      27.088  34.956  52.803  1.00  0.00    +0.000 C 
ATOM     53  C42 UNL A   1      26.700  33.698  53.386  1.00  0.00    +0.000 C 
ATOM     54  C43 UNL A   1      25.907  33.470  54.498  1.00  0.00    +0.000 C 
ATOM     55  C44 UNL A   1      25.842  32.089  54.713  1.00  0.00    +0.000 C 
ATOM     56  C45 UNL A   1      26.561  31.455  53.713  1.00  0.00    +0.000 C 
ATOM     57  N4  UNL A   1      27.080  32.454  52.904  1.00  0.00    +0.000 N 
ATOM     58  C46 UNL A   1      26.766  30.044  53.512  1.00  0.00    +0.000 C 
ATOM     70  C53 UNL A   1      27.445  29.500  52.473  1.00  0.00    +0.000 C 
ATOM     71  N5  UNL A   1      28.078  30.138  51.416  1.00  0.00    +0.000 N 
ATOM     72  C54 UNL A   1      28.603  29.186  50.684  1.00  0.00    +0.000 C 
ATOM     73  C55 UNL A   1      29.391  29.297  49.408  1.00  0.00    +0.000 C 
ATOM     85  C62 UNL A   1      29.616  30.513  48.874  1.00  0.00    +0.000 C 
ATOM     86  C63 UNL A   1      30.370  30.771  47.652  1.00  0.00    +0.000 C 
ATOM     87  C64 UNL A   1      30.453  32.097  47.460  1.00  0.00    +0.000 C 
ATOM     88  C65 UNL A   1      29.724  32.782  48.530  1.00  0.00    +0.000 C 
ATOM     89  N6  UNL A   1      29.241  31.761  49.310  1.00  0.00    +0.000 N 
ATOM     90  C66 UNL A   1      28.378  27.832  51.207  1.00  0.00    +0.000 C 
ATOM     91  C67 UNL A   1      27.639  28.078  52.281  1.00  0.00    +0.000 C 
ATOM     92  C68 UNL A   1      28.171  36.348  51.059  1.00  0.00    +0.000 C 
ATOM     93  C69 UNL A   1      28.789  36.165  49.900  1.00  0.00    +0.000 C 
ENDROOT
BRANCH   37   36
ATOM     33  C28 UNL A   1      31.448  36.853  45.927  1.00  0.00    +0.000 C 
ATOM     34  C29 UNL A   1      32.098  36.536  47.123  1.00  0.00    +0.000 C 
ATOM     35  C30 UNL A   1      31.533  35.602  47.994  1.00  0.00    +0.000 C 
ATOM     36  C31 UNL A   1      30.300  35.004  47.689  1.00  0.00    +0.000 C 
ATOM    139  H44 UNL A   1      32.993  36.992  47.361  1.00  0.00    +0.000 H 
ATOM    140  H45 UNL A   1      32.024  35.350  48.866  1.00  0.00    +0.000 H 
ATOM    151  H56 UNL A   1      28.791  34.835  46.215  1.00  0.00    +0.000 H 
ATOM    152  H57 UNL A   1      29.857  36.334  44.635  1.00  0.00    +0.000 H 
ATOM     94  C70 UNL A   1      29.687  35.287  46.458  1.00  0.00    +0.000 C 
ATOM     95  C71 UNL A   1      30.280  36.176  45.563  1.00  0.00    +0.000 C 
BRANCH   33   31
ATOM     31  C27 UNL A   1      32.018  37.912  45.065  1.00  0.00    +0.000 C 
ATOM     32  O3  UNL A   1      33.147  38.336  45.292  1.00  0.00    +0.000 O 
BRANCH   31   30
ATOM    138  H43 UNL A   1      31.471  38.060  43.145  1.00  0.00    +0.000 H 
ATOM     30  N2  UNL A   1      31.277  38.435  44.034  1.00  0.00    +0.000 N 
BRANCH   30   29
ATOM    137  H42 UNL A   1      29.312  38.991  43.850  1.00  0.00    +0.000 H 
ATOM     29  C26 UNL A   1      30.248  39.463  44.062  1.00  0.00    +0.000 C 
ATOM    136  H41 UNL A   1      30.488  40.209  43.331  1.00  0.00    +0.000 H 
BRANCH   29   28
ATOM     28  C25 UNL A   1      30.128  40.136  45.425  1.00  0.00    +0.000 C 
ATOM    134  H39 UNL A   1      31.055  40.001  45.945  1.00  0.00    +0.000 H 
ATOM    135  H40 UNL A   1      29.894  41.162  45.232  1.00  0.00    +0.000 H 
BRANCH   28   27
ATOM     27  C24 UNL A   1      29.005  39.604  46.317  1.00  0.00    +0.000 C 
ATOM    132  H37 UNL A   1      29.402  38.802  46.905  1.00  0.00    +0.000 H 
ATOM    133  H38 UNL A   1      28.670  40.439  46.897  1.00  0.00    +0.000 H 
BRANCH   27   26
ATOM     26  C23 UNL A   1      27.768  39.080  45.580  1.00  0.00    +0.000 C 
ATOM    130  H35 UNL A   1      27.016  39.841  45.616  1.00  0.00    +0.000 H 
ATOM    131  H36 UNL A   1      28.098  38.842  44.589  1.00  0.00    +0.000 H 
BRANCH   26   25
ATOM     25  C22 UNL A   1      27.159  37.787  46.140  1.00  0.00    +0.000 C 
ATOM    129  H34 UNL A   1      27.494  37.709  47.153  1.00  0.00    +0.000 H 
ATOM    128  H33 UNL A   1      27.482  36.972  45.527  1.00  0.00    +0.000 H 
BRANCH   25   24
ATOM    126  H31 UNL A   1      25.250  37.875  45.194  1.00  0.00    +0.000 H 
ATOM    127  H32 UNL A   1      25.318  36.843  46.620  1.00  0.00    +0.000 H 
ATOM     24  C21 UNL A   1      25.631  37.771  46.188  1.00  0.00    +0.000 C 
BRANCH   24   23
ATOM    125  H30 UNL A   1      24.629  39.559  46.524  1.00  0.00    +0.000 H 
ATOM     23  N1  UNL A   1      25.114  38.850  47.005  1.00  0.00    +0.000 N 
BRANCH   23   21
ATOM     21  C20 UNL A   1      25.214  39.008  48.357  1.00  0.00    +0.000 C 
ATOM     22  O2  UNL A   1      24.403  38.433  49.085  1.00  0.00    +0.000 O 
BRANCH   21   20
ATOM    124  H29 UNL A   1      26.959  40.108  48.090  1.00  0.00    +0.000 H 
ATOM    123  H28 UNL A   1      26.757  39.410  49.748  1.00  0.00    +0.000 H 
ATOM     20  C19 UNL A   1      26.311  39.921  48.920  1.00  0.00    +0.000 C 
BRANCH   20   19
ATOM     19  O1  UNL A   1      25.928  41.213  49.375  1.00  0.00    +0.000 O 
BRANCH   19   18
ATOM    121  H26 UNL A   1      24.519  41.607  47.945  1.00  0.00    +0.000 H 
ATOM     18  C18 UNL A   1      25.399  42.058  48.352  1.00  0.00    +0.000 C 
ATOM    122  H27 UNL A   1      25.164  43.011  48.778  1.00  0.00    +0.000 H 
BRANCH   18   17
ATOM     17  C17 UNL A   1      26.403  42.252  47.259  1.00  0.00    +0.000 C 
ATOM    120  H25 UNL A   1      26.265  41.751  46.368  1.00  0.00    +0.000 H 
BRANCH   17   16
ATOM    119  H24 UNL A   1      27.665  43.450  48.319  1.00  0.00    +0.000 H 
ATOM     16  C16 UNL A   1      27.476  43.048  47.389  1.00  0.00    +0.000 C 
BRANCH   16   15
ATOM    117  H22 UNL A   1      28.296  42.683  45.482  1.00  0.00    +0.000 H 
ATOM    118  H23 UNL A   1      28.188  44.387  45.944  1.00  0.00    +0.000 H 
ATOM     15  C15 UNL A   1      28.420  43.396  46.272  1.00  0.00    +0.000 C 
BRANCH   15   14
ATOM    115  H20 UNL A   1      30.229  42.368  46.750  1.00  0.00    +0.000 H 
ATOM    116  H21 UNL A   1      30.445  43.968  46.020  1.00  0.00    +0.000 H 
ATOM     14  C14 UNL A   1      29.890  43.382  46.722  1.00  0.00    +0.000 C 
BRANCH   14   13
ATOM    114  H19 UNL A   1      29.685  43.512  48.895  1.00  0.00    +0.000 H 
ATOM     13  C13 UNL A   1      30.096  43.995  48.081  1.00  0.00    +0.000 C 
BRANCH   13   12
ATOM    113  H18 UNL A   1      31.257  45.237  49.212  1.00  0.00    +0.000 H 
ATOM     12  C12 UNL A   1      30.781  45.128  48.303  1.00  0.00    +0.000 C 
BRANCH   12   11
ATOM     11  C11 UNL A   1      30.891  46.247  47.308  1.00  0.00    +0.000 C 
ATOM    111  H16 UNL A   1      30.347  45.988  46.424  1.00  0.00    +0.000 H 
ATOM    112  H17 UNL A   1      30.486  47.138  47.739  1.00  0.00    +0.000 H 
BRANCH   11   10
ATOM     10  C10 UNL A   1      32.330  46.488  46.951  1.00  0.00    +0.000 C 
ATOM    110  H15 UNL A   1      32.613  47.449  46.703  1.00  0.00    +0.000 H 
BRANCH   10    9
ATOM      9  C9  UNL A   1      33.272  45.531  46.936  1.00  0.00    +0.000 C 
ATOM    109  H14 UNL A   1      33.711  45.272  47.833  1.00  0.00    +0.000 H 
BRANCH    9    8
ATOM    107  H12 UNL A   1      33.181  45.184  44.856  1.00  0.00    +0.000 H 
ATOM    108  H13 UNL A   1      34.774  44.986  45.563  1.00  0.00    +0.000 H 
ATOM      8  C8  UNL A   1      33.726  44.814  45.698  1.00  0.00    +0.000 C 
BRANCH    8    7
ATOM    106  H11 UNL A   1      33.328  42.794  44.968  1.00  0.00    +0.000 H 
ATOM      7  C7  UNL A   1      33.490  43.337  45.831  1.00  0.00    +0.000 C 
BRANCH    7    6
ATOM    105  H10 UNL A   1      33.685  43.211  47.859  1.00  0.00    +0.000 H 
ATOM      6  C6  UNL A   1      33.475  42.677  47.001  1.00  0.00    +0.000 C 
BRANCH    6    5
ATOM      5  C5  UNL A   1      33.176  41.213  47.140  1.00  0.00    +0.000 C 
ATOM    103  H8  UNL A   1      32.677  40.871  46.257  1.00  0.00    +0.000 H 
ATOM    104  H9  UNL A   1      34.097  40.686  47.275  1.00  0.00    +0.000 H 
BRANCH    5    4
ATOM      4  C4  UNL A   1      32.298  40.959  48.332  1.00  0.00    +0.000 C 
ATOM    102  H7  UNL A   1      31.977  41.774  48.878  1.00  0.00    +0.000 H 
BRANCH    4    3
ATOM      3  C3  UNL A   1      31.902  39.740  48.730  1.00  0.00    +0.000 C 
ATOM    101  H6  UNL A   1      32.423  38.921  48.379  1.00  0.00    +0.000 H 
BRANCH    3    2
ATOM      2  C2  UNL A   1      30.746  39.496  49.656  1.00  0.00    +0.000 C 
ATOM     99  H4  UNL A   1      30.163  38.681  49.279  1.00  0.00    +0.000 H 
ATOM    100  H5  UNL A   1      31.133  39.266  50.627  1.00  0.00    +0.000 H 
BRANCH    2    1
ATOM      1  C1  UNL A   1      29.861  40.727  49.771  1.00  0.00    +0.000 C 
ATOM     98  H3  UNL A   1      29.226  40.791  48.913  1.00  0.00    +0.000 H 
ATOM     97  H2  UNL A   1      29.261  40.654  50.654  1.00  0.00    +0.000 H 
ATOM     96  H1  UNL A   1      30.474  41.603  49.828  1.00  0.00    +0.000 H 
ENDBRANCH    2    1
ENDBRANCH    3    2
ENDBRANCH    4    3
ENDBRANCH    5    4
ENDBRANCH    6    5
ENDBRANCH    7    6
ENDBRANCH    8    7
ENDBRANCH    9    8
ENDBRANCH   10    9
ENDBRANCH   11   10
ENDBRANCH   12   11
ENDBRANCH   13   12
ENDBRANCH   14   13
ENDBRANCH   15   14
ENDBRANCH   16   15
ENDBRANCH   17   16
ENDBRANCH   18   17
ENDBRANCH   19   18
ENDBRANCH   20   19
ENDBRANCH   21   20
ENDBRANCH   23   21
ENDBRANCH   24   23
ENDBRANCH   25   24
ENDBRANCH   26   25
ENDBRANCH   27   26
ENDBRANCH   28   27
ENDBRANCH   29   28
ENDBRANCH   30   29
ENDBRANCH   31   30
ENDBRANCH   33   31
ENDBRANCH   37   36
BRANCH   41   42
ATOM     42  C36 UNL A   1      26.668  36.214  53.503  1.00  0.00    +0.000 C 
ATOM     43  C37 UNL A   1      25.450  36.845  53.207  1.00  0.00    +0.000 C 
ATOM     44  F1  UNL A   1      24.657  36.361  52.240  1.00  0.00    +0.000 F 
ATOM     45  C38 UNL A   1      25.058  37.996  53.885  1.00  0.00    +0.000 C 
ATOM     46  F2  UNL A   1      23.909  38.604  53.560  1.00  0.00    +0.000 F 
ATOM     47  C39 UNL A   1      25.858  38.519  54.890  1.00  0.00    +0.000 C 
ATOM     48  F3  UNL A   1      25.474  39.622  55.549  1.00  0.00    +0.000 F 
ATOM     49  C40 UNL A   1      27.058  37.902  55.210  1.00  0.00    +0.000 C 
ATOM     50  F4  UNL A   1      27.827  38.401  56.188  1.00  0.00    +0.000 F 
ATOM     51  C41 UNL A   1      27.466  36.766  54.517  1.00  0.00    +0.000 C 
ATOM     52  F5  UNL A   1      28.636  36.196  54.841  1.00  0.00    +0.000 F 
ENDBRANCH   41   42
BRANCH   58   59
ATOM     65  F8  UNL A   1      24.469  26.555  57.311  1.00  0.00    +0.000 F 
ATOM     66  C51 UNL A   1      24.305  27.743  55.277  1.00  0.00    +0.000 C 
ATOM     67  F9  UNL A   1      23.060  27.282  55.092  1.00  0.00    +0.000 F 
ATOM     68  C52 UNL A   1      24.880  28.586  54.330  1.00  0.00    +0.000 C 
ATOM     69  F10 UNL A   1      24.171  28.912  53.239  1.00  0.00    +0.000 F 
ATOM     59  C47 UNL A   1      26.173  29.100  54.513  1.00  0.00    +0.000 C 
ATOM     60  C48 UNL A   1      26.871  28.731  55.672  1.00  0.00    +0.000 C 
ATOM     61  F6  UNL A   1      28.117  29.182  55.881  1.00  0.00    +0.000 F 
ATOM     62  C49 UNL A   1      26.302  27.868  56.604  1.00  0.00    +0.000 C 
ATOM     63  F7  UNL A   1      27.001  27.497  57.686  1.00  0.00    +0.000 F 
ATOM     64  C50 UNL A   1      25.018  27.380  56.410  1.00  0.00    +0.000 C 
ENDBRANCH   58   59
BRANCH   73   74
ATOM     74  C56 UNL A   1      29.910  28.084  48.728  1.00  0.00    +0.000 C 
ATOM     75  C57 UNL A   1      31.186  27.587  49.026  1.00  0.00    +0.000 C 
ATOM     76  F11 UNL A   1      31.960  28.221  49.917  1.00  0.00    +0.000 F 
ATOM     77  C58 UNL A   1      31.685  26.458  48.380  1.00  0.00    +0.000 C 
ATOM     78  F12 UNL A   1      32.923  26.025  48.654  1.00  0.00    +0.000 F 
ATOM     79  C59 UNL A   1      30.908  25.790  47.445  1.00  0.00    +0.000 C 
ATOM     80  F13 UNL A   1      31.388  24.702  46.827  1.00  0.00    +0.000 F 
ATOM     81  C60 UNL A   1      29.637  26.256  47.145  1.00  0.00    +0.000 C 
ATOM     82  F14 UNL A   1      28.879  25.607  46.251  1.00  0.00    +0.000 F 
ATOM     83  C61 UNL A   1      29.146  27.399  47.772  1.00  0.00    +0.000 C 
ATOM     84  F15 UNL A   1      27.918  27.834  47.456  1.00  0.00    +0.000 F 
ENDBRANCH   73   74
TORSDOF 34
ENDMDL
MODEL 7
REMARK VINA RESULT:      -5.7     19.560     26.529
ROOT
ATOM    141  H46 UNL A   1       0.381  20.732  45.492  1.00  0.00    +0.000 H 
ATOM    142  H47 UNL A   1      -2.194  21.050  45.236  1.00  0.00    +0.000 H 
ATOM    143  H48 UNL A   1      -0.947  18.238  42.462  1.00  0.00    +0.000 H 
ATOM    144  H49 UNL A   1      -2.212  14.513  37.445  1.00  0.00    +0.000 H 
ATOM    145  H50 UNL A   1       0.279  14.135  37.760  1.00  0.00    +0.000 H 
ATOM    146  H51 UNL A   1      -0.951  16.929  40.583  1.00  0.00    +0.000 H 
ATOM    147  H52 UNL A   1      -5.942  17.313  40.042  1.00  0.00    +0.000 H 
ATOM    148  H53 UNL A   1      -5.888  19.035  41.936  1.00  0.00    +0.000 H 
ATOM    149  H54 UNL A   1       3.971  17.506  43.146  1.00  0.00    +0.000 H 
ATOM    150  H55 UNL A   1       4.011  16.062  41.032  1.00  0.00    +0.000 H 
ATOM     37  C32 UNL A   1       1.440  15.658  39.872  1.00  0.00    +0.000 C 
ATOM     38  C33 UNL A   1       1.791  16.527  41.046  1.00  0.00    +0.000 C 
ATOM     39  N3  UNL A   1       1.010  17.278  41.781  1.00  0.00    +0.000 N 
ATOM     40  C34 UNL A   1       1.829  17.836  42.753  1.00  0.00    +0.000 C 
ATOM     41  C35 UNL A   1       1.503  18.723  43.723  1.00  0.00    +0.000 C 
ATOM     53  C42 UNL A   1       0.185  19.270  43.917  1.00  0.00    +0.000 C 
ATOM     54  C43 UNL A   1      -0.226  20.233  44.822  1.00  0.00    +0.000 C 
ATOM     55  C44 UNL A   1      -1.605  20.413  44.676  1.00  0.00    +0.000 C 
ATOM     56  C45 UNL A   1      -2.048  19.591  43.652  1.00  0.00    +0.000 C 
ATOM     57  N4  UNL A   1      -0.939  18.897  43.193  1.00  0.00    +0.000 N 
ATOM     58  C46 UNL A   1      -3.383  19.443  43.133  1.00  0.00    +0.000 C 
ATOM     70  C53 UNL A   1      -3.726  18.650  42.089  1.00  0.00    +0.000 C 
ATOM     71  N5  UNL A   1      -2.917  17.828  41.318  1.00  0.00    +0.000 N 
ATOM     72  C54 UNL A   1      -3.712  17.257  40.446  1.00  0.00    +0.000 C 
ATOM     73  C55 UNL A   1      -3.375  16.281  39.354  1.00  0.00    +0.000 C 
ATOM     85  C62 UNL A   1      -2.095  15.905  39.174  1.00  0.00    +0.000 C 
ATOM     86  C63 UNL A   1      -1.625  14.962  38.165  1.00  0.00    +0.000 C 
ATOM     87  C64 UNL A   1      -0.306  14.771  38.324  1.00  0.00    +0.000 C 
ATOM     88  C65 UNL A   1       0.171  15.610  39.426  1.00  0.00    +0.000 C 
ATOM     89  N6  UNL A   1      -0.957  16.265  39.855  1.00  0.00    +0.000 N 
ATOM     90  C66 UNL A   1      -5.124  17.640  40.580  1.00  0.00    +0.000 C 
ATOM     91  C67 UNL A   1      -5.073  18.515  41.575  1.00  0.00    +0.000 C 
ATOM     92  C68 UNL A   1       3.160  17.308  42.540  1.00  0.00    +0.000 C 
ATOM     93  C69 UNL A   1       3.201  16.535  41.464  1.00  0.00    +0.000 C 
ENDROOT
BRANCH   37   36
ATOM     33  C28 UNL A   1       4.562  13.261  38.187  1.00  0.00    +0.000 C 
ATOM     34  C29 UNL A   1       3.841  12.781  39.285  1.00  0.00    +0.000 C 
ATOM     35  C30 UNL A   1       2.786  13.532  39.805  1.00  0.00    +0.000 C 
ATOM     36  C31 UNL A   1       2.463  14.781  39.250  1.00  0.00    +0.000 C 
ATOM    139  H44 UNL A   1       4.091  11.874  39.711  1.00  0.00    +0.000 H 
ATOM    140  H45 UNL A   1       2.239  13.168  40.601  1.00  0.00    +0.000 H 
ATOM    151  H56 UNL A   1       2.910  16.130  37.682  1.00  0.00    +0.000 H 
ATOM    152  H57 UNL A   1       4.635  14.748  36.686  1.00  0.00    +0.000 H 
ATOM     94  C70 UNL A   1       3.155  15.224  38.112  1.00  0.00    +0.000 C 
ATOM     95  C71 UNL A   1       4.172  14.447  37.558  1.00  0.00    +0.000 C 
BRANCH   33   31
ATOM     31  C27 UNL A   1       5.733  12.493  37.712  1.00  0.00    +0.000 C 
ATOM     32  O3  UNL A   1       5.639  11.807  36.699  1.00  0.00    +0.000 O 
BRANCH   31   30
ATOM    138  H43 UNL A   1       7.079  11.745  38.991  1.00  0.00    +0.000 H 
ATOM     30  N2  UNL A   1       6.911  12.526  38.417  1.00  0.00    +0.000 N 
BRANCH   30   29
ATOM    137  H42 UNL A   1       8.698  13.232  39.135  1.00  0.00    +0.000 H 
ATOM     29  C26 UNL A   1       7.947  13.548  38.441  1.00  0.00    +0.000 C 
ATOM    136  H41 UNL A   1       7.505  14.478  38.736  1.00  0.00    +0.000 H 
BRANCH   29   28
ATOM     28  C25 UNL A   1       8.618  13.734  37.085  1.00  0.00    +0.000 C 
ATOM    134  H39 UNL A   1       9.631  14.040  37.254  1.00  0.00    +0.000 H 
ATOM    135  H40 UNL A   1       8.537  12.794  36.580  1.00  0.00    +0.000 H 
BRANCH   28   27
ATOM     27  C24 UNL A   1       7.960  14.767  36.169  1.00  0.00    +0.000 C 
ATOM    132  H37 UNL A   1       6.915  14.796  36.400  1.00  0.00    +0.000 H 
ATOM    133  H38 UNL A   1       8.468  15.690  36.354  1.00  0.00    +0.000 H 
BRANCH   27   26
ATOM     26  C23 UNL A   1       8.102  14.503  34.666  1.00  0.00    +0.000 C 
ATOM    130  H35 UNL A   1       9.040  14.909  34.347  1.00  0.00    +0.000 H 
ATOM    131  H36 UNL A   1       8.027  13.442  34.547  1.00  0.00    +0.000 H 
BRANCH   26   25
ATOM     25  C22 UNL A   1       7.002  15.103  33.779  1.00  0.00    +0.000 C 
ATOM    129  H34 UNL A   1       6.296  15.561  34.440  1.00  0.00    +0.000 H 
ATOM    128  H33 UNL A   1       6.578  14.315  33.193  1.00  0.00    +0.000 H 
BRANCH   25   24
ATOM    126  H31 UNL A   1       6.892  17.081  32.991  1.00  0.00    +0.000 H 
ATOM    127  H32 UNL A   1       8.513  16.391  33.023  1.00  0.00    +0.000 H 
ATOM     24  C21 UNL A   1       7.478  16.201  32.828  1.00  0.00    +0.000 C 
BRANCH   24   23
ATOM    125  H30 UNL A   1       6.914  14.926  31.288  1.00  0.00    +0.000 H 
ATOM     23  N1  UNL A   1       7.344  15.798  31.442  1.00  0.00    +0.000 N 
BRANCH   23   21
ATOM     21  C20 UNL A   1       7.739  16.474  30.324  1.00  0.00    +0.000 C 
ATOM     22  O2  UNL A   1       6.880  16.885  29.543  1.00  0.00    +0.000 O 
BRANCH   21   20
ATOM    124  H29 UNL A   1       9.283  17.359  29.248  1.00  0.00    +0.000 H 
ATOM    123  H28 UNL A   1       9.658  15.703  29.875  1.00  0.00    +0.000 H 
ATOM     20  C19 UNL A   1       9.239  16.670  30.064  1.00  0.00    +0.000 C 
BRANCH   20   19
ATOM     19  O1  UNL A   1      10.015  17.276  31.090  1.00  0.00    +0.000 O 
BRANCH   19   18
ATOM    121  H26 UNL A   1       9.060  19.058  30.766  1.00  0.00    +0.000 H 
ATOM     18  C18 UNL A   1      10.032  18.704  31.040  1.00  0.00    +0.000 C 
ATOM    122  H27 UNL A   1      10.305  19.080  32.004  1.00  0.00    +0.000 H 
BRANCH   18   17
ATOM     17  C17 UNL A   1      11.032  19.183  30.033  1.00  0.00    +0.000 C 
ATOM    120  H25 UNL A   1      10.688  19.544  29.130  1.00  0.00    +0.000 H 
BRANCH   17   16
ATOM    119  H24 UNL A   1      12.680  19.239  31.231  1.00  0.00    +0.000 H 
ATOM     16  C16 UNL A   1      12.355  19.162  30.255  1.00  0.00    +0.000 C 
BRANCH   16   15
ATOM    117  H22 UNL A   1      13.851  18.068  29.252  1.00  0.00    +0.000 H 
ATOM    118  H23 UNL A   1      12.913  19.170  28.236  1.00  0.00    +0.000 H 
ATOM     15  C15 UNL A   1      13.398  19.035  29.180  1.00  0.00    +0.000 C 
BRANCH   15   14
ATOM    115  H20 UNL A   1      14.608  20.364  30.332  1.00  0.00    +0.000 H 
ATOM    116  H21 UNL A   1      15.394  19.687  28.894  1.00  0.00    +0.000 H 
ATOM     14  C14 UNL A   1      14.496  20.104  29.300  1.00  0.00    +0.000 C 
BRANCH   14   13
ATOM    114  H19 UNL A   1      13.997  22.219  29.051  1.00  0.00    +0.000 H 
ATOM     13  C13 UNL A   1      14.190  21.354  28.521  1.00  0.00    +0.000 C 
BRANCH   13   12
ATOM    113  H18 UNL A   1      13.589  22.169  26.747  1.00  0.00    +0.000 H 
ATOM     12  C12 UNL A   1      14.150  21.420  27.180  1.00  0.00    +0.000 C 
BRANCH   12   11
ATOM     11  C11 UNL A   1      14.873  20.465  26.275  1.00  0.00    +0.000 C 
ATOM    111  H16 UNL A   1      14.901  19.498  26.732  1.00  0.00    +0.000 H 
ATOM    112  H17 UNL A   1      14.357  20.412  25.339  1.00  0.00    +0.000 H 
BRANCH   11   10
ATOM     10  C10 UNL A   1      16.277  20.938  26.032  1.00  0.00    +0.000 C 
ATOM    110  H15 UNL A   1      16.412  21.912  25.718  1.00  0.00    +0.000 H 
BRANCH   10    9
ATOM      9  C9  UNL A   1      17.369  20.174  26.199  1.00  0.00    +0.000 C 
ATOM    109  H14 UNL A   1      17.334  19.432  26.915  1.00  0.00    +0.000 H 
BRANCH    9    8
ATOM    107  H12 UNL A   1      19.263  21.051  25.889  1.00  0.00    +0.000 H 
ATOM    108  H13 UNL A   1      19.133  19.383  25.363  1.00  0.00    +0.000 H 
ATOM      8  C8  UNL A   1      18.636  20.329  25.410  1.00  0.00    +0.000 C 
BRANCH    8    7
ATOM    106  H11 UNL A   1      18.412  21.796  23.807  1.00  0.00    +0.000 H 
ATOM      7  C7  UNL A   1      18.331  20.788  24.013  1.00  0.00    +0.000 C 
BRANCH    7    6
ATOM    105  H10 UNL A   1      16.956  19.756  22.913  1.00  0.00    +0.000 H 
ATOM      6  C6  UNL A   1      17.961  19.970  23.014  1.00  0.00    +0.000 C 
BRANCH    6    5
ATOM      5  C5  UNL A   1      18.914  19.346  22.037  1.00  0.00    +0.000 C 
ATOM    103  H8  UNL A   1      18.672  19.678  21.049  1.00  0.00    +0.000 H 
ATOM    104  H9  UNL A   1      19.910  19.641  22.294  1.00  0.00    +0.000 H 
BRANCH    5    4
ATOM      4  C4  UNL A   1      18.827  17.848  22.089  1.00  0.00    +0.000 C 
ATOM    102  H7  UNL A   1      18.280  17.370  21.356  1.00  0.00    +0.000 H 
BRANCH    4    3
ATOM      3  C3  UNL A   1      19.415  17.091  23.030  1.00  0.00    +0.000 C 
ATOM    101  H6  UNL A   1      20.446  17.093  23.080  1.00  0.00    +0.000 H 
BRANCH    3    2
ATOM      2  C2  UNL A   1      18.663  16.241  24.011  1.00  0.00    +0.000 C 
ATOM     99  H4  UNL A   1      19.027  16.441  24.997  1.00  0.00    +0.000 H 
ATOM    100  H5  UNL A   1      17.622  16.478  23.937  1.00  0.00    +0.000 H 
BRANCH    2    1
ATOM      1  C1  UNL A   1      18.840  14.761  23.710  1.00  0.00    +0.000 C 
ATOM     98  H3  UNL A   1      18.412  14.181  24.501  1.00  0.00    +0.000 H 
ATOM     97  H2  UNL A   1      18.350  14.523  22.788  1.00  0.00    +0.000 H 
ATOM     96  H1  UNL A   1      19.884  14.536  23.627  1.00  0.00    +0.000 H 
ENDBRANCH    2    1
ENDBRANCH    3    2
ENDBRANCH    4    3
ENDBRANCH    5    4
ENDBRANCH    6    5
ENDBRANCH    7    6
ENDBRANCH    8    7
ENDBRANCH    9    8
ENDBRANCH   10    9
ENDBRANCH   11   10
ENDBRANCH   12   11
ENDBRANCH   13   12
ENDBRANCH   14   13
ENDBRANCH   15   14
ENDBRANCH   16   15
ENDBRANCH   17   16
ENDBRANCH   18   17
ENDBRANCH   19   18
ENDBRANCH   20   19
ENDBRANCH   21   20
ENDBRANCH   23   21
ENDBRANCH   24   23
ENDBRANCH   25   24
ENDBRANCH   26   25
ENDBRANCH   27   26
ENDBRANCH   28   27
ENDBRANCH   29   28
ENDBRANCH   30   29
ENDBRANCH   31   30
ENDBRANCH   33   31
ENDBRANCH   37   36
BRANCH   41   42
ATOM     42  C36 UNL A   1       2.591  19.167  44.654  1.00  0.00    +0.000 C 
ATOM     43  C37 UNL A   1       3.061  18.336  45.682  1.00  0.00    +0.000 C 
ATOM     44  F1  UNL A   1       2.498  17.136  45.890  1.00  0.00    +0.000 F 
ATOM     45  C38 UNL A   1       4.091  18.750  46.521  1.00  0.00    +0.000 C 
ATOM     46  F2  UNL A   1       4.499  17.955  47.521  1.00  0.00    +0.000 F 
ATOM     47  C39 UNL A   1       4.692  19.985  46.331  1.00  0.00    +0.000 C 
ATOM     48  F3  UNL A   1       5.691  20.377  47.134  1.00  0.00    +0.000 F 
ATOM     49  C40 UNL A   1       4.254  20.816  45.311  1.00  0.00    +0.000 C 
ATOM     50  F4  UNL A   1       4.840  22.006  45.119  1.00  0.00    +0.000 F 
ATOM     51  C41 UNL A   1       3.206  20.417  44.486  1.00  0.00    +0.000 C 
ATOM     52  F5  UNL A   1       2.797  21.246  43.513  1.00  0.00    +0.000 F 
ENDBRANCH   41   42
BRANCH   58   59
ATOM     65  F8  UNL A   1      -7.575  22.371  45.530  1.00  0.00    +0.000 F 
ATOM     66  C51 UNL A   1      -6.259  20.412  45.426  1.00  0.00    +0.000 C 
ATOM     67  F9  UNL A   1      -6.960  19.871  46.432  1.00  0.00    +0.000 F 
ATOM     68  C52 UNL A   1      -5.212  19.699  44.849  1.00  0.00    +0.000 C 
ATOM     69  F10 UNL A   1      -4.919  18.480  45.324  1.00  0.00    +0.000 F 
ATOM     59  C47 UNL A   1      -4.478  20.236  43.779  1.00  0.00    +0.000 C 
ATOM     60  C48 UNL A   1      -4.825  21.514  43.316  1.00  0.00    +0.000 C 
ATOM     61  F6  UNL A   1      -4.141  22.076  42.309  1.00  0.00    +0.000 F 
ATOM     62  C49 UNL A   1      -5.857  22.232  43.913  1.00  0.00    +0.000 C 
ATOM     63  F7  UNL A   1      -6.148  23.467  43.481  1.00  0.00    +0.000 F 
ATOM     64  C50 UNL A   1      -6.578  21.679  44.962  1.00  0.00    +0.000 C 
ENDBRANCH   58   59
BRANCH   73   74
ATOM     74  C56 UNL A   1      -4.435  15.740  38.466  1.00  0.00    +0.000 C 
ATOM     75  C57 UNL A   1      -4.979  14.468  38.692  1.00  0.00    +0.000 C 
ATOM     76  F11 UNL A   1      -4.526  13.718  39.706  1.00  0.00    +0.000 F 
ATOM     77  C58 UNL A   1      -5.962  13.948  37.854  1.00  0.00    +0.000 C 
ATOM     78  F12 UNL A   1      -6.437  12.714  38.069  1.00  0.00    +0.000 F 
ATOM     79  C59 UNL A   1      -6.438  14.699  36.790  1.00  0.00    +0.000 C 
ATOM     80  F13 UNL A   1      -7.388  14.199  35.986  1.00  0.00    +0.000 F 
ATOM     81  C60 UNL A   1      -5.925  15.966  36.556  1.00  0.00    +0.000 C 
ATOM     82  F14 UNL A   1      -6.392  16.699  35.536  1.00  0.00    +0.000 F 
ATOM     83  C61 UNL A   1      -4.924  16.477  37.378  1.00  0.00    +0.000 C 
ATOM     84  F15 UNL A   1      -4.438  17.701  37.123  1.00  0.00    +0.000 F 
ENDBRANCH   73   74
TORSDOF 34
ENDMDL
MODEL 8
REMARK VINA RESULT:      -5.6     43.091     51.205
ROOT
ATOM    141  H46 UNL A   1      10.834  34.402  -3.291  1.00  0.00    +0.000 H 
ATOM    142  H47 UNL A   1      12.496  33.960  -1.331  1.00  0.00    +0.000 H 
ATOM    143  H48 UNL A   1       9.643  30.958  -1.321  1.00  0.00    +0.000 H 
ATOM    144  H49 UNL A   1       7.004  25.875   1.482  1.00  0.00    +0.000 H 
ATOM    145  H50 UNL A   1       5.443  26.255  -0.485  1.00  0.00    +0.000 H 
ATOM    146  H51 UNL A   1       8.319  29.257  -0.545  1.00  0.00    +0.000 H 
ATOM    147  H52 UNL A   1      11.507  28.172   3.199  1.00  0.00    +0.000 H 
ATOM    148  H53 UNL A   1      12.808  30.274   2.531  1.00  0.00    +0.000 H 
ATOM    149  H54 UNL A   1       6.605  31.736  -5.240  1.00  0.00    +0.000 H 
ATOM    150  H55 UNL A   1       5.085  29.861  -4.385  1.00  0.00    +0.000 H 
ATOM     37  C32 UNL A   1       6.105  28.517  -2.090  1.00  0.00    +0.000 C 
ATOM     38  C33 UNL A   1       6.683  29.718  -2.782  1.00  0.00    +0.000 C 
ATOM     39  N3  UNL A   1       7.760  30.401  -2.490  1.00  0.00    +0.000 N 
ATOM     40  C34 UNL A   1       7.861  31.383  -3.466  1.00  0.00    +0.000 C 
ATOM     41  C35 UNL A   1       8.780  32.372  -3.576  1.00  0.00    +0.000 C 
ATOM     53  C42 UNL A   1       9.861  32.586  -2.649  1.00  0.00    +0.000 C 
ATOM     54  C43 UNL A   1      10.795  33.607  -2.633  1.00  0.00    +0.000 C 
ATOM     55  C44 UNL A   1      11.679  33.377  -1.573  1.00  0.00    +0.000 C 
ATOM     56  C45 UNL A   1      11.272  32.234  -0.904  1.00  0.00    +0.000 C 
ATOM     57  N4  UNL A   1      10.153  31.761  -1.573  1.00  0.00    +0.000 N 
ATOM     58  C46 UNL A   1      11.860  31.615   0.255  1.00  0.00    +0.000 C 
ATOM     70  C53 UNL A   1      11.368  30.520   0.883  1.00  0.00    +0.000 C 
ATOM     71  N5  UNL A   1      10.245  29.768   0.571  1.00  0.00    +0.000 N 
ATOM     72  C54 UNL A   1      10.197  28.806   1.460  1.00  0.00    +0.000 C 
ATOM     73  C55 UNL A   1       9.184  27.706   1.612  1.00  0.00    +0.000 C 
ATOM     85  C62 UNL A   1       8.142  27.645   0.762  1.00  0.00    +0.000 C 
ATOM     86  C63 UNL A   1       7.093  26.631   0.785  1.00  0.00    +0.000 C 
ATOM     87  C64 UNL A   1       6.260  26.839  -0.248  1.00  0.00    +0.000 C 
ATOM     88  C65 UNL A   1       6.698  28.026  -0.985  1.00  0.00    +0.000 C 
ATOM     89  N6  UNL A   1       7.809  28.451  -0.299  1.00  0.00    +0.000 N 
ATOM     90  C66 UNL A   1      11.302  28.828   2.428  1.00  0.00    +0.000 C 
ATOM     91  C67 UNL A   1      11.969  29.911   2.052  1.00  0.00    +0.000 C 
ATOM     92  C68 UNL A   1       6.757  31.185  -4.382  1.00  0.00    +0.000 C 
ATOM     93  C69 UNL A   1       5.968  30.200  -3.974  1.00  0.00    +0.000 C 
ENDROOT
BRANCH   37   36
ATOM     33  C28 UNL A   1       2.706  26.649  -3.902  1.00  0.00    +0.000 C 
ATOM     34  C29 UNL A   1       3.986  26.148  -4.160  1.00  0.00    +0.000 C 
ATOM     35  C30 UNL A   1       5.094  26.716  -3.529  1.00  0.00    +0.000 C 
ATOM     36  C31 UNL A   1       4.932  27.808  -2.661  1.00  0.00    +0.000 C 
ATOM    139  H44 UNL A   1       4.110  25.361  -4.816  1.00  0.00    +0.000 H 
ATOM    140  H45 UNL A   1       6.036  26.333  -3.701  1.00  0.00    +0.000 H 
ATOM    151  H56 UNL A   1       3.506  29.050  -1.710  1.00  0.00    +0.000 H 
ATOM    152  H57 UNL A   1       1.576  27.954  -2.684  1.00  0.00    +0.000 H 
ATOM     94  C70 UNL A   1       3.637  28.263  -2.365  1.00  0.00    +0.000 C 
ATOM     95  C71 UNL A   1       2.527  27.657  -2.951  1.00  0.00    +0.000 C 
BRANCH   33   31
ATOM     31  C27 UNL A   1       1.559  26.092  -4.652  1.00  0.00    +0.000 C 
ATOM     32  O3  UNL A   1       1.459  26.306  -5.856  1.00  0.00    +0.000 O 
BRANCH   31   30
ATOM    138  H43 UNL A   1       0.727  24.386  -4.014  1.00  0.00    +0.000 H 
ATOM     30  N2  UNL A   1       0.597  25.361  -3.999  1.00  0.00    +0.000 N 
BRANCH   30   29
ATOM    137  H42 UNL A   1      -1.013  26.622  -3.849  1.00  0.00    +0.000 H 
ATOM     29  C26 UNL A   1      -0.588  25.817  -3.288  1.00  0.00    +0.000 C 
ATOM    136  H41 UNL A   1      -0.299  26.131  -2.306  1.00  0.00    +0.000 H 
BRANCH   29   28
ATOM     28  C25 UNL A   1      -1.649  24.730  -3.160  1.00  0.00    +0.000 C 
ATOM    134  H39 UNL A   1      -1.271  23.840  -3.621  1.00  0.00    +0.000 H 
ATOM    135  H40 UNL A   1      -1.838  24.619  -2.113  1.00  0.00    +0.000 H 
BRANCH   28   27
ATOM     27  C24 UNL A   1      -2.998  25.058  -3.803  1.00  0.00    +0.000 C 
ATOM    132  H37 UNL A   1      -2.866  25.061  -4.865  1.00  0.00    +0.000 H 
ATOM    133  H38 UNL A   1      -3.679  24.309  -3.456  1.00  0.00    +0.000 H 
BRANCH   27   26
ATOM     26  C23 UNL A   1      -3.611  26.404  -3.401  1.00  0.00    +0.000 C 
ATOM    130  H35 UNL A   1      -4.599  26.219  -3.032  1.00  0.00    +0.000 H 
ATOM    131  H36 UNL A   1      -2.947  26.821  -2.672  1.00  0.00    +0.000 H 
BRANCH   26   25
ATOM     25  C22 UNL A   1      -3.713  27.448  -4.521  1.00  0.00    +0.000 C 
ATOM    129  H34 UNL A   1      -4.714  27.392  -4.898  1.00  0.00    +0.000 H 
ATOM    128  H33 UNL A   1      -2.973  27.221  -5.259  1.00  0.00    +0.000 H 
BRANCH   25   24
ATOM    126  H31 UNL A   1      -3.727  29.550  -4.881  1.00  0.00    +0.000 H 
ATOM    127  H32 UNL A   1      -4.154  29.082  -3.237  1.00  0.00    +0.000 H 
ATOM     24  C21 UNL A   1      -3.505  28.893  -4.067  1.00  0.00    +0.000 C 
BRANCH   24   23
ATOM    125  H30 UNL A   1      -1.438  28.862  -4.276  1.00  0.00    +0.000 H 
ATOM     23  N1  UNL A   1      -2.140  29.123  -3.637  1.00  0.00    +0.000 N 
BRANCH   23   21
ATOM     21  C20 UNL A   1      -1.704  29.654  -2.458  1.00  0.00    +0.000 C 
ATOM     22  O2  UNL A   1      -2.532  30.124  -1.675  1.00  0.00    +0.000 O 
BRANCH   21   20
ATOM    124  H29 UNL A   1       0.176  28.776  -2.599  1.00  0.00    +0.000 H 
ATOM    123  H28 UNL A   1      -0.082  29.761  -1.102  1.00  0.00    +0.000 H 
ATOM     20  C19 UNL A   1      -0.198  29.678  -2.163  1.00  0.00    +0.000 C 
BRANCH   20   19
ATOM     19  O1  UNL A   1       0.576  30.712  -2.758  1.00  0.00    +0.000 O 
BRANCH   19   18
ATOM    121  H26 UNL A   1       1.120  32.120  -1.376  1.00  0.00    +0.000 H 
ATOM     18  C18 UNL A   1       1.551  31.284  -1.885  1.00  0.00    +0.000 C 
ATOM    122  H27 UNL A   1       1.862  30.541  -1.180  1.00  0.00    +0.000 H 
BRANCH   18   17
ATOM     17  C17 UNL A   1       2.747  31.744  -2.661  1.00  0.00    +0.000 C 
ATOM    120  H25 UNL A   1       2.747  31.620  -3.685  1.00  0.00    +0.000 H 
BRANCH   17   16
ATOM    119  H24 UNL A   1       4.175  33.187  -2.487  1.00  0.00    +0.000 H 
ATOM     16  C16 UNL A   1       3.817  32.309  -2.081  1.00  0.00    +0.000 C 
BRANCH   16   15
ATOM    117  H22 UNL A   1       4.068  30.827  -0.605  1.00  0.00    +0.000 H 
ATOM    118  H23 UNL A   1       5.558  31.608  -1.151  1.00  0.00    +0.000 H 
ATOM     15  C15 UNL A   1       4.532  31.751  -0.883  1.00  0.00    +0.000 C 
BRANCH   15   14
ATOM    115  H20 UNL A   1       5.075  32.283   1.112  1.00  0.00    +0.000 H 
ATOM    116  H21 UNL A   1       4.881  33.647  -0.003  1.00  0.00    +0.000 H 
ATOM     14  C14 UNL A   1       4.491  32.705   0.322  1.00  0.00    +0.000 C 
BRANCH   14   13
ATOM    114  H19 UNL A   1       2.726  32.305   1.550  1.00  0.00    +0.000 H 
ATOM     13  C13 UNL A   1       3.097  32.949   0.833  1.00  0.00    +0.000 C 
BRANCH   13   12
ATOM    113  H18 UNL A   1       2.704  34.655  -0.217  1.00  0.00    +0.000 H 
ATOM     12  C12 UNL A   1       2.303  33.949   0.418  1.00  0.00    +0.000 C 
BRANCH   12   11
ATOM     11  C11 UNL A   1       0.865  34.099   0.826  1.00  0.00    +0.000 C 
ATOM    111  H16 UNL A   1       0.235  33.793   0.018  1.00  0.00    +0.000 H 
ATOM    112  H17 UNL A   1       0.681  33.487   1.685  1.00  0.00    +0.000 H 
BRANCH   11   10
ATOM     10  C10 UNL A   1       0.568  35.529   1.173  1.00  0.00    +0.000 C 
ATOM    110  H15 UNL A   1       0.282  35.743   2.141  1.00  0.00    +0.000 H 
BRANCH   10    9
ATOM      9  C9  UNL A   1       0.651  36.547   0.302  1.00  0.00    +0.000 C 
ATOM    109  H14 UNL A   1       1.544  37.061   0.244  1.00  0.00    +0.000 H 
BRANCH    9    8
ATOM    107  H12 UNL A   1      -0.963  36.124  -0.991  1.00  0.00    +0.000 H 
ATOM    108  H13 UNL A   1      -1.160  37.573  -0.022  1.00  0.00    +0.000 H 
ATOM      8  C8  UNL A   1      -0.471  36.986  -0.593  1.00  0.00    +0.000 C 
BRANCH    8    7
ATOM    106  H11 UNL A   1       0.168  37.369  -2.646  1.00  0.00    +0.000 H 
ATOM      7  C7  UNL A   1       0.056  37.821  -1.725  1.00  0.00    +0.000 C 
BRANCH    7    6
ATOM    105  H10 UNL A   1       0.557  39.494  -0.668  1.00  0.00    +0.000 H 
ATOM      6  C6  UNL A   1       0.390  39.117  -1.615  1.00  0.00    +0.000 C 
BRANCH    6    5
ATOM      5  C5  UNL A   1       0.535  40.053  -2.779  1.00  0.00    +0.000 C 
ATOM    103  H8  UNL A   1       1.551  40.043  -3.114  1.00  0.00    +0.000 H 
ATOM    104  H9  UNL A   1      -0.119  39.729  -3.562  1.00  0.00    +0.000 H 
BRANCH    5    4
ATOM      4  C4  UNL A   1       0.159  41.453  -2.387  1.00  0.00    +0.000 C 
ATOM    102  H7  UNL A   1      -0.360  41.586  -1.505  1.00  0.00    +0.000 H 
BRANCH    4    3
ATOM      3  C3  UNL A   1       0.456  42.544  -3.112  1.00  0.00    +0.000 C 
ATOM    101  H6  UNL A   1       0.430  43.462  -2.641  1.00  0.00    +0.000 H 
BRANCH    3    2
ATOM      2  C2  UNL A   1       0.823  42.508  -4.567  1.00  0.00    +0.000 C 
ATOM     99  H4  UNL A   1       0.435  41.611  -5.002  1.00  0.00    +0.000 H 
ATOM    100  H5  UNL A   1       0.404  43.371  -5.042  1.00  0.00    +0.000 H 
BRANCH    2    1
ATOM      1  C1  UNL A   1       2.331  42.539  -4.757  1.00  0.00    +0.000 C 
ATOM     98  H3  UNL A   1       2.697  43.522  -4.546  1.00  0.00    +0.000 H 
ATOM     97  H2  UNL A   1       2.789  41.837  -4.091  1.00  0.00    +0.000 H 
ATOM     96  H1  UNL A   1       2.569  42.280  -5.768  1.00  0.00    +0.000 H 
ENDBRANCH    2    1
ENDBRANCH    3    2
ENDBRANCH    4    3
ENDBRANCH    5    4
ENDBRANCH    6    5
ENDBRANCH    7    6
ENDBRANCH    8    7
ENDBRANCH    9    8
ENDBRANCH   10    9
ENDBRANCH   11   10
ENDBRANCH   12   11
ENDBRANCH   13   12
ENDBRANCH   14   13
ENDBRANCH   15   14
ENDBRANCH   16   15
ENDBRANCH   17   16
ENDBRANCH   18   17
ENDBRANCH   19   18
ENDBRANCH   20   19
ENDBRANCH   21   20
ENDBRANCH   23   21
ENDBRANCH   24   23
ENDBRANCH   25   24
ENDBRANCH   26   25
ENDBRANCH   27   26
ENDBRANCH   28   27
ENDBRANCH   29   28
ENDBRANCH   30   29
ENDBRANCH   31   30
ENDBRANCH   33   31
ENDBRANCH   37   36
BRANCH   41   42
ATOM     42  C36 UNL A   1       8.658  33.308  -4.741  1.00  0.00    +0.000 C 
ATOM     43  C37 UNL A   1       9.425  33.135  -5.903  1.00  0.00    +0.000 C 
ATOM     44  F1  UNL A   1      10.333  32.150  -5.972  1.00  0.00    +0.000 F 
ATOM     45  C38 UNL A   1       9.281  33.995  -6.989  1.00  0.00    +0.000 C 
ATOM     46  F2  UNL A   1      10.050  33.833  -8.075  1.00  0.00    +0.000 F 
ATOM     47  C39 UNL A   1       8.350  35.022  -6.946  1.00  0.00    +0.000 C 
ATOM     48  F3  UNL A   1       8.207  35.842  -7.996  1.00  0.00    +0.000 F 
ATOM     49  C40 UNL A   1       7.571  35.201  -5.813  1.00  0.00    +0.000 C 
ATOM     50  F4  UNL A   1       6.664  36.187  -5.774  1.00  0.00    +0.000 F 
ATOM     51  C41 UNL A   1       7.730  34.360  -4.716  1.00  0.00    +0.000 C 
ATOM     52  F5  UNL A   1       6.969  34.564  -3.629  1.00  0.00    +0.000 F 
ENDBRANCH   41   42
BRANCH   58   59
ATOM     65  F8  UNL A   1      16.546  33.864   2.463  1.00  0.00    +0.000 F 
ATOM     66  C51 UNL A   1      15.518  32.240   1.090  1.00  0.00    +0.000 C 
ATOM     67  F9  UNL A   1      16.713  31.701   0.809  1.00  0.00    +0.000 F 
ATOM     68  C52 UNL A   1      14.365  31.699   0.529  1.00  0.00    +0.000 C 
ATOM     69  F10 UNL A   1      14.477  30.648  -0.296  1.00  0.00    +0.000 F 
ATOM     59  C47 UNL A   1      13.101  32.233   0.826  1.00  0.00    +0.000 C 
ATOM     60  C48 UNL A   1      13.036  33.331   1.696  1.00  0.00    +0.000 C 
ATOM     61  F6  UNL A   1      11.852  33.886   1.994  1.00  0.00    +0.000 F 
ATOM     62  C49 UNL A   1      14.194  33.883   2.235  1.00  0.00    +0.000 C 
ATOM     63  F7  UNL A   1      14.113  34.957   3.034  1.00  0.00    +0.000 F 
ATOM     64  C50 UNL A   1      15.433  33.334   1.938  1.00  0.00    +0.000 C 
ENDBRANCH   58   59
BRANCH   73   74
ATOM     74  C56 UNL A   1       9.315  26.698   2.694  1.00  0.00    +0.000 C 
ATOM     75  C57 UNL A   1       8.879  26.983   3.995  1.00  0.00    +0.000 C 
ATOM     76  F11 UNL A   1       8.358  28.185   4.278  1.00  0.00    +0.000 F 
ATOM     77  C58 UNL A   1       9.013  26.047   5.019  1.00  0.00    +0.000 C 
ATOM     78  F12 UNL A   1       8.624  26.359   6.262  1.00  0.00    +0.000 F 
ATOM     79  C59 UNL A   1       9.560  24.801   4.755  1.00  0.00    +0.000 C 
ATOM     80  F13 UNL A   1       9.684  23.900   5.739  1.00  0.00    +0.000 F 
ATOM     81  C60 UNL A   1       9.985  24.492   3.471  1.00  0.00    +0.000 C 
ATOM     82  F14 UNL A   1      10.503  23.284   3.211  1.00  0.00    +0.000 F 
ATOM     83  C61 UNL A   1       9.874  25.435   2.453  1.00  0.00    +0.000 C 
ATOM     84  F15 UNL A   1      10.303  25.114   1.223  1.00  0.00    +0.000 F 
ENDBRANCH   73   74
TORSDOF 34
ENDMDL
MODEL 9
REMARK VINA RESULT:      -5.6     56.467     60.510
ROOT
ATOM    141  H46 UNL A   1      56.293  24.828  16.234  1.00  0.00    +0.000 H 
ATOM    142  H47 UNL A   1      56.893  22.299  16.027  1.00  0.00    +0.000 H 
ATOM    143  H48 UNL A   1      57.903  23.570  19.837  1.00  0.00    +0.000 H 
ATOM    144  H49 UNL A   1      60.678  22.442  25.466  1.00  0.00    +0.000 H 
ATOM    145  H50 UNL A   1      60.006  24.880  25.695  1.00  0.00    +0.000 H 
ATOM    146  H51 UNL A   1      58.942  23.621  21.878  1.00  0.00    +0.000 H 
ATOM    147  H52 UNL A   1      60.035  18.708  21.704  1.00  0.00    +0.000 H 
ATOM    148  H53 UNL A   1      59.172  18.731  19.294  1.00  0.00    +0.000 H 
ATOM    149  H54 UNL A   1      56.528  28.379  20.249  1.00  0.00    +0.000 H 
ATOM    150  H55 UNL A   1      57.706  28.482  22.520  1.00  0.00    +0.000 H 
ATOM     37  C32 UNL A   1      58.762  25.978  23.377  1.00  0.00    +0.000 C 
ATOM     38  C33 UNL A   1      58.106  26.297  22.063  1.00  0.00    +0.000 C 
ATOM     39  N3  UNL A   1      57.881  25.512  21.040  1.00  0.00    +0.000 N 
ATOM     40  C34 UNL A   1      57.216  26.292  20.105  1.00  0.00    +0.000 C 
ATOM     41  C35 UNL A   1      56.808  25.951  18.860  1.00  0.00    +0.000 C 
ATOM     53  C42 UNL A   1      57.010  24.656  18.262  1.00  0.00    +0.000 C 
ATOM     54  C43 UNL A   1      56.701  24.240  16.978  1.00  0.00    +0.000 C 
ATOM     55  C44 UNL A   1      57.035  22.887  16.864  1.00  0.00    +0.000 C 
ATOM     56  C45 UNL A   1      57.588  22.469  18.063  1.00  0.00    +0.000 C 
ATOM     57  N4  UNL A   1      57.569  23.566  18.911  1.00  0.00    +0.000 N 
ATOM     58  C46 UNL A   1      58.092  21.167  18.414  1.00  0.00    +0.000 C 
ATOM     70  C53 UNL A   1      58.668  20.852  19.600  1.00  0.00    +0.000 C 
ATOM     71  N5  UNL A   1      58.890  21.663  20.703  1.00  0.00    +0.000 N 
ATOM     72  C54 UNL A   1      59.458  20.899  21.604  1.00  0.00    +0.000 C 
ATOM     73  C55 UNL A   1      59.931  21.254  22.985  1.00  0.00    +0.000 C 
ATOM     85  C62 UNL A   1      59.800  22.520  23.424  1.00  0.00    +0.000 C 
ATOM     86  C63 UNL A   1      60.204  23.003  24.740  1.00  0.00    +0.000 C 
ATOM     87  C64 UNL A   1      59.860  24.295  24.858  1.00  0.00    +0.000 C 
ATOM     88  C65 UNL A   1      59.243  24.742  23.607  1.00  0.00    +0.000 C 
ATOM     89  N6  UNL A   1      59.271  23.627  22.806  1.00  0.00    +0.000 N 
ATOM     90  C66 UNL A   1      59.644  19.505  21.177  1.00  0.00    +0.000 C 
ATOM     91  C67 UNL A   1      59.175  19.538  19.937  1.00  0.00    +0.000 C 
ATOM     92  C68 UNL A   1      57.039  27.603  20.695  1.00  0.00    +0.000 C 
ATOM     93  C69 UNL A   1      57.619  27.673  21.885  1.00  0.00    +0.000 C 
ENDROOT
BRANCH   37   36
ATOM     33  C28 UNL A   1      58.860  29.067  26.339  1.00  0.00    +0.000 C 
ATOM     34  C29 UNL A   1      57.703  28.298  26.185  1.00  0.00    +0.000 C 
ATOM     35  C30 UNL A   1      57.682  27.253  25.260  1.00  0.00    +0.000 C 
ATOM     36  C31 UNL A   1      58.808  26.990  24.462  1.00  0.00    +0.000 C 
ATOM    139  H44 UNL A   1      56.866  28.504  26.753  1.00  0.00    +0.000 H 
ATOM    140  H45 UNL A   1      56.836  26.670  25.162  1.00  0.00    +0.000 H 
ATOM    151  H56 UNL A   1      60.822  27.530  24.103  1.00  0.00    +0.000 H 
ATOM    152  H57 UNL A   1      60.902  29.237  25.823  1.00  0.00    +0.000 H 
ATOM     94  C70 UNL A   1      59.982  27.731  24.668  1.00  0.00    +0.000 C 
ATOM     95  C71 UNL A   1      60.020  28.737  25.633  1.00  0.00    +0.000 C 
BRANCH   33   31
ATOM     31  C27 UNL A   1      58.828  30.226  27.258  1.00  0.00    +0.000 C 
ATOM     32  O3  UNL A   1      59.812  30.954  27.352  1.00  0.00    +0.000 O 
BRANCH   31   30
ATOM    138  H43 UNL A   1      56.957  30.880  27.540  1.00  0.00    +0.000 H 
ATOM     30  N2  UNL A   1      57.712  30.471  28.020  1.00  0.00    +0.000 N 
BRANCH   30   29
ATOM    137  H42 UNL A   1      56.486  30.531  29.663  1.00  0.00    +0.000 H 
ATOM     29  C26 UNL A   1      57.482  30.215  29.434  1.00  0.00    +0.000 C 
ATOM    136  H41 UNL A   1      58.208  30.759  30.003  1.00  0.00    +0.000 H 
BRANCH   29   28
ATOM     28  C25 UNL A   1      57.593  28.736  29.788  1.00  0.00    +0.000 C 
ATOM    134  H39 UNL A   1      56.737  28.470  30.374  1.00  0.00    +0.000 H 
ATOM    135  H40 UNL A   1      57.652  28.211  28.858  1.00  0.00    +0.000 H 
BRANCH   28   27
ATOM     27  C24 UNL A   1      58.844  28.347  30.577  1.00  0.00    +0.000 C 
ATOM    132  H37 UNL A   1      59.147  29.195  31.157  1.00  0.00    +0.000 H 
ATOM    133  H38 UNL A   1      58.568  27.498  31.167  1.00  0.00    +0.000 H 
BRANCH   27   26
ATOM     26  C23 UNL A   1      60.044  27.901  29.734  1.00  0.00    +0.000 C 
ATOM    130  H35 UNL A   1      60.259  28.677  29.030  1.00  0.00    +0.000 H 
ATOM    131  H36 UNL A   1      60.837  27.716  30.430  1.00  0.00    +0.000 H 
BRANCH   26   25
ATOM     25  C22 UNL A   1      59.858  26.593  28.954  1.00  0.00    +0.000 C 
ATOM    129  H34 UNL A   1      60.649  26.554  28.234  1.00  0.00    +0.000 H 
ATOM    128  H33 UNL A   1      58.886  26.605  28.508  1.00  0.00    +0.000 H 
BRANCH   25   24
ATOM    126  H31 UNL A   1      60.132  25.598  30.819  1.00  0.00    +0.000 H 
ATOM    127  H32 UNL A   1      59.078  24.758  29.685  1.00  0.00    +0.000 H 
ATOM     24  C21 UNL A   1      59.980  25.324  29.797  1.00  0.00    +0.000 C 
BRANCH   24   23
ATOM    125  H30 UNL A   1      61.984  24.802  29.641  1.00  0.00    +0.000 H 
ATOM     23  N1  UNL A   1      61.090  24.501  29.360  1.00  0.00    +0.000 N 
BRANCH   23   21
ATOM     21  C20 UNL A   1      61.052  23.361  28.610  1.00  0.00    +0.000 C 
ATOM     22  O2  UNL A   1      61.960  23.149  27.805  1.00  0.00    +0.000 O 
BRANCH   21   20
ATOM    124  H29 UNL A   1      59.004  23.000  28.559  1.00  0.00    +0.000 H 
ATOM    123  H28 UNL A   1      59.914  22.000  29.763  1.00  0.00    +0.000 H 
ATOM     20  C19 UNL A   1      59.865  22.402  28.773  1.00  0.00    +0.000 C 
BRANCH   20   19
ATOM     19  O1  UNL A   1      59.773  21.305  27.873  1.00  0.00    +0.000 O 
BRANCH   19   18
ATOM    121  H26 UNL A   1      58.339  20.284  26.829  1.00  0.00    +0.000 H 
ATOM     18  C18 UNL A   1      58.471  20.722  27.796  1.00  0.00    +0.000 C 
ATOM    122  H27 UNL A   1      58.382  19.975  28.557  1.00  0.00    +0.000 H 
BRANCH   18   17
ATOM     17  C17 UNL A   1      57.416  21.762  28.014  1.00  0.00    +0.000 C 
ATOM    120  H25 UNL A   1      57.342  22.202  28.944  1.00  0.00    +0.000 H 
BRANCH   17   16
ATOM    119  H24 UNL A   1      55.944  21.427  26.645  1.00  0.00    +0.000 H 
ATOM     16  C16 UNL A   1      56.563  22.145  27.051  1.00  0.00    +0.000 C 
BRANCH   16   15
ATOM    117  H22 UNL A   1      56.813  23.568  25.517  1.00  0.00    +0.000 H 
ATOM    118  H23 UNL A   1      55.417  23.832  26.571  1.00  0.00    +0.000 H 
ATOM     15  C15 UNL A   1      56.447  23.548  26.523  1.00  0.00    +0.000 C 
BRANCH   15   14
ATOM    115  H20 UNL A   1      58.000  24.025  27.909  1.00  0.00    +0.000 H 
ATOM    116  H21 UNL A   1      57.682  25.263  26.681  1.00  0.00    +0.000 H 
ATOM     14  C14 UNL A   1      57.251  24.557  27.359  1.00  0.00    +0.000 C 
BRANCH   14   13
ATOM    114  H19 UNL A   1      56.821  25.597  29.234  1.00  0.00    +0.000 H 
ATOM     13  C13 UNL A   1      56.400  25.328  28.331  1.00  0.00    +0.000 C 
BRANCH   13   12
ATOM    113  H18 UNL A   1      54.421  24.944  28.006  1.00  0.00    +0.000 H 
ATOM     12  C12 UNL A   1      55.127  25.690  28.100  1.00  0.00    +0.000 C 
BRANCH   12   11
ATOM     11  C11 UNL A   1      54.674  27.115  27.970  1.00  0.00    +0.000 C 
ATOM    111  H16 UNL A   1      55.163  27.710  28.714  1.00  0.00    +0.000 H 
ATOM    112  H17 UNL A   1      54.925  27.473  26.993  1.00  0.00    +0.000 H 
BRANCH   11   10
ATOM     10  C10 UNL A   1      53.188  27.210  28.159  1.00  0.00    +0.000 C 
ATOM    110  H15 UNL A   1      52.813  28.041  28.643  1.00  0.00    +0.000 H 
BRANCH   10    9
ATOM      9  C9  UNL A   1      52.315  26.281  27.736  1.00  0.00    +0.000 C 
ATOM    109  H14 UNL A   1      51.938  25.620  28.432  1.00  0.00    +0.000 H 
BRANCH    9    8
ATOM    107  H12 UNL A   1      50.789  26.048  26.296  1.00  0.00    +0.000 H 
ATOM    108  H13 UNL A   1      52.155  27.010  25.766  1.00  0.00    +0.000 H 
ATOM      8  C8  UNL A   1      51.854  26.143  26.314  1.00  0.00    +0.000 C 
BRANCH    8    7
ATOM    106  H11 UNL A   1      52.112  24.002  25.961  1.00  0.00    +0.000 H 
ATOM      7  C7  UNL A   1      52.469  24.929  25.679  1.00  0.00    +0.000 C 
BRANCH    7    6
ATOM    105  H10 UNL A   1      53.655  24.112  24.231  1.00  0.00    +0.000 H 
ATOM      6  C6  UNL A   1      53.454  24.972  24.766  1.00  0.00    +0.000 C 
BRANCH    6    5
ATOM      5  C5  UNL A   1      54.282  26.190  24.476  1.00  0.00    +0.000 C 
ATOM    103  H8  UNL A   1      54.045  26.954  25.187  1.00  0.00    +0.000 H 
ATOM    104  H9  UNL A   1      55.316  25.926  24.545  1.00  0.00    +0.000 H 
BRANCH    5    4
ATOM      4  C4  UNL A   1      54.008  26.703  23.091  1.00  0.00    +0.000 C 
ATOM    102  H7  UNL A   1      53.840  26.012  22.344  1.00  0.00    +0.000 H 
BRANCH    4    3
ATOM      3  C3  UNL A   1      53.967  28.005  22.765  1.00  0.00    +0.000 C 
ATOM    101  H6  UNL A   1      54.307  28.691  23.457  1.00  0.00    +0.000 H 
BRANCH    3    2
ATOM      2  C2  UNL A   1      53.455  28.523  21.453  1.00  0.00    +0.000 C 
ATOM     99  H4  UNL A   1      53.715  27.831  20.679  1.00  0.00    +0.000 H 
ATOM    100  H5  UNL A   1      52.392  28.630  21.522  1.00  0.00    +0.000 H 
BRANCH    2    1
ATOM      1  C1  UNL A   1      54.053  29.882  21.124  1.00  0.00    +0.000 C 
ATOM     98  H3  UNL A   1      53.618  30.254  20.220  1.00  0.00    +0.000 H 
ATOM     97  H2  UNL A   1      53.851  30.564  21.924  1.00  0.00    +0.000 H 
ATOM     96  H1  UNL A   1      55.111  29.785  20.997  1.00  0.00    +0.000 H 
ENDBRANCH    2    1
ENDBRANCH    3    2
ENDBRANCH    4    3
ENDBRANCH    5    4
ENDBRANCH    6    5
ENDBRANCH    7    6
ENDBRANCH    8    7
ENDBRANCH    9    8
ENDBRANCH   10    9
ENDBRANCH   11   10
ENDBRANCH   12   11
ENDBRANCH   13   12
ENDBRANCH   14   13
ENDBRANCH   15   14
ENDBRANCH   16   15
ENDBRANCH   17   16
ENDBRANCH   18   17
ENDBRANCH   19   18
ENDBRANCH   20   19
ENDBRANCH   21   20
ENDBRANCH   23   21
ENDBRANCH   24   23
ENDBRANCH   25   24
ENDBRANCH   26   25
ENDBRANCH   27   26
ENDBRANCH   28   27
ENDBRANCH   29   28
ENDBRANCH   30   29
ENDBRANCH   31   30
ENDBRANCH   33   31
ENDBRANCH   37   36
BRANCH   41   42
ATOM     42  C36 UNL A   1      56.102  26.997  18.048  1.00  0.00    +0.000 C 
ATOM     43  C37 UNL A   1      54.721  27.210  18.169  1.00  0.00    +0.000 C 
ATOM     44  F1  UNL A   1      53.987  26.434  18.981  1.00  0.00    +0.000 F 
ATOM     45  C38 UNL A   1      54.083  28.203  17.431  1.00  0.00    +0.000 C 
ATOM     46  F2  UNL A   1      52.757  28.364  17.535  1.00  0.00    +0.000 F 
ATOM     47  C39 UNL A   1      54.816  29.020  16.584  1.00  0.00    +0.000 C 
ATOM     48  F3  UNL A   1      54.202  29.982  15.881  1.00  0.00    +0.000 F 
ATOM     49  C40 UNL A   1      56.185  28.837  16.460  1.00  0.00    +0.000 C 
ATOM     50  F4  UNL A   1      56.897  29.633  15.649  1.00  0.00    +0.000 F 
ATOM     51  C41 UNL A   1      56.823  27.828  17.177  1.00  0.00    +0.000 C 
ATOM     52  F5  UNL A   1      58.147  27.668  17.030  1.00  0.00    +0.000 F 
ENDBRANCH   41   42
BRANCH   58   59
ATOM     65  F8  UNL A   1      57.721  16.994  14.628  1.00  0.00    +0.000 F 
ATOM     66  C51 UNL A   1      56.758  18.236  16.391  1.00  0.00    +0.000 C 
ATOM     67  F9  UNL A   1      55.657  17.472  16.346  1.00  0.00    +0.000 F 
ATOM     68  C52 UNL A   1      56.841  19.278  17.310  1.00  0.00    +0.000 C 
ATOM     69  F10 UNL A   1      55.804  19.503  18.130  1.00  0.00    +0.000 F 
ATOM     59  C47 UNL A   1      57.992  20.077  17.391  1.00  0.00    +0.000 C 
ATOM     60  C48 UNL A   1      59.050  19.800  16.513  1.00  0.00    +0.000 C 
ATOM     61  F6  UNL A   1      60.163  20.549  16.540  1.00  0.00    +0.000 F 
ATOM     62  C49 UNL A   1      58.952  18.773  15.579  1.00  0.00    +0.000 C 
ATOM     63  F7  UNL A   1      59.959  18.549  14.723  1.00  0.00    +0.000 F 
ATOM     64  C50 UNL A   1      57.810  17.987  15.523  1.00  0.00    +0.000 C 
ENDBRANCH   58   59
BRANCH   73   74
ATOM     74  C56 UNL A   1      60.551  20.228  23.862  1.00  0.00    +0.000 C 
ATOM     75  C57 UNL A   1      59.758  19.413  24.682  1.00  0.00    +0.000 C 
ATOM     76  F11 UNL A   1      58.427  19.571  24.696  1.00  0.00    +0.000 F 
ATOM     77  C58 UNL A   1      60.334  18.459  25.519  1.00  0.00    +0.000 C 
ATOM     78  F12 UNL A   1      59.557  17.720  26.321  1.00  0.00    +0.000 F 
ATOM     79  C59 UNL A   1      61.710  18.286  25.532  1.00  0.00    +0.000 C 
ATOM     80  F13 UNL A   1      62.263  17.365  26.334  1.00  0.00    +0.000 F 
ATOM     81  C60 UNL A   1      62.513  19.071  24.719  1.00  0.00    +0.000 C 
ATOM     82  F14 UNL A   1      63.841  18.897  24.720  1.00  0.00    +0.000 F 
ATOM     83  C61 UNL A   1      61.940  20.042  23.900  1.00  0.00    +0.000 C 
ATOM     84  F15 UNL A   1      62.740  20.795  23.131  1.00  0.00    +0.000 F 
ENDBRANCH   73   74
TORSDOF 34
ENDMDL
MODEL 10
REMARK VINA RESULT:      -5.6     41.247     48.125
ROOT
ATOM    141  H46 UNL A   1      45.021  -5.423  15.804  1.00  0.00    +0.000 H 
ATOM    142  H47 UNL A   1      47.558  -5.725  15.285  1.00  0.00    +0.000 H 
ATOM    143  H48 UNL A   1      45.616  -4.735  11.763  1.00  0.00    +0.000 H 
ATOM    144  H49 UNL A   1      45.732  -3.982   5.433  1.00  0.00    +0.000 H 
ATOM    145  H50 UNL A   1      43.278  -3.597   5.959  1.00  0.00    +0.000 H 
ATOM    146  H51 UNL A   1      45.207  -4.546   9.517  1.00  0.00    +0.000 H 
ATOM    147  H52 UNL A   1      50.091  -4.951   8.358  1.00  0.00    +0.000 H 
ATOM    148  H53 UNL A   1      50.502  -5.491  10.827  1.00  0.00    +0.000 H 
ATOM    149  H54 UNL A   1      40.781  -3.955  12.861  1.00  0.00    +0.000 H 
ATOM    150  H55 UNL A   1      40.282  -3.769  10.356  1.00  0.00    +0.000 H 
ATOM     37  C32 UNL A   1      42.605  -3.900   8.713  1.00  0.00    +0.000 C 
ATOM     38  C33 UNL A   1      42.524  -4.076  10.202  1.00  0.00    +0.000 C 
ATOM     39  N3  UNL A   1      43.482  -4.325  11.059  1.00  0.00    +0.000 N 
ATOM     40  C34 UNL A   1      42.875  -4.352  12.307  1.00  0.00    +0.000 C 
ATOM     41  C35 UNL A   1      43.435  -4.619  13.511  1.00  0.00    +0.000 C 
ATOM     53  C42 UNL A   1      44.824  -4.942  13.710  1.00  0.00    +0.000 C 
ATOM     54  C43 UNL A   1      45.467  -5.304  14.881  1.00  0.00    +0.000 C 
ATOM     55  C44 UNL A   1      46.826  -5.478  14.599  1.00  0.00    +0.000 C 
ATOM     56  C45 UNL A   1      47.024  -5.264  13.245  1.00  0.00    +0.000 C 
ATOM     57  N4  UNL A   1      45.786  -4.939  12.711  1.00  0.00    +0.000 N 
ATOM     58  C46 UNL A   1      48.249  -5.343  12.493  1.00  0.00    +0.000 C 
ATOM     70  C53 UNL A   1      48.349  -5.167  11.153  1.00  0.00    +0.000 C 
ATOM     71  N5  UNL A   1      47.350  -4.876  10.235  1.00  0.00    +0.000 N 
ATOM     72  C54 UNL A   1      47.945  -4.788   9.071  1.00  0.00    +0.000 C 
ATOM     73  C55 UNL A   1      47.348  -4.506   7.721  1.00  0.00    +0.000 C 
ATOM     85  C62 UNL A   1      46.019  -4.322   7.611  1.00  0.00    +0.000 C 
ATOM     86  C63 UNL A   1      45.306  -4.032   6.371  1.00  0.00    +0.000 C 
ATOM     87  C64 UNL A   1      44.006  -3.840   6.647  1.00  0.00    +0.000 C 
ATOM     88  C65 UNL A   1      43.788  -4.031   8.083  1.00  0.00    +0.000 C 
ATOM     89  N6  UNL A   1      45.035  -4.337   8.570  1.00  0.00    +0.000 N 
ATOM     90  C66 UNL A   1      49.399  -4.996   9.122  1.00  0.00    +0.000 C 
ATOM     91  C67 UNL A   1      49.588  -5.255  10.409  1.00  0.00    +0.000 C 
ATOM     92  C68 UNL A   1      41.473  -4.056  12.102  1.00  0.00    +0.000 C 
ATOM     93  C69 UNL A   1      41.194  -3.929  10.813  1.00  0.00    +0.000 C 
ENDROOT
BRANCH   37   36
ATOM     33  C28 UNL A   1      39.302  -2.654   6.291  1.00  0.00    +0.000 C 
ATOM     34  C29 UNL A   1      39.636  -4.010   6.355  1.00  0.00    +0.000 C 
ATOM     35  C30 UNL A   1      40.676  -4.431   7.186  1.00  0.00    +0.000 C 
ATOM     36  C31 UNL A   1      41.408  -3.494   7.934  1.00  0.00    +0.000 C 
ATOM    139  H44 UNL A   1      39.115  -4.698   5.789  1.00  0.00    +0.000 H 
ATOM    140  H45 UNL A   1      40.908  -5.434   7.252  1.00  0.00    +0.000 H 
ATOM    151  H56 UNL A   1      41.543  -1.452   8.470  1.00  0.00    +0.000 H 
ATOM    152  H57 UNL A   1      39.634  -0.752   7.150  1.00  0.00    +0.000 H 
ATOM     94  C70 UNL A   1      41.025  -2.145   7.906  1.00  0.00    +0.000 C 
ATOM     95  C71 UNL A   1      39.949  -1.733   7.120  1.00  0.00    +0.000 C 
BRANCH   33   31
ATOM     31  C27 UNL A   1      38.260  -2.222   5.335  1.00  0.00    +0.000 C 
ATOM     32  O3  UNL A   1      38.556  -1.469   4.412  1.00  0.00    +0.000 O 
BRANCH   31   30
ATOM    138  H43 UNL A   1      36.448  -2.160   6.185  1.00  0.00    +0.000 H 
ATOM     30  N2  UNL A   1      36.961  -2.639   5.496  1.00  0.00    +0.000 N 
BRANCH   30   29
ATOM    137  H42 UNL A   1      35.215  -3.368   4.705  1.00  0.00    +0.000 H 
ATOM     29  C26 UNL A   1      36.232  -3.687   4.797  1.00  0.00    +0.000 C 
ATOM    136  H41 UNL A   1      36.312  -4.594   5.359  1.00  0.00    +0.000 H 
BRANCH   29   28
ATOM     28  C25 UNL A   1      36.768  -3.935   3.390  1.00  0.00    +0.000 C 
ATOM    134  H39 UNL A   1      37.836  -3.857   3.423  1.00  0.00    +0.000 H 
ATOM    135  H40 UNL A   1      36.421  -4.907   3.107  1.00  0.00    +0.000 H 
BRANCH   28   27
ATOM     27  C24 UNL A   1      36.256  -2.971   2.319  1.00  0.00    +0.000 C 
ATOM    132  H37 UNL A   1      37.048  -2.293   2.078  1.00  0.00    +0.000 H 
ATOM    133  H38 UNL A   1      35.948  -3.582   1.497  1.00  0.00    +0.000 H 
BRANCH   27   26
ATOM     26  C23 UNL A   1      35.029  -2.141   2.710  1.00  0.00    +0.000 C 
ATOM    130  H35 UNL A   1      34.586  -2.594   3.572  1.00  0.00    +0.000 H 
ATOM    131  H36 UNL A   1      35.389  -1.147   2.879  1.00  0.00    +0.000 H 
BRANCH   26   25
ATOM     25  C22 UNL A   1      33.942  -2.014   1.633  1.00  0.00    +0.000 C 
ATOM    129  H34 UNL A   1      33.103  -2.580   1.981  1.00  0.00    +0.000 H 
ATOM    128  H33 UNL A   1      34.341  -2.380   0.710  1.00  0.00    +0.000 H 
BRANCH   25   24
ATOM    126  H31 UNL A   1      32.383  -0.560   1.592  1.00  0.00    +0.000 H 
ATOM    127  H32 UNL A   1      33.961   0.065   2.066  1.00  0.00    +0.000 H 
ATOM     24  C21 UNL A   1      33.435  -0.590   1.403  1.00  0.00    +0.000 C 
BRANCH   24   23
ATOM    125  H30 UNL A   1      32.890  -0.101  -0.541  1.00  0.00    +0.000 H 
ATOM     23  N1  UNL A   1      33.681  -0.153   0.043  1.00  0.00    +0.000 N 
BRANCH   23   21
ATOM     21  C20 UNL A   1      34.869   0.195  -0.531  1.00  0.00    +0.000 C 
ATOM     22  O2  UNL A   1      35.427  -0.610  -1.279  1.00  0.00    +0.000 O 
BRANCH   21   20
ATOM    124  H29 UNL A   1      34.909   1.922   0.628  1.00  0.00    +0.000 H 
ATOM    123  H28 UNL A   1      35.439   2.156  -1.087  1.00  0.00    +0.000 H 
ATOM     20  C19 UNL A   1      35.484   1.561  -0.198  1.00  0.00    +0.000 C 
BRANCH   20   19
ATOM     19  O1  UNL A   1      36.829   1.587   0.262  1.00  0.00    +0.000 O 
BRANCH   19   18
ATOM    121  H26 UNL A   1      36.712   1.190   2.266  1.00  0.00    +0.000 H 
ATOM     18  C18 UNL A   1      37.081   0.728   1.375  1.00  0.00    +0.000 C 
ATOM    122  H27 UNL A   1      36.585  -0.206   1.210  1.00  0.00    +0.000 H 
BRANCH   18   17
ATOM     17  C17 UNL A   1      38.549   0.476   1.523  1.00  0.00    +0.000 C 
ATOM    120  H25 UNL A   1      38.867  -0.488   1.709  1.00  0.00    +0.000 H 
BRANCH   17   16
ATOM    119  H24 UNL A   1      39.572   2.093   2.224  1.00  0.00    +0.000 H 
ATOM     16  C16 UNL A   1      39.469   1.449   1.426  1.00  0.00    +0.000 C 
BRANCH   16   15
ATOM    117  H22 UNL A   1      41.367   1.440   0.510  1.00  0.00    +0.000 H 
ATOM    118  H23 UNL A   1      40.015   1.023  -0.551  1.00  0.00    +0.000 H 
ATOM     15  C15 UNL A   1      40.357   1.665   0.233  1.00  0.00    +0.000 C 
BRANCH   15   14
ATOM    115  H20 UNL A   1      40.450   3.101  -1.345  1.00  0.00    +0.000 H 
ATOM    116  H21 UNL A   1      39.340   3.507  -0.024  1.00  0.00    +0.000 H 
ATOM     14  C14 UNL A   1      40.299   3.112  -0.286  1.00  0.00    +0.000 C 
BRANCH   14   13
ATOM    114  H19 UNL A   1      42.328   3.831   0.100  1.00  0.00    +0.000 H 
ATOM     13  C13 UNL A   1      41.339   4.003   0.338  1.00  0.00    +0.000 C 
BRANCH   13   12
ATOM    113  H18 UNL A   1      40.666   5.877   0.792  1.00  0.00    +0.000 H 
ATOM     12  C12 UNL A   1      41.064   5.010   1.183  1.00  0.00    +0.000 C 
BRANCH   12   11
ATOM     11  C11 UNL A   1      41.303   4.946   2.664  1.00  0.00    +0.000 C 
ATOM    111  H16 UNL A   1      41.967   5.736   2.949  1.00  0.00    +0.000 H 
ATOM    112  H17 UNL A   1      40.368   5.052   3.174  1.00  0.00    +0.000 H 
BRANCH   11   10
ATOM     10  C10 UNL A   1      41.915   3.627   3.038  1.00  0.00    +0.000 C 
ATOM    110  H15 UNL A   1      41.320   2.785   2.986  1.00  0.00    +0.000 H 
BRANCH   10    9
ATOM      9  C9  UNL A   1      43.189   3.473   3.433  1.00  0.00    +0.000 C 
ATOM    109  H14 UNL A   1      43.363   2.987   4.327  1.00  0.00    +0.000 H 
BRANCH    9    8
ATOM    107  H12 UNL A   1      44.055   4.680   1.933  1.00  0.00    +0.000 H 
ATOM    108  H13 UNL A   1      45.072   4.413   3.337  1.00  0.00    +0.000 H 
ATOM      8  C8  UNL A   1      44.378   3.964   2.659  1.00  0.00    +0.000 C 
BRANCH    8    7
ATOM    106  H11 UNL A   1      46.081   2.860   1.849  1.00  0.00    +0.000 H 
ATOM      7  C7  UNL A   1      45.055   2.821   1.958  1.00  0.00    +0.000 C 
BRANCH    7    6
ATOM    105  H10 UNL A   1      43.545   1.915   0.925  1.00  0.00    +0.000 H 
ATOM      6  C6  UNL A   1      44.411   1.751   1.463  1.00  0.00    +0.000 C 
BRANCH    6    5
ATOM      5  C5  UNL A   1      44.868   0.333   1.644  1.00  0.00    +0.000 C 
ATOM    103  H8  UNL A   1      45.084  -0.092   0.685  1.00  0.00    +0.000 H 
ATOM    104  H9  UNL A   1      45.744   0.331   2.258  1.00  0.00    +0.000 H 
BRANCH    5    4
ATOM      4  C4  UNL A   1      43.805  -0.487   2.318  1.00  0.00    +0.000 C 
ATOM    102  H7  UNL A   1      44.026  -1.468   2.549  1.00  0.00    +0.000 H 
BRANCH    4    3
ATOM      3  C3  UNL A   1      42.587  -0.024   2.641  1.00  0.00    +0.000 C 
ATOM    101  H6  UNL A   1      42.243   0.818   2.153  1.00  0.00    +0.000 H 
BRANCH    3    2
ATOM      2  C2  UNL A   1      41.696  -0.657   3.670  1.00  0.00    +0.000 C 
ATOM     99  H4  UNL A   1      41.677  -0.038   4.542  1.00  0.00    +0.000 H 
ATOM    100  H5  UNL A   1      40.715  -0.754   3.254  1.00  0.00    +0.000 H 
BRANCH    2    1
ATOM      1  C1  UNL A   1      42.195  -2.041   4.055  1.00  0.00    +0.000 C 
ATOM     98  H3  UNL A   1      42.205  -2.670   3.190  1.00  0.00    +0.000 H 
ATOM     97  H2  UNL A   1      43.185  -1.966   4.453  1.00  0.00    +0.000 H 
ATOM     96  H1  UNL A   1      41.544  -2.461   4.794  1.00  0.00    +0.000 H 
ENDBRANCH    2    1
ENDBRANCH    3    2
ENDBRANCH    4    3
ENDBRANCH    5    4
ENDBRANCH    6    5
ENDBRANCH    7    6
ENDBRANCH    8    7
ENDBRANCH    9    8
ENDBRANCH   10    9
ENDBRANCH   11   10
ENDBRANCH   12   11
ENDBRANCH   13   12
ENDBRANCH   14   13
ENDBRANCH   15   14
ENDBRANCH   16   15
ENDBRANCH   17   16
ENDBRANCH   18   17
ENDBRANCH   19   18
ENDBRANCH   20   19
ENDBRANCH   21   20
ENDBRANCH   23   21
ENDBRANCH   24   23
ENDBRANCH   25   24
ENDBRANCH   26   25
ENDBRANCH   27   26
ENDBRANCH   28   27
ENDBRANCH   29   28
ENDBRANCH   30   29
ENDBRANCH   31   30
ENDBRANCH   33   31
ENDBRANCH   37   36
BRANCH   41   42
ATOM     42  C36 UNL A   1      42.544  -4.580  14.716  1.00  0.00    +0.000 C 
ATOM     43  C37 UNL A   1      41.721  -5.665  15.055  1.00  0.00    +0.000 C 
ATOM     44  F1  UNL A   1      41.673  -6.747  14.265  1.00  0.00    +0.000 F 
ATOM     45  C38 UNL A   1      40.920  -5.627  16.193  1.00  0.00    +0.000 C 
ATOM     46  F2  UNL A   1      40.114  -6.659  16.477  1.00  0.00    +0.000 F 
ATOM     47  C39 UNL A   1      40.949  -4.520  17.029  1.00  0.00    +0.000 C 
ATOM     48  F3  UNL A   1      40.185  -4.490  18.129  1.00  0.00    +0.000 F 
ATOM     49  C40 UNL A   1      41.767  -3.443  16.721  1.00  0.00    +0.000 C 
ATOM     50  F4  UNL A   1      41.804  -2.377  17.533  1.00  0.00    +0.000 F 
ATOM     51  C41 UNL A   1      42.550  -3.467  15.570  1.00  0.00    +0.000 C 
ATOM     52  F5  UNL A   1      43.324  -2.406  15.293  1.00  0.00    +0.000 F 
ENDBRANCH   41   42
BRANCH   58   59
ATOM     65  F8  UNL A   1      52.947  -6.575  15.374  1.00  0.00    +0.000 F 
ATOM     66  C51 UNL A   1      51.063  -7.297  14.145  1.00  0.00    +0.000 C 
ATOM     67  F9  UNL A   1      51.422  -8.576  14.321  1.00  0.00    +0.000 F 
ATOM     68  C52 UNL A   1      49.917  -6.992  13.417  1.00  0.00    +0.000 C 
ATOM     69  F10 UNL A   1      49.196  -7.995  12.893  1.00  0.00    +0.000 F 
ATOM     59  C47 UNL A   1      49.510  -5.661  13.238  1.00  0.00    +0.000 C 
ATOM     60  C48 UNL A   1      50.296  -4.648  13.808  1.00  0.00    +0.000 C 
ATOM     61  F6  UNL A   1      49.957  -3.360  13.648  1.00  0.00    +0.000 F 
ATOM     62  C49 UNL A   1      51.455  -4.957  14.514  1.00  0.00    +0.000 C 
ATOM     63  F7  UNL A   1      52.213  -3.973  15.017  1.00  0.00    +0.000 F 
ATOM     64  C50 UNL A   1      51.834  -6.280  14.688  1.00  0.00    +0.000 C 
ENDBRANCH   58   59
BRANCH   73   74
ATOM     74  C56 UNL A   1      48.205  -4.441   6.510  1.00  0.00    +0.000 C 
ATOM     75  C57 UNL A   1      48.488  -5.597   5.771  1.00  0.00    +0.000 C 
ATOM     76  F11 UNL A   1      48.002  -6.782   6.168  1.00  0.00    +0.000 F 
ATOM     77  C58 UNL A   1      49.304  -5.547   4.642  1.00  0.00    +0.000 C 
ATOM     78  F12 UNL A   1      49.592  -6.672   3.976  1.00  0.00    +0.000 F 
ATOM     79  C59 UNL A   1      49.829  -4.335   4.218  1.00  0.00    +0.000 C 
ATOM     80  F13 UNL A   1      50.611  -4.286   3.130  1.00  0.00    +0.000 F 
ATOM     81  C60 UNL A   1      49.550  -3.176   4.926  1.00  0.00    +0.000 C 
ATOM     82  F14 UNL A   1      50.046  -2.002   4.512  1.00  0.00    +0.000 F 
ATOM     83  C61 UNL A   1      48.755  -3.230   6.068  1.00  0.00    +0.000 C 
ATOM     84  F15 UNL A   1      48.509  -2.096   6.740  1.00  0.00    +0.000 F 
ENDBRANCH   73   74
TORSDOF 34
ENDMDL
