MODEL 1
REMARK VINA RESULT:     -10.2      0.000      0.000
ROOT
ATOM    129  H34 UNL A   1      38.630  26.870  27.606  1.00  0.00    +0.000 H 
ATOM    130  H35 UNL A   1      42.171  27.500  29.689  1.00  0.00    +0.000 H 
ATOM    131  H36 UNL A   1      45.185  23.659  28.489  1.00  0.00    +0.000 H 
ATOM    132  H37 UNL A   1      46.901  24.673  30.096  1.00  0.00    +0.000 H 
ATOM    133  H38 UNL A   1      40.824  32.489  31.796  1.00  0.00    +0.000 H 
ATOM    134  H39 UNL A   1      38.930  31.279  30.571  1.00  0.00    +0.000 H 
ATOM     37  C28 UNL A   1      39.733  28.829  29.357  1.00  0.00    +0.000 C 
ATOM     38  C29 UNL A   1      40.549  29.724  30.248  1.00  0.00    +0.000 C 
ATOM     39  N5  UNL A   1      41.784  29.580  30.660  1.00  0.00    +0.000 N 
ATOM     40  C30 UNL A   1      42.063  30.710  31.417  1.00  0.00    +0.000 C 
ATOM     41  C31 UNL A   1      43.192  31.008  32.105  1.00  0.00    +0.000 C 
ATOM     53  C38 UNL A   1      44.349  30.155  32.172  1.00  0.00    +0.000 C 
ATOM     54  C39 UNL A   1      45.517  30.339  32.892  1.00  0.00    +0.000 C 
ATOM     55  C40 UNL A   1      46.373  29.266  32.620  1.00  0.00    +0.000 C 
ATOM     56  C41 UNL A   1      45.722  28.393  31.764  1.00  0.00    +0.000 C 
ATOM     57  N6  UNL A   1      44.483  28.953  31.493  1.00  0.00    +0.000 N 
ATOM     58  C42 UNL A   1      46.192  27.140  31.231  1.00  0.00    +0.000 C 
ATOM     70  C49 UNL A   1      45.489  26.334  30.399  1.00  0.00    +0.000 C 
ATOM     71  N7  UNL A   1      44.208  26.508  29.893  1.00  0.00    +0.000 N 
ATOM     72  C50 UNL A   1      43.978  25.468  29.130  1.00  0.00    +0.000 C 
ATOM     73  C51 UNL A   1      42.740  25.118  28.349  1.00  0.00    +0.000 C 
ATOM     85  C58 UNL A   1      41.668  25.930  28.417  1.00  0.00    +0.000 C 
ATOM     86  C59 UNL A   1      40.401  25.718  27.724  1.00  0.00    +0.000 C 
ATOM     87  C60 UNL A   1      39.582  26.751  27.984  1.00  0.00    +0.000 C 
ATOM     88  C61 UNL A   1      40.257  27.681  28.890  1.00  0.00    +0.000 C 
ATOM     89  N8  UNL A   1      41.486  27.106  29.102  1.00  0.00    +0.000 N 
ATOM     90  C62 UNL A   1      45.103  24.526  29.044  1.00  0.00    +0.000 C 
ATOM     91  C63 UNL A   1      45.982  25.081  29.866  1.00  0.00    +0.000 C 
ATOM     92  C64 UNL A   1      40.887  31.551  31.372  1.00  0.00    +0.000 C 
ATOM     93  C65 UNL A   1      39.900  30.958  30.716  1.00  0.00    +0.000 C 
ATOM    125  H30 UNL A   1      45.722  31.131  33.521  1.00  0.00    +0.000 H 
ATOM    126  H31 UNL A   1      47.328  29.145  32.993  1.00  0.00    +0.000 H 
ATOM    127  H32 UNL A   1      43.800  28.556  30.906  1.00  0.00    +0.000 H 
ATOM    128  H33 UNL A   1      40.171  24.907  27.130  1.00  0.00    +0.000 H 
ENDROOT
BRANCH   37   36
ATOM     33  C24 UNL A   1      35.799  30.064  28.177  1.00  0.00    +0.000 C 
ATOM     34  C25 UNL A   1      36.854  30.147  27.262  1.00  0.00    +0.000 C 
ATOM     35  C26 UNL A   1      38.133  29.723  27.632  1.00  0.00    +0.000 C 
ATOM     36  C27 UNL A   1      38.372  29.242  28.929  1.00  0.00    +0.000 C 
ATOM    135  H40 UNL A   1      37.470  28.799  30.790  1.00  0.00    +0.000 H 
ATOM    136  H41 UNL A   1      35.222  29.371  30.086  1.00  0.00    +0.000 H 
ATOM    123  H28 UNL A   1      36.688  30.522  26.315  1.00  0.00    +0.000 H 
ATOM    124  H29 UNL A   1      38.905  29.764  26.949  1.00  0.00    +0.000 H 
ATOM     94  C66 UNL A   1      37.303  29.144  29.831  1.00  0.00    +0.000 C 
ATOM     95  C67 UNL A   1      36.016  29.509  29.442  1.00  0.00    +0.000 C 
BRANCH   33   31
ATOM     31  C23 UNL A   1      34.451  30.514  27.758  1.00  0.00    +0.000 C 
ATOM     32  O3  UNL A   1      34.075  31.644  28.035  1.00  0.00    +0.000 O 
BRANCH   31   30
ATOM    122  H27 UNL A   1      34.087  29.013  26.479  1.00  0.00    +0.000 H 
ATOM     30  N4  UNL A   1      33.628  29.670  27.050  1.00  0.00    +0.000 N 
BRANCH   30   29
ATOM    121  H26 UNL A   1      31.855  29.746  26.014  1.00  0.00    +0.000 H 
ATOM     29  C22 UNL A   1      32.175  29.615  27.026  1.00  0.00    +0.000 C 
ATOM    120  H25 UNL A   1      31.789  30.388  27.656  1.00  0.00    +0.000 H 
BRANCH   29   28
ATOM     28  C21 UNL A   1      31.648  28.268  27.518  1.00  0.00    +0.000 C 
ATOM    118  H23 UNL A   1      32.190  28.002  28.402  1.00  0.00    +0.000 H 
ATOM    119  H24 UNL A   1      30.600  28.400  27.686  1.00  0.00    +0.000 H 
BRANCH   28   27
ATOM     27  C20 UNL A   1      31.778  27.115  26.514  1.00  0.00    +0.000 C 
ATOM    116  H21 UNL A   1      32.200  27.509  25.613  1.00  0.00    +0.000 H 
ATOM    117  H22 UNL A   1      32.388  26.378  26.991  1.00  0.00    +0.000 H 
BRANCH   27   26
ATOM     26  C19 UNL A   1      30.469  26.405  26.149  1.00  0.00    +0.000 C 
ATOM    115  H20 UNL A   1      29.696  26.879  26.717  1.00  0.00    +0.000 H 
ATOM    114  H19 UNL A   1      30.577  25.365  26.380  1.00  0.00    +0.000 H 
BRANCH   26   25
ATOM     25  C18 UNL A   1      30.070  26.530  24.676  1.00  0.00    +0.000 C 
ATOM    113  H18 UNL A   1      29.010  26.391  24.632  1.00  0.00    +0.000 H 
ATOM    112  H17 UNL A   1      30.609  25.793  24.119  1.00  0.00    +0.000 H 
BRANCH   25   24
ATOM    110  H15 UNL A   1      29.439  28.384  23.801  1.00  0.00    +0.000 H 
ATOM    111  H16 UNL A   1      30.890  28.507  24.774  1.00  0.00    +0.000 H 
ATOM     24  C17 UNL A   1      30.363  27.909  24.060  1.00  0.00    +0.000 C 
BRANCH   24   23
ATOM    109  H14 UNL A   1      30.702  27.805  22.009  1.00  0.00    +0.000 H 
ATOM     23  N3  UNL A   1      31.177  27.762  22.871  1.00  0.00    +0.000 N 
BRANCH   23   21
ATOM     21  C16 UNL A   1      32.540  27.569  22.808  1.00  0.00    +0.000 C 
ATOM     22  O2  UNL A   1      33.258  28.507  22.464  1.00  0.00    +0.000 O 
BRANCH   21    2
ATOM      2  C2  UNL A   1      33.197  26.205  22.941  1.00  0.00    +0.000 C 
BRANCH    2    1
ATOM      1  C1  UNL A   1      34.116  26.089  24.134  1.00  0.00    +0.000 C 
ATOM     98  H3  UNL A   1      34.961  26.731  23.996  1.00  0.00    +0.000 H 
ATOM     97  H2  UNL A   1      33.588  26.379  25.019  1.00  0.00    +0.000 H 
ATOM     96  H1  UNL A   1      34.449  25.077  24.231  1.00  0.00    +0.000 H 
ENDBRANCH    2    1
BRANCH    2    3
ATOM      3  N1  UNL A   1      33.018  25.135  22.220  1.00  0.00    +0.000 N 
BRANCH    3    4
ATOM      4  O1  UNL A   1      31.955  24.347  22.644  1.00  0.00    +0.000 O 
BRANCH    4    5
ATOM     99  H4  UNL A   1      33.447  22.991  22.931  1.00  0.00    +0.000 H 
ATOM    100  H5  UNL A   1      31.773  22.353  22.758  1.00  0.00    +0.000 H 
ATOM      5  C3  UNL A   1      32.412  23.096  23.185  1.00  0.00    +0.000 C 
BRANCH    5    6
ATOM    101  H6  UNL A   1      30.170  22.969  24.717  1.00  0.00    +0.000 H 
ATOM      6  C4  UNL A   1      32.286  22.922  24.690  1.00  0.00    +0.000 C 
ATOM      7  C5  UNL A   1      31.020  22.936  25.300  1.00  0.00    +0.000 C 
ATOM      8  C6  UNL A   1      30.907  22.907  26.690  1.00  0.00    +0.000 C 
ATOM    102  H7  UNL A   1      29.975  22.894  27.133  1.00  0.00    +0.000 H 
ATOM     10  C8  UNL A   1      33.316  22.858  26.880  1.00  0.00    +0.000 C 
ATOM     11  C9  UNL A   1      33.446  22.795  25.489  1.00  0.00    +0.000 C 
ATOM    104  H9  UNL A   1      34.162  22.879  27.472  1.00  0.00    +0.000 H 
ATOM      9  C7  UNL A   1      32.055  22.895  27.479  1.00  0.00    +0.000 C 
ATOM    103  H8  UNL A   1      31.972  22.914  28.507  1.00  0.00    +0.000 H 
BRANCH   11   12
ATOM    105  H10 UNL A   1      34.901  23.437  24.204  1.00  0.00    +0.000 H 
ATOM     12  N2  UNL A   1      34.702  22.709  24.836  1.00  0.00    +0.000 N 
BRANCH   12   13
ATOM    106  H11 UNL A   1      39.066  21.544  25.325  1.00  0.00    +0.000 H 
ATOM    107  H12 UNL A   1      38.604  19.171  25.111  1.00  0.00    +0.000 H 
ATOM    108  H13 UNL A   1      36.330  18.415  24.745  1.00  0.00    +0.000 H 
ATOM     13  C10 UNL A   1      35.710  21.722  24.967  1.00  0.00    +0.000 C 
ATOM     14  C11 UNL A   1      37.048  22.139  25.134  1.00  0.00    +0.000 C 
ATOM     15 Cl1  UNL A   1      37.456  23.819  25.267  1.00  0.00    +0.000 Cl
ATOM     16  C12 UNL A   1      38.096  21.216  25.188  1.00  0.00    +0.000 C 
ATOM     17  C13 UNL A   1      37.834  19.856  25.056  1.00  0.00    +0.000 C 
ATOM     18  C14 UNL A   1      36.526  19.424  24.851  1.00  0.00    +0.000 C 
ATOM     19  C15 UNL A   1      35.474  20.346  24.787  1.00  0.00    +0.000 C 
ATOM     20 Cl2  UNL A   1      33.902  19.719  24.428  1.00  0.00    +0.000 Cl
ENDBRANCH   12   13
ENDBRANCH   11   12
ENDBRANCH    5    6
ENDBRANCH    4    5
ENDBRANCH    3    4
ENDBRANCH    2    3
ENDBRANCH   21    2
ENDBRANCH   23   21
ENDBRANCH   24   23
ENDBRANCH   25   24
ENDBRANCH   26   25
ENDBRANCH   27   26
ENDBRANCH   28   27
ENDBRANCH   29   28
ENDBRANCH   30   29
ENDBRANCH   31   30
ENDBRANCH   33   31
ENDBRANCH   37   36
BRANCH   41   42
ATOM     42  C32 UNL A   1      43.229  32.314  32.844  1.00  0.00    +0.000 C 
ATOM     43  C33 UNL A   1      42.792  32.417  34.173  1.00  0.00    +0.000 C 
ATOM     44  F1  UNL A   1      42.284  31.346  34.802  1.00  0.00    +0.000 F 
ATOM     45  C34 UNL A   1      42.839  33.633  34.851  1.00  0.00    +0.000 C 
ATOM     46  F2  UNL A   1      42.372  33.717  36.104  1.00  0.00    +0.000 F 
ATOM     47  C35 UNL A   1      43.355  34.758  34.227  1.00  0.00    +0.000 C 
ATOM     48  F3  UNL A   1      43.406  35.926  34.883  1.00  0.00    +0.000 F 
ATOM     49  C36 UNL A   1      43.813  34.674  32.921  1.00  0.00    +0.000 C 
ATOM     50  F4  UNL A   1      44.323  35.759  32.321  1.00  0.00    +0.000 F 
ATOM     51  C37 UNL A   1      43.741  33.467  32.231  1.00  0.00    +0.000 C 
ATOM     52  F5  UNL A   1      44.179  33.422  30.963  1.00  0.00    +0.000 F 
ENDBRANCH   41   42
BRANCH   58   59
ATOM     65  F8  UNL A   1      51.345  25.345  32.690  1.00  0.00    +0.000 F 
ATOM     66  C47 UNL A   1      49.955  26.589  31.240  1.00  0.00    +0.000 C 
ATOM     67  F9  UNL A   1      51.017  26.940  30.502  1.00  0.00    +0.000 F 
ATOM     68  C48 UNL A   1      48.687  27.048  30.896  1.00  0.00    +0.000 C 
ATOM     69  F10 UNL A   1      48.559  27.848  29.827  1.00  0.00    +0.000 F 
ATOM     59  C43 UNL A   1      47.559  26.676  31.642  1.00  0.00    +0.000 C 
ATOM     60  C44 UNL A   1      47.747  25.834  32.747  1.00  0.00    +0.000 C 
ATOM     61  F6  UNL A   1      46.700  25.464  33.500  1.00  0.00    +0.000 F 
ATOM     62  C45 UNL A   1      49.020  25.398  33.104  1.00  0.00    +0.000 C 
ATOM     63  F7  UNL A   1      49.183  24.629  34.190  1.00  0.00    +0.000 F 
ATOM     64  C46 UNL A   1      50.122  25.770  32.348  1.00  0.00    +0.000 C 
ENDBRANCH   58   59
BRANCH   73   74
ATOM     74  C52 UNL A   1      42.678  23.877  27.538  1.00  0.00    +0.000 C 
ATOM     75  C53 UNL A   1      42.230  22.674  28.100  1.00  0.00    +0.000 C 
ATOM     76  F11 UNL A   1      41.876  22.632  29.393  1.00  0.00    +0.000 F 
ATOM     77  C54 UNL A   1      42.181  21.502  27.349  1.00  0.00    +0.000 C 
ATOM     78  F12 UNL A   1      41.788  20.357  27.923  1.00  0.00    +0.000 F 
ATOM     79  C55 UNL A   1      42.553  21.516  26.014  1.00  0.00    +0.000 C 
ATOM     80  F13 UNL A   1      42.500  20.390  25.290  1.00  0.00    +0.000 F 
ATOM     81  C56 UNL A   1      42.984  22.698  25.430  1.00  0.00    +0.000 C 
ATOM     82  F14 UNL A   1      43.330  22.719  24.136  1.00  0.00    +0.000 F 
ATOM     83  C57 UNL A   1      43.057  23.866  26.187  1.00  0.00    +0.000 C 
ATOM     84  F15 UNL A   1      43.487  24.993  25.601  1.00  0.00    +0.000 F 
ENDBRANCH   73   74
TORSDOF 22
ENDMDL
MODEL 2
REMARK VINA RESULT:     -10.2      1.266      1.979
ROOT
ATOM    129  H34 UNL A   1      38.823  26.848  27.600  1.00  0.00    +0.000 H 
ATOM    130  H35 UNL A   1      42.470  27.571  29.460  1.00  0.00    +0.000 H 
ATOM    131  H36 UNL A   1      45.442  23.707  28.229  1.00  0.00    +0.000 H 
ATOM    132  H37 UNL A   1      47.237  24.787  29.701  1.00  0.00    +0.000 H 
ATOM    133  H38 UNL A   1      41.203  32.624  31.462  1.00  0.00    +0.000 H 
ATOM    134  H39 UNL A   1      39.254  31.361  30.387  1.00  0.00    +0.000 H 
ATOM     37  C28 UNL A   1      40.007  28.874  29.217  1.00  0.00    +0.000 C 
ATOM     38  C29 UNL A   1      40.864  29.805  30.029  1.00  0.00    +0.000 C 
ATOM     39  N5  UNL A   1      42.121  29.682  30.376  1.00  0.00    +0.000 N 
ATOM     40  C30 UNL A   1      42.433  30.839  31.078  1.00  0.00    +0.000 C 
ATOM     41  C31 UNL A   1      43.596  31.169  31.690  1.00  0.00    +0.000 C 
ATOM     53  C38 UNL A   1      44.762  30.325  31.723  1.00  0.00    +0.000 C 
ATOM     54  C39 UNL A   1      45.966  30.541  32.370  1.00  0.00    +0.000 C 
ATOM     55  C40 UNL A   1      46.814  29.464  32.088  1.00  0.00    +0.000 C 
ATOM     56  C41 UNL A   1      46.123  28.557  31.301  1.00  0.00    +0.000 C 
ATOM     57  N6  UNL A   1      44.867  29.100  31.080  1.00  0.00    +0.000 N 
ATOM     58  C42 UNL A   1      46.573  27.289  30.787  1.00  0.00    +0.000 C 
ATOM     70  C49 UNL A   1      45.830  26.450  30.024  1.00  0.00    +0.000 C 
ATOM     71  N7  UNL A   1      44.522  26.598  29.584  1.00  0.00    +0.000 N 
ATOM     72  C50 UNL A   1      44.259  25.531  28.872  1.00  0.00    +0.000 C 
ATOM     73  C51 UNL A   1      42.982  25.147  28.174  1.00  0.00    +0.000 C 
ATOM     85  C58 UNL A   1      41.909  25.954  28.273  1.00  0.00    +0.000 C 
ATOM     86  C59 UNL A   1      40.607  25.711  27.659  1.00  0.00    +0.000 C 
ATOM     87  C60 UNL A   1      39.796  26.748  27.928  1.00  0.00    +0.000 C 
ATOM     88  C61 UNL A   1      40.513  27.713  28.763  1.00  0.00    +0.000 C 
ATOM     89  N8  UNL A   1      41.756  27.153  28.926  1.00  0.00    +0.000 N 
ATOM     90  C62 UNL A   1      45.384  24.593  28.757  1.00  0.00    +0.000 C 
ATOM     91  C63 UNL A   1      46.303  25.182  29.509  1.00  0.00    +0.000 C 
ATOM     92  C64 UNL A   1      41.250  31.671  31.069  1.00  0.00    +0.000 C 
ATOM     93  C65 UNL A   1      40.233  31.050  30.489  1.00  0.00    +0.000 C 
ATOM    125  H30 UNL A   1      46.199  31.355  32.959  1.00  0.00    +0.000 H 
ATOM    126  H31 UNL A   1      47.789  29.361  32.412  1.00  0.00    +0.000 H 
ATOM    127  H32 UNL A   1      44.155  28.679  30.546  1.00  0.00    +0.000 H 
ATOM    128  H33 UNL A   1      40.351  24.878  27.108  1.00  0.00    +0.000 H 
ENDROOT
BRANCH   37   36
ATOM     33  C24 UNL A   1      36.003  30.040  28.218  1.00  0.00    +0.000 C 
ATOM     34  C25 UNL A   1      37.020  30.178  27.268  1.00  0.00    +0.000 C 
ATOM     35  C26 UNL A   1      38.323  29.775  27.579  1.00  0.00    +0.000 C 
ATOM     36  C27 UNL A   1      38.621  29.263  28.852  1.00  0.00    +0.000 C 
ATOM    135  H40 UNL A   1      37.800  28.744  30.730  1.00  0.00    +0.000 H 
ATOM    136  H41 UNL A   1      35.514  29.277  30.125  1.00  0.00    +0.000 H 
ATOM    123  H28 UNL A   1      36.810  30.575  26.339  1.00  0.00    +0.000 H 
ATOM    124  H29 UNL A   1      39.067  29.857  26.870  1.00  0.00    +0.000 H 
ATOM     94  C66 UNL A   1      37.589  29.112  29.789  1.00  0.00    +0.000 C 
ATOM     95  C67 UNL A   1      36.280  29.455  29.457  1.00  0.00    +0.000 C 
BRANCH   33   31
ATOM     31  C23 UNL A   1      34.630  30.468  27.862  1.00  0.00    +0.000 C 
ATOM     32  O3  UNL A   1      34.201  31.538  28.271  1.00  0.00    +0.000 O 
BRANCH   31   30
ATOM    122  H27 UNL A   1      34.031  28.706  27.112  1.00  0.00    +0.000 H 
ATOM     30  N4  UNL A   1      33.841  29.671  27.065  1.00  0.00    +0.000 N 
BRANCH   30   29
ATOM    121  H26 UNL A   1      33.174  30.715  25.426  1.00  0.00    +0.000 H 
ATOM     29  C22 UNL A   1      32.767  30.055  26.163  1.00  0.00    +0.000 C 
ATOM    120  H25 UNL A   1      31.996  30.536  26.728  1.00  0.00    +0.000 H 
BRANCH   29   28
ATOM     28  C21 UNL A   1      32.171  28.849  25.440  1.00  0.00    +0.000 C 
ATOM    118  H23 UNL A   1      31.124  29.025  25.308  1.00  0.00    +0.000 H 
ATOM    119  H24 UNL A   1      32.706  28.758  24.518  1.00  0.00    +0.000 H 
BRANCH   28   27
ATOM     27  C20 UNL A   1      32.341  27.508  26.167  1.00  0.00    +0.000 C 
ATOM    116  H21 UNL A   1      32.885  26.851  25.522  1.00  0.00    +0.000 H 
ATOM    117  H22 UNL A   1      32.847  27.733  27.083  1.00  0.00    +0.000 H 
BRANCH   27   26
ATOM     26  C19 UNL A   1      31.039  26.804  26.569  1.00  0.00    +0.000 C 
ATOM    115  H20 UNL A   1      30.258  27.529  26.475  1.00  0.00    +0.000 H 
ATOM    114  H19 UNL A   1      31.151  26.440  27.569  1.00  0.00    +0.000 H 
BRANCH   26   25
ATOM     25  C18 UNL A   1      30.655  25.626  25.670  1.00  0.00    +0.000 C 
ATOM    113  H18 UNL A   1      29.913  25.064  26.199  1.00  0.00    +0.000 H 
ATOM    112  H17 UNL A   1      31.538  25.058  25.466  1.00  0.00    +0.000 H 
BRANCH   25   24
ATOM    110  H15 UNL A   1      28.962  25.922  24.385  1.00  0.00    +0.000 H 
ATOM    111  H16 UNL A   1      30.269  27.059  24.125  1.00  0.00    +0.000 H 
ATOM     24  C17 UNL A   1      30.025  26.037  24.327  1.00  0.00    +0.000 C 
BRANCH   24   23
ATOM    109  H14 UNL A   1      30.058  24.364  23.090  1.00  0.00    +0.000 H 
ATOM     23  N3  UNL A   1      30.540  25.205  23.259  1.00  0.00    +0.000 N 
BRANCH   23   21
ATOM     21  C16 UNL A   1      31.628  25.459  22.451  1.00  0.00    +0.000 C 
ATOM     22  O2  UNL A   1      31.472  26.141  21.440  1.00  0.00    +0.000 O 
BRANCH   21    2
ATOM      2  C2  UNL A   1      32.975  24.775  22.625  1.00  0.00    +0.000 C 
BRANCH    2    1
ATOM      1  C1  UNL A   1      33.922  25.524  23.532  1.00  0.00    +0.000 C 
ATOM     98  H3  UNL A   1      34.482  24.825  24.116  1.00  0.00    +0.000 H 
ATOM     97  H2  UNL A   1      34.591  26.113  22.940  1.00  0.00    +0.000 H 
ATOM     96  H1  UNL A   1      33.362  26.164  24.182  1.00  0.00    +0.000 H 
ENDBRANCH    2    1
BRANCH    2    3
ATOM      3  N1  UNL A   1      33.375  23.625  22.163  1.00  0.00    +0.000 N 
BRANCH    3    4
ATOM      4  O1  UNL A   1      32.485  22.585  22.407  1.00  0.00    +0.000 O 
BRANCH    4    5
ATOM     99  H4  UNL A   1      31.785  22.348  24.304  1.00  0.00    +0.000 H 
ATOM    100  H5  UNL A   1      33.568  22.464  24.091  1.00  0.00    +0.000 H 
ATOM      5  C3  UNL A   1      32.644  22.060  23.736  1.00  0.00    +0.000 C 
BRANCH    5    6
ATOM    101  H6  UNL A   1      31.866  20.115  22.001  1.00  0.00    +0.000 H 
ATOM      6  C4  UNL A   1      32.792  20.551  23.855  1.00  0.00    +0.000 C 
ATOM      7  C5  UNL A   1      32.267  19.708  22.860  1.00  0.00    +0.000 C 
ATOM      8  C6  UNL A   1      32.285  18.323  23.028  1.00  0.00    +0.000 C 
ATOM    102  H7  UNL A   1      31.920  17.708  22.285  1.00  0.00    +0.000 H 
ATOM     10  C8  UNL A   1      33.340  18.603  25.184  1.00  0.00    +0.000 C 
ATOM     11  C9  UNL A   1      33.413  19.987  24.993  1.00  0.00    +0.000 C 
ATOM    104  H9  UNL A   1      33.691  18.190  26.063  1.00  0.00    +0.000 H 
ATOM      9  C7  UNL A   1      32.796  17.774  24.201  1.00  0.00    +0.000 C 
ATOM    103  H8  UNL A   1      32.773  16.752  24.343  1.00  0.00    +0.000 H 
BRANCH   11   12
ATOM    105  H10 UNL A   1      33.514  20.949  26.794  1.00  0.00    +0.000 H 
ATOM     12  N2  UNL A   1      33.998  20.865  25.940  1.00  0.00    +0.000 N 
BRANCH   12   13
ATOM    106  H11 UNL A   1      36.155  24.858  26.152  1.00  0.00    +0.000 H 
ATOM    107  H12 UNL A   1      38.253  23.927  25.364  1.00  0.00    +0.000 H 
ATOM    108  H13 UNL A   1      38.394  21.570  24.812  1.00  0.00    +0.000 H 
ATOM     13  C10 UNL A   1      35.180  21.638  25.831  1.00  0.00    +0.000 C 
ATOM     14  C11 UNL A   1      35.112  23.021  26.102  1.00  0.00    +0.000 C 
ATOM     15 Cl1  UNL A   1      33.640  23.760  26.643  1.00  0.00    +0.000 Cl
ATOM     16  C12 UNL A   1      36.225  23.851  25.934  1.00  0.00    +0.000 C 
ATOM     17  C13 UNL A   1      37.425  23.320  25.473  1.00  0.00    +0.000 C 
ATOM     18  C14 UNL A   1      37.506  21.965  25.163  1.00  0.00    +0.000 C 
ATOM     19  C15 UNL A   1      36.390  21.133  25.320  1.00  0.00    +0.000 C 
ATOM     20 Cl2  UNL A   1      36.561  19.488  24.810  1.00  0.00    +0.000 Cl
ENDBRANCH   12   13
ENDBRANCH   11   12
ENDBRANCH    5    6
ENDBRANCH    4    5
ENDBRANCH    3    4
ENDBRANCH    2    3
ENDBRANCH   21    2
ENDBRANCH   23   21
ENDBRANCH   24   23
ENDBRANCH   25   24
ENDBRANCH   26   25
ENDBRANCH   27   26
ENDBRANCH   28   27
ENDBRANCH   29   28
ENDBRANCH   30   29
ENDBRANCH   31   30
ENDBRANCH   33   31
ENDBRANCH   37   36
BRANCH   41   42
ATOM     42  C32 UNL A   1      43.664  32.500  32.380  1.00  0.00    +0.000 C 
ATOM     43  C33 UNL A   1      44.068  33.659  31.700  1.00  0.00    +0.000 C 
ATOM     44  F1  UNL A   1      44.450  33.589  30.415  1.00  0.00    +0.000 F 
ATOM     45  C34 UNL A   1      44.119  34.890  32.349  1.00  0.00    +0.000 C 
ATOM     46  F2  UNL A   1      44.553  35.974  31.692  1.00  0.00    +0.000 F 
ATOM     47  C35 UNL A   1      43.735  34.992  33.678  1.00  0.00    +0.000 C 
ATOM     48  F3  UNL A   1      43.779  36.179  34.299  1.00  0.00    +0.000 F 
ATOM     49  C36 UNL A   1      43.312  33.864  34.363  1.00  0.00    +0.000 C 
ATOM     50  F4  UNL A   1      42.928  33.964  35.643  1.00  0.00    +0.000 F 
ATOM     51  C37 UNL A   1      43.286  32.626  33.725  1.00  0.00    +0.000 C 
ATOM     52  F5  UNL A   1      42.885  31.551  34.420  1.00  0.00    +0.000 F 
ENDBRANCH   41   42
BRANCH   58   59
ATOM     65  F8  UNL A   1      51.814  25.580  32.016  1.00  0.00    +0.000 F 
ATOM     66  C47 UNL A   1      50.344  26.815  30.641  1.00  0.00    +0.000 C 
ATOM     67  F9  UNL A   1      51.369  27.199  29.867  1.00  0.00    +0.000 F 
ATOM     68  C48 UNL A   1      49.054  27.253  30.354  1.00  0.00    +0.000 C 
ATOM     69  F10 UNL A   1      48.867  28.065  29.302  1.00  0.00    +0.000 F 
ATOM     59  C43 UNL A   1      47.963  26.847  31.137  1.00  0.00    +0.000 C 
ATOM     60  C44 UNL A   1      48.212  25.993  32.221  1.00  0.00    +0.000 C 
ATOM     61  F6  UNL A   1      47.203  25.591  33.009  1.00  0.00    +0.000 F 
ATOM     62  C45 UNL A   1      49.507  25.579  32.522  1.00  0.00    +0.000 C 
ATOM     63  F7  UNL A   1      49.727  24.798  33.589  1.00  0.00    +0.000 F 
ATOM     64  C46 UNL A   1      50.570  25.984  31.729  1.00  0.00    +0.000 C 
ENDBRANCH   58   59
BRANCH   73   74
ATOM     74  C52 UNL A   1      42.884  23.877  27.412  1.00  0.00    +0.000 C 
ATOM     75  C53 UNL A   1      42.427  22.704  28.027  1.00  0.00    +0.000 C 
ATOM     76  F11 UNL A   1      42.094  22.716  29.326  1.00  0.00    +0.000 F 
ATOM     77  C54 UNL A   1      42.344  21.506  27.321  1.00  0.00    +0.000 C 
ATOM     78  F12 UNL A   1      41.942  20.390  27.945  1.00  0.00    +0.000 F 
ATOM     79  C55 UNL A   1      42.692  21.463  25.980  1.00  0.00    +0.000 C 
ATOM     80  F13 UNL A   1      42.608  20.312  25.300  1.00  0.00    +0.000 F 
ATOM     81  C56 UNL A   1      43.132  22.615  25.345  1.00  0.00    +0.000 C 
ATOM     82  F14 UNL A   1      43.456  22.581  24.045  1.00  0.00    +0.000 F 
ATOM     83  C57 UNL A   1      43.239  23.808  26.056  1.00  0.00    +0.000 C 
ATOM     84  F15 UNL A   1      43.677  24.905  25.421  1.00  0.00    +0.000 F 
ENDBRANCH   73   74
TORSDOF 22
ENDMDL
MODEL 3
REMARK VINA RESULT:      -9.4      0.840      2.098
ROOT
ATOM    129  H34 UNL A   1      38.975  26.863  27.677  1.00  0.00    +0.000 H 
ATOM    130  H35 UNL A   1      42.652  27.529  29.499  1.00  0.00    +0.000 H 
ATOM    131  H36 UNL A   1      45.552  23.623  28.233  1.00  0.00    +0.000 H 
ATOM    132  H37 UNL A   1      47.379  24.674  29.687  1.00  0.00    +0.000 H 
ATOM    133  H38 UNL A   1      41.483  32.599  31.520  1.00  0.00    +0.000 H 
ATOM    134  H39 UNL A   1      39.503  31.366  30.465  1.00  0.00    +0.000 H 
ATOM     37  C28 UNL A   1      40.206  28.869  29.284  1.00  0.00    +0.000 C 
ATOM     38  C29 UNL A   1      41.086  29.786  30.088  1.00  0.00    +0.000 C 
ATOM     39  N5  UNL A   1      42.344  29.645  30.422  1.00  0.00    +0.000 N 
ATOM     40  C30 UNL A   1      42.681  30.796  31.121  1.00  0.00    +0.000 C 
ATOM     41  C31 UNL A   1      43.856  31.107  31.721  1.00  0.00    +0.000 C 
ATOM     53  C38 UNL A   1      45.009  30.246  31.740  1.00  0.00    +0.000 C 
ATOM     54  C39 UNL A   1      46.223  30.443  32.375  1.00  0.00    +0.000 C 
ATOM     55  C40 UNL A   1      47.052  29.354  32.083  1.00  0.00    +0.000 C 
ATOM     56  C41 UNL A   1      46.339  28.458  31.302  1.00  0.00    +0.000 C 
ATOM     57  N6  UNL A   1      45.089  29.021  31.095  1.00  0.00    +0.000 N 
ATOM     58  C42 UNL A   1      46.764  27.185  30.782  1.00  0.00    +0.000 C 
ATOM     70  C49 UNL A   1      46.001  26.358  30.026  1.00  0.00    +0.000 C 
ATOM     71  N7  UNL A   1      44.691  26.526  29.601  1.00  0.00    +0.000 N 
ATOM     72  C50 UNL A   1      44.403  25.463  28.890  1.00  0.00    +0.000 C 
ATOM     73  C51 UNL A   1      43.114  25.099  28.206  1.00  0.00    +0.000 C 
ATOM     85  C58 UNL A   1      42.054  25.923  28.317  1.00  0.00    +0.000 C 
ATOM     86  C59 UNL A   1      40.742  25.700  27.717  1.00  0.00    +0.000 C 
ATOM     87  C60 UNL A   1      39.950  26.748  27.995  1.00  0.00    +0.000 C 
ATOM     88  C61 UNL A   1      40.690  27.701  28.823  1.00  0.00    +0.000 C 
ATOM     89  N8  UNL A   1      41.926  27.123  28.972  1.00  0.00    +0.000 N 
ATOM     90  C62 UNL A   1      45.513  24.509  28.762  1.00  0.00    +0.000 C 
ATOM     91  C63 UNL A   1      46.449  25.083  29.505  1.00  0.00    +0.000 C 
ATOM     92  C64 UNL A   1      41.511  31.646  31.125  1.00  0.00    +0.000 C 
ATOM     93  C65 UNL A   1      40.478  31.041  30.556  1.00  0.00    +0.000 C 
ATOM    125  H30 UNL A   1      46.475  31.253  32.962  1.00  0.00    +0.000 H 
ATOM    126  H31 UNL A   1      48.028  29.236  32.396  1.00  0.00    +0.000 H 
ATOM    127  H32 UNL A   1      44.365  28.610  30.568  1.00  0.00    +0.000 H 
ATOM    128  H33 UNL A   1      40.468  24.872  27.167  1.00  0.00    +0.000 H 
ENDROOT
BRANCH   37   36
ATOM     33  C24 UNL A   1      36.210  30.098  28.328  1.00  0.00    +0.000 C 
ATOM     34  C25 UNL A   1      37.214  30.194  27.358  1.00  0.00    +0.000 C 
ATOM     35  C26 UNL A   1      38.513  29.771  27.655  1.00  0.00    +0.000 C 
ATOM     36  C27 UNL A   1      38.823  29.280  28.934  1.00  0.00    +0.000 C 
ATOM    135  H40 UNL A   1      38.024  28.818  30.837  1.00  0.00    +0.000 H 
ATOM    136  H41 UNL A   1      35.739  29.386  30.260  1.00  0.00    +0.000 H 
ATOM    123  H28 UNL A   1      36.996  30.575  26.425  1.00  0.00    +0.000 H 
ATOM    124  H29 UNL A   1      39.246  29.821  26.932  1.00  0.00    +0.000 H 
ATOM     94  C66 UNL A   1      37.804  29.170  29.891  1.00  0.00    +0.000 C 
ATOM     95  C67 UNL A   1      36.497  29.533  29.575  1.00  0.00    +0.000 C 
BRANCH   33   31
ATOM     31  C23 UNL A   1      34.840  30.546  27.986  1.00  0.00    +0.000 C 
ATOM     32  O3  UNL A   1      34.296  31.407  28.664  1.00  0.00    +0.000 O 
BRANCH   31   30
ATOM    122  H27 UNL A   1      34.701  29.352  26.381  1.00  0.00    +0.000 H 
ATOM     30  N4  UNL A   1      34.185  30.007  26.904  1.00  0.00    +0.000 N 
BRANCH   30   29
ATOM    121  H26 UNL A   1      32.838  30.170  25.361  1.00  0.00    +0.000 H 
ATOM     29  C22 UNL A   1      32.837  30.269  26.426  1.00  0.00    +0.000 C 
ATOM    120  H25 UNL A   1      32.550  31.256  26.722  1.00  0.00    +0.000 H 
BRANCH   29   28
ATOM     28  C21 UNL A   1      31.827  29.271  26.992  1.00  0.00    +0.000 C 
ATOM    118  H23 UNL A   1      31.696  29.485  28.032  1.00  0.00    +0.000 H 
ATOM    119  H24 UNL A   1      30.933  29.392  26.416  1.00  0.00    +0.000 H 
BRANCH   28   27
ATOM     27  C20 UNL A   1      32.228  27.796  26.856  1.00  0.00    +0.000 C 
ATOM    116  H21 UNL A   1      32.545  27.633  25.848  1.00  0.00    +0.000 H 
ATOM    117  H22 UNL A   1      32.994  27.632  27.584  1.00  0.00    +0.000 H 
BRANCH   27   26
ATOM     26  C19 UNL A   1      31.124  26.779  27.173  1.00  0.00    +0.000 C 
ATOM    115  H20 UNL A   1      30.265  27.344  27.468  1.00  0.00    +0.000 H 
ATOM    114  H19 UNL A   1      31.480  26.128  27.945  1.00  0.00    +0.000 H 
BRANCH   26   25
ATOM     25  C18 UNL A   1      30.696  25.920  25.981  1.00  0.00    +0.000 C 
ATOM    113  H18 UNL A   1      29.972  25.222  26.349  1.00  0.00    +0.000 H 
ATOM    112  H17 UNL A   1      31.566  25.442  25.581  1.00  0.00    +0.000 H 
BRANCH   25   24
ATOM    110  H15 UNL A   1      28.958  26.726  25.016  1.00  0.00    +0.000 H 
ATOM    111  H16 UNL A   1      30.399  27.706  24.837  1.00  0.00    +0.000 H 
ATOM     24  C17 UNL A   1      30.016  26.708  24.848  1.00  0.00    +0.000 C 
BRANCH   24   23
ATOM    109  H14 UNL A   1      29.773  25.266  23.366  1.00  0.00    +0.000 H 
ATOM     23  N3  UNL A   1      30.287  26.081  23.570  1.00  0.00    +0.000 N 
BRANCH   23   21
ATOM     21  C16 UNL A   1      31.183  26.495  22.608  1.00  0.00    +0.000 C 
ATOM     22  O2  UNL A   1      30.844  27.375  21.819  1.00  0.00    +0.000 O 
BRANCH   21    2
ATOM      2  C2  UNL A   1      32.498  25.784  22.331  1.00  0.00    +0.000 C 
BRANCH    2    1
ATOM      1  C1  UNL A   1      33.713  26.655  22.545  1.00  0.00    +0.000 C 
ATOM     98  H3  UNL A   1      33.422  27.684  22.521  1.00  0.00    +0.000 H 
ATOM     97  H2  UNL A   1      34.151  26.430  23.495  1.00  0.00    +0.000 H 
ATOM     96  H1  UNL A   1      34.427  26.469  21.770  1.00  0.00    +0.000 H 
ENDBRANCH    2    1
BRANCH    2    3
ATOM      3  N1  UNL A   1      32.706  24.539  22.013  1.00  0.00    +0.000 N 
BRANCH    3    4
ATOM      4  O1  UNL A   1      32.198  23.634  22.938  1.00  0.00    +0.000 O 
BRANCH    4    5
ATOM     99  H4  UNL A   1      34.177  23.317  23.303  1.00  0.00    +0.000 H 
ATOM    100  H5  UNL A   1      33.133  21.866  23.095  1.00  0.00    +0.000 H 
ATOM      5  C3  UNL A   1      33.245  22.840  23.522  1.00  0.00    +0.000 C 
BRANCH    5    6
ATOM    101  H6  UNL A   1      31.062  22.604  25.127  1.00  0.00    +0.000 H 
ATOM      6  C4  UNL A   1      33.177  22.630  25.026  1.00  0.00    +0.000 C 
ATOM      7  C5  UNL A   1      31.933  22.589  25.680  1.00  0.00    +0.000 C 
ATOM      8  C6  UNL A   1      31.870  22.528  27.072  1.00  0.00    +0.000 C 
ATOM    102  H7  UNL A   1      30.955  22.474  27.546  1.00  0.00    +0.000 H 
ATOM     10  C8  UNL A   1      34.284  22.556  27.179  1.00  0.00    +0.000 C 
ATOM     11  C9  UNL A   1      34.367  22.526  25.783  1.00  0.00    +0.000 C 
ATOM    104  H9  UNL A   1      35.148  22.593  27.741  1.00  0.00    +0.000 H 
ATOM      9  C7  UNL A   1      33.043  22.538  27.821  1.00  0.00    +0.000 C 
ATOM    103  H8  UNL A   1      32.996  22.533  28.852  1.00  0.00    +0.000 H 
BRANCH   11   12
ATOM    105  H10 UNL A   1      35.675  23.120  24.328  1.00  0.00    +0.000 H 
ATOM     12  N2  UNL A   1      35.602  22.496  25.086  1.00  0.00    +0.000 N 
BRANCH   12   13
ATOM    106  H11 UNL A   1      40.004  22.085  26.132  1.00  0.00    +0.000 H 
ATOM    107  H12 UNL A   1      40.004  19.681  25.802  1.00  0.00    +0.000 H 
ATOM    108  H13 UNL A   1      37.967  18.559  25.114  1.00  0.00    +0.000 H 
ATOM     13  C10 UNL A   1      36.744  21.695  25.328  1.00  0.00    +0.000 C 
ATOM     14  C11 UNL A   1      37.954  22.329  25.684  1.00  0.00    +0.000 C 
ATOM     15 Cl1  UNL A   1      38.035  24.046  25.911  1.00  0.00    +0.000 Cl
ATOM     16  C12 UNL A   1      39.134  21.600  25.857  1.00  0.00    +0.000 C 
ATOM     17  C13 UNL A   1      39.138  20.223  25.660  1.00  0.00    +0.000 C 
ATOM     18  C14 UNL A   1      37.965  19.580  25.270  1.00  0.00    +0.000 C 
ATOM     19  C15 UNL A   1      36.783  20.308  25.085  1.00  0.00    +0.000 C 
ATOM     20 Cl2  UNL A   1      35.408  19.435  24.503  1.00  0.00    +0.000 Cl
ENDBRANCH   12   13
ENDBRANCH   11   12
ENDBRANCH    5    6
ENDBRANCH    4    5
ENDBRANCH    3    4
ENDBRANCH    2    3
ENDBRANCH   21    2
ENDBRANCH   23   21
ENDBRANCH   24   23
ENDBRANCH   25   24
ENDBRANCH   26   25
ENDBRANCH   27   26
ENDBRANCH   28   27
ENDBRANCH   29   28
ENDBRANCH   30   29
ENDBRANCH   31   30
ENDBRANCH   33   31
ENDBRANCH   37   36
BRANCH   41   42
ATOM     42  C32 UNL A   1      43.951  32.437  32.412  1.00  0.00    +0.000 C 
ATOM     43  C33 UNL A   1      44.390  33.585  31.735  1.00  0.00    +0.000 C 
ATOM     44  F1  UNL A   1      44.781  33.505  30.454  1.00  0.00    +0.000 F 
ATOM     45  C34 UNL A   1      44.467  34.814  32.385  1.00  0.00    +0.000 C 
ATOM     46  F2  UNL A   1      44.934  35.887  31.732  1.00  0.00    +0.000 F 
ATOM     47  C35 UNL A   1      44.073  34.926  33.710  1.00  0.00    +0.000 C 
ATOM     48  F3  UNL A   1      44.141  36.112  34.331  1.00  0.00    +0.000 F 
ATOM     49  C36 UNL A   1      43.615  33.810  34.391  1.00  0.00    +0.000 C 
ATOM     50  F4  UNL A   1      43.223  33.920  35.668  1.00  0.00    +0.000 F 
ATOM     51  C37 UNL A   1      43.564  32.573  33.753  1.00  0.00    +0.000 C 
ATOM     52  F5  UNL A   1      43.130  31.508  34.444  1.00  0.00    +0.000 F 
ENDBRANCH   41   42
BRANCH   58   59
ATOM     65  F8  UNL A   1      51.981  25.488  32.128  1.00  0.00    +0.000 F 
ATOM     66  C47 UNL A   1      49.662  25.501  32.580  1.00  0.00    +0.000 C 
ATOM     67  F9  UNL A   1      49.855  24.735  33.663  1.00  0.00    +0.000 F 
ATOM     68  C48 UNL A   1      48.375  25.903  32.234  1.00  0.00    +0.000 C 
ATOM     69  F10 UNL A   1      47.347  25.500  32.995  1.00  0.00    +0.000 F 
ATOM     59  C43 UNL A   1      48.152  26.721  31.117  1.00  0.00    +0.000 C 
ATOM     60  C44 UNL A   1      49.261  27.118  30.357  1.00  0.00    +0.000 C 
ATOM     61  F6  UNL A   1      49.096  27.888  29.271  1.00  0.00    +0.000 F 
ATOM     62  C45 UNL A   1      50.544  26.693  30.692  1.00  0.00    +0.000 C 
ATOM     63  F7  UNL A   1      51.586  27.048  29.926  1.00  0.00    +0.000 F 
ATOM     64  C46 UNL A   1      50.745  25.891  31.805  1.00  0.00    +0.000 C 
ENDBRANCH   58   59
BRANCH   73   74
ATOM     74  C52 UNL A   1      42.989  23.832  27.443  1.00  0.00    +0.000 C 
ATOM     75  C53 UNL A   1      43.347  23.771  26.090  1.00  0.00    +0.000 C 
ATOM     76  F11 UNL A   1      43.787  24.873  25.464  1.00  0.00    +0.000 F 
ATOM     77  C54 UNL A   1      43.222  22.589  25.364  1.00  0.00    +0.000 C 
ATOM     78  F12 UNL A   1      43.533  22.569  24.061  1.00  0.00    +0.000 F 
ATOM     79  C55 UNL A   1      42.759  21.438  25.984  1.00  0.00    +0.000 C 
ATOM     80  F13 UNL A   1      42.643  20.300  25.287  1.00  0.00    +0.000 F 
ATOM     81  C56 UNL A   1      42.413  21.470  27.327  1.00  0.00    +0.000 C 
ATOM     82  F14 UNL A   1      41.980  20.356  27.933  1.00  0.00    +0.000 F 
ATOM     83  C57 UNL A   1      42.515  22.658  28.047  1.00  0.00    +0.000 C 
ATOM     84  F15 UNL A   1      42.165  22.664  29.342  1.00  0.00    +0.000 F 
ENDBRANCH   73   74
TORSDOF 22
ENDMDL
MODEL 4
REMARK VINA RESULT:      -9.4     19.388     23.743
ROOT
ATOM    129  H34 UNL A   1      26.810  33.768  44.488  1.00  0.00    +0.000 H 
ATOM    130  H35 UNL A   1      30.428  32.593  46.165  1.00  0.00    +0.000 H 
ATOM    131  H36 UNL A   1      33.998  35.041  43.609  1.00  0.00    +0.000 H 
ATOM    132  H37 UNL A   1      35.705  33.803  45.061  1.00  0.00    +0.000 H 
ATOM    133  H38 UNL A   1      28.277  29.544  50.316  1.00  0.00    +0.000 H 
ATOM    134  H39 UNL A   1      26.579  30.399  48.602  1.00  0.00    +0.000 H 
ATOM     37  C28 UNL A   1      27.712  32.105  46.619  1.00  0.00    +0.000 C 
ATOM     38  C29 UNL A   1      28.433  31.337  47.693  1.00  0.00    +0.000 C 
ATOM     39  N5  UNL A   1      29.716  31.278  47.949  1.00  0.00    +0.000 N 
ATOM     40  C30 UNL A   1      29.840  30.469  49.071  1.00  0.00    +0.000 C 
ATOM     41  C31 UNL A   1      30.970  30.059  49.696  1.00  0.00    +0.000 C 
ATOM     53  C38 UNL A   1      32.301  30.408  49.275  1.00  0.00    +0.000 C 
ATOM     54  C39 UNL A   1      33.511  29.992  49.804  1.00  0.00    +0.000 C 
ATOM     55  C40 UNL A   1      34.539  30.619  49.092  1.00  0.00    +0.000 C 
ATOM     56  C41 UNL A   1      33.971  31.393  48.092  1.00  0.00    +0.000 C 
ATOM     57  N6  UNL A   1      32.597  31.257  48.220  1.00  0.00    +0.000 N 
ATOM     58  C42 UNL A   1      34.630  32.195  47.095  1.00  0.00    +0.000 C 
ATOM     70  C49 UNL A   1      34.000  32.923  46.140  1.00  0.00    +0.000 C 
ATOM     71  N7  UNL A   1      32.640  33.056  45.900  1.00  0.00    +0.000 N 
ATOM     72  C50 UNL A   1      32.531  33.871  44.880  1.00  0.00    +0.000 C 
ATOM     73  C51 UNL A   1      31.291  34.349  44.174  1.00  0.00    +0.000 C 
ATOM     85  C58 UNL A   1      30.089  33.898  44.578  1.00  0.00    +0.000 C 
ATOM     86  C59 UNL A   1      28.805  34.267  43.989  1.00  0.00    +0.000 C 
ATOM     87  C60 UNL A   1      27.819  33.666  44.676  1.00  0.00    +0.000 C 
ATOM     88  C61 UNL A   1      28.407  32.843  45.734  1.00  0.00    +0.000 C 
ATOM     89  N8  UNL A   1      29.759  33.034  45.593  1.00  0.00    +0.000 N 
ATOM     90  C62 UNL A   1      33.816  34.370  44.372  1.00  0.00    +0.000 C 
ATOM     91  C63 UNL A   1      34.680  33.732  45.149  1.00  0.00    +0.000 C 
ATOM     92  C64 UNL A   1      28.501  30.095  49.472  1.00  0.00    +0.000 C 
ATOM     93  C65 UNL A   1      27.599  30.553  48.616  1.00  0.00    +0.000 C 
ATOM    125  H30 UNL A   1      33.634  29.333  50.589  1.00  0.00    +0.000 H 
ATOM    126  H31 UNL A   1      35.550  30.523  49.279  1.00  0.00    +0.000 H 
ATOM    127  H32 UNL A   1      31.931  31.700  47.645  1.00  0.00    +0.000 H 
ATOM    128  H33 UNL A   1      28.675  34.888  43.176  1.00  0.00    +0.000 H 
ENDROOT
BRANCH   37   36
ATOM     33  C24 UNL A   1      23.425  32.050  46.509  1.00  0.00    +0.000 C 
ATOM     34  C25 UNL A   1      24.085  33.022  47.267  1.00  0.00    +0.000 C 
ATOM     35  C26 UNL A   1      25.482  33.061  47.287  1.00  0.00    +0.000 C 
ATOM     36  C27 UNL A   1      26.228  32.109  46.574  1.00  0.00    +0.000 C 
ATOM    135  H40 UNL A   1      26.095  30.441  45.280  1.00  0.00    +0.000 H 
ATOM    136  H41 UNL A   1      23.677  30.488  45.109  1.00  0.00    +0.000 H 
ATOM    123  H28 UNL A   1      23.541  33.710  47.811  1.00  0.00    +0.000 H 
ATOM    124  H29 UNL A   1      25.967  33.793  47.828  1.00  0.00    +0.000 H 
ATOM     94  C66 UNL A   1      25.555  31.151  45.801  1.00  0.00    +0.000 C 
ATOM     95  C67 UNL A   1      24.163  31.151  45.732  1.00  0.00    +0.000 C 
BRANCH   33   31
ATOM     31  C23 UNL A   1      21.944  32.034  46.499  1.00  0.00    +0.000 C 
ATOM     32  O3  UNL A   1      21.324  32.752  47.270  1.00  0.00    +0.000 O 
BRANCH   31   30
ATOM    122  H27 UNL A   1      21.780  30.465  45.260  1.00  0.00    +0.000 H 
ATOM     30  N4  UNL A   1      21.266  31.223  45.620  1.00  0.00    +0.000 N 
BRANCH   30   29
ATOM    121  H26 UNL A   1      19.337  31.886  45.870  1.00  0.00    +0.000 H 
ATOM     29  C22 UNL A   1      19.894  31.330  45.147  1.00  0.00    +0.000 C 
ATOM    120  H25 UNL A   1      19.493  30.346  45.024  1.00  0.00    +0.000 H 
BRANCH   29   28
ATOM     28  C21 UNL A   1      19.807  32.069  43.813  1.00  0.00    +0.000 C 
ATOM    118  H23 UNL A   1      20.758  31.993  43.328  1.00  0.00    +0.000 H 
ATOM    119  H24 UNL A   1      19.012  31.606  43.265  1.00  0.00    +0.000 H 
BRANCH   28   27
ATOM     27  C20 UNL A   1      19.443  33.556  43.918  1.00  0.00    +0.000 C 
ATOM    116  H21 UNL A   1      20.336  34.098  44.147  1.00  0.00    +0.000 H 
ATOM    117  H22 UNL A   1      19.006  33.819  42.978  1.00  0.00    +0.000 H 
BRANCH   27   26
ATOM     26  C19 UNL A   1      18.394  33.907  44.981  1.00  0.00    +0.000 C 
ATOM    115  H20 UNL A   1      18.170  32.998  45.500  1.00  0.00    +0.000 H 
ATOM    114  H19 UNL A   1      17.542  34.324  44.485  1.00  0.00    +0.000 H 
BRANCH   26   25
ATOM     25  C18 UNL A   1      18.873  34.907  46.036  1.00  0.00    +0.000 C 
ATOM    113  H18 UNL A   1      19.777  35.341  45.661  1.00  0.00    +0.000 H 
ATOM    112  H17 UNL A   1      19.016  34.381  46.956  1.00  0.00    +0.000 H 
BRANCH   25   24
ATOM    110  H15 UNL A   1      18.350  36.987  45.976  1.00  0.00    +0.000 H 
ATOM    111  H16 UNL A   1      16.998  35.899  45.737  1.00  0.00    +0.000 H 
ATOM     24  C17 UNL A   1      17.897  36.069  46.291  1.00  0.00    +0.000 C 
BRANCH   24   23
ATOM    109  H14 UNL A   1      16.925  35.497  48.040  1.00  0.00    +0.000 H 
ATOM     23  N3  UNL A   1      17.577  36.152  47.702  1.00  0.00    +0.000 N 
BRANCH   23   21
ATOM     21  C16 UNL A   1      18.083  37.042  48.624  1.00  0.00    +0.000 C 
ATOM     22  O2  UNL A   1      17.322  37.537  49.453  1.00  0.00    +0.000 O 
BRANCH   21    2
ATOM      2  C2  UNL A   1      19.492  37.610  48.551  1.00  0.00    +0.000 C 
BRANCH    2    1
ATOM      1  C1  UNL A   1      19.555  39.102  48.778  1.00  0.00    +0.000 C 
ATOM     98  H3  UNL A   1      18.581  39.465  49.032  1.00  0.00    +0.000 H 
ATOM     97  H2  UNL A   1      20.235  39.312  49.578  1.00  0.00    +0.000 H 
ATOM     96  H1  UNL A   1      19.894  39.585  47.885  1.00  0.00    +0.000 H 
ENDBRANCH    2    1
BRANCH    2    3
ATOM      3  N1  UNL A   1      20.621  36.982  48.394  1.00  0.00    +0.000 N 
BRANCH    3    4
ATOM      4  O1  UNL A   1      21.405  37.491  47.365  1.00  0.00    +0.000 O 
BRANCH    4    5
ATOM     99  H4  UNL A   1      22.747  36.170  48.141  1.00  0.00    +0.000 H 
ATOM    100  H5  UNL A   1      23.382  37.758  47.579  1.00  0.00    +0.000 H 
ATOM      5  C3  UNL A   1      22.729  36.932  47.389  1.00  0.00    +0.000 C 
BRANCH    5    6
ATOM    101  H6  UNL A   1      21.313  35.732  45.402  1.00  0.00    +0.000 H 
ATOM      6  C4  UNL A   1      23.228  36.314  46.093  1.00  0.00    +0.000 C 
ATOM      7  C5  UNL A   1      22.327  35.689  45.215  1.00  0.00    +0.000 C 
ATOM      8  C6  UNL A   1      22.795  35.008  44.091  1.00  0.00    +0.000 C 
ATOM    102  H7  UNL A   1      22.128  34.570  43.436  1.00  0.00    +0.000 H 
ATOM     10  C8  UNL A   1      25.066  35.559  44.709  1.00  0.00    +0.000 C 
ATOM     11  C9  UNL A   1      24.609  36.322  45.789  1.00  0.00    +0.000 C 
ATOM    104  H9  UNL A   1      26.080  35.465  44.542  1.00  0.00    +0.000 H 
ATOM      9  C7  UNL A   1      24.165  34.921  43.853  1.00  0.00    +0.000 C 
ATOM    103  H8  UNL A   1      24.513  34.384  43.044  1.00  0.00    +0.000 H 
BRANCH   11   12
ATOM    105  H10 UNL A   1      25.175  37.921  46.930  1.00  0.00    +0.000 H 
ATOM     12  N2  UNL A   1      25.482  37.026  46.657  1.00  0.00    +0.000 N 
BRANCH   12   13
ATOM    106  H11 UNL A   1      27.992  35.359  50.057  1.00  0.00    +0.000 H 
ATOM    107  H12 UNL A   1      30.080  35.684  48.865  1.00  0.00    +0.000 H 
ATOM    108  H13 UNL A   1      30.060  36.655  46.643  1.00  0.00    +0.000 H 
ATOM     13  C10 UNL A   1      26.732  36.622  47.187  1.00  0.00    +0.000 C 
ATOM     14  C11 UNL A   1      26.775  36.097  48.496  1.00  0.00    +0.000 C 
ATOM     15 Cl1  UNL A   1      25.326  35.862  49.418  1.00  0.00    +0.000 Cl
ATOM     16  C12 UNL A   1      27.987  35.756  49.104  1.00  0.00    +0.000 C 
ATOM     17  C13 UNL A   1      29.185  35.949  48.425  1.00  0.00    +0.000 C 
ATOM     18  C14 UNL A   1      29.170  36.502  47.146  1.00  0.00    +0.000 C 
ATOM     19  C15 UNL A   1      27.959  36.855  46.538  1.00  0.00    +0.000 C 
ATOM     20 Cl2  UNL A   1      28.053  37.628  44.993  1.00  0.00    +0.000 Cl
ENDBRANCH   12   13
ENDBRANCH   11   12
ENDBRANCH    5    6
ENDBRANCH    4    5
ENDBRANCH    3    4
ENDBRANCH    2    3
ENDBRANCH   21    2
ENDBRANCH   23   21
ENDBRANCH   24   23
ENDBRANCH   25   24
ENDBRANCH   26   25
ENDBRANCH   27   26
ENDBRANCH   28   27
ENDBRANCH   29   28
ENDBRANCH   30   29
ENDBRANCH   31   30
ENDBRANCH   33   31
ENDBRANCH   37   36
BRANCH   41   42
ATOM     42  C32 UNL A   1      30.814  29.180  50.904  1.00  0.00    +0.000 C 
ATOM     43  C33 UNL A   1      30.713  27.786  50.788  1.00  0.00    +0.000 C 
ATOM     44  F1  UNL A   1      30.707  27.207  49.577  1.00  0.00    +0.000 F 
ATOM     45  C34 UNL A   1      30.577  26.981  51.917  1.00  0.00    +0.000 C 
ATOM     46  F2  UNL A   1      30.435  25.656  51.779  1.00  0.00    +0.000 F 
ATOM     47  C35 UNL A   1      30.576  27.551  53.181  1.00  0.00    +0.000 C 
ATOM     48  F3  UNL A   1      30.452  26.774  54.267  1.00  0.00    +0.000 F 
ATOM     49  C36 UNL A   1      30.697  28.925  53.320  1.00  0.00    +0.000 C 
ATOM     50  F4  UNL A   1      30.708  29.475  54.542  1.00  0.00    +0.000 F 
ATOM     51  C37 UNL A   1      30.804  29.735  52.192  1.00  0.00    +0.000 C 
ATOM     52  F5  UNL A   1      30.905  31.062  52.359  1.00  0.00    +0.000 F 
ENDBRANCH   41   42
BRANCH   58   59
ATOM     65  F8  UNL A   1      40.278  32.182  47.130  1.00  0.00    +0.000 F 
ATOM     66  C47 UNL A   1      38.243  31.247  46.379  1.00  0.00    +0.000 C 
ATOM     67  F9  UNL A   1      38.912  30.319  45.681  1.00  0.00    +0.000 F 
ATOM     68  C48 UNL A   1      36.851  31.267  46.355  1.00  0.00    +0.000 C 
ATOM     69  F10 UNL A   1      36.206  30.351  45.617  1.00  0.00    +0.000 F 
ATOM     59  C43 UNL A   1      36.130  32.216  47.094  1.00  0.00    +0.000 C 
ATOM     60  C44 UNL A   1      36.852  33.148  47.853  1.00  0.00    +0.000 C 
ATOM     61  F6  UNL A   1      36.207  34.085  48.564  1.00  0.00    +0.000 F 
ATOM     62  C45 UNL A   1      38.244  33.142  47.854  1.00  0.00    +0.000 C 
ATOM     63  F7  UNL A   1      38.915  34.070  48.551  1.00  0.00    +0.000 F 
ATOM     64  C46 UNL A   1      38.938  32.189  47.123  1.00  0.00    +0.000 C 
ENDBRANCH   58   59
BRANCH   73   74
ATOM     74  C52 UNL A   1      31.383  35.281  43.022  1.00  0.00    +0.000 C 
ATOM     75  C53 UNL A   1      31.262  36.665  43.207  1.00  0.00    +0.000 C 
ATOM     76  F11 UNL A   1      31.035  37.158  44.434  1.00  0.00    +0.000 F 
ATOM     77  C54 UNL A   1      31.335  37.545  42.130  1.00  0.00    +0.000 C 
ATOM     78  F12 UNL A   1      31.174  38.859  42.330  1.00  0.00    +0.000 F 
ATOM     79  C55 UNL A   1      31.557  37.059  40.850  1.00  0.00    +0.000 C 
ATOM     80  F13 UNL A   1      31.631  37.906  39.815  1.00  0.00    +0.000 F 
ATOM     81  C56 UNL A   1      31.697  35.695  40.644  1.00  0.00    +0.000 C 
ATOM     82  F14 UNL A   1      31.925  35.224  39.411  1.00  0.00    +0.000 F 
ATOM     83  C57 UNL A   1      31.599  34.812  41.718  1.00  0.00    +0.000 C 
ATOM     84  F15 UNL A   1      31.728  33.497  41.490  1.00  0.00    +0.000 F 
ENDBRANCH   73   74
TORSDOF 22
ENDMDL
MODEL 5
REMARK VINA RESULT:      -9.3     25.399     33.605
ROOT
ATOM    129  H34 UNL A   1      17.519  22.492   4.112  1.00  0.00    +0.000 H 
ATOM    130  H35 UNL A   1      16.760  19.497   6.893  1.00  0.00    +0.000 H 
ATOM    131  H36 UNL A   1      12.425  20.739   9.116  1.00  0.00    +0.000 H 
ATOM    132  H37 UNL A   1      12.727  18.657  10.575  1.00  0.00    +0.000 H 
ATOM    133  H38 UNL A   1      21.047  16.202   5.507  1.00  0.00    +0.000 H 
ATOM    134  H39 UNL A   1      21.019  18.490   4.360  1.00  0.00    +0.000 H 
ATOM     37  C28 UNL A   1      18.708  20.046   4.963  1.00  0.00    +0.000 C 
ATOM     38  C29 UNL A   1      19.104  18.720   5.553  1.00  0.00    +0.000 C 
ATOM     39  N5  UNL A   1      18.490  18.001   6.459  1.00  0.00    +0.000 N 
ATOM     40  C30 UNL A   1      19.253  16.850   6.607  1.00  0.00    +0.000 C 
ATOM     41  C31 UNL A   1      19.066  15.817   7.463  1.00  0.00    +0.000 C 
ATOM     53  C38 UNL A   1      17.991  15.740   8.418  1.00  0.00    +0.000 C 
ATOM     54  C39 UNL A   1      17.752  14.766   9.372  1.00  0.00    +0.000 C 
ATOM     55  C40 UNL A   1      16.571  15.095  10.047  1.00  0.00    +0.000 C 
ATOM     56  C41 UNL A   1      16.098  16.296   9.542  1.00  0.00    +0.000 C 
ATOM     57  N6  UNL A   1      16.977  16.678   8.540  1.00  0.00    +0.000 N 
ATOM     58  C42 UNL A   1      14.933  17.041   9.943  1.00  0.00    +0.000 C 
ATOM     70  C49 UNL A   1      14.538  18.219   9.402  1.00  0.00    +0.000 C 
ATOM     71  N7  UNL A   1      15.135  18.958   8.391  1.00  0.00    +0.000 N 
ATOM     72  C50 UNL A   1      14.374  20.010   8.216  1.00  0.00    +0.000 C 
ATOM     73  C51 UNL A   1      14.553  21.164   7.267  1.00  0.00    +0.000 C 
ATOM     85  C58 UNL A   1      15.639  21.200   6.471  1.00  0.00    +0.000 C 
ATOM     86  C59 UNL A   1      15.949  22.254   5.510  1.00  0.00    +0.000 C 
ATOM     87  C60 UNL A   1      17.081  21.934   4.860  1.00  0.00    +0.000 C 
ATOM     88  C61 UNL A   1      17.593  20.668   5.386  1.00  0.00    +0.000 C 
ATOM     89  N8  UNL A   1      16.678  20.312   6.346  1.00  0.00    +0.000 N 
ATOM     90  C62 UNL A   1      13.188  20.044   9.083  1.00  0.00    +0.000 C 
ATOM     91  C63 UNL A   1      13.357  18.950   9.813  1.00  0.00    +0.000 C 
ATOM     92  C64 UNL A   1      20.348  16.945   5.667  1.00  0.00    +0.000 C 
ATOM     93  C65 UNL A   1      20.338  18.110   5.037  1.00  0.00    +0.000 C 
ATOM    125  H30 UNL A   1      18.342  13.939   9.554  1.00  0.00    +0.000 H 
ATOM    126  H31 UNL A   1      16.127  14.538  10.794  1.00  0.00    +0.000 H 
ATOM    127  H32 UNL A   1      16.892  17.494   7.996  1.00  0.00    +0.000 H 
ATOM    128  H33 UNL A   1      15.390  23.106   5.353  1.00  0.00    +0.000 H 
ENDROOT
BRANCH   37   36
ATOM     33  C24 UNL A   1      21.073  21.738   1.811  1.00  0.00    +0.000 C 
ATOM     34  C25 UNL A   1      20.025  20.867   1.498  1.00  0.00    +0.000 C 
ATOM     35  C26 UNL A   1      19.234  20.332   2.518  1.00  0.00    +0.000 C 
ATOM     36  C27 UNL A   1      19.507  20.640   3.861  1.00  0.00    +0.000 C 
ATOM    135  H40 UNL A   1      20.761  21.757   5.147  1.00  0.00    +0.000 H 
ATOM    136  H41 UNL A   1      22.014  22.818   3.363  1.00  0.00    +0.000 H 
ATOM    123  H28 UNL A   1      19.836  20.619   0.514  1.00  0.00    +0.000 H 
ATOM    124  H29 UNL A   1      18.448  19.707   2.284  1.00  0.00    +0.000 H 
ATOM     94  C66 UNL A   1      20.548  21.530   4.162  1.00  0.00    +0.000 C 
ATOM     95  C67 UNL A   1      21.296  22.112   3.140  1.00  0.00    +0.000 C 
BRANCH   33   31
ATOM     31  C23 UNL A   1      21.892  22.297   0.710  1.00  0.00    +0.000 C 
ATOM     32  O3  UNL A   1      22.222  23.475   0.736  1.00  0.00    +0.000 O 
BRANCH   31   30
ATOM    122  H27 UNL A   1      22.873  20.740  -0.088  1.00  0.00    +0.000 H 
ATOM     30  N4  UNL A   1      22.290  21.495  -0.333  1.00  0.00    +0.000 N 
BRANCH   30   29
ATOM    121  H26 UNL A   1      21.741  22.630  -1.956  1.00  0.00    +0.000 H 
ATOM     29  C22 UNL A   1      21.971  21.606  -1.748  1.00  0.00    +0.000 C 
ATOM    120  H25 UNL A   1      21.137  20.972  -1.965  1.00  0.00    +0.000 H 
BRANCH   29   28
ATOM     28  C21 UNL A   1      23.147  21.196  -2.632  1.00  0.00    +0.000 C 
ATOM    118  H23 UNL A   1      22.947  21.534  -3.628  1.00  0.00    +0.000 H 
ATOM    119  H24 UNL A   1      24.017  21.642  -2.198  1.00  0.00    +0.000 H 
BRANCH   28   27
ATOM     27  C20 UNL A   1      23.422  19.687  -2.687  1.00  0.00    +0.000 C 
ATOM    116  H21 UNL A   1      22.607  19.187  -2.207  1.00  0.00    +0.000 H 
ATOM    117  H22 UNL A   1      23.527  19.446  -3.723  1.00  0.00    +0.000 H 
BRANCH   27   26
ATOM     26  C19 UNL A   1      24.720  19.226  -2.014  1.00  0.00    +0.000 C 
ATOM    115  H20 UNL A   1      25.350  20.089  -1.943  1.00  0.00    +0.000 H 
ATOM    114  H19 UNL A   1      25.148  18.447  -2.610  1.00  0.00    +0.000 H 
BRANCH   26   25
ATOM     25  C18 UNL A   1      24.540  18.696  -0.589  1.00  0.00    +0.000 C 
ATOM    113  H18 UNL A   1      24.458  17.632  -0.665  1.00  0.00    +0.000 H 
ATOM    112  H17 UNL A   1      23.667  19.151  -0.170  1.00  0.00    +0.000 H 
BRANCH   25   24
ATOM    110  H15 UNL A   1      26.466  18.217   0.224  1.00  0.00    +0.000 H 
ATOM    111  H16 UNL A   1      26.148  19.936   0.095  1.00  0.00    +0.000 H 
ATOM     24  C17 UNL A   1      25.728  18.984   0.345  1.00  0.00    +0.000 C 
BRANCH   24   23
ATOM    109  H14 UNL A   1      24.594  18.352   1.972  1.00  0.00    +0.000 H 
ATOM     23  N3  UNL A   1      25.285  19.009   1.724  1.00  0.00    +0.000 N 
BRANCH   23   21
ATOM     21  C16 UNL A   1      25.720  19.847   2.728  1.00  0.00    +0.000 C 
ATOM     22  O2  UNL A   1      26.917  19.867   3.008  1.00  0.00    +0.000 O 
BRANCH   21    2
ATOM      2  C2  UNL A   1      24.779  20.601   3.654  1.00  0.00    +0.000 C 
BRANCH    2    1
ATOM      1  C1  UNL A   1      24.852  22.101   3.500  1.00  0.00    +0.000 C 
ATOM     98  H3  UNL A   1      25.095  22.544   4.444  1.00  0.00    +0.000 H 
ATOM     97  H2  UNL A   1      25.608  22.350   2.784  1.00  0.00    +0.000 H 
ATOM     96  H1  UNL A   1      23.906  22.472   3.165  1.00  0.00    +0.000 H 
ENDBRANCH    2    1
BRANCH    2    3
ATOM      3  N1  UNL A   1      23.893  20.129   4.484  1.00  0.00    +0.000 N 
BRANCH    3    4
ATOM      4  O1  UNL A   1      24.320  20.114   5.807  1.00  0.00    +0.000 O 
BRANCH    4    5
ATOM     99  H4  UNL A   1      22.725  18.866   6.025  1.00  0.00    +0.000 H 
ATOM    100  H5  UNL A   1      23.404  19.608   7.518  1.00  0.00    +0.000 H 
ATOM      5  C3  UNL A   1      23.601  19.137   6.578  1.00  0.00    +0.000 C 
BRANCH    5    6
ATOM    101  H6  UNL A   1      24.432  17.144   4.926  1.00  0.00    +0.000 H 
ATOM      6  C4  UNL A   1      24.348  17.857   6.917  1.00  0.00    +0.000 C 
ATOM      7  C5  UNL A   1      24.640  16.921   5.911  1.00  0.00    +0.000 C 
ATOM      8  C6  UNL A   1      25.208  15.689   6.238  1.00  0.00    +0.000 C 
ATOM    102  H7  UNL A   1      25.441  15.014   5.493  1.00  0.00    +0.000 H 
ATOM     10  C8  UNL A   1      25.193  16.306   8.574  1.00  0.00    +0.000 C 
ATOM     11  C9  UNL A   1      24.708  17.580   8.257  1.00  0.00    +0.000 C 
ATOM    104  H9  UNL A   1      25.355  16.053   9.561  1.00  0.00    +0.000 H 
ATOM      9  C7  UNL A   1      25.459  15.372   7.570  1.00  0.00    +0.000 C 
ATOM    103  H8  UNL A   1      25.842  14.446   7.815  1.00  0.00    +0.000 H 
BRANCH   11   12
ATOM    105  H10 UNL A   1      23.856  19.300   8.961  1.00  0.00    +0.000 H 
ATOM     12  N2  UNL A   1      24.467  18.577   9.235  1.00  0.00    +0.000 N 
BRANCH   12   13
ATOM    106  H11 UNL A   1      23.878  18.474  13.738  1.00  0.00    +0.000 H 
ATOM    107  H12 UNL A   1      26.164  19.145  14.196  1.00  0.00    +0.000 H 
ATOM    108  H13 UNL A   1      27.683  19.581  12.357  1.00  0.00    +0.000 H 
ATOM     13  C10 UNL A   1      24.981  18.681  10.550  1.00  0.00    +0.000 C 
ATOM     14  C11 UNL A   1      24.105  18.477  11.638  1.00  0.00    +0.000 C 
ATOM     15 Cl1  UNL A   1      22.451  18.022  11.386  1.00  0.00    +0.000 Cl
ATOM     16  C12 UNL A   1      24.533  18.643  12.958  1.00  0.00    +0.000 C 
ATOM     17  C13 UNL A   1      25.841  19.036  13.222  1.00  0.00    +0.000 C 
ATOM     18  C14 UNL A   1      26.713  19.281  12.164  1.00  0.00    +0.000 C 
ATOM     19  C15 UNL A   1      26.285  19.125  10.839  1.00  0.00    +0.000 C 
ATOM     20 Cl2  UNL A   1      27.411  19.552   9.596  1.00  0.00    +0.000 Cl
ENDBRANCH   12   13
ENDBRANCH   11   12
ENDBRANCH    5    6
ENDBRANCH    4    5
ENDBRANCH    3    4
ENDBRANCH    2    3
ENDBRANCH   21    2
ENDBRANCH   23   21
ENDBRANCH   24   23
ENDBRANCH   25   24
ENDBRANCH   26   25
ENDBRANCH   27   26
ENDBRANCH   28   27
ENDBRANCH   29   28
ENDBRANCH   30   29
ENDBRANCH   31   30
ENDBRANCH   33   31
ENDBRANCH   37   36
BRANCH   41   42
ATOM     42  C32 UNL A   1      20.049  14.684   7.409  1.00  0.00    +0.000 C 
ATOM     43  C33 UNL A   1      19.906  13.632   6.491  1.00  0.00    +0.000 C 
ATOM     44  F1  UNL A   1      18.849  13.595   5.665  1.00  0.00    +0.000 F 
ATOM     45  C34 UNL A   1      20.830  12.591   6.445  1.00  0.00    +0.000 C 
ATOM     46  F2  UNL A   1      20.647  11.573   5.593  1.00  0.00    +0.000 F 
ATOM     47  C35 UNL A   1      21.931  12.599   7.289  1.00  0.00    +0.000 C 
ATOM     48  F3  UNL A   1      22.822  11.599   7.238  1.00  0.00    +0.000 F 
ATOM     49  C36 UNL A   1      22.103  13.640   8.188  1.00  0.00    +0.000 C 
ATOM     50  F4  UNL A   1      23.173  13.655   8.996  1.00  0.00    +0.000 F 
ATOM     51  C37 UNL A   1      21.166  14.668   8.257  1.00  0.00    +0.000 C 
ATOM     52  F5  UNL A   1      21.354  15.653   9.148  1.00  0.00    +0.000 F 
ENDBRANCH   41   42
BRANCH   58   59
ATOM     65  F8  UNL A   1      11.711  14.990  14.104  1.00  0.00    +0.000 F 
ATOM     66  C47 UNL A   1      12.262  15.079  11.809  1.00  0.00    +0.000 C 
ATOM     67  F9  UNL A   1      11.273  14.220  11.525  1.00  0.00    +0.000 F 
ATOM     68  C48 UNL A   1      13.071  15.570  10.788  1.00  0.00    +0.000 C 
ATOM     69  F10 UNL A   1      12.846  15.158   9.532  1.00  0.00    +0.000 F 
ATOM     59  C43 UNL A   1      14.099  16.485  11.060  1.00  0.00    +0.000 C 
ATOM     60  C44 UNL A   1      14.289  16.888  12.389  1.00  0.00    +0.000 C 
ATOM     61  F6  UNL A   1      15.270  17.749  12.700  1.00  0.00    +0.000 F 
ATOM     62  C45 UNL A   1      13.494  16.375  13.411  1.00  0.00    +0.000 C 
ATOM     63  F7  UNL A   1      13.722  16.739  14.681  1.00  0.00    +0.000 F 
ATOM     64  C46 UNL A   1      12.478  15.477  13.120  1.00  0.00    +0.000 C 
ENDBRANCH   58   59
BRANCH   73   74
ATOM     74  C52 UNL A   1      13.568  22.274   7.224  1.00  0.00    +0.000 C 
ATOM     75  C53 UNL A   1      13.700  23.384   8.069  1.00  0.00    +0.000 C 
ATOM     76  F11 UNL A   1      14.714  23.439   8.946  1.00  0.00    +0.000 F 
ATOM     77  C54 UNL A   1      12.773  24.423   8.044  1.00  0.00    +0.000 C 
ATOM     78  F12 UNL A   1      12.901  25.453   8.892  1.00  0.00    +0.000 F 
ATOM     79  C55 UNL A   1      11.710  24.385   7.155  1.00  0.00    +0.000 C 
ATOM     80  F13 UNL A   1      10.821  25.386   7.127  1.00  0.00    +0.000 F 
ATOM     81  C56 UNL A   1      11.567  23.304   6.297  1.00  0.00    +0.000 C 
ATOM     82  F14 UNL A   1      10.549  23.270   5.427  1.00  0.00    +0.000 F 
ATOM     83  C57 UNL A   1      12.480  22.253   6.339  1.00  0.00    +0.000 C 
ATOM     84  F15 UNL A   1      12.312  21.215   5.506  1.00  0.00    +0.000 F 
ENDBRANCH   73   74
TORSDOF 22
ENDMDL
MODEL 6
REMARK VINA RESULT:      -9.2      4.238      7.911
ROOT
ATOM    129  H34 UNL A   1      39.044  26.729  27.644  1.00  0.00    +0.000 H 
ATOM    130  H35 UNL A   1      42.754  27.518  29.344  1.00  0.00    +0.000 H 
ATOM    131  H36 UNL A   1      45.687  23.617  28.140  1.00  0.00    +0.000 H 
ATOM    132  H37 UNL A   1      47.532  24.747  29.507  1.00  0.00    +0.000 H 
ATOM    133  H38 UNL A   1      41.552  32.637  31.217  1.00  0.00    +0.000 H 
ATOM    134  H39 UNL A   1      39.567  31.336  30.257  1.00  0.00    +0.000 H 
ATOM     37  C28 UNL A   1      40.282  28.810  29.146  1.00  0.00    +0.000 C 
ATOM     38  C29 UNL A   1      41.166  29.769  29.895  1.00  0.00    +0.000 C 
ATOM     39  N5  UNL A   1      42.435  29.660  30.200  1.00  0.00    +0.000 N 
ATOM     40  C30 UNL A   1      42.770  30.840  30.849  1.00  0.00    +0.000 C 
ATOM     41  C31 UNL A   1      43.954  31.191  31.407  1.00  0.00    +0.000 C 
ATOM     53  C38 UNL A   1      45.122  30.350  31.426  1.00  0.00    +0.000 C 
ATOM     54  C39 UNL A   1      46.349  30.588  32.021  1.00  0.00    +0.000 C 
ATOM     55  C40 UNL A   1      47.187  29.503  31.746  1.00  0.00    +0.000 C 
ATOM     56  C41 UNL A   1      46.470  28.569  31.016  1.00  0.00    +0.000 C 
ATOM     57  N6  UNL A   1      45.206  29.104  30.823  1.00  0.00    +0.000 N 
ATOM     58  C42 UNL A   1      46.904  27.285  30.530  1.00  0.00    +0.000 C 
ATOM     70  C49 UNL A   1      46.135  26.419  29.824  1.00  0.00    +0.000 C 
ATOM     71  N7  UNL A   1      44.812  26.551  29.427  1.00  0.00    +0.000 N 
ATOM     72  C50 UNL A   1      44.524  25.460  28.762  1.00  0.00    +0.000 C 
ATOM     73  C51 UNL A   1      43.224  25.052  28.125  1.00  0.00    +0.000 C 
ATOM     85  C58 UNL A   1      42.154  25.861  28.235  1.00  0.00    +0.000 C 
ATOM     86  C59 UNL A   1      40.831  25.596  27.678  1.00  0.00    +0.000 C 
ATOM     87  C60 UNL A   1      40.028  26.641  27.940  1.00  0.00    +0.000 C 
ATOM     88  C61 UNL A   1      40.773  27.634  28.714  1.00  0.00    +0.000 C 
ATOM     89  N8  UNL A   1      42.022  27.081  28.851  1.00  0.00    +0.000 N 
ATOM     90  C62 UNL A   1      45.646  24.519  28.638  1.00  0.00    +0.000 C 
ATOM     91  C63 UNL A   1      46.591  25.134  29.336  1.00  0.00    +0.000 C 
ATOM     92  C64 UNL A   1      41.586  31.671  30.855  1.00  0.00    +0.000 C 
ATOM     93  C65 UNL A   1      40.549  31.030  30.334  1.00  0.00    +0.000 C 
ATOM    125  H30 UNL A   1      46.601  31.423  32.573  1.00  0.00    +0.000 H 
ATOM    126  H31 UNL A   1      48.174  29.412  32.038  1.00  0.00    +0.000 H 
ATOM    127  H32 UNL A   1      44.476  28.664  30.330  1.00  0.00    +0.000 H 
ATOM    128  H33 UNL A   1      40.556  24.745  27.165  1.00  0.00    +0.000 H 
ENDROOT
BRANCH   37   36
ATOM     33  C24 UNL A   1      36.240  29.934  28.258  1.00  0.00    +0.000 C 
ATOM     34  C25 UNL A   1      37.241  30.145  27.305  1.00  0.00    +0.000 C 
ATOM     35  C26 UNL A   1      38.556  29.757  27.578  1.00  0.00    +0.000 C 
ATOM     36  C27 UNL A   1      38.883  29.186  28.819  1.00  0.00    +0.000 C 
ATOM    135  H40 UNL A   1      38.099  28.550  30.677  1.00  0.00    +0.000 H 
ATOM    136  H41 UNL A   1      35.793  29.061  30.128  1.00  0.00    +0.000 H 
ATOM    123  H28 UNL A   1      37.010  30.585  26.401  1.00  0.00    +0.000 H 
ATOM    124  H29 UNL A   1      39.289  29.892  26.866  1.00  0.00    +0.000 H 
ATOM     94  C66 UNL A   1      37.867  28.962  29.759  1.00  0.00    +0.000 C 
ATOM     95  C67 UNL A   1      36.546  29.291  29.461  1.00  0.00    +0.000 C 
BRANCH   33   31
ATOM     31  C23 UNL A   1      34.853  30.348  27.941  1.00  0.00    +0.000 C 
ATOM     32  O3  UNL A   1      34.065  29.531  27.485  1.00  0.00    +0.000 O 
BRANCH   31   30
ATOM    122  H27 UNL A   1      34.075  32.111  27.386  1.00  0.00    +0.000 H 
ATOM     30  N4  UNL A   1      34.447  31.642  28.167  1.00  0.00    +0.000 N 
BRANCH   30   29
ATOM    121  H26 UNL A   1      34.598  31.730  30.214  1.00  0.00    +0.000 H 
ATOM     29  C22 UNL A   1      34.492  32.414  29.399  1.00  0.00    +0.000 C 
ATOM    120  H25 UNL A   1      33.588  32.980  29.485  1.00  0.00    +0.000 H 
BRANCH   29   28
ATOM     28  C21 UNL A   1      35.680  33.373  29.428  1.00  0.00    +0.000 C 
ATOM    118  H23 UNL A   1      35.915  33.642  28.419  1.00  0.00    +0.000 H 
ATOM    119  H24 UNL A   1      35.379  34.204  30.031  1.00  0.00    +0.000 H 
BRANCH   28   27
ATOM     27  C20 UNL A   1      36.951  32.811  30.079  1.00  0.00    +0.000 C 
ATOM    116  H21 UNL A   1      36.876  31.744  30.080  1.00  0.00    +0.000 H 
ATOM    117  H22 UNL A   1      37.768  33.186  29.500  1.00  0.00    +0.000 H 
BRANCH   27   26
ATOM     26  C19 UNL A   1      37.214  33.266  31.519  1.00  0.00    +0.000 C 
ATOM    115  H20 UNL A   1      36.828  34.261  31.600  1.00  0.00    +0.000 H 
ATOM    114  H19 UNL A   1      38.267  33.213  31.701  1.00  0.00    +0.000 H 
BRANCH   26   25
ATOM     25  C18 UNL A   1      36.501  32.431  32.586  1.00  0.00    +0.000 C 
ATOM    113  H18 UNL A   1      36.325  31.467  32.155  1.00  0.00    +0.000 H 
ATOM    112  H17 UNL A   1      35.597  32.935  32.858  1.00  0.00    +0.000 H 
BRANCH   25   24
ATOM    110  H15 UNL A   1      37.926  33.069  34.057  1.00  0.00    +0.000 H 
ATOM    111  H16 UNL A   1      36.663  32.029  34.684  1.00  0.00    +0.000 H 
ATOM     24  C17 UNL A   1      37.328  32.202  33.863  1.00  0.00    +0.000 C 
BRANCH   24   23
ATOM    109  H14 UNL A   1      37.775  30.245  33.316  1.00  0.00    +0.000 H 
ATOM     23  N3  UNL A   1      38.191  31.050  33.700  1.00  0.00    +0.000 N 
BRANCH   23   21
ATOM     21  C16 UNL A   1      39.528  30.955  34.019  1.00  0.00    +0.000 C 
ATOM     22  O2  UNL A   1      40.226  31.966  33.969  1.00  0.00    +0.000 O 
BRANCH   21    2
ATOM      2  C2  UNL A   1      40.243  29.630  34.233  1.00  0.00    +0.000 C 
BRANCH    2    1
ATOM      1  C1  UNL A   1      40.144  28.691  33.055  1.00  0.00    +0.000 C 
ATOM     98  H3  UNL A   1      41.030  28.095  33.000  1.00  0.00    +0.000 H 
ATOM     97  H2  UNL A   1      39.292  28.054  33.177  1.00  0.00    +0.000 H 
ATOM     96  H1  UNL A   1      40.039  29.259  32.154  1.00  0.00    +0.000 H 
ENDBRANCH    2    1
BRANCH    2    3
ATOM      3  N1  UNL A   1      40.967  29.244  35.244  1.00  0.00    +0.000 N 
BRANCH    3    4
ATOM      4  O1  UNL A   1      42.315  29.090  34.939  1.00  0.00    +0.000 O 
BRANCH    4    5
ATOM     99  H4  UNL A   1      42.796  27.717  36.365  1.00  0.00    +0.000 H 
ATOM    100  H5  UNL A   1      42.844  29.453  36.840  1.00  0.00    +0.000 H 
ATOM      5  C3  UNL A   1      43.075  28.716  36.100  1.00  0.00    +0.000 C 
BRANCH    5    6
ATOM    101  H6  UNL A   1      44.773  30.832  36.287  1.00  0.00    +0.000 H 
ATOM      6  C4  UNL A   1      44.589  28.749  35.958  1.00  0.00    +0.000 C 
ATOM      7  C5  UNL A   1      45.280  29.970  36.037  1.00  0.00    +0.000 C 
ATOM      8  C6  UNL A   1      46.650  30.022  35.778  1.00  0.00    +0.000 C 
ATOM    102  H7  UNL A   1      47.158  30.917  35.859  1.00  0.00    +0.000 H 
ATOM     10  C8  UNL A   1      46.656  27.644  35.350  1.00  0.00    +0.000 C 
ATOM     11  C9  UNL A   1      45.303  27.557  35.695  1.00  0.00    +0.000 C 
ATOM    104  H9  UNL A   1      47.161  26.796  35.049  1.00  0.00    +0.000 H 
ATOM      9  C7  UNL A   1      47.331  28.865  35.409  1.00  0.00    +0.000 C 
ATOM    103  H8  UNL A   1      48.336  28.911  35.179  1.00  0.00    +0.000 H 
BRANCH   11   12
ATOM    105  H10 UNL A   1      44.043  26.162  36.500  1.00  0.00    +0.000 H 
ATOM     12  N2  UNL A   1      44.586  26.334  35.696  1.00  0.00    +0.000 N 
BRANCH   12   13
ATOM    106  H11 UNL A   1      45.401  22.076  34.336  1.00  0.00    +0.000 H 
ATOM    107  H12 UNL A   1      44.698  22.519  32.056  1.00  0.00    +0.000 H 
ATOM    108  H13 UNL A   1      43.957  24.742  31.434  1.00  0.00    +0.000 H 
ATOM     13  C10 UNL A   1      44.541  25.324  34.704  1.00  0.00    +0.000 C 
ATOM     14  C11 UNL A   1      45.011  24.033  35.029  1.00  0.00    +0.000 C 
ATOM     15 Cl1  UNL A   1      45.554  23.652  36.630  1.00  0.00    +0.000 Cl
ATOM     16  C12 UNL A   1      45.067  23.017  34.071  1.00  0.00    +0.000 C 
ATOM     17  C13 UNL A   1      44.673  23.272  32.761  1.00  0.00    +0.000 C 
ATOM     18  C14 UNL A   1      44.242  24.549  32.408  1.00  0.00    +0.000 C 
ATOM     19  C15 UNL A   1      44.194  25.572  33.363  1.00  0.00    +0.000 C 
ATOM     20 Cl2  UNL A   1      43.743  27.146  32.803  1.00  0.00    +0.000 Cl
ENDBRANCH   12   13
ENDBRANCH   11   12
ENDBRANCH    5    6
ENDBRANCH    4    5
ENDBRANCH    3    4
ENDBRANCH    2    3
ENDBRANCH   21    2
ENDBRANCH   23   21
ENDBRANCH   24   23
ENDBRANCH   25   24
ENDBRANCH   26   25
ENDBRANCH   27   26
ENDBRANCH   28   27
ENDBRANCH   29   28
ENDBRANCH   30   29
ENDBRANCH   31   30
ENDBRANCH   33   31
ENDBRANCH   37   36
BRANCH   41   42
ATOM     42  C32 UNL A   1      44.045  32.545  32.048  1.00  0.00    +0.000 C 
ATOM     43  C33 UNL A   1      44.478  33.670  31.329  1.00  0.00    +0.000 C 
ATOM     44  F1  UNL A   1      44.867  33.545  30.051  1.00  0.00    +0.000 F 
ATOM     45  C34 UNL A   1      44.550  34.923  31.933  1.00  0.00    +0.000 C 
ATOM     46  F2  UNL A   1      45.011  35.972  31.240  1.00  0.00    +0.000 F 
ATOM     47  C35 UNL A   1      44.157  35.082  33.254  1.00  0.00    +0.000 C 
ATOM     48  F3  UNL A   1      44.222  36.290  33.831  1.00  0.00    +0.000 F 
ATOM     49  C36 UNL A   1      43.706  33.989  33.977  1.00  0.00    +0.000 C 
ATOM     50  F4  UNL A   1      43.315  34.145  35.249  1.00  0.00    +0.000 F 
ATOM     51  C37 UNL A   1      43.660  32.729  33.384  1.00  0.00    +0.000 C 
ATOM     52  F5  UNL A   1      43.231  31.689  34.115  1.00  0.00    +0.000 F 
ENDBRANCH   41   42
BRANCH   58   59
ATOM     65  F8  UNL A   1      52.189  25.623  31.626  1.00  0.00    +0.000 F 
ATOM     66  C47 UNL A   1      50.668  26.816  30.268  1.00  0.00    +0.000 C 
ATOM     67  F9  UNL A   1      51.665  27.180  29.449  1.00  0.00    +0.000 F 
ATOM     68  C48 UNL A   1      49.368  27.242  30.013  1.00  0.00    +0.000 C 
ATOM     69  F10 UNL A   1      49.143  28.024  28.946  1.00  0.00    +0.000 F 
ATOM     59  C43 UNL A   1      48.307  26.856  30.844  1.00  0.00    +0.000 C 
ATOM     60  C44 UNL A   1      48.595  26.033  31.943  1.00  0.00    +0.000 C 
ATOM     61  F6  UNL A   1      47.615  25.651  32.776  1.00  0.00    +0.000 F 
ATOM     62  C45 UNL A   1      49.900  25.631  32.210  1.00  0.00    +0.000 C 
ATOM     63  F7  UNL A   1      50.160  24.881  33.291  1.00  0.00    +0.000 F 
ATOM     64  C46 UNL A   1      50.934  26.016  31.370  1.00  0.00    +0.000 C 
ENDBRANCH   58   59
BRANCH   73   74
ATOM     74  C52 UNL A   1      43.101  23.756  27.410  1.00  0.00    +0.000 C 
ATOM     75  C53 UNL A   1      42.541  22.638  28.043  1.00  0.00    +0.000 C 
ATOM     76  F11 UNL A   1      42.131  22.727  29.317  1.00  0.00    +0.000 F 
ATOM     77  C54 UNL A   1      42.433  21.416  27.383  1.00  0.00    +0.000 C 
ATOM     78  F12 UNL A   1      41.931  20.353  28.026  1.00  0.00    +0.000 F 
ATOM     79  C55 UNL A   1      42.859  21.295  26.070  1.00  0.00    +0.000 C 
ATOM     80  F13 UNL A   1      42.752  20.121  25.434  1.00  0.00    +0.000 F 
ATOM     81  C56 UNL A   1      43.402  22.392  25.417  1.00  0.00    +0.000 C 
ATOM     82  F14 UNL A   1      43.803  22.283  24.143  1.00  0.00    +0.000 F 
ATOM     83  C57 UNL A   1      43.533  23.608  26.084  1.00  0.00    +0.000 C 
ATOM     84  F15 UNL A   1      44.071  24.650  25.433  1.00  0.00    +0.000 F 
ENDBRANCH   73   74
TORSDOF 22
ENDMDL
MODEL 7
REMARK VINA RESULT:      -9.1     25.835     34.971
ROOT
ATOM    129  H34 UNL A   1       6.975  26.062  24.461  1.00  0.00    +0.000 H 
ATOM    130  H35 UNL A   1       5.781  28.972  21.743  1.00  0.00    +0.000 H 
ATOM    131  H36 UNL A   1       4.574  33.012  24.480  1.00  0.00    +0.000 H 
ATOM    132  H37 UNL A   1       3.934  34.151  22.279  1.00  0.00    +0.000 H 
ATOM    133  H38 UNL A   1       6.989  26.093  17.116  1.00  0.00    +0.000 H 
ATOM    134  H39 UNL A   1       7.201  24.777  19.301  1.00  0.00    +0.000 H 
ATOM     37  C28 UNL A   1       6.757  26.353  21.635  1.00  0.00    +0.000 C 
ATOM     38  C29 UNL A   1       6.594  26.770  20.199  1.00  0.00    +0.000 C 
ATOM     39  N5  UNL A   1       6.217  27.924  19.710  1.00  0.00    +0.000 N 
ATOM     40  C30 UNL A   1       6.282  27.789  18.329  1.00  0.00    +0.000 C 
ATOM     41  C31 UNL A   1       5.941  28.688  17.375  1.00  0.00    +0.000 C 
ATOM     53  C38 UNL A   1       5.420  30.001  17.648  1.00  0.00    +0.000 C 
ATOM     54  C39 UNL A   1       4.985  30.962  16.751  1.00  0.00    +0.000 C 
ATOM     55  C40 UNL A   1       4.598  32.094  17.475  1.00  0.00    +0.000 C 
ATOM     56  C41 UNL A   1       4.751  31.824  18.826  1.00  0.00    +0.000 C 
ATOM     57  N6  UNL A   1       5.260  30.538  18.917  1.00  0.00    +0.000 N 
ATOM     58  C42 UNL A   1       4.455  32.674  19.950  1.00  0.00    +0.000 C 
ATOM     70  C49 UNL A   1       4.626  32.332  21.251  1.00  0.00    +0.000 C 
ATOM     71  N7  UNL A   1       5.096  31.140  21.785  1.00  0.00    +0.000 N 
ATOM     72  C50 UNL A   1       5.089  31.301  23.085  1.00  0.00    +0.000 C 
ATOM     73  C51 UNL A   1       5.472  30.324  24.164  1.00  0.00    +0.000 C 
ATOM     85  C58 UNL A   1       5.862  29.083  23.821  1.00  0.00    +0.000 C 
ATOM     86  C59 UNL A   1       6.255  28.030  24.753  1.00  0.00    +0.000 C 
ATOM     87  C60 UNL A   1       6.630  26.945  24.055  1.00  0.00    +0.000 C 
ATOM     88  C61 UNL A   1       6.471  27.217  22.626  1.00  0.00    +0.000 C 
ATOM     89  N8  UNL A   1       6.000  28.505  22.582  1.00  0.00    +0.000 N 
ATOM     90  C62 UNL A   1       4.637  32.628  23.524  1.00  0.00    +0.000 C 
ATOM     91  C63 UNL A   1       4.331  33.203  22.369  1.00  0.00    +0.000 C 
ATOM     92  C64 UNL A   1       6.778  26.457  18.058  1.00  0.00    +0.000 C 
ATOM     93  C65 UNL A   1       6.925  25.764  19.178  1.00  0.00    +0.000 C 
ATOM    125  H30 UNL A   1       4.953  30.861  15.725  1.00  0.00    +0.000 H 
ATOM    126  H31 UNL A   1       4.256  32.982  17.073  1.00  0.00    +0.000 H 
ATOM    127  H32 UNL A   1       5.477  30.075  19.758  1.00  0.00    +0.000 H 
ATOM    128  H33 UNL A   1       6.247  28.107  25.781  1.00  0.00    +0.000 H 
ENDROOT
BRANCH   37   36
ATOM     33  C24 UNL A   1       8.282  22.450  22.546  1.00  0.00    +0.000 C 
ATOM     34  C25 UNL A   1       9.147  23.433  22.055  1.00  0.00    +0.000 C 
ATOM     35  C26 UNL A   1       8.662  24.714  21.780  1.00  0.00    +0.000 C 
ATOM     36  C27 UNL A   1       7.302  25.011  21.965  1.00  0.00    +0.000 C 
ATOM    135  H40 UNL A   1       5.445  24.230  22.608  1.00  0.00    +0.000 H 
ATOM    136  H41 UNL A   1       6.328  22.065  23.249  1.00  0.00    +0.000 H 
ATOM    123  H28 UNL A   1      10.143  23.212  21.896  1.00  0.00    +0.000 H 
ATOM    124  H29 UNL A   1       9.305  25.444  21.439  1.00  0.00    +0.000 H 
ATOM     94  C66 UNL A   1       6.448  24.023  22.476  1.00  0.00    +0.000 C 
ATOM     95  C67 UNL A   1       6.945  22.765  22.809  1.00  0.00    +0.000 C 
BRANCH   33   31
ATOM     31  C23 UNL A   1       8.823  21.101  22.836  1.00  0.00    +0.000 C 
ATOM     32  O3  UNL A   1       9.085  20.787  23.989  1.00  0.00    +0.000 O 
BRANCH   31   30
ATOM    122  H27 UNL A   1       8.208  19.912  21.342  1.00  0.00    +0.000 H 
ATOM     30  N4  UNL A   1       9.021  20.200  21.817  1.00  0.00    +0.000 N 
BRANCH   30   29
ATOM    121  H26 UNL A   1      10.045  19.031  20.472  1.00  0.00    +0.000 H 
ATOM     29  C22 UNL A   1      10.264  19.614  21.342  1.00  0.00    +0.000 C 
ATOM    120  H25 UNL A   1      10.679  19.006  22.119  1.00  0.00    +0.000 H 
BRANCH   29   28
ATOM     28  C21 UNL A   1      11.286  20.680  20.951  1.00  0.00    +0.000 C 
ATOM    118  H23 UNL A   1      11.630  20.464  19.961  1.00  0.00    +0.000 H 
ATOM    119  H24 UNL A   1      10.782  21.621  21.030  1.00  0.00    +0.000 H 
BRANCH   28   27
ATOM     27  C20 UNL A   1      12.510  20.773  21.871  1.00  0.00    +0.000 C 
ATOM    116  H21 UNL A   1      12.447  19.979  22.585  1.00  0.00    +0.000 H 
ATOM    117  H22 UNL A   1      13.365  20.711  21.230  1.00  0.00    +0.000 H 
BRANCH   27   26
ATOM     26  C19 UNL A   1      12.660  22.090  22.642  1.00  0.00    +0.000 C 
ATOM    115  H20 UNL A   1      11.911  22.753  22.262  1.00  0.00    +0.000 H 
ATOM    114  H19 UNL A   1      13.655  22.455  22.492  1.00  0.00    +0.000 H 
BRANCH   26   25
ATOM     25  C18 UNL A   1      12.416  21.971  24.149  1.00  0.00    +0.000 C 
ATOM    113  H18 UNL A   1      11.356  21.930  24.287  1.00  0.00    +0.000 H 
ATOM    112  H17 UNL A   1      12.864  22.815  24.629  1.00  0.00    +0.000 H 
BRANCH   25   24
ATOM    110  H15 UNL A   1      12.449  20.462  25.673  1.00  0.00    +0.000 H 
ATOM    111  H16 UNL A   1      12.910  19.887  24.083  1.00  0.00    +0.000 H 
ATOM     24  C17 UNL A   1      12.995  20.693  24.782  1.00  0.00    +0.000 C 
BRANCH   24   23
ATOM    109  H14 UNL A   1      15.016  20.947  24.353  1.00  0.00    +0.000 H 
ATOM     23  N3  UNL A   1      14.392  20.889  25.112  1.00  0.00    +0.000 N 
BRANCH   23   21
ATOM     21  C16 UNL A   1      14.947  21.004  26.369  1.00  0.00    +0.000 C 
ATOM     22  O2  UNL A   1      15.080  22.123  26.860  1.00  0.00    +0.000 O 
BRANCH   21    2
ATOM      2  C2  UNL A   1      15.595  19.842  27.105  1.00  0.00    +0.000 C 
BRANCH    2    1
ATOM      1  C1  UNL A   1      15.082  19.655  28.512  1.00  0.00    +0.000 C 
ATOM     98  H3  UNL A   1      15.857  19.239  29.121  1.00  0.00    +0.000 H 
ATOM     97  H2  UNL A   1      14.783  20.602  28.912  1.00  0.00    +0.000 H 
ATOM     96  H1  UNL A   1      14.242  18.992  28.501  1.00  0.00    +0.000 H 
ENDBRANCH    2    1
BRANCH    2    3
ATOM      3  N1  UNL A   1      16.457  18.971  26.663  1.00  0.00    +0.000 N 
BRANCH    3    4
ATOM      4  O1  UNL A   1      17.691  19.034  27.301  1.00  0.00    +0.000 O 
BRANCH    4    5
ATOM     99  H4  UNL A   1      19.544  19.837  27.043  1.00  0.00    +0.000 H 
ATOM    100  H5  UNL A   1      18.235  20.414  25.951  1.00  0.00    +0.000 H 
ATOM      5  C3  UNL A   1      18.700  19.583  26.437  1.00  0.00    +0.000 C 
BRANCH    5    6
ATOM    101  H6  UNL A   1      20.361  17.433  26.560  1.00  0.00    +0.000 H 
ATOM      6  C4  UNL A   1      19.192  18.683  25.314  1.00  0.00    +0.000 C 
ATOM      7  C5  UNL A   1      20.101  17.646  25.585  1.00  0.00    +0.000 C 
ATOM      8  C6  UNL A   1      20.654  16.903  24.542  1.00  0.00    +0.000 C 
ATOM    102  H7  UNL A   1      21.303  16.127  24.747  1.00  0.00    +0.000 H 
ATOM     10  C8  UNL A   1      19.410  18.224  22.946  1.00  0.00    +0.000 C 
ATOM     11  C9  UNL A   1      18.776  18.918  23.983  1.00  0.00    +0.000 C 
ATOM    104  H9  UNL A   1      19.196  18.465  21.966  1.00  0.00    +0.000 H 
ATOM      9  C7  UNL A   1      20.329  17.210  23.223  1.00  0.00    +0.000 C 
ATOM    103  H8  UNL A   1      20.769  16.687  22.450  1.00  0.00    +0.000 H 
BRANCH   11   12
ATOM    105  H10 UNL A   1      17.346  20.261  24.558  1.00  0.00    +0.000 H 
ATOM     12  N2  UNL A   1      17.802  19.923  23.754  1.00  0.00    +0.000 N 
BRANCH   12   13
ATOM    106  H11 UNL A   1      18.205  23.144  20.575  1.00  0.00    +0.000 H 
ATOM    107  H12 UNL A   1      16.272  22.361  19.335  1.00  0.00    +0.000 H 
ATOM    108  H13 UNL A   1      15.013  20.453  20.143  1.00  0.00    +0.000 H 
ATOM     13  C10 UNL A   1      17.395  20.509  22.531  1.00  0.00    +0.000 C 
ATOM     14  C11 UNL A   1      18.082  21.650  22.063  1.00  0.00    +0.000 C 
ATOM     15 Cl1  UNL A   1      19.455  22.281  22.912  1.00  0.00    +0.000 Cl
ATOM     16  C12 UNL A   1      17.677  22.320  20.906  1.00  0.00    +0.000 C 
ATOM     17  C13 UNL A   1      16.563  21.878  20.199  1.00  0.00    +0.000 C 
ATOM     18  C14 UNL A   1      15.845  20.778  20.662  1.00  0.00    +0.000 C 
ATOM     19  C15 UNL A   1      16.242  20.109  21.827  1.00  0.00    +0.000 C 
ATOM     20 Cl2  UNL A   1      15.228  18.820  22.375  1.00  0.00    +0.000 Cl
ENDBRANCH   12   13
ENDBRANCH   11   12
ENDBRANCH    5    6
ENDBRANCH    4    5
ENDBRANCH    3    4
ENDBRANCH    2    3
ENDBRANCH   21    2
ENDBRANCH   23   21
ENDBRANCH   24   23
ENDBRANCH   25   24
ENDBRANCH   26   25
ENDBRANCH   27   26
ENDBRANCH   28   27
ENDBRANCH   29   28
ENDBRANCH   30   29
ENDBRANCH   31   30
ENDBRANCH   33   31
ENDBRANCH   37   36
BRANCH   41   42
ATOM     42  C32 UNL A   1       6.118  28.279  15.941  1.00  0.00    +0.000 C 
ATOM     43  C33 UNL A   1       5.053  27.759  15.190  1.00  0.00    +0.000 C 
ATOM     44  F1  UNL A   1       3.853  27.573  15.760  1.00  0.00    +0.000 F 
ATOM     45  C34 UNL A   1       5.228  27.390  13.858  1.00  0.00    +0.000 C 
ATOM     46  F2  UNL A   1       4.210  26.852  13.175  1.00  0.00    +0.000 F 
ATOM     47  C35 UNL A   1       6.459  27.567  13.244  1.00  0.00    +0.000 C 
ATOM     48  F3  UNL A   1       6.623  27.218  11.960  1.00  0.00    +0.000 F 
ATOM     49  C36 UNL A   1       7.519  28.099  13.961  1.00  0.00    +0.000 C 
ATOM     50  F4  UNL A   1       8.705  28.282  13.364  1.00  0.00    +0.000 F 
ATOM     51  C37 UNL A   1       7.355  28.443  15.301  1.00  0.00    +0.000 C 
ATOM     52  F5  UNL A   1       8.404  28.942  15.971  1.00  0.00    +0.000 F 
ENDBRANCH   41   42
BRANCH   58   59
ATOM     65  F8  UNL A   1       2.379  37.834  18.973  1.00  0.00    +0.000 F 
ATOM     66  C47 UNL A   1       4.237  36.417  19.315  1.00  0.00    +0.000 C 
ATOM     67  F9  UNL A   1       5.070  37.462  19.211  1.00  0.00    +0.000 F 
ATOM     68  C48 UNL A   1       4.747  35.141  19.534  1.00  0.00    +0.000 C 
ATOM     69  F10 UNL A   1       6.076  34.984  19.627  1.00  0.00    +0.000 F 
ATOM     59  C43 UNL A   1       3.893  34.036  19.668  1.00  0.00    +0.000 C 
ATOM     60  C44 UNL A   1       2.512  34.255  19.569  1.00  0.00    +0.000 C 
ATOM     61  F6  UNL A   1       1.656  33.226  19.674  1.00  0.00    +0.000 F 
ATOM     62  C45 UNL A   1       2.006  35.529  19.323  1.00  0.00    +0.000 C 
ATOM     63  F7  UNL A   1       0.685  35.708  19.188  1.00  0.00    +0.000 F 
ATOM     64  C46 UNL A   1       2.868  36.609  19.204  1.00  0.00    +0.000 C 
ENDBRANCH   58   59
BRANCH   73   74
ATOM     74  C52 UNL A   1       5.390  30.704  25.597  1.00  0.00    +0.000 C 
ATOM     75  C53 UNL A   1       6.466  31.335  26.236  1.00  0.00    +0.000 C 
ATOM     76  F11 UNL A   1       7.596  31.580  25.555  1.00  0.00    +0.000 F 
ATOM     77  C54 UNL A   1       6.402  31.683  27.582  1.00  0.00    +0.000 C 
ATOM     78  F12 UNL A   1       7.461  32.247  28.177  1.00  0.00    +0.000 F 
ATOM     79  C55 UNL A   1       5.250  31.430  28.311  1.00  0.00    +0.000 C 
ATOM     80  F13 UNL A   1       5.186  31.769  29.606  1.00  0.00    +0.000 F 
ATOM     81  C56 UNL A   1       4.165  30.821  27.698  1.00  0.00    +0.000 C 
ATOM     82  F14 UNL A   1       3.045  30.588  28.395  1.00  0.00    +0.000 F 
ATOM     83  C57 UNL A   1       4.238  30.450  26.357  1.00  0.00    +0.000 C 
ATOM     84  F15 UNL A   1       3.178  29.854  25.790  1.00  0.00    +0.000 F 
ENDBRANCH   73   74
TORSDOF 22
ENDMDL
MODEL 8
REMARK VINA RESULT:      -9.1     21.847     28.121
ROOT
ATOM    129  H34 UNL A   1      25.684  33.394  43.854  1.00  0.00    +0.000 H 
ATOM    130  H35 UNL A   1      23.925  35.739  46.801  1.00  0.00    +0.000 H 
ATOM    131  H36 UNL A   1      19.148  34.208  47.121  1.00  0.00    +0.000 H 
ATOM    132  H37 UNL A   1      18.818  36.030  48.889  1.00  0.00    +0.000 H 
ATOM    133  H38 UNL A   1      28.563  38.415  48.377  1.00  0.00    +0.000 H 
ATOM    134  H39 UNL A   1      28.813  36.934  46.304  1.00  0.00    +0.000 H 
ATOM     37  C28 UNL A   1      26.465  35.450  45.666  1.00  0.00    +0.000 C 
ATOM     38  C29 UNL A   1      26.629  36.498  46.733  1.00  0.00    +0.000 C 
ATOM     39  N5  UNL A   1      25.749  36.955  47.587  1.00  0.00    +0.000 N 
ATOM     40  C30 UNL A   1      26.430  37.872  48.376  1.00  0.00    +0.000 C 
ATOM     41  C31 UNL A   1      25.946  38.655  49.370  1.00  0.00    +0.000 C 
ATOM     53  C38 UNL A   1      24.569  38.673  49.791  1.00  0.00    +0.000 C 
ATOM     54  C39 UNL A   1      23.968  39.476  50.745  1.00  0.00    +0.000 C 
ATOM     55  C40 UNL A   1      22.620  39.111  50.837  1.00  0.00    +0.000 C 
ATOM     56  C41 UNL A   1      22.372  38.111  49.911  1.00  0.00    +0.000 C 
ATOM     57  N6  UNL A   1      23.578  37.848  49.280  1.00  0.00    +0.000 N 
ATOM     58  C42 UNL A   1      21.130  37.443  49.622  1.00  0.00    +0.000 C 
ATOM     70  C49 UNL A   1      20.966  36.472  48.690  1.00  0.00    +0.000 C 
ATOM     71  N7  UNL A   1      21.904  35.923  47.829  1.00  0.00    +0.000 N 
ATOM     72  C50 UNL A   1      21.266  35.015  47.131  1.00  0.00    +0.000 C 
ATOM     73  C51 UNL A   1      21.781  34.127  46.032  1.00  0.00    +0.000 C 
ATOM     85  C58 UNL A   1      23.064  34.242  45.639  1.00  0.00    +0.000 C 
ATOM     86  C59 UNL A   1      23.700  33.456  44.586  1.00  0.00    +0.000 C 
ATOM     87  C60 UNL A   1      24.994  33.806  44.501  1.00  0.00    +0.000 C 
ATOM     88  C61 UNL A   1      25.269  34.865  45.473  1.00  0.00    +0.000 C 
ATOM     89  N8  UNL A   1      24.062  35.067  46.095  1.00  0.00    +0.000 N 
ATOM     90  C62 UNL A   1      19.849  34.868  47.493  1.00  0.00    +0.000 C 
ATOM     91  C63 UNL A   1      19.709  35.805  48.420  1.00  0.00    +0.000 C 
ATOM     92  C64 UNL A   1      27.806  37.873  47.931  1.00  0.00    +0.000 C 
ATOM     93  C65 UNL A   1      27.968  37.089  46.875  1.00  0.00    +0.000 C 
ATOM    125  H30 UNL A   1      24.433  40.216  51.293  1.00  0.00    +0.000 H 
ATOM    126  H31 UNL A   1      21.927  39.518  51.485  1.00  0.00    +0.000 H 
ATOM    127  H32 UNL A   1      23.711  37.176  48.573  1.00  0.00    +0.000 H 
ATOM    128  H33 UNL A   1      23.232  32.747  44.001  1.00  0.00    +0.000 H 
ENDROOT
BRANCH   37   36
ATOM     33  C24 UNL A   1      29.879  34.230  43.376  1.00  0.00    +0.000 C 
ATOM     34  C25 UNL A   1      29.471  33.461  44.471  1.00  0.00    +0.000 C 
ATOM     35  C26 UNL A   1      28.343  33.840  45.206  1.00  0.00    +0.000 C 
ATOM     36  C27 UNL A   1      27.637  35.006  44.869  1.00  0.00    +0.000 C 
ATOM    135  H40 UNL A   1      27.536  36.620  43.507  1.00  0.00    +0.000 H 
ATOM    136  H41 UNL A   1      29.383  35.863  42.132  1.00  0.00    +0.000 H 
ATOM    123  H28 UNL A   1      30.000  32.616  44.736  1.00  0.00    +0.000 H 
ATOM    124  H29 UNL A   1      28.030  33.260  45.999  1.00  0.00    +0.000 H 
ATOM     94  C66 UNL A   1      28.044  35.757  43.758  1.00  0.00    +0.000 C 
ATOM     95  C67 UNL A   1      29.131  35.345  42.988  1.00  0.00    +0.000 C 
BRANCH   33   31
ATOM     31  C23 UNL A   1      31.073  33.803  42.609  1.00  0.00    +0.000 C 
ATOM     32  O3  UNL A   1      30.939  33.343  41.483  1.00  0.00    +0.000 O 
BRANCH   31   30
ATOM    122  H27 UNL A   1      32.685  34.850  43.181  1.00  0.00    +0.000 H 
ATOM     30  N4  UNL A   1      32.329  33.933  43.153  1.00  0.00    +0.000 N 
BRANCH   30   29
ATOM    121  H26 UNL A   1      34.198  33.104  43.354  1.00  0.00    +0.000 H 
ATOM     29  C22 UNL A   1      33.204  32.904  43.693  1.00  0.00    +0.000 C 
ATOM    120  H25 UNL A   1      32.864  31.948  43.354  1.00  0.00    +0.000 H 
BRANCH   29   28
ATOM     28  C21 UNL A   1      33.216  32.910  45.221  1.00  0.00    +0.000 C 
ATOM    118  H23 UNL A   1      32.405  32.300  45.562  1.00  0.00    +0.000 H 
ATOM    119  H24 UNL A   1      34.177  32.544  45.514  1.00  0.00    +0.000 H 
BRANCH   28   27
ATOM     27  C20 UNL A   1      33.072  34.296  45.865  1.00  0.00    +0.000 C 
ATOM    116  H21 UNL A   1      34.022  34.570  46.272  1.00  0.00    +0.000 H 
ATOM    117  H22 UNL A   1      32.730  34.947  45.088  1.00  0.00    +0.000 H 
BRANCH   27   26
ATOM     26  C19 UNL A   1      32.031  34.399  46.987  1.00  0.00    +0.000 C 
ATOM    115  H20 UNL A   1      32.575  34.411  47.908  1.00  0.00    +0.000 H 
ATOM    114  H19 UNL A   1      31.367  33.564  46.906  1.00  0.00    +0.000 H 
BRANCH   26   25
ATOM     25  C18 UNL A   1      31.194  35.681  46.956  1.00  0.00    +0.000 C 
ATOM    113  H18 UNL A   1      30.176  35.380  46.819  1.00  0.00    +0.000 H 
ATOM    112  H17 UNL A   1      31.555  36.298  46.160  1.00  0.00    +0.000 H 
BRANCH   25   24
ATOM    110  H15 UNL A   1      30.248  36.756  48.553  1.00  0.00    +0.000 H 
ATOM    111  H16 UNL A   1      31.707  35.908  49.024  1.00  0.00    +0.000 H 
ATOM     24  C17 UNL A   1      31.244  36.497  48.259  1.00  0.00    +0.000 C 
BRANCH   24   23
ATOM    109  H14 UNL A   1      31.500  38.528  47.881  1.00  0.00    +0.000 H 
ATOM     23  N3  UNL A   1      32.015  37.708  48.061  1.00  0.00    +0.000 N 
BRANCH   23   21
ATOM     21  C16 UNL A   1      33.386  37.843  48.097  1.00  0.00    +0.000 C 
ATOM     22  O2  UNL A   1      33.963  37.763  49.180  1.00  0.00    +0.000 O 
BRANCH   21    2
ATOM      2  C2  UNL A   1      34.213  38.289  46.902  1.00  0.00    +0.000 C 
BRANCH    2    1
ATOM      1  C1  UNL A   1      35.155  39.428  47.209  1.00  0.00    +0.000 C 
ATOM     98  H3  UNL A   1      35.984  39.061  47.776  1.00  0.00    +0.000 H 
ATOM     97  H2  UNL A   1      35.509  39.855  46.293  1.00  0.00    +0.000 H 
ATOM     96  H1  UNL A   1      34.638  40.176  47.775  1.00  0.00    +0.000 H 
ENDBRANCH    2    1
BRANCH    2    3
ATOM      3  N1  UNL A   1      34.262  37.781  45.703  1.00  0.00    +0.000 N 
BRANCH    3    4
ATOM      4  O1  UNL A   1      33.030  37.750  45.059  1.00  0.00    +0.000 O 
BRANCH    4    5
ATOM     99  H4  UNL A   1      32.764  39.014  43.485  1.00  0.00    +0.000 H 
ATOM    100  H5  UNL A   1      33.335  39.732  45.033  1.00  0.00    +0.000 H 
ATOM      5  C3  UNL A   1      32.673  39.046  44.550  1.00  0.00    +0.000 C 
BRANCH    5    6
ATOM    101  H6  UNL A   1      30.269  37.995  43.835  1.00  0.00    +0.000 H 
ATOM      6  C4  UNL A   1      31.272  39.539  44.879  1.00  0.00    +0.000 C 
ATOM      7  C5  UNL A   1      30.148  38.874  44.360  1.00  0.00    +0.000 C 
ATOM      8  C6  UNL A   1      28.869  39.398  44.551  1.00  0.00    +0.000 C 
ATOM    102  H7  UNL A   1      28.045  38.894  44.188  1.00  0.00    +0.000 H 
ATOM     10  C8  UNL A   1      29.817  41.257  45.770  1.00  0.00    +0.000 C 
ATOM     11  C9  UNL A   1      31.096  40.700  45.667  1.00  0.00    +0.000 C 
ATOM    104  H9  UNL A   1      29.692  42.163  46.248  1.00  0.00    +0.000 H 
ATOM      9  C7  UNL A   1      28.707  40.602  45.232  1.00  0.00    +0.000 C 
ATOM    103  H8  UNL A   1      27.765  41.010  45.338  1.00  0.00    +0.000 H 
BRANCH   11   12
ATOM    105  H10 UNL A   1      32.772  40.727  46.838  1.00  0.00    +0.000 H 
ATOM     12  N2  UNL A   1      32.246  41.303  46.236  1.00  0.00    +0.000 N 
BRANCH   12   13
ATOM    106  H11 UNL A   1      35.266  44.188  44.449  1.00  0.00    +0.000 H 
ATOM    107  H12 UNL A   1      34.369  46.095  45.651  1.00  0.00    +0.000 H 
ATOM    108  H13 UNL A   1      32.492  45.796  47.155  1.00  0.00    +0.000 H 
ATOM     13  C10 UNL A   1      32.745  42.617  46.061  1.00  0.00    +0.000 C 
ATOM     14  C11 UNL A   1      33.867  42.809  45.226  1.00  0.00    +0.000 C 
ATOM     15 Cl1  UNL A   1      34.578  41.488  44.358  1.00  0.00    +0.000 Cl
ATOM     16  C12 UNL A   1      34.455  44.069  45.076  1.00  0.00    +0.000 C 
ATOM     17  C13 UNL A   1      33.948  45.161  45.772  1.00  0.00    +0.000 C 
ATOM     18  C14 UNL A   1      32.865  44.988  46.631  1.00  0.00    +0.000 C 
ATOM     19  C15 UNL A   1      32.280  43.726  46.792  1.00  0.00    +0.000 C 
ATOM     20 Cl2  UNL A   1      31.008  43.594  47.957  1.00  0.00    +0.000 Cl
ENDBRANCH   12   13
ENDBRANCH   11   12
ENDBRANCH    5    6
ENDBRANCH    4    5
ENDBRANCH    3    4
ENDBRANCH    2    3
ENDBRANCH   21    2
ENDBRANCH   23   21
ENDBRANCH   24   23
ENDBRANCH   25   24
ENDBRANCH   26   25
ENDBRANCH   27   26
ENDBRANCH   28   27
ENDBRANCH   29   28
ENDBRANCH   30   29
ENDBRANCH   31   30
ENDBRANCH   33   31
ENDBRANCH   37   36
BRANCH   41   42
ATOM     42  C32 UNL A   1      26.914  39.564  50.072  1.00  0.00    +0.000 C 
ATOM     43  C33 UNL A   1      27.200  40.847  49.583  1.00  0.00    +0.000 C 
ATOM     44  F1  UNL A   1      26.641  41.275  48.441  1.00  0.00    +0.000 F 
ATOM     45  C34 UNL A   1      28.094  41.684  50.248  1.00  0.00    +0.000 C 
ATOM     46  F2  UNL A   1      28.388  42.887  49.737  1.00  0.00    +0.000 F 
ATOM     47  C35 UNL A   1      28.690  41.267  51.429  1.00  0.00    +0.000 C 
ATOM     48  F3  UNL A   1      29.545  42.077  52.070  1.00  0.00    +0.000 F 
ATOM     49  C36 UNL A   1      28.405  40.011  51.941  1.00  0.00    +0.000 C 
ATOM     50  F4  UNL A   1      28.971  39.613  53.088  1.00  0.00    +0.000 F 
ATOM     51  C37 UNL A   1      27.533  39.161  51.264  1.00  0.00    +0.000 C 
ATOM     52  F5  UNL A   1      27.289  37.947  51.778  1.00  0.00    +0.000 F 
ENDBRANCH   41   42
BRANCH   58   59
ATOM     65  F8  UNL A   1      16.518  38.936  52.521  1.00  0.00    +0.000 F 
ATOM     66  C47 UNL A   1      18.449  37.591  52.316  1.00  0.00    +0.000 C 
ATOM     67  F9  UNL A   1      18.153  36.968  53.465  1.00  0.00    +0.000 F 
ATOM     68  C48 UNL A   1      19.596  37.240  51.610  1.00  0.00    +0.000 C 
ATOM     69  F10 UNL A   1      20.393  36.283  52.109  1.00  0.00    +0.000 F 
ATOM     59  C43 UNL A   1      19.914  37.864  50.395  1.00  0.00    +0.000 C 
ATOM     60  C44 UNL A   1      19.046  38.855  49.915  1.00  0.00    +0.000 C 
ATOM     61  F6  UNL A   1      19.317  39.491  48.765  1.00  0.00    +0.000 F 
ATOM     62  C45 UNL A   1      17.913  39.221  50.636  1.00  0.00    +0.000 C 
ATOM     63  F7  UNL A   1      17.120  40.202  50.181  1.00  0.00    +0.000 F 
ATOM     64  C46 UNL A   1      17.611  38.586  51.831  1.00  0.00    +0.000 C 
ENDBRANCH   58   59
BRANCH   73   74
ATOM     74  C52 UNL A   1      20.885  33.155  45.357  1.00  0.00    +0.000 C 
ATOM     75  C53 UNL A   1      20.015  33.567  44.339  1.00  0.00    +0.000 C 
ATOM     76  F11 UNL A   1      19.969  34.859  43.982  1.00  0.00    +0.000 F 
ATOM     77  C54 UNL A   1      19.162  32.664  43.709  1.00  0.00    +0.000 C 
ATOM     78  F12 UNL A   1      18.312  33.093  42.768  1.00  0.00    +0.000 F 
ATOM     79  C55 UNL A   1      19.182  31.325  44.068  1.00  0.00    +0.000 C 
ATOM     80  F13 UNL A   1      18.365  30.455  43.459  1.00  0.00    +0.000 F 
ATOM     81  C56 UNL A   1      20.046  30.889  45.061  1.00  0.00    +0.000 C 
ATOM     82  F14 UNL A   1      20.077  29.593  45.401  1.00  0.00    +0.000 F 
ATOM     83  C57 UNL A   1      20.881  31.796  45.709  1.00  0.00    +0.000 C 
ATOM     84  F15 UNL A   1      21.700  31.351  46.673  1.00  0.00    +0.000 F 
ENDBRANCH   73   74
TORSDOF 22
ENDMDL
MODEL 9
REMARK VINA RESULT:      -9.0     37.029     42.356
ROOT
ATOM    129  H34 UNL A   1      29.222 -13.527  28.427  1.00  0.00    +0.000 H 
ATOM    130  H35 UNL A   1      26.768 -12.515  31.626  1.00  0.00    +0.000 H 
ATOM    131  H36 UNL A   1      22.888  -9.999  29.653  1.00  0.00    +0.000 H 
ATOM    132  H37 UNL A   1      22.028  -9.707  32.046  1.00  0.00    +0.000 H 
ATOM    133  H38 UNL A   1      29.621 -15.274  35.550  1.00  0.00    +0.000 H 
ATOM    134  H39 UNL A   1      30.739 -15.191  33.249  1.00  0.00    +0.000 H 
ATOM     37  C28 UNL A   1      29.146 -13.936  31.246  1.00  0.00    +0.000 C 
ATOM     38  C29 UNL A   1      28.854 -14.046  32.717  1.00  0.00    +0.000 C 
ATOM     39  N5  UNL A   1      27.827 -13.598  33.394  1.00  0.00    +0.000 N 
ATOM     40  C30 UNL A   1      28.028 -14.011  34.704  1.00  0.00    +0.000 C 
ATOM     41  C31 UNL A   1      27.271 -13.752  35.797  1.00  0.00    +0.000 C 
ATOM     53  C38 UNL A   1      26.072 -12.957  35.783  1.00  0.00    +0.000 C 
ATOM     54  C39 UNL A   1      25.269 -12.584  36.847  1.00  0.00    +0.000 C 
ATOM     55  C40 UNL A   1      24.194 -11.842  36.347  1.00  0.00    +0.000 C 
ATOM     56  C41 UNL A   1      24.349 -11.716  34.975  1.00  0.00    +0.000 C 
ATOM     57  N6  UNL A   1      25.503 -12.409  34.642  1.00  0.00    +0.000 N 
ATOM     58  C42 UNL A   1      23.509 -11.017  34.038  1.00  0.00    +0.000 C 
ATOM     70  C49 UNL A   1      23.734 -10.934  32.703  1.00  0.00    +0.000 C 
ATOM     71  N7  UNL A   1      24.777 -11.466  31.959  1.00  0.00    +0.000 N 
ATOM     72  C50 UNL A   1      24.544 -11.124  30.716  1.00  0.00    +0.000 C 
ATOM     73  C51 UNL A   1      25.362 -11.407  29.485  1.00  0.00    +0.000 C 
ATOM     85  C58 UNL A   1      26.521 -12.081  29.604  1.00  0.00    +0.000 C 
ATOM     86  C59 UNL A   1      27.419 -12.422  28.505  1.00  0.00    +0.000 C 
ATOM     87  C60 UNL A   1      28.449 -13.138  28.988  1.00  0.00    +0.000 C 
ATOM     88  C61 UNL A   1      28.298 -13.275  30.437  1.00  0.00    +0.000 C 
ATOM     89  N8  UNL A   1      27.132 -12.607  30.716  1.00  0.00    +0.000 N 
ATOM     90  C62 UNL A   1      23.307 -10.353  30.527  1.00  0.00    +0.000 C 
ATOM     91  C63 UNL A   1      22.872 -10.232  31.773  1.00  0.00    +0.000 C 
ATOM     92  C64 UNL A   1      29.251 -14.784  34.720  1.00  0.00    +0.000 C 
ATOM     93  C65 UNL A   1      29.834 -14.783  33.531  1.00  0.00    +0.000 C 
ATOM    125  H30 UNL A   1      25.435 -12.814  37.839  1.00  0.00    +0.000 H 
ATOM    126  H31 UNL A   1      23.416 -11.454  36.904  1.00  0.00    +0.000 H 
ATOM    127  H32 UNL A   1      25.864 -12.499  33.731  1.00  0.00    +0.000 H 
ATOM    128  H33 UNL A   1      27.285 -12.158  27.518  1.00  0.00    +0.000 H 
ENDROOT
BRANCH   37   36
ATOM     33  C24 UNL A   1      32.609 -15.886  29.635  1.00  0.00    +0.000 C 
ATOM     34  C25 UNL A   1      31.386 -16.564  29.666  1.00  0.00    +0.000 C 
ATOM     35  C26 UNL A   1      30.248 -15.925  30.166  1.00  0.00    +0.000 C 
ATOM     36  C27 UNL A   1      30.333 -14.616  30.668  1.00  0.00    +0.000 C 
ATOM    135  H40 UNL A   1      31.635 -12.980  30.987  1.00  0.00    +0.000 H 
ATOM    136  H41 UNL A   1      33.563 -14.030  29.957  1.00  0.00    +0.000 H 
ATOM    123  H28 UNL A   1      31.324 -17.534  29.320  1.00  0.00    +0.000 H 
ATOM    124  H29 UNL A   1      29.342 -16.417  30.167  1.00  0.00    +0.000 H 
ATOM     94  C66 UNL A   1      31.561 -13.940  30.613  1.00  0.00    +0.000 C 
ATOM     95  C67 UNL A   1      32.681 -14.555  30.057  1.00  0.00    +0.000 C 
BRANCH   33   31
ATOM     31  C23 UNL A   1      33.799 -16.584  29.093  1.00  0.00    +0.000 C 
ATOM     32  O3  UNL A   1      34.488 -17.274  29.833  1.00  0.00    +0.000 O 
BRANCH   31   30
ATOM    122  H27 UNL A   1      34.921 -15.920  27.569  1.00  0.00    +0.000 H 
ATOM     30  N4  UNL A   1      34.125 -16.466  27.763  1.00  0.00    +0.000 N 
BRANCH   30   29
ATOM    121  H26 UNL A   1      32.529 -17.454  26.927  1.00  0.00    +0.000 H 
ATOM     29  C22 UNL A   1      33.458 -17.035  26.603  1.00  0.00    +0.000 C 
ATOM    120  H25 UNL A   1      34.090 -17.783  26.172  1.00  0.00    +0.000 H 
BRANCH   29   28
ATOM     28  C21 UNL A   1      33.153 -15.976  25.544  1.00  0.00    +0.000 C 
ATOM    118  H23 UNL A   1      32.119 -16.058  25.280  1.00  0.00    +0.000 H 
ATOM    119  H24 UNL A   1      33.408 -15.033  25.981  1.00  0.00    +0.000 H 
BRANCH   28   27
ATOM     27  C20 UNL A   1      33.983 -16.089  24.258  1.00  0.00    +0.000 C 
ATOM    116  H21 UNL A   1      34.573 -16.978  24.324  1.00  0.00    +0.000 H 
ATOM    117  H22 UNL A   1      33.278 -16.096  23.453  1.00  0.00    +0.000 H 
BRANCH   27   26
ATOM     26  C19 UNL A   1      34.929 -14.915  23.976  1.00  0.00    +0.000 C 
ATOM    115  H20 UNL A   1      34.466 -14.326  23.213  1.00  0.00    +0.000 H 
ATOM    114  H19 UNL A   1      35.877 -15.314  23.677  1.00  0.00    +0.000 H 
BRANCH   26   25
ATOM     25  C18 UNL A   1      35.156 -13.986  25.171  1.00  0.00    +0.000 C 
ATOM    113  H18 UNL A   1      35.479 -14.603  25.984  1.00  0.00    +0.000 H 
ATOM    112  H17 UNL A   1      34.239 -13.475  25.377  1.00  0.00    +0.000 H 
BRANCH   25   24
ATOM    110  H15 UNL A   1      36.731 -12.715  25.885  1.00  0.00    +0.000 H 
ATOM    111  H16 UNL A   1      36.975 -13.317  24.257  1.00  0.00    +0.000 H 
ATOM     24  C17 UNL A   1      36.256 -12.932  24.950  1.00  0.00    +0.000 C 
BRANCH   24   23
ATOM    109  H14 UNL A   1      35.614 -11.664  23.429  1.00  0.00    +0.000 H 
ATOM     23  N3  UNL A   1      35.681 -11.717  24.410  1.00  0.00    +0.000 N 
BRANCH   23   21
ATOM     21  C16 UNL A   1      35.216 -10.627  25.114  1.00  0.00    +0.000 C 
ATOM     22  O2  UNL A   1      34.973 -10.752  26.313  1.00  0.00    +0.000 O 
BRANCH   21    2
ATOM      2  C2  UNL A   1      34.789  -9.326  24.453  1.00  0.00    +0.000 C 
BRANCH    2    1
ATOM      1  C1  UNL A   1      35.295  -8.092  25.161  1.00  0.00    +0.000 C 
ATOM     98  H3  UNL A   1      34.750  -7.237  24.820  1.00  0.00    +0.000 H 
ATOM     97  H2  UNL A   1      35.158  -8.205  26.217  1.00  0.00    +0.000 H 
ATOM     96  H1  UNL A   1      36.335  -7.960  24.948  1.00  0.00    +0.000 H 
ENDBRANCH    2    1
BRANCH    2    3
ATOM      3  N1  UNL A   1      34.123  -9.149  23.348  1.00  0.00    +0.000 N 
BRANCH    3    4
ATOM      4  O1  UNL A   1      32.853  -9.714  23.364  1.00  0.00    +0.000 O 
BRANCH    4    5
ATOM     99  H4  UNL A   1      31.859  -7.938  23.441  1.00  0.00    +0.000 H 
ATOM    100  H5  UNL A   1      32.254  -8.732  25.007  1.00  0.00    +0.000 H 
ATOM      5  C3  UNL A   1      31.902  -8.847  24.004  1.00  0.00    +0.000 C 
BRANCH    5    6
ATOM    101  H6  UNL A   1      30.249  -9.822  22.078  1.00  0.00    +0.000 H 
ATOM      6  C4  UNL A   1      30.483  -9.376  24.134  1.00  0.00    +0.000 C 
ATOM      7  C5  UNL A   1      29.774  -9.788  22.993  1.00  0.00    +0.000 C 
ATOM      8  C6  UNL A   1      28.430 -10.150  23.089  1.00  0.00    +0.000 C 
ATOM    102  H7  UNL A   1      27.920 -10.474  22.253  1.00  0.00    +0.000 H 
ATOM     10  C8  UNL A   1      28.481  -9.688  25.461  1.00  0.00    +0.000 C 
ATOM     11  C9  UNL A   1      29.850  -9.409  25.399  1.00  0.00    +0.000 C 
ATOM    104  H9  UNL A   1      27.984  -9.607  26.362  1.00  0.00    +0.000 H 
ATOM      9  C7  UNL A   1      27.778 -10.075  24.317  1.00  0.00    +0.000 C 
ATOM    103  H8  UNL A   1      26.774 -10.305  24.382  1.00  0.00    +0.000 H 
BRANCH   11   12
ATOM    105  H10 UNL A   1      31.460  -8.585  26.353  1.00  0.00    +0.000 H 
ATOM     12  N2  UNL A   1      30.617  -9.058  26.539  1.00  0.00    +0.000 N 
BRANCH   12   13
ATOM    106  H11 UNL A   1      28.776  -7.765  30.486  1.00  0.00    +0.000 H 
ATOM    107  H12 UNL A   1      29.684  -9.664  31.694  1.00  0.00    +0.000 H 
ATOM    108  H13 UNL A   1      31.053 -11.291  30.529  1.00  0.00    +0.000 H 
ATOM     13  C10 UNL A   1      30.339  -9.293  27.908  1.00  0.00    +0.000 C 
ATOM     14  C11 UNL A   1      29.584  -8.336  28.620  1.00  0.00    +0.000 C 
ATOM     15 Cl1  UNL A   1      28.927  -6.941  27.828  1.00  0.00    +0.000 Cl
ATOM     16  C12 UNL A   1      29.345  -8.470  29.990  1.00  0.00    +0.000 C 
ATOM     17  C13 UNL A   1      29.872  -9.554  30.686  1.00  0.00    +0.000 C 
ATOM     18  C14 UNL A   1      30.654 -10.490  30.013  1.00  0.00    +0.000 C 
ATOM     19  C15 UNL A   1      30.904 -10.353  28.642  1.00  0.00    +0.000 C 
ATOM     20 Cl2  UNL A   1      31.968 -11.510  27.920  1.00  0.00    +0.000 Cl
ENDBRANCH   12   13
ENDBRANCH   11   12
ENDBRANCH    5    6
ENDBRANCH    4    5
ENDBRANCH    3    4
ENDBRANCH    2    3
ENDBRANCH   21    2
ENDBRANCH   23   21
ENDBRANCH   24   23
ENDBRANCH   25   24
ENDBRANCH   26   25
ENDBRANCH   27   26
ENDBRANCH   28   27
ENDBRANCH   29   28
ENDBRANCH   30   29
ENDBRANCH   31   30
ENDBRANCH   33   31
ENDBRANCH   37   36
BRANCH   41   42
ATOM     42  C32 UNL A   1      27.721 -14.333  37.106  1.00  0.00    +0.000 C 
ATOM     43  C33 UNL A   1      27.156 -15.510  37.619  1.00  0.00    +0.000 C 
ATOM     44  F1  UNL A   1      26.158 -16.121  36.963  1.00  0.00    +0.000 F 
ATOM     45  C34 UNL A   1      27.588 -16.044  38.831  1.00  0.00    +0.000 C 
ATOM     46  F2  UNL A   1      27.001 -17.142  39.324  1.00  0.00    +0.000 F 
ATOM     47  C35 UNL A   1      28.615 -15.431  39.534  1.00  0.00    +0.000 C 
ATOM     48  F3  UNL A   1      29.034 -15.951  40.697  1.00  0.00    +0.000 F 
ATOM     49  C36 UNL A   1      29.203 -14.280  39.035  1.00  0.00    +0.000 C 
ATOM     50  F4  UNL A   1      30.204 -13.695  39.707  1.00  0.00    +0.000 F 
ATOM     51  C37 UNL A   1      28.754 -13.728  37.837  1.00  0.00    +0.000 C 
ATOM     52  F5  UNL A   1      29.334 -12.604  37.388  1.00  0.00    +0.000 F 
ENDBRANCH   41   42
BRANCH   58   59
ATOM     65  F8  UNL A   1      19.006  -8.345  36.152  1.00  0.00    +0.000 F 
ATOM     66  C47 UNL A   1      21.330  -8.404  35.737  1.00  0.00    +0.000 C 
ATOM     67  F9  UNL A   1      21.482  -7.218  36.343  1.00  0.00    +0.000 F 
ATOM     68  C48 UNL A   1      22.435  -9.055  35.196  1.00  0.00    +0.000 C 
ATOM     69  F10 UNL A   1      23.638  -8.468  35.286  1.00  0.00    +0.000 F 
ATOM     59  C43 UNL A   1      22.303 -10.306  34.575  1.00  0.00    +0.000 C 
ATOM     60  C44 UNL A   1      21.024 -10.879  34.512  1.00  0.00    +0.000 C 
ATOM     61  F6  UNL A   1      20.845 -12.067  33.914  1.00  0.00    +0.000 F 
ATOM     62  C45 UNL A   1      19.917 -10.213  35.031  1.00  0.00    +0.000 C 
ATOM     63  F7  UNL A   1      18.697 -10.758  34.920  1.00  0.00    +0.000 F 
ATOM     64  C46 UNL A   1      20.071  -8.981  35.649  1.00  0.00    +0.000 C 
ENDBRANCH   58   59
BRANCH   73   74
ATOM     74  C52 UNL A   1      24.922 -10.922  28.152  1.00  0.00    +0.000 C 
ATOM     75  C53 UNL A   1      24.006 -11.657  27.387  1.00  0.00    +0.000 C 
ATOM     76  F11 UNL A   1      23.535 -12.825  27.850  1.00  0.00    +0.000 F 
ATOM     77  C54 UNL A   1      23.597 -11.215  26.131  1.00  0.00    +0.000 C 
ATOM     78  F12 UNL A   1      22.752 -11.959  25.405  1.00  0.00    +0.000 F 
ATOM     79  C55 UNL A   1      24.078 -10.017  25.626  1.00  0.00    +0.000 C 
ATOM     80  F13 UNL A   1      23.682  -9.590  24.420  1.00  0.00    +0.000 F 
ATOM     81  C56 UNL A   1      24.973  -9.264  26.371  1.00  0.00    +0.000 C 
ATOM     82  F14 UNL A   1      25.429  -8.098  25.892  1.00  0.00    +0.000 F 
ATOM     83  C57 UNL A   1      25.401  -9.717  27.617  1.00  0.00    +0.000 C 
ATOM     84  F15 UNL A   1      26.275  -8.975  28.312  1.00  0.00    +0.000 F 
ENDBRANCH   73   74
TORSDOF 22
ENDMDL
MODEL 10
REMARK VINA RESULT:      -9.0     22.552     29.582
ROOT
ATOM    129  H34 UNL A   1      28.498  36.881  46.553  1.00  0.00    +0.000 H 
ATOM    130  H35 UNL A   1      24.498  36.727  47.673  1.00  0.00    +0.000 H 
ATOM    131  H36 UNL A   1      23.807  40.542  50.873  1.00  0.00    +0.000 H 
ATOM    132  H37 UNL A   1      21.389  39.736  51.110  1.00  0.00    +0.000 H 
ATOM    133  H38 UNL A   1      23.006  32.587  44.239  1.00  0.00    +0.000 H 
ATOM    134  H39 UNL A   1      25.517  33.075  44.327  1.00  0.00    +0.000 H 
ATOM     37  C28 UNL A   1      26.192  35.319  45.950  1.00  0.00    +0.000 C 
ATOM     38  C29 UNL A   1      24.839  34.685  45.774  1.00  0.00    +0.000 C 
ATOM     39  N5  UNL A   1      23.694  35.013  46.317  1.00  0.00    +0.000 N 
ATOM     40  C30 UNL A   1      22.758  34.138  45.782  1.00  0.00    +0.000 C 
ATOM     41  C31 UNL A   1      21.438  34.035  46.067  1.00  0.00    +0.000 C 
ATOM     53  C38 UNL A   1      20.750  34.855  47.029  1.00  0.00    +0.000 C 
ATOM     54  C39 UNL A   1      19.428  34.787  47.435  1.00  0.00    +0.000 C 
ATOM     55  C40 UNL A   1      19.202  35.809  48.363  1.00  0.00    +0.000 C 
ATOM     56  C41 UNL A   1      20.393  36.488  48.567  1.00  0.00    +0.000 C 
ATOM     57  N6  UNL A   1      21.333  35.895  47.738  1.00  0.00    +0.000 N 
ATOM     58  C42 UNL A   1      20.655  37.594  49.450  1.00  0.00    +0.000 C 
ATOM     70  C49 UNL A   1      21.857  38.204  49.599  1.00  0.00    +0.000 C 
ATOM     71  N7  UNL A   1      23.063  37.918  48.976  1.00  0.00    +0.000 N 
ATOM     72  C50 UNL A   1      23.924  38.789  49.441  1.00  0.00    +0.000 C 
ATOM     73  C51 UNL A   1      25.390  38.931  49.134  1.00  0.00    +0.000 C 
ATOM     85  C58 UNL A   1      25.974  38.060  48.289  1.00  0.00    +0.000 C 
ATOM     86  C59 UNL A   1      27.381  38.069  47.902  1.00  0.00    +0.000 C 
ATOM     87  C60 UNL A   1      27.596  37.089  47.009  1.00  0.00    +0.000 C 
ATOM     88  C61 UNL A   1      26.346  36.361  46.787  1.00  0.00    +0.000 C 
ATOM     89  N8  UNL A   1      25.440  37.001  47.596  1.00  0.00    +0.000 N 
ATOM     90  C62 UNL A   1      23.352  39.747  50.397  1.00  0.00    +0.000 C 
ATOM     91  C63 UNL A   1      22.100  39.322  50.487  1.00  0.00    +0.000 C 
ATOM     92  C64 UNL A   1      23.459  33.295  44.838  1.00  0.00    +0.000 C 
ATOM     93  C65 UNL A   1      24.760  33.550  44.843  1.00  0.00    +0.000 C 
ATOM    125  H30 UNL A   1      18.730  34.100  47.110  1.00  0.00    +0.000 H 
ATOM    126  H31 UNL A   1      18.300  36.022  48.819  1.00  0.00    +0.000 H 
ATOM    127  H32 UNL A   1      22.275  36.172  47.665  1.00  0.00    +0.000 H 
ATOM    128  H33 UNL A   1      28.096  38.722  48.257  1.00  0.00    +0.000 H 
ENDROOT
BRANCH   37   36
ATOM     33  C24 UNL A   1      29.552  34.016  43.625  1.00  0.00    +0.000 C 
ATOM     34  C25 UNL A   1      29.352  33.491  44.905  1.00  0.00    +0.000 C 
ATOM     35  C26 UNL A   1      28.244  33.892  45.658  1.00  0.00    +0.000 C 
ATOM     36  C27 UNL A   1      27.348  34.845  45.147  1.00  0.00    +0.000 C 
ATOM    135  H40 UNL A   1      26.900  36.057  43.474  1.00  0.00    +0.000 H 
ATOM    136  H41 UNL A   1      28.720  35.225  42.106  1.00  0.00    +0.000 H 
ATOM    123  H28 UNL A   1      30.020  32.808  45.294  1.00  0.00    +0.000 H 
ATOM    124  H29 UNL A   1      28.086  33.487  46.593  1.00  0.00    +0.000 H 
ATOM     94  C66 UNL A   1      27.548  35.350  43.855  1.00  0.00    +0.000 C 
ATOM     95  C67 UNL A   1      28.618  34.903  43.081  1.00  0.00    +0.000 C 
BRANCH   33   31
ATOM     31  C23 UNL A   1      30.730  33.569  42.845  1.00  0.00    +0.000 C 
ATOM     32  O3  UNL A   1      30.608  33.313  41.655  1.00  0.00    +0.000 O 
BRANCH   31   30
ATOM    122  H27 UNL A   1      32.182  32.552  43.781  1.00  0.00    +0.000 H 
ATOM     30  N4  UNL A   1      31.958  33.452  43.451  1.00  0.00    +0.000 N 
BRANCH   30   29
ATOM    121  H26 UNL A   1      33.157  34.963  42.742  1.00  0.00    +0.000 H 
ATOM     29  C22 UNL A   1      32.971  34.471  43.673  1.00  0.00    +0.000 C 
ATOM    120  H25 UNL A   1      33.857  34.003  44.046  1.00  0.00    +0.000 H 
BRANCH   29   28
ATOM     28  C21 UNL A   1      32.509  35.524  44.679  1.00  0.00    +0.000 C 
ATOM    118  H23 UNL A   1      31.836  35.055  45.366  1.00  0.00    +0.000 H 
ATOM    119  H24 UNL A   1      33.395  35.904  45.143  1.00  0.00    +0.000 H 
BRANCH   28   27
ATOM     27  C20 UNL A   1      31.795  36.737  44.066  1.00  0.00    +0.000 C 
ATOM    116  H21 UNL A   1      32.517  37.515  43.941  1.00  0.00    +0.000 H 
ATOM    117  H22 UNL A   1      31.366  36.392  43.149  1.00  0.00    +0.000 H 
BRANCH   27   26
ATOM     26  C19 UNL A   1      30.630  37.303  44.887  1.00  0.00    +0.000 C 
ATOM    115  H20 UNL A   1      30.869  37.130  45.916  1.00  0.00    +0.000 H 
ATOM    114  H19 UNL A   1      29.732  36.807  44.580  1.00  0.00    +0.000 H 
BRANCH   26   25
ATOM     25  C18 UNL A   1      30.421  38.811  44.732  1.00  0.00    +0.000 C 
ATOM    113  H18 UNL A   1      30.242  39.200  45.713  1.00  0.00    +0.000 H 
ATOM    112  H17 UNL A   1      29.598  38.970  44.067  1.00  0.00    +0.000 H 
BRANCH   25   24
ATOM    110  H15 UNL A   1      32.431  38.862  43.984  1.00  0.00    +0.000 H 
ATOM    111  H16 UNL A   1      31.367  40.055  43.266  1.00  0.00    +0.000 H 
ATOM     24  C17 UNL A   1      31.643  39.562  44.174  1.00  0.00    +0.000 C 
BRANCH   24   23
ATOM    109  H14 UNL A   1      31.485  41.295  45.316  1.00  0.00    +0.000 H 
ATOM     23  N3  UNL A   1      32.101  40.550  45.130  1.00  0.00    +0.000 N 
BRANCH   23   21
ATOM     21  C16 UNL A   1      33.300  40.564  45.810  1.00  0.00    +0.000 C 
ATOM     22  O2  UNL A   1      34.348  40.578  45.166  1.00  0.00    +0.000 O 
BRANCH   21    2
ATOM      2  C2  UNL A   1      33.411  40.358  47.312  1.00  0.00    +0.000 C 
BRANCH    2    1
ATOM      1  C1  UNL A   1      33.702  38.930  47.707  1.00  0.00    +0.000 C 
ATOM     98  H3  UNL A   1      33.130  38.267  47.091  1.00  0.00    +0.000 H 
ATOM     97  H2  UNL A   1      34.745  38.729  47.575  1.00  0.00    +0.000 H 
ATOM     96  H1  UNL A   1      33.436  38.782  48.733  1.00  0.00    +0.000 H 
ENDBRANCH    2    1
BRANCH    2    3
ATOM      3  N1  UNL A   1      33.360  41.242  48.266  1.00  0.00    +0.000 N 
BRANCH    3    4
ATOM      4  O1  UNL A   1      32.472  40.915  49.284  1.00  0.00    +0.000 O 
BRANCH    4    5
ATOM     99  H4  UNL A   1      31.977  42.869  49.579  1.00  0.00    +0.000 H 
ATOM    100  H5  UNL A   1      30.894  41.625  50.299  1.00  0.00    +0.000 H 
ATOM      5  C3  UNL A   1      31.472  41.934  49.454  1.00  0.00    +0.000 C 
BRANCH    5    6
ATOM    101  H6  UNL A   1      29.769  40.101  48.388  1.00  0.00    +0.000 H 
ATOM      6  C4  UNL A   1      30.473  42.097  48.320  1.00  0.00    +0.000 C 
ATOM      7  C5  UNL A   1      29.716  40.998  47.879  1.00  0.00    +0.000 C 
ATOM      8  C6  UNL A   1      28.896  41.111  46.757  1.00  0.00    +0.000 C 
ATOM    102  H7  UNL A   1      28.325  40.307  46.451  1.00  0.00    +0.000 H 
ATOM     10  C8  UNL A   1      29.579  43.414  46.495  1.00  0.00    +0.000 C 
ATOM     11  C9  UNL A   1      30.336  43.345  47.669  1.00  0.00    +0.000 C 
ATOM    104  H9  UNL A   1      29.561  44.290  45.949  1.00  0.00    +0.000 H 
ATOM      9  C7  UNL A   1      28.848  42.309  46.051  1.00  0.00    +0.000 C 
ATOM    103  H8  UNL A   1      28.272  42.381  45.197  1.00  0.00    +0.000 H 
BRANCH   11   12
ATOM    105  H10 UNL A   1      31.262  44.410  49.148  1.00  0.00    +0.000 H 
ATOM     12  N2  UNL A   1      31.057  44.451  48.186  1.00  0.00    +0.000 N 
BRANCH   12   13
ATOM    106  H11 UNL A   1      30.555  48.798  46.963  1.00  0.00    +0.000 H 
ATOM    107  H12 UNL A   1      32.531  48.778  45.555  1.00  0.00    +0.000 H 
ATOM    108  H13 UNL A   1      33.832  46.744  45.334  1.00  0.00    +0.000 H 
ATOM     13  C10 UNL A   1      31.523  45.607  47.513  1.00  0.00    +0.000 C 
ATOM     14  C11 UNL A   1      30.758  46.791  47.588  1.00  0.00    +0.000 C 
ATOM     15 Cl1  UNL A   1      29.320  46.870  48.553  1.00  0.00    +0.000 Cl
ATOM     16  C12 UNL A   1      31.123  47.939  46.880  1.00  0.00    +0.000 C 
ATOM     17  C13 UNL A   1      32.250  47.926  46.066  1.00  0.00    +0.000 C 
ATOM     18  C14 UNL A   1      32.999  46.758  45.945  1.00  0.00    +0.000 C 
ATOM     19  C15 UNL A   1      32.631  45.602  46.644  1.00  0.00    +0.000 C 
ATOM     20 Cl2  UNL A   1      33.565  44.176  46.348  1.00  0.00    +0.000 Cl
ENDBRANCH   12   13
ENDBRANCH   11   12
ENDBRANCH    5    6
ENDBRANCH    4    5
ENDBRANCH    3    4
ENDBRANCH    2    3
ENDBRANCH   21    2
ENDBRANCH   23   21
ENDBRANCH   24   23
ENDBRANCH   25   24
ENDBRANCH   26   25
ENDBRANCH   27   26
ENDBRANCH   28   27
ENDBRANCH   29   28
ENDBRANCH   30   29
ENDBRANCH   31   30
ENDBRANCH   33   31
ENDBRANCH   37   36
BRANCH   41   42
ATOM     42  C32 UNL A   1      20.648  32.993  45.330  1.00  0.00    +0.000 C 
ATOM     43  C33 UNL A   1      20.650  31.649  45.734  1.00  0.00    +0.000 C 
ATOM     44  F1  UNL A   1      21.403  31.258  46.774  1.00  0.00    +0.000 F 
ATOM     45  C34 UNL A   1      19.907  30.693  45.047  1.00  0.00    +0.000 C 
ATOM     46  F2  UNL A   1      19.961  29.408  45.422  1.00  0.00    +0.000 F 
ATOM     47  C35 UNL A   1      19.121  31.067  43.966  1.00  0.00    +0.000 C 
ATOM     48  F3  UNL A   1      18.401  30.145  43.310  1.00  0.00    +0.000 F 
ATOM     49  C36 UNL A   1      19.088  32.392  43.563  1.00  0.00    +0.000 C 
ATOM     50  F4  UNL A   1      18.320  32.756  42.527  1.00  0.00    +0.000 F 
ATOM     51  C37 UNL A   1      19.852  33.346  44.231  1.00  0.00    +0.000 C 
ATOM     52  F5  UNL A   1      19.809  34.619  43.807  1.00  0.00    +0.000 F 
ENDBRANCH   41   42
BRANCH   58   59
ATOM     65  F8  UNL A   1      16.430  39.596  52.620  1.00  0.00    +0.000 F 
ATOM     66  C47 UNL A   1      17.775  39.750  50.684  1.00  0.00    +0.000 C 
ATOM     67  F9  UNL A   1      17.115  40.851  50.297  1.00  0.00    +0.000 F 
ATOM     68  C48 UNL A   1      18.802  39.242  49.894  1.00  0.00    +0.000 C 
ATOM     69  F10 UNL A   1      19.104  39.868  48.746  1.00  0.00    +0.000 F 
ATOM     59  C43 UNL A   1      19.520  38.103  50.289  1.00  0.00    +0.000 C 
ATOM     60  C44 UNL A   1      19.168  37.489  51.500  1.00  0.00    +0.000 C 
ATOM     61  F6  UNL A   1      19.815  36.388  51.911  1.00  0.00    +0.000 F 
ATOM     62  C45 UNL A   1      18.123  37.985  52.274  1.00  0.00    +0.000 C 
ATOM     63  F7  UNL A   1      17.774  37.357  53.406  1.00  0.00    +0.000 F 
ATOM     64  C46 UNL A   1      17.432  39.118  51.870  1.00  0.00    +0.000 C 
ENDBRANCH   58   59
BRANCH   73   74
ATOM     74  C52 UNL A   1      26.202  39.995  49.776  1.00  0.00    +0.000 C 
ATOM     75  C53 UNL A   1      26.900  39.746  50.966  1.00  0.00    +0.000 C 
ATOM     76  F11 UNL A   1      26.818  38.540  51.548  1.00  0.00    +0.000 F 
ATOM     77  C54 UNL A   1      27.654  40.742  51.581  1.00  0.00    +0.000 C 
ATOM     78  F12 UNL A   1      28.278  40.488  52.739  1.00  0.00    +0.000 F 
ATOM     79  C55 UNL A   1      27.746  41.999  51.005  1.00  0.00    +0.000 C 
ATOM     80  F13 UNL A   1      28.475  42.956  51.594  1.00  0.00    +0.000 F 
ATOM     81  C56 UNL A   1      27.078  42.266  49.819  1.00  0.00    +0.000 C 
ATOM     82  F14 UNL A   1      27.176  43.476  49.252  1.00  0.00    +0.000 F 
ATOM     83  C57 UNL A   1      26.303  41.277  49.216  1.00  0.00    +0.000 C 
ATOM     84  F15 UNL A   1      25.659  41.564  48.075  1.00  0.00    +0.000 F 
ENDBRANCH   73   74
TORSDOF 22
ENDMDL
