MODEL 1
REMARK VINA RESULT:     -11.7      0.000      0.000
ROOT
ATOM    129  H35 UNL A   1      18.841  34.414  47.777  1.00  0.00    +0.000 H 
ATOM    130  H36 UNL A   1      20.107  38.270  48.673  1.00  0.00    +0.000 H 
ATOM    131  H37 UNL A   1      16.409  40.356  51.354  1.00  0.00    +0.000 H 
ATOM    132  H38 UNL A   1      17.890  42.439  51.514  1.00  0.00    +0.000 H 
ATOM    133  H39 UNL A   1      25.350  37.645  46.792  1.00  0.00    +0.000 H 
ATOM    134  H40 UNL A   1      23.734  35.748  46.200  1.00  0.00    +0.000 H 
ATOM     36  C30 UNL A   1      21.186  36.003  47.437  1.00  0.00    +0.000 C 
ATOM     37  C31 UNL A   1      22.303  37.002  47.435  1.00  0.00    +0.000 C 
ATOM     38  N4  UNL A   1      22.358  38.186  47.989  1.00  0.00    +0.000 N 
ATOM     39  C32 UNL A   1      23.641  38.655  47.745  1.00  0.00    +0.000 C 
ATOM     40  C33 UNL A   1      24.172  39.860  48.063  1.00  0.00    +0.000 C 
ATOM     52  C40 UNL A   1      23.449  40.904  48.740  1.00  0.00    +0.000 C 
ATOM     53  C41 UNL A   1      23.867  42.187  49.045  1.00  0.00    +0.000 C 
ATOM     54  C42 UNL A   1      22.833  42.828  49.740  1.00  0.00    +0.000 C 
ATOM     55  C43 UNL A   1      21.759  41.956  49.833  1.00  0.00    +0.000 C 
ATOM     56  N5  UNL A   1      22.152  40.780  49.218  1.00  0.00    +0.000 N 
ATOM     57  C44 UNL A   1      20.471  42.182  50.439  1.00  0.00    +0.000 C 
ATOM     69  C51 UNL A   1      19.450  41.290  50.466  1.00  0.00    +0.000 C 
ATOM     70  N6  UNL A   1      19.404  40.002  49.954  1.00  0.00    +0.000 N 
ATOM     71  C52 UNL A   1      18.211  39.542  50.246  1.00  0.00    +0.000 C 
ATOM     72  C53 UNL A   1      17.613  38.201  49.927  1.00  0.00    +0.000 C 
ATOM     84  C60 UNL A   1      18.320  37.331  49.182  1.00  0.00    +0.000 C 
ATOM     85  C61 UNL A   1      17.879  35.993  48.802  1.00  0.00    +0.000 C 
ATOM     86  C62 UNL A   1      18.872  35.380  48.140  1.00  0.00    +0.000 C 
ATOM     87  C63 UNL A   1      20.005  36.299  48.013  1.00  0.00    +0.000 C 
ATOM     88  N7  UNL A   1      19.573  37.446  48.630  1.00  0.00    +0.000 N 
ATOM     89  C64 UNL A   1      17.366  40.484  50.990  1.00  0.00    +0.000 C 
ATOM     90  C65 UNL A   1      18.159  41.545  51.073  1.00  0.00    +0.000 C 
ATOM     91  C66 UNL A   1      24.348  37.608  47.039  1.00  0.00    +0.000 C 
ATOM     92  C67 UNL A   1      23.542  36.597  46.754  1.00  0.00    +0.000 C 
ATOM    125  H31 UNL A   1      24.780  42.600  48.803  1.00  0.00    +0.000 H 
ATOM    126  H32 UNL A   1      22.866  43.788  50.117  1.00  0.00    +0.000 H 
ATOM    127  H33 UNL A   1      21.592  39.973  49.133  1.00  0.00    +0.000 H 
ATOM    128  H34 UNL A   1      16.955  35.584  49.011  1.00  0.00    +0.000 H 
ENDROOT
BRANCH   36   35
ATOM     33  C27 UNL A   1      22.159  32.346  47.260  1.00  0.00    +0.000 C 
ATOM     34  C28 UNL A   1      21.774  33.578  47.790  1.00  0.00    +0.000 C 
ATOM     35  C29 UNL A   1      21.422  34.631  46.931  1.00  0.00    +0.000 C 
ATOM    135  H41 UNL A   1      21.043  35.162  44.917  1.00  0.00    +0.000 H 
ATOM    136  H42 UNL A   1      21.490  32.952  44.027  1.00  0.00    +0.000 H 
ATOM    123  H29 UNL A   1      22.453  31.579  47.885  1.00  0.00    +0.000 H 
ATOM    124  H30 UNL A   1      21.749  33.715  48.812  1.00  0.00    +0.000 H 
ATOM     93  C68 UNL A   1      21.333  34.399  45.549  1.00  0.00    +0.000 C 
ATOM     94  C69 UNL A   1      21.636  33.149  45.029  1.00  0.00    +0.000 C 
ATOM     32  C26 UNL A   1      22.140  32.160  45.876  1.00  0.00    +0.000 C 
BRANCH   32   30
ATOM     30  C25 UNL A   1      22.739  30.935  45.311  1.00  0.00    +0.000 C 
ATOM     31  O3  UNL A   1      23.936  30.891  45.076  1.00  0.00    +0.000 O 
BRANCH   30   29
ATOM    122  H28 UNL A   1      22.372  29.072  44.671  1.00  0.00    +0.000 H 
ATOM     29  N3  UNL A   1      21.914  29.872  45.018  1.00  0.00    +0.000 N 
BRANCH   29   28
ATOM    121  H27 UNL A   1      20.209  30.051  46.138  1.00  0.00    +0.000 H 
ATOM     28  C24 UNL A   1      20.466  29.752  45.144  1.00  0.00    +0.000 C 
ATOM    120  H26 UNL A   1      20.192  28.737  44.942  1.00  0.00    +0.000 H 
BRANCH   28   27
ATOM     27  C23 UNL A   1      19.696  30.658  44.187  1.00  0.00    +0.000 C 
ATOM    118  H24 UNL A   1      20.340  31.460  43.892  1.00  0.00    +0.000 H 
ATOM    119  H25 UNL A   1      19.391  30.044  43.364  1.00  0.00    +0.000 H 
BRANCH   27   26
ATOM     26  C22 UNL A   1      18.426  31.258  44.775  1.00  0.00    +0.000 C 
ATOM    116  H22 UNL A   1      18.395  31.013  45.817  1.00  0.00    +0.000 H 
ATOM    117  H23 UNL A   1      18.482  32.310  44.583  1.00  0.00    +0.000 H 
BRANCH   26   25
ATOM     25  C21 UNL A   1      17.119  30.786  44.142  1.00  0.00    +0.000 C 
ATOM    114  H20 UNL A   1      16.311  31.108  44.765  1.00  0.00    +0.000 H 
ATOM    115  H21 UNL A   1      17.086  31.212  43.161  1.00  0.00    +0.000 H 
BRANCH   25   24
ATOM    113  H19 UNL A   1      16.784  28.865  44.928  1.00  0.00    +0.000 H 
ATOM    112  H18 UNL A   1      17.938  28.913  43.566  1.00  0.00    +0.000 H 
ATOM     24  C20 UNL A   1      17.011  29.269  43.963  1.00  0.00    +0.000 C 
BRANCH   24   23
ATOM    111  H17 UNL A   1      16.327  28.336  42.180  1.00  0.00    +0.000 H 
ATOM    110  H16 UNL A   1      15.319  29.673  42.728  1.00  0.00    +0.000 H 
ATOM     23  C19 UNL A   1      15.886  28.818  43.028  1.00  0.00    +0.000 C 
BRANCH   23   22
ATOM    109  H15 UNL A   1      14.246  28.222  44.203  1.00  0.00    +0.000 H 
ATOM     22  N2  UNL A   1      15.002  27.872  43.680  1.00  0.00    +0.000 N 
BRANCH   22    2
ATOM      1  O1  UNL A   1      16.212  25.935  43.888  1.00  0.00    +0.000 O 
ATOM      2  C1  UNL A   1      15.169  26.514  43.603  1.00  0.00    +0.000 C 
BRANCH    2    3
ATOM      3  C2  UNL A   1      13.948  25.767  43.111  1.00  0.00    +0.000 C 
ATOM     95  H1  UNL A   1      13.732  26.080  42.112  1.00  0.00    +0.000 H 
ATOM     96  H2  UNL A   1      13.138  25.990  43.774  1.00  0.00    +0.000 H 
BRANCH    3    4
ATOM     97  H3  UNL A   1      13.383  23.830  43.728  1.00  0.00    +0.000 H 
ATOM     98  H4  UNL A   1      15.144  24.106  43.487  1.00  0.00    +0.000 H 
ATOM      4  C3  UNL A   1      14.151  24.260  43.119  1.00  0.00    +0.000 C 
BRANCH    4    5
ATOM      5  C4  UNL A   1      14.109  23.579  41.788  1.00  0.00    +0.000 C 
ATOM      6  N1  UNL A   1      14.759  23.942  40.699  1.00  0.00    +0.000 N 
ATOM      7  C5  UNL A   1      14.380  23.016  39.762  1.00  0.00    +0.000 C 
ATOM     14  C12 UNL A   1      13.540  22.077  40.333  1.00  0.00    +0.000 C 
ATOM     21  O2  UNL A   1      13.339  22.446  41.641  1.00  0.00    +0.000 O 
BRANCH    7    8
ATOM     99  H5  UNL A   1      16.479  21.645  38.807  1.00  0.00    +0.000 H 
ATOM    100  H6  UNL A   1      17.539  21.920  36.643  1.00  0.00    +0.000 H 
ATOM    101  H7  UNL A   1      16.521  23.352  34.971  1.00  0.00    +0.000 H 
ATOM    102  H8  UNL A   1      14.403  24.441  35.432  1.00  0.00    +0.000 H 
ATOM    103  H9  UNL A   1      13.349  24.188  37.604  1.00  0.00    +0.000 H 
ATOM      8  C6  UNL A   1      14.866  22.952  38.400  1.00  0.00    +0.000 C 
ATOM      9  C7  UNL A   1      16.052  22.264  38.100  1.00  0.00    +0.000 C 
ATOM     10  C8  UNL A   1      16.656  22.411  36.852  1.00  0.00    +0.000 C 
ATOM     11  C9  UNL A   1      16.063  23.223  35.888  1.00  0.00    +0.000 C 
ATOM     12  C10 UNL A   1      14.853  23.863  36.159  1.00  0.00    +0.000 C 
ATOM     13  C11 UNL A   1      14.249  23.723  37.410  1.00  0.00    +0.000 C 
ENDBRANCH    7    8
BRANCH   14   15
ATOM    104  H10 UNL A   1      14.427  20.368  38.439  1.00  0.00    +0.000 H 
ATOM    105  H11 UNL A   1      13.461  18.232  37.811  1.00  0.00    +0.000 H 
ATOM    106  H12 UNL A   1      11.427  17.448  38.872  1.00  0.00    +0.000 H 
ATOM    107  H13 UNL A   1      10.307  18.835  40.517  1.00  0.00    +0.000 H 
ATOM    108  H14 UNL A   1      11.251  20.977  41.129  1.00  0.00    +0.000 H 
ATOM     15  C13 UNL A   1      12.937  20.841  39.858  1.00  0.00    +0.000 C 
ATOM     16  C14 UNL A   1      13.557  20.046  38.889  1.00  0.00    +0.000 C 
ATOM     17  C15 UNL A   1      12.999  18.813  38.527  1.00  0.00    +0.000 C 
ATOM     18  C16 UNL A   1      11.822  18.366  39.130  1.00  0.00    +0.000 C 
ATOM     19  C17 UNL A   1      11.184  19.157  40.078  1.00  0.00    +0.000 C 
ATOM     20  C18 UNL A   1      11.734  20.387  40.432  1.00  0.00    +0.000 C 
ENDBRANCH   14   15
ENDBRANCH    4    5
ENDBRANCH    3    4
ENDBRANCH    2    3
ENDBRANCH   22    2
ENDBRANCH   23   22
ENDBRANCH   24   23
ENDBRANCH   25   24
ENDBRANCH   26   25
ENDBRANCH   27   26
ENDBRANCH   28   27
ENDBRANCH   29   28
ENDBRANCH   30   29
ENDBRANCH   32   30
ENDBRANCH   36   35
BRANCH   40   41
ATOM     41  C34 UNL A   1      25.600  40.104  47.675  1.00  0.00    +0.000 C 
ATOM     42  C35 UNL A   1      25.949  40.505  46.376  1.00  0.00    +0.000 C 
ATOM     43  F1  UNL A   1      25.001  40.667  45.442  1.00  0.00    +0.000 F 
ATOM     44  C36 UNL A   1      27.282  40.689  46.017  1.00  0.00    +0.000 C 
ATOM     45  F2  UNL A   1      27.595  41.011  44.753  1.00  0.00    +0.000 F 
ATOM     46  C37 UNL A   1      28.286  40.514  46.956  1.00  0.00    +0.000 C 
ATOM     47  F3  UNL A   1      29.569  40.687  46.607  1.00  0.00    +0.000 F 
ATOM     48  C38 UNL A   1      27.962  40.148  48.253  1.00  0.00    +0.000 C 
ATOM     49  F4  UNL A   1      28.932  39.988  49.165  1.00  0.00    +0.000 F 
ATOM     50  C39 UNL A   1      26.633  39.934  48.610  1.00  0.00    +0.000 C 
ATOM     51  F5  UNL A   1      26.354  39.555  49.865  1.00  0.00    +0.000 F 
ENDBRANCH   40   41
BRANCH   57   58
ATOM     65  C49 UNL A   1      20.243  44.932  53.055  1.00  0.00    +0.000 C 
ATOM     66  F9  UNL A   1      20.504  45.095  54.358  1.00  0.00    +0.000 F 
ATOM     67  C50 UNL A   1      20.515  43.715  52.439  1.00  0.00    +0.000 C 
ATOM     68  F10 UNL A   1      21.047  42.724  53.170  1.00  0.00    +0.000 F 
ATOM     58  C45 UNL A   1      20.228  43.515  51.080  1.00  0.00    +0.000 C 
ATOM     59  C46 UNL A   1      19.669  44.580  50.360  1.00  0.00    +0.000 C 
ATOM     60  F6  UNL A   1      19.394  44.441  49.053  1.00  0.00    +0.000 F 
ATOM     61  C47 UNL A   1      19.420  45.804  50.973  1.00  0.00    +0.000 C 
ATOM     62  F7  UNL A   1      18.919  46.821  50.258  1.00  0.00    +0.000 F 
ATOM     63  C48 UNL A   1      19.701  45.977  52.321  1.00  0.00    +0.000 C 
ATOM     64  F8  UNL A   1      19.453  47.154  52.912  1.00  0.00    +0.000 F 
ENDBRANCH   57   58
BRANCH   72   73
ATOM     73  C54 UNL A   1      16.254  37.830  50.394  1.00  0.00    +0.000 C 
ATOM     74  C55 UNL A   1      16.006  37.580  51.750  1.00  0.00    +0.000 C 
ATOM     75  F11 UNL A   1      17.014  37.624  52.634  1.00  0.00    +0.000 F 
ATOM     76  C56 UNL A   1      14.727  37.262  52.202  1.00  0.00    +0.000 C 
ATOM     77  F12 UNL A   1      14.522  37.001  53.499  1.00  0.00    +0.000 F 
ATOM     78  C57 UNL A   1      13.667  37.210  51.309  1.00  0.00    +0.000 C 
ATOM     79  F13 UNL A   1      12.435  36.916  51.744  1.00  0.00    +0.000 F 
ATOM     80  C58 UNL A   1      13.888  37.459  49.962  1.00  0.00    +0.000 C 
ATOM     81  F14 UNL A   1      12.863  37.425  49.099  1.00  0.00    +0.000 F 
ATOM     82  C59 UNL A   1      15.171  37.756  49.507  1.00  0.00    +0.000 C 
ATOM     83  F15 UNL A   1      15.355  37.996  48.201  1.00  0.00    +0.000 F 
ENDBRANCH   72   73
TORSDOF 19
ENDMDL
MODEL 2
REMARK VINA RESULT:     -11.3     24.881     31.498
ROOT
ATOM    129  H35 UNL A   1      38.607  26.675  27.808  1.00  0.00    +0.000 H 
ATOM    130  H36 UNL A   1      42.235  27.585  29.620  1.00  0.00    +0.000 H 
ATOM    131  H37 UNL A   1      45.378  23.873  28.373  1.00  0.00    +0.000 H 
ATOM    132  H38 UNL A   1      47.170  25.134  29.698  1.00  0.00    +0.000 H 
ATOM    133  H39 UNL A   1      40.797  32.729  31.319  1.00  0.00    +0.000 H 
ATOM    134  H40 UNL A   1      38.876  31.286  30.429  1.00  0.00    +0.000 H 
ATOM     36  C30 UNL A   1      39.738  28.812  29.322  1.00  0.00    +0.000 C 
ATOM     37  C31 UNL A   1      40.565  29.816  30.067  1.00  0.00    +0.000 C 
ATOM     38  N4  UNL A   1      41.839  29.782  30.366  1.00  0.00    +0.000 N 
ATOM     39  C32 UNL A   1      42.107  30.990  30.994  1.00  0.00    +0.000 C 
ATOM     40  C33 UNL A   1      43.270  31.411  31.546  1.00  0.00    +0.000 C 
ATOM     52  C40 UNL A   1      44.478  30.629  31.573  1.00  0.00    +0.000 C 
ATOM     53  C41 UNL A   1      45.689  30.929  32.170  1.00  0.00    +0.000 C 
ATOM     54  C42 UNL A   1      46.579  29.881  31.900  1.00  0.00    +0.000 C 
ATOM     55  C43 UNL A   1      45.910  28.913  31.167  1.00  0.00    +0.000 C 
ATOM     56  N5  UNL A   1      44.624  29.386  30.972  1.00  0.00    +0.000 N 
ATOM     57  C44 UNL A   1      46.409  27.652  30.682  1.00  0.00    +0.000 C 
ATOM     69  C51 UNL A   1      45.685  26.734  29.994  1.00  0.00    +0.000 C 
ATOM     70  N6  UNL A   1      44.357  26.789  29.599  1.00  0.00    +0.000 N 
ATOM     71  C52 UNL A   1      44.128  25.674  28.950  1.00  0.00    +0.000 C 
ATOM     72  C53 UNL A   1      42.855  25.200  28.307  1.00  0.00    +0.000 C 
ATOM     84  C60 UNL A   1      41.742  25.943  28.438  1.00  0.00    +0.000 C 
ATOM     85  C61 UNL A   1      40.440  25.622  27.862  1.00  0.00    +0.000 C 
ATOM     86  C62 UNL A   1      39.590  26.628  28.120  1.00  0.00    +0.000 C 
ATOM     87  C63 UNL A   1      40.278  27.647  28.915  1.00  0.00    +0.000 C 
ATOM     88  N7  UNL A   1      41.541  27.138  29.086  1.00  0.00    +0.000 N 
ATOM     89  C64 UNL A   1      45.293  24.786  28.847  1.00  0.00    +0.000 C 
ATOM     90  C65 UNL A   1      46.208  25.466  29.526  1.00  0.00    +0.000 C 
ATOM     91  C66 UNL A   1      40.879  31.755  30.986  1.00  0.00    +0.000 C 
ATOM     92  C67 UNL A   1      39.877  31.043  30.494  1.00  0.00    +0.000 C 
ATOM    125  H31 UNL A   1      45.900  31.775  32.719  1.00  0.00    +0.000 H 
ATOM    126  H32 UNL A   1      47.566  29.838  32.198  1.00  0.00    +0.000 H 
ATOM    127  H33 UNL A   1      43.916  28.910  30.478  1.00  0.00    +0.000 H 
ATOM    128  H34 UNL A   1      40.211  24.762  27.341  1.00  0.00    +0.000 H 
ENDROOT
BRANCH   36   35
ATOM     33  C27 UNL A   1      36.795  30.046  27.281  1.00  0.00    +0.000 C 
ATOM     34  C28 UNL A   1      38.066  29.562  27.592  1.00  0.00    +0.000 C 
ATOM     35  C29 UNL A   1      38.359  29.157  28.903  1.00  0.00    +0.000 C 
ATOM    135  H41 UNL A   1      37.540  28.790  30.820  1.00  0.00    +0.000 H 
ATOM    136  H42 UNL A   1      35.279  29.413  30.208  1.00  0.00    +0.000 H 
ATOM    123  H29 UNL A   1      36.583  30.379  26.327  1.00  0.00    +0.000 H 
ATOM    124  H30 UNL A   1      38.789  29.503  26.859  1.00  0.00    +0.000 H 
ATOM     93  C68 UNL A   1      37.336  29.118  29.863  1.00  0.00    +0.000 C 
ATOM     94  C69 UNL A   1      36.050  29.521  29.531  1.00  0.00    +0.000 C 
ATOM     32  C26 UNL A   1      35.811  30.074  28.272  1.00  0.00    +0.000 C 
BRANCH   32   30
ATOM     30  C25 UNL A   1      34.539  30.771  27.997  1.00  0.00    +0.000 C 
ATOM     31  O3  UNL A   1      33.641  30.194  27.404  1.00  0.00    +0.000 O 
BRANCH   30   29
ATOM    122  H28 UNL A   1      33.598  32.291  28.900  1.00  0.00    +0.000 H 
ATOM     29  N3  UNL A   1      34.411  32.086  28.383  1.00  0.00    +0.000 N 
BRANCH   29   28
ATOM    121  H27 UNL A   1      34.816  33.846  27.417  1.00  0.00    +0.000 H 
ATOM     28  C24 UNL A   1      35.295  33.221  28.142  1.00  0.00    +0.000 C 
ATOM    120  H26 UNL A   1      36.237  32.848  27.796  1.00  0.00    +0.000 H 
BRANCH   28   27
ATOM     27  C23 UNL A   1      35.540  34.075  29.382  1.00  0.00    +0.000 C 
ATOM    118  H24 UNL A   1      36.541  34.452  29.337  1.00  0.00    +0.000 H 
ATOM    119  H25 UNL A   1      34.803  34.852  29.368  1.00  0.00    +0.000 H 
BRANCH   27   26
ATOM     26  C22 UNL A   1      35.367  33.334  30.701  1.00  0.00    +0.000 C 
ATOM    116  H22 UNL A   1      34.922  34.008  31.403  1.00  0.00    +0.000 H 
ATOM    117  H23 UNL A   1      34.761  32.480  30.480  1.00  0.00    +0.000 H 
BRANCH   26   25
ATOM     25  C21 UNL A   1      36.651  32.787  31.322  1.00  0.00    +0.000 C 
ATOM    114  H20 UNL A   1      36.606  31.719  31.295  1.00  0.00    +0.000 H 
ATOM    115  H21 UNL A   1      37.460  33.187  30.748  1.00  0.00    +0.000 H 
BRANCH   25   24
ATOM    113  H19 UNL A   1      35.929  33.463  33.178  1.00  0.00    +0.000 H 
ATOM    112  H18 UNL A   1      37.566  34.048  32.766  1.00  0.00    +0.000 H 
ATOM     24  C20 UNL A   1      36.889  33.219  32.772  1.00  0.00    +0.000 C 
BRANCH   24   23
ATOM    111  H17 UNL A   1      37.313  31.182  33.203  1.00  0.00    +0.000 H 
ATOM    110  H16 UNL A   1      36.996  32.170  34.627  1.00  0.00    +0.000 H 
ATOM     23  C19 UNL A   1      37.477  32.130  33.672  1.00  0.00    +0.000 C 
BRANCH   23   22
ATOM    109  H15 UNL A   1      39.387  32.893  33.231  1.00  0.00    +0.000 H 
ATOM     22  N2  UNL A   1      38.904  32.306  33.855  1.00  0.00    +0.000 N 
BRANCH   22    2
ATOM      1  O1  UNL A   1      39.685  32.122  36.003  1.00  0.00    +0.000 O 
ATOM      2  C1  UNL A   1      39.613  31.695  34.856  1.00  0.00    +0.000 C 
BRANCH    2    3
ATOM      3  C2  UNL A   1      40.332  30.435  34.426  1.00  0.00    +0.000 C 
ATOM     95  H1  UNL A   1      41.217  30.709  33.890  1.00  0.00    +0.000 H 
ATOM     96  H2  UNL A   1      39.663  29.869  33.811  1.00  0.00    +0.000 H 
BRANCH    3    4
ATOM     97  H3  UNL A   1      39.913  28.894  35.804  1.00  0.00    +0.000 H 
ATOM     98  H4  UNL A   1      40.942  30.240  36.405  1.00  0.00    +0.000 H 
ATOM      4  C3  UNL A   1      40.726  29.561  35.607  1.00  0.00    +0.000 C 
BRANCH    4    5
ATOM      5  C4  UNL A   1      41.961  28.737  35.438  1.00  0.00    +0.000 C 
ATOM      6  N1  UNL A   1      43.170  29.034  35.875  1.00  0.00    +0.000 N 
ATOM      7  C5  UNL A   1      43.941  27.979  35.460  1.00  0.00    +0.000 C 
ATOM     14  C12 UNL A   1      43.156  27.038  34.820  1.00  0.00    +0.000 C 
ATOM     21  O2  UNL A   1      41.874  27.530  34.780  1.00  0.00    +0.000 O 
BRANCH    7    8
ATOM     99  H5  UNL A   1      45.982  29.571  34.754  1.00  0.00    +0.000 H 
ATOM    100  H6  UNL A   1      48.346  29.034  34.827  1.00  0.00    +0.000 H 
ATOM    101  H7  UNL A   1      49.086  26.983  35.890  1.00  0.00    +0.000 H 
ATOM    102  H8  UNL A   1      47.474  25.514  36.950  1.00  0.00    +0.000 H 
ATOM    103  H9  UNL A   1      45.105  26.035  36.860  1.00  0.00    +0.000 H 
ATOM      8  C6  UNL A   1      45.351  27.809  35.740  1.00  0.00    +0.000 C 
ATOM      9  C7  UNL A   1      46.296  28.693  35.196  1.00  0.00    +0.000 C 
ATOM     10  C8  UNL A   1      47.656  28.391  35.248  1.00  0.00    +0.000 C 
ATOM     11  C9  UNL A   1      48.081  27.220  35.870  1.00  0.00    +0.000 C 
ATOM     12  C10 UNL A   1      47.152  26.366  36.466  1.00  0.00    +0.000 C 
ATOM     13  C11 UNL A   1      45.789  26.662  36.409  1.00  0.00    +0.000 C 
ENDBRANCH    7    8
BRANCH   14   15
ATOM    104  H10 UNL A   1      44.427  26.328  32.544  1.00  0.00    +0.000 H 
ATOM    105  H11 UNL A   1      44.967  24.084  31.795  1.00  0.00    +0.000 H 
ATOM    106  H12 UNL A   1      44.286  22.159  33.101  1.00  0.00    +0.000 H 
ATOM    107  H13 UNL A   1      42.995  22.468  35.132  1.00  0.00    +0.000 H 
ATOM    108  H14 UNL A   1      42.432  24.702  35.872  1.00  0.00    +0.000 H 
ATOM     15  C13 UNL A   1      43.408  25.707  34.286  1.00  0.00    +0.000 C 
ATOM     16  C14 UNL A   1      44.126  25.514  33.102  1.00  0.00    +0.000 C 
ATOM     17  C15 UNL A   1      44.438  24.219  32.670  1.00  0.00    +0.000 C 
ATOM     18  C16 UNL A   1      44.038  23.110  33.416  1.00  0.00    +0.000 C 
ATOM     19  C17 UNL A   1      43.303  23.286  34.583  1.00  0.00    +0.000 C 
ATOM     20  C18 UNL A   1      42.986  24.575  35.010  1.00  0.00    +0.000 C 
ENDBRANCH   14   15
ENDBRANCH    4    5
ENDBRANCH    3    4
ENDBRANCH    2    3
ENDBRANCH   22    2
ENDBRANCH   23   22
ENDBRANCH   24   23
ENDBRANCH   25   24
ENDBRANCH   26   25
ENDBRANCH   27   26
ENDBRANCH   28   27
ENDBRANCH   29   28
ENDBRANCH   30   29
ENDBRANCH   32   30
ENDBRANCH   36   35
BRANCH   40   41
ATOM     41  C34 UNL A   1      43.280  32.777  32.165  1.00  0.00    +0.000 C 
ATOM     42  C35 UNL A   1      43.168  32.954  33.554  1.00  0.00    +0.000 C 
ATOM     43  F1  UNL A   1      43.036  31.891  34.361  1.00  0.00    +0.000 F 
ATOM     44  C36 UNL A   1      43.137  34.229  34.113  1.00  0.00    +0.000 C 
ATOM     45  F2  UNL A   1      42.966  34.374  35.435  1.00  0.00    +0.000 F 
ATOM     46  C37 UNL A   1      43.256  35.348  33.303  1.00  0.00    +0.000 C 
ATOM     47  F3  UNL A   1      43.222  36.574  33.844  1.00  0.00    +0.000 F 
ATOM     48  C38 UNL A   1      43.399  35.195  31.933  1.00  0.00    +0.000 C 
ATOM     49  F4  UNL A   1      43.525  36.277  31.150  1.00  0.00    +0.000 F 
ATOM     50  C39 UNL A   1      43.401  33.923  31.365  1.00  0.00    +0.000 C 
ATOM     51  F5  UNL A   1      43.514  33.811  30.034  1.00  0.00    +0.000 F 
ENDBRANCH   40   41
BRANCH   57   58
ATOM     65  C49 UNL A   1      50.188  27.396  30.344  1.00  0.00    +0.000 C 
ATOM     66  F9  UNL A   1      51.145  27.806  29.502  1.00  0.00    +0.000 F 
ATOM     67  C50 UNL A   1      48.862  27.750  30.113  1.00  0.00    +0.000 C 
ATOM     68  F10 UNL A   1      48.571  28.511  29.047  1.00  0.00    +0.000 F 
ATOM     58  C45 UNL A   1      47.841  27.313  30.970  1.00  0.00    +0.000 C 
ATOM     59  C46 UNL A   1      48.195  26.517  32.068  1.00  0.00    +0.000 C 
ATOM     60  F6  UNL A   1      47.254  26.090  32.924  1.00  0.00    +0.000 F 
ATOM     61  C47 UNL A   1      49.525  26.184  32.309  1.00  0.00    +0.000 C 
ATOM     62  F7  UNL A   1      49.846  25.453  33.385  1.00  0.00    +0.000 F 
ATOM     63  C48 UNL A   1      50.519  26.618  31.443  1.00  0.00    +0.000 C 
ATOM     64  F8  UNL A   1      51.798  26.290  31.672  1.00  0.00    +0.000 F 
ENDBRANCH   57   58
BRANCH   72   73
ATOM     73  C54 UNL A   1      42.799  23.921  27.556  1.00  0.00    +0.000 C 
ATOM     74  C55 UNL A   1      42.446  22.728  28.199  1.00  0.00    +0.000 C 
ATOM     75  F11 UNL A   1      42.207  22.725  29.519  1.00  0.00    +0.000 F 
ATOM     76  C56 UNL A   1      42.360  21.528  27.496  1.00  0.00    +0.000 C 
ATOM     77  F12 UNL A   1      42.048  20.396  28.140  1.00  0.00    +0.000 F 
ATOM     78  C57 UNL A   1      42.603  21.504  26.130  1.00  0.00    +0.000 C 
ATOM     79  F13 UNL A   1      42.509  20.353  25.451  1.00  0.00    +0.000 F 
ATOM     80  C58 UNL A   1      42.948  22.675  25.470  1.00  0.00    +0.000 C 
ATOM     81  F14 UNL A   1      43.168  22.658  24.149  1.00  0.00    +0.000 F 
ATOM     82  C59 UNL A   1      43.055  23.871  26.178  1.00  0.00    +0.000 C 
ATOM     83  F15 UNL A   1      43.387  24.987  25.515  1.00  0.00    +0.000 F 
ENDBRANCH   72   73
TORSDOF 19
ENDMDL
MODEL 3
REMARK VINA RESULT:     -11.1      7.967     11.538
ROOT
ATOM    129  H35 UNL A   1      25.899  37.578  45.147  1.00  0.00    +0.000 H 
ATOM    130  H36 UNL A   1      23.564  40.299  47.250  1.00  0.00    +0.000 H 
ATOM    131  H37 UNL A   1      19.347  37.859  48.464  1.00  0.00    +0.000 H 
ATOM    132  H38 UNL A   1      18.614  40.005  49.652  1.00  0.00    +0.000 H 
ATOM    133  H39 UNL A   1      27.496  44.268  47.690  1.00  0.00    +0.000 H 
ATOM    134  H40 UNL A   1      28.053  42.338  46.101  1.00  0.00    +0.000 H 
ATOM     36  C30 UNL A   1      26.141  40.234  46.162  1.00  0.00    +0.000 C 
ATOM     37  C31 UNL A   1      26.049  41.570  46.835  1.00  0.00    +0.000 C 
ATOM     38  N4  UNL A   1      25.094  42.056  47.585  1.00  0.00    +0.000 N 
ATOM     39  C32 UNL A   1      25.545  43.298  48.008  1.00  0.00    +0.000 C 
ATOM     40  C33 UNL A   1      24.895  44.220  48.757  1.00  0.00    +0.000 C 
ATOM     52  C40 UNL A   1      23.556  44.051  49.257  1.00  0.00    +0.000 C 
ATOM     53  C41 UNL A   1      22.776  44.951  49.961  1.00  0.00    +0.000 C 
ATOM     54  C42 UNL A   1      21.559  44.328  50.263  1.00  0.00    +0.000 C 
ATOM     55  C43 UNL A   1      21.567  43.055  49.715  1.00  0.00    +0.000 C 
ATOM     56  N5  UNL A   1      22.798  42.898  49.103  1.00  0.00    +0.000 N 
ATOM     57  C44 UNL A   1      20.528  42.057  49.748  1.00  0.00    +0.000 C 
ATOM     69  C51 UNL A   1      20.592  40.837  49.160  1.00  0.00    +0.000 C 
ATOM     70  N6  UNL A   1      21.629  40.276  48.429  1.00  0.00    +0.000 N 
ATOM     71  C52 UNL A   1      21.220  39.078  48.088  1.00  0.00    +0.000 C 
ATOM     72  C53 UNL A   1      21.936  38.030  47.283  1.00  0.00    +0.000 C 
ATOM     84  C60 UNL A   1      23.137  38.322  46.752  1.00  0.00    +0.000 C 
ATOM     85  C61 UNL A   1      23.955  37.409  45.961  1.00  0.00    +0.000 C 
ATOM     86  C62 UNL A   1      25.122  38.007  45.674  1.00  0.00    +0.000 C 
ATOM     87  C63 UNL A   1      25.117  39.362  46.229  1.00  0.00    +0.000 C 
ATOM     88  N7  UNL A   1      23.883  39.474  46.819  1.00  0.00    +0.000 N 
ATOM     89  C64 UNL A   1      19.878  38.737  48.576  1.00  0.00    +0.000 C 
ATOM     90  C65 UNL A   1      19.528  39.855  49.198  1.00  0.00    +0.000 C 
ATOM     91  C66 UNL A   1      26.880  43.468  47.476  1.00  0.00    +0.000 C 
ATOM     92  C67 UNL A   1      27.208  42.462  46.679  1.00  0.00    +0.000 C 
ATOM    125  H31 UNL A   1      23.044  45.913  50.218  1.00  0.00    +0.000 H 
ATOM    126  H32 UNL A   1      20.785  44.748  50.803  1.00  0.00    +0.000 H 
ATOM    127  H33 UNL A   1      23.094  42.087  48.628  1.00  0.00    +0.000 H 
ATOM    128  H34 UNL A   1      23.681  36.457  45.671  1.00  0.00    +0.000 H 
ENDROOT
BRANCH   36   35
ATOM     33  C27 UNL A   1      29.369  38.374  45.474  1.00  0.00    +0.000 C 
ATOM     34  C28 UNL A   1      28.089  38.648  45.957  1.00  0.00    +0.000 C 
ATOM     35  C29 UNL A   1      27.416  39.807  45.540  1.00  0.00    +0.000 C 
ATOM    135  H41 UNL A   1      27.474  41.451  44.208  1.00  0.00    +0.000 H 
ATOM    136  H42 UNL A   1      29.595  40.838  43.206  1.00  0.00    +0.000 H 
ATOM    123  H29 UNL A   1      29.883  37.541  45.804  1.00  0.00    +0.000 H 
ATOM    124  H30 UNL A   1      27.638  37.999  46.621  1.00  0.00    +0.000 H 
ATOM     93  C68 UNL A   1      27.980  40.615  44.540  1.00  0.00    +0.000 C 
ATOM     94  C69 UNL A   1      29.217  40.296  43.999  1.00  0.00    +0.000 C 
ATOM     32  C26 UNL A   1      29.946  39.234  44.537  1.00  0.00    +0.000 C 
BRANCH   32   30
ATOM     30  C25 UNL A   1      31.369  39.056  44.185  1.00  0.00    +0.000 C 
ATOM     31  O3  UNL A   1      31.696  38.199  43.379  1.00  0.00    +0.000 O 
BRANCH   30   29
ATOM    122  H28 UNL A   1      33.234  39.713  44.505  1.00  0.00    +0.000 H 
ATOM     29  N3  UNL A   1      32.308  39.842  44.814  1.00  0.00    +0.000 N 
BRANCH   29   28
ATOM    121  H27 UNL A   1      31.097  41.071  45.917  1.00  0.00    +0.000 H 
ATOM     28  C24 UNL A   1      32.139  40.834  45.870  1.00  0.00    +0.000 C 
ATOM    120  H26 UNL A   1      32.738  41.688  45.631  1.00  0.00    +0.000 H 
BRANCH   28   27
ATOM     27  C23 UNL A   1      32.548  40.329  47.250  1.00  0.00    +0.000 C 
ATOM    118  H24 UNL A   1      33.135  39.443  47.123  1.00  0.00    +0.000 H 
ATOM    119  H25 UNL A   1      33.091  41.125  47.718  1.00  0.00    +0.000 H 
BRANCH   27   26
ATOM     26  C22 UNL A   1      31.381  39.999  48.171  1.00  0.00    +0.000 C 
ATOM    116  H22 UNL A   1      31.096  38.983  47.993  1.00  0.00    +0.000 H 
ATOM    117  H23 UNL A   1      31.732  40.180  49.166  1.00  0.00    +0.000 H 
BRANCH   26   25
ATOM     25  C21 UNL A   1      30.139  40.872  48.000  1.00  0.00    +0.000 C 
ATOM    114  H20 UNL A   1      30.316  41.550  47.192  1.00  0.00    +0.000 H 
ATOM    115  H21 UNL A   1      29.323  40.205  47.817  1.00  0.00    +0.000 H 
BRANCH   25   24
ATOM    113  H19 UNL A   1      29.548  42.681  48.893  1.00  0.00    +0.000 H 
ATOM    112  H18 UNL A   1      30.584  41.656  49.924  1.00  0.00    +0.000 H 
ATOM     24  C20 UNL A   1      29.763  41.692  49.238  1.00  0.00    +0.000 C 
BRANCH   24   23
ATOM    111  H17 UNL A   1      27.779  41.984  49.939  1.00  0.00    +0.000 H 
ATOM    110  H16 UNL A   1      28.766  40.959  50.976  1.00  0.00    +0.000 H 
ATOM     23  C19 UNL A   1      28.509  41.204  49.967  1.00  0.00    +0.000 C 
BRANCH   23   22
ATOM    109  H15 UNL A   1      28.214  39.829  48.402  1.00  0.00    +0.000 H 
ATOM     22  N2  UNL A   1      27.947  40.031  49.328  1.00  0.00    +0.000 N 
BRANCH   22    2
ATOM      1  O1  UNL A   1      26.125  39.570  50.641  1.00  0.00    +0.000 O 
ATOM      2  C1  UNL A   1      27.063  39.188  49.950  1.00  0.00    +0.000 C 
BRANCH    2    3
ATOM      3  C2  UNL A   1      27.350  37.718  49.732  1.00  0.00    +0.000 C 
ATOM     95  H1  UNL A   1      27.965  37.365  50.532  1.00  0.00    +0.000 H 
ATOM     96  H2  UNL A   1      27.842  37.617  48.787  1.00  0.00    +0.000 H 
BRANCH    3    4
ATOM     97  H3  UNL A   1      25.251  37.554  49.602  1.00  0.00    +0.000 H 
ATOM     98  H4  UNL A   1      26.087  36.300  50.583  1.00  0.00    +0.000 H 
ATOM      4  C3  UNL A   1      26.080  36.882  49.685  1.00  0.00    +0.000 C 
BRANCH    4    5
ATOM      5  C4  UNL A   1      25.979  35.894  48.569  1.00  0.00    +0.000 C 
ATOM      6  N1  UNL A   1      24.983  35.055  48.350  1.00  0.00    +0.000 N 
ATOM      7  C5  UNL A   1      25.370  34.367  47.230  1.00  0.00    +0.000 C 
ATOM     14  C12 UNL A   1      26.581  34.850  46.768  1.00  0.00    +0.000 C 
ATOM     21  O2  UNL A   1      26.995  35.824  47.642  1.00  0.00    +0.000 O 
BRANCH    7    8
ATOM     99  H5  UNL A   1      25.556  31.698  47.442  1.00  0.00    +0.000 H 
ATOM    100  H6  UNL A   1      24.565  30.044  45.971  1.00  0.00    +0.000 H 
ATOM    101  H7  UNL A   1      22.992  30.737  44.260  1.00  0.00    +0.000 H 
ATOM    102  H8  UNL A   1      22.348  33.068  44.074  1.00  0.00    +0.000 H 
ATOM    103  H9  UNL A   1      23.354  34.730  45.529  1.00  0.00    +0.000 H 
ATOM      8  C6  UNL A   1      24.586  33.355  46.554  1.00  0.00    +0.000 C 
ATOM      9  C7  UNL A   1      24.896  31.994  46.706  1.00  0.00    +0.000 C 
ATOM     10  C8  UNL A   1      24.318  31.041  45.870  1.00  0.00    +0.000 C 
ATOM     11  C9  UNL A   1      23.404  31.438  44.896  1.00  0.00    +0.000 C 
ATOM     12  C10 UNL A   1      23.046  32.782  44.778  1.00  0.00    +0.000 C 
ATOM     13  C11 UNL A   1      23.628  33.740  45.610  1.00  0.00    +0.000 C 
ENDBRANCH    7    8
BRANCH   14   15
ATOM    104  H10 UNL A   1      28.952  33.569  46.589  1.00  0.00    +0.000 H 
ATOM    105  H11 UNL A   1      30.173  33.000  44.570  1.00  0.00    +0.000 H 
ATOM    106  H12 UNL A   1      29.321  33.657  42.398  1.00  0.00    +0.000 H 
ATOM    107  H13 UNL A   1      27.277  34.953  42.239  1.00  0.00    +0.000 H 
ATOM    108  H14 UNL A   1      26.068  35.545  44.251  1.00  0.00    +0.000 H 
ATOM     15  C13 UNL A   1      27.392  34.580  45.589  1.00  0.00    +0.000 C 
ATOM     16  C14 UNL A   1      28.587  33.859  45.669  1.00  0.00    +0.000 C 
ATOM     17  C15 UNL A   1      29.291  33.531  44.504  1.00  0.00    +0.000 C 
ATOM     18  C16 UNL A   1      28.807  33.918  43.253  1.00  0.00    +0.000 C 
ATOM     19  C17 UNL A   1      27.632  34.655  43.162  1.00  0.00    +0.000 C 
ATOM     20  C18 UNL A   1      26.935  34.989  44.322  1.00  0.00    +0.000 C 
ENDBRANCH   14   15
ENDBRANCH    4    5
ENDBRANCH    3    4
ENDBRANCH    2    3
ENDBRANCH   22    2
ENDBRANCH   23   22
ENDBRANCH   24   23
ENDBRANCH   25   24
ENDBRANCH   26   25
ENDBRANCH   27   26
ENDBRANCH   28   27
ENDBRANCH   29   28
ENDBRANCH   30   29
ENDBRANCH   32   30
ENDBRANCH   36   35
BRANCH   40   41
ATOM     41  C34 UNL A   1      25.628  45.490  49.070  1.00  0.00    +0.000 C 
ATOM     42  C35 UNL A   1      25.561  46.606  48.220  1.00  0.00    +0.000 C 
ATOM     43  F1  UNL A   1      24.839  46.550  47.090  1.00  0.00    +0.000 F 
ATOM     44  C36 UNL A   1      26.279  47.765  48.500  1.00  0.00    +0.000 C 
ATOM     45  F2  UNL A   1      26.248  48.794  47.641  1.00  0.00    +0.000 F 
ATOM     46  C37 UNL A   1      27.045  47.847  49.652  1.00  0.00    +0.000 C 
ATOM     47  F3  UNL A   1      27.739  48.963  49.918  1.00  0.00    +0.000 F 
ATOM     48  C38 UNL A   1      27.102  46.769  50.522  1.00  0.00    +0.000 C 
ATOM     49  F4  UNL A   1      27.836  46.852  51.641  1.00  0.00    +0.000 F 
ATOM     50  C39 UNL A   1      26.409  45.597  50.230  1.00  0.00    +0.000 C 
ATOM     51  F5  UNL A   1      26.506  44.562  51.078  1.00  0.00    +0.000 F 
ENDBRANCH   40   41
BRANCH   57   58
ATOM     65  C49 UNL A   1      17.102  43.505  50.537  1.00  0.00    +0.000 C 
ATOM     66  F9  UNL A   1      16.162  44.238  49.926  1.00  0.00    +0.000 F 
ATOM     67  C50 UNL A   1      18.256  43.143  49.851  1.00  0.00    +0.000 C 
ATOM     68  F10 UNL A   1      18.398  43.532  48.575  1.00  0.00    +0.000 F 
ATOM     58  C45 UNL A   1      19.263  42.395  50.479  1.00  0.00    +0.000 C 
ATOM     59  C46 UNL A   1      19.068  42.015  51.814  1.00  0.00    +0.000 C 
ATOM     60  F6  UNL A   1      19.996  41.283  52.450  1.00  0.00    +0.000 F 
ATOM     61  C47 UNL A   1      17.902  42.359  52.491  1.00  0.00    +0.000 C 
ATOM     62  F7  UNL A   1      17.719  41.955  53.756  1.00  0.00    +0.000 F 
ATOM     63  C48 UNL A   1      16.923  43.109  51.855  1.00  0.00    +0.000 C 
ATOM     64  F8  UNL A   1      15.804  43.446  52.511  1.00  0.00    +0.000 F 
ENDBRANCH   57   58
BRANCH   72   73
ATOM     73  C54 UNL A   1      21.335  36.694  47.044  1.00  0.00    +0.000 C 
ATOM     74  C55 UNL A   1      21.404  35.692  48.021  1.00  0.00    +0.000 C 
ATOM     75  F11 UNL A   1      22.066  35.918  49.166  1.00  0.00    +0.000 F 
ATOM     76  C56 UNL A   1      20.816  34.446  47.817  1.00  0.00    +0.000 C 
ATOM     77  F12 UNL A   1      20.920  33.496  48.755  1.00  0.00    +0.000 F 
ATOM     78  C57 UNL A   1      20.127  34.186  46.642  1.00  0.00    +0.000 C 
ATOM     79  F13 UNL A   1      19.550  32.992  46.450  1.00  0.00    +0.000 F 
ATOM     80  C58 UNL A   1      20.039  35.165  45.663  1.00  0.00    +0.000 C 
ATOM     81  F14 UNL A   1      19.361  34.923  44.533  1.00  0.00    +0.000 F 
ATOM     82  C59 UNL A   1      20.647  36.404  45.857  1.00  0.00    +0.000 C 
ATOM     83  F15 UNL A   1      20.544  37.333  44.896  1.00  0.00    +0.000 F 
ENDBRANCH   72   73
TORSDOF 19
ENDMDL
MODEL 4
REMARK VINA RESULT:     -11.1     25.753     30.633
ROOT
ATOM    129  H35 UNL A   1      38.740  26.773  27.990  1.00  0.00    +0.000 H 
ATOM    130  H36 UNL A   1      42.474  27.394  29.708  1.00  0.00    +0.000 H 
ATOM    131  H37 UNL A   1      45.302  23.480  28.333  1.00  0.00    +0.000 H 
ATOM    132  H38 UNL A   1      47.216  24.591  29.620  1.00  0.00    +0.000 H 
ATOM    133  H39 UNL A   1      41.461  32.607  31.501  1.00  0.00    +0.000 H 
ATOM    134  H40 UNL A   1      39.417  31.319  30.651  1.00  0.00    +0.000 H 
ATOM     36  C30 UNL A   1      40.065  28.803  29.494  1.00  0.00    +0.000 C 
ATOM     37  C31 UNL A   1      40.984  29.735  30.225  1.00  0.00    +0.000 C 
ATOM     38  N4  UNL A   1      42.259  29.605  30.488  1.00  0.00    +0.000 N 
ATOM     39  C32 UNL A   1      42.632  30.782  31.121  1.00  0.00    +0.000 C 
ATOM     40  C33 UNL A   1      43.838  31.110  31.644  1.00  0.00    +0.000 C 
ATOM     52  C40 UNL A   1      44.985  30.242  31.629  1.00  0.00    +0.000 C 
ATOM     53  C41 UNL A   1      46.231  30.445  32.195  1.00  0.00    +0.000 C 
ATOM     54  C42 UNL A   1      47.034  29.340  31.888  1.00  0.00    +0.000 C 
ATOM     55  C43 UNL A   1      46.276  28.432  31.164  1.00  0.00    +0.000 C 
ATOM     56  N5  UNL A   1      45.023  29.000  31.011  1.00  0.00    +0.000 N 
ATOM     57  C44 UNL A   1      46.668  27.144  30.652  1.00  0.00    +0.000 C 
ATOM     69  C51 UNL A   1      45.861  26.290  29.975  1.00  0.00    +0.000 C 
ATOM     70  N6  UNL A   1      44.530  26.447  29.619  1.00  0.00    +0.000 N 
ATOM     71  C52 UNL A   1      44.203  25.359  28.964  1.00  0.00    +0.000 C 
ATOM     72  C53 UNL A   1      42.882  24.987  28.352  1.00  0.00    +0.000 C 
ATOM     84  C60 UNL A   1      41.829  25.808  28.523  1.00  0.00    +0.000 C 
ATOM     85  C61 UNL A   1      40.492  25.589  27.981  1.00  0.00    +0.000 C 
ATOM     86  C62 UNL A   1      39.725  26.651  28.274  1.00  0.00    +0.000 C 
ATOM     87  C63 UNL A   1      40.507  27.607  29.059  1.00  0.00    +0.000 C 
ATOM     88  N7  UNL A   1      41.734  27.006  29.189  1.00  0.00    +0.000 N 
ATOM     89  C64 UNL A   1      45.297  24.390  28.819  1.00  0.00    +0.000 C 
ATOM     90  C65 UNL A   1      46.277  24.993  29.479  1.00  0.00    +0.000 C 
ATOM     91  C66 UNL A   1      41.464  31.634  31.156  1.00  0.00    +0.000 C 
ATOM     92  C67 UNL A   1      40.399  31.003  30.685  1.00  0.00    +0.000 C 
ATOM    125  H31 UNL A   1      46.518  31.268  32.746  1.00  0.00    +0.000 H 
ATOM    126  H32 UNL A   1      48.024  29.221  32.157  1.00  0.00    +0.000 H 
ATOM    127  H33 UNL A   1      44.269  28.583  30.533  1.00  0.00    +0.000 H 
ATOM    128  H34 UNL A   1      40.186  24.754  27.457  1.00  0.00    +0.000 H 
ENDROOT
BRANCH   36   35
ATOM     33  C27 UNL A   1      37.181  30.357  27.591  1.00  0.00    +0.000 C 
ATOM     34  C28 UNL A   1      38.427  29.784  27.849  1.00  0.00    +0.000 C 
ATOM     35  C29 UNL A   1      38.704  29.253  29.118  1.00  0.00    +0.000 C 
ATOM    135  H41 UNL A   1      37.875  28.764  31.003  1.00  0.00    +0.000 H 
ATOM    136  H42 UNL A   1      35.647  29.552  30.466  1.00  0.00    +0.000 H 
ATOM    123  H29 UNL A   1      36.983  30.781  26.671  1.00  0.00    +0.000 H 
ATOM    124  H30 UNL A   1      39.143  29.751  27.107  1.00  0.00    +0.000 H 
ATOM     93  C68 UNL A   1      37.684  29.184  30.080  1.00  0.00    +0.000 C 
ATOM     94  C69 UNL A   1      36.420  29.678  29.794  1.00  0.00    +0.000 C 
ATOM     32  C26 UNL A   1      36.204  30.349  28.589  1.00  0.00    +0.000 C 
BRANCH   32   30
ATOM     30  C25 UNL A   1      34.969  31.132  28.386  1.00  0.00    +0.000 C 
ATOM     31  O3  UNL A   1      34.681  32.032  29.160  1.00  0.00    +0.000 O 
BRANCH   30   29
ATOM    122  H28 UNL A   1      34.492  31.000  26.445  1.00  0.00    +0.000 H 
ATOM     29  N3  UNL A   1      34.139  30.795  27.341  1.00  0.00    +0.000 N 
BRANCH   29   28
ATOM    121  H27 UNL A   1      32.453  30.243  28.364  1.00  0.00    +0.000 H 
ATOM     28  C24 UNL A   1      32.815  30.183  27.359  1.00  0.00    +0.000 C 
ATOM    120  H26 UNL A   1      32.905  29.171  27.022  1.00  0.00    +0.000 H 
BRANCH   28   27
ATOM     27  C23 UNL A   1      31.801  30.898  26.472  1.00  0.00    +0.000 C 
ATOM    118  H24 UNL A   1      30.936  31.119  27.061  1.00  0.00    +0.000 H 
ATOM    119  H25 UNL A   1      32.287  31.777  26.100  1.00  0.00    +0.000 H 
BRANCH   27   26
ATOM     26  C22 UNL A   1      31.357  30.099  25.254  1.00  0.00    +0.000 C 
ATOM    116  H22 UNL A   1      30.286  30.074  25.248  1.00  0.00    +0.000 H 
ATOM    117  H23 UNL A   1      31.780  30.597  24.405  1.00  0.00    +0.000 H 
BRANCH   26   25
ATOM     25  C21 UNL A   1      31.862  28.660  25.189  1.00  0.00    +0.000 C 
ATOM    114  H20 UNL A   1      31.723  28.301  24.191  1.00  0.00    +0.000 H 
ATOM    115  H21 UNL A   1      32.890  28.686  25.486  1.00  0.00    +0.000 H 
BRANCH   25   24
ATOM    113  H19 UNL A   1      30.173  28.087  26.303  1.00  0.00    +0.000 H 
ATOM    112  H18 UNL A   1      31.733  27.636  27.046  1.00  0.00    +0.000 H 
ATOM     24  C20 UNL A   1      31.157  27.695  26.146  1.00  0.00    +0.000 C 
BRANCH   24   23
ATOM    111  H17 UNL A   1      30.118  25.843  26.070  1.00  0.00    +0.000 H 
ATOM    110  H16 UNL A   1      31.855  25.707  25.815  1.00  0.00    +0.000 H 
ATOM     23  C19 UNL A   1      30.976  26.276  25.601  1.00  0.00    +0.000 C 
BRANCH   23   22
ATOM    109  H15 UNL A   1      30.335  27.075  23.763  1.00  0.00    +0.000 H 
ATOM     22  N2  UNL A   1      30.757  26.283  24.168  1.00  0.00    +0.000 N 
BRANCH   22    2
ATOM      1  O1  UNL A   1      31.652  25.380  22.260  1.00  0.00    +0.000 O 
ATOM      2  C1  UNL A   1      31.109  25.241  23.351  1.00  0.00    +0.000 C 
BRANCH    2    3
ATOM      3  C2  UNL A   1      30.750  23.876  23.898  1.00  0.00    +0.000 C 
ATOM     95  H1  UNL A   1      29.689  23.823  24.024  1.00  0.00    +0.000 H 
ATOM     96  H2  UNL A   1      31.261  23.752  24.830  1.00  0.00    +0.000 H 
BRANCH    3    4
ATOM     97  H3  UNL A   1      31.531  23.191  22.062  1.00  0.00    +0.000 H 
ATOM     98  H4  UNL A   1      30.334  22.118  22.867  1.00  0.00    +0.000 H 
ATOM      4  C3  UNL A   1      31.190  22.750  22.975  1.00  0.00    +0.000 C 
BRANCH    4    5
ATOM      5  C4  UNL A   1      32.279  21.863  23.486  1.00  0.00    +0.000 C 
ATOM      6  N1  UNL A   1      33.470  22.243  23.909  1.00  0.00    +0.000 N 
ATOM      7  C5  UNL A   1      34.090  21.071  24.252  1.00  0.00    +0.000 C 
ATOM     14  C12 UNL A   1      33.228  20.005  24.073  1.00  0.00    +0.000 C 
ATOM     21  O2  UNL A   1      32.059  20.505  23.554  1.00  0.00    +0.000 O 
BRANCH    7    8
ATOM     99  H5  UNL A   1      35.527  22.959  25.504  1.00  0.00    +0.000 H 
ATOM    100  H6  UNL A   1      37.893  22.883  26.032  1.00  0.00    +0.000 H 
ATOM    101  H7  UNL A   1      39.140  20.829  25.697  1.00  0.00    +0.000 H 
ATOM    102  H8  UNL A   1      38.006  18.833  24.916  1.00  0.00    +0.000 H 
ATOM    103  H9  UNL A   1      35.644  18.910  24.364  1.00  0.00    +0.000 H 
ATOM      8  C6  UNL A   1      35.415  20.958  24.825  1.00  0.00    +0.000 C 
ATOM      9  C7  UNL A   1      36.061  22.089  25.350  1.00  0.00    +0.000 C 
ATOM     10  C8  UNL A   1      37.418  22.043  25.666  1.00  0.00    +0.000 C 
ATOM     11  C9  UNL A   1      38.130  20.860  25.486  1.00  0.00    +0.000 C 
ATOM     12  C10 UNL A   1      37.481  19.716  25.021  1.00  0.00    +0.000 C 
ATOM     13  C11 UNL A   1      36.124  19.760  24.697  1.00  0.00    +0.000 C 
ENDBRANCH    7    8
BRANCH   14   15
ATOM    104  H10 UNL A   1      34.287  18.011  22.589  1.00  0.00    +0.000 H 
ATOM    105  H11 UNL A   1      34.542  15.681  23.216  1.00  0.00    +0.000 H 
ATOM    106  H12 UNL A   1      33.731  14.894  25.361  1.00  0.00    +0.000 H 
ATOM    107  H13 UNL A   1      32.595  16.424  26.863  1.00  0.00    +0.000 H 
ATOM    108  H14 UNL A   1      32.317  18.744  26.232  1.00  0.00    +0.000 H 
ATOM     15  C13 UNL A   1      33.306  18.582  24.369  1.00  0.00    +0.000 C 
ATOM     16  C14 UNL A   1      33.933  17.683  23.500  1.00  0.00    +0.000 C 
ATOM     17  C15 UNL A   1      34.079  16.339  23.863  1.00  0.00    +0.000 C 
ATOM     18  C16 UNL A   1      33.604  15.883  25.093  1.00  0.00    +0.000 C 
ATOM     19  C17 UNL A   1      32.959  16.760  25.956  1.00  0.00    +0.000 C 
ATOM     20  C18 UNL A   1      32.806  18.097  25.593  1.00  0.00    +0.000 C 
ENDBRANCH   14   15
ENDBRANCH    4    5
ENDBRANCH    3    4
ENDBRANCH    2    3
ENDBRANCH   22    2
ENDBRANCH   23   22
ENDBRANCH   24   23
ENDBRANCH   25   24
ENDBRANCH   26   25
ENDBRANCH   27   26
ENDBRANCH   28   27
ENDBRANCH   29   28
ENDBRANCH   30   29
ENDBRANCH   32   30
ENDBRANCH   36   35
BRANCH   40   41
ATOM     41  C34 UNL A   1      43.964  32.464  32.278  1.00  0.00    +0.000 C 
ATOM     42  C35 UNL A   1      44.388  33.582  31.542  1.00  0.00    +0.000 C 
ATOM     43  F1  UNL A   1      44.704  33.456  30.245  1.00  0.00    +0.000 F 
ATOM     44  C36 UNL A   1      44.541  34.825  32.151  1.00  0.00    +0.000 C 
ATOM     45  F2  UNL A   1      45.007  35.863  31.442  1.00  0.00    +0.000 F 
ATOM     46  C37 UNL A   1      44.236  34.983  33.494  1.00  0.00    +0.000 C 
ATOM     47  F3  UNL A   1      44.388  36.180  34.079  1.00  0.00    +0.000 F 
ATOM     48  C38 UNL A   1      43.786  33.900  34.233  1.00  0.00    +0.000 C 
ATOM     49  F4  UNL A   1      43.483  34.055  35.529  1.00  0.00    +0.000 F 
ATOM     50  C39 UNL A   1      43.661  32.648  33.635  1.00  0.00    +0.000 C 
ATOM     51  F5  UNL A   1      43.248  31.615  34.383  1.00  0.00    +0.000 F 
ENDBRANCH   40   41
BRANCH   57   58
ATOM     65  C49 UNL A   1      50.400  26.581  30.182  1.00  0.00    +0.000 C 
ATOM     66  F9  UNL A   1      51.354  26.896  29.296  1.00  0.00    +0.000 F 
ATOM     67  C50 UNL A   1      49.099  27.035  29.992  1.00  0.00    +0.000 C 
ATOM     68  F10 UNL A   1      48.828  27.793  28.920  1.00  0.00    +0.000 F 
ATOM     58  C45 UNL A   1      48.079  26.698  30.895  1.00  0.00    +0.000 C 
ATOM     59  C46 UNL A   1      48.411  25.900  31.999  1.00  0.00    +0.000 C 
ATOM     60  F6  UNL A   1      47.473  25.567  32.899  1.00  0.00    +0.000 F 
ATOM     61  C47 UNL A   1      49.719  25.467  32.199  1.00  0.00    +0.000 C 
ATOM     62  F7  UNL A   1      50.023  24.736  33.280  1.00  0.00    +0.000 F 
ATOM     63  C48 UNL A   1      50.710  25.802  31.287  1.00  0.00    +0.000 C 
ATOM     64  F8  UNL A   1      51.967  25.378  31.478  1.00  0.00    +0.000 F 
ENDBRANCH   57   58
BRANCH   72   73
ATOM     73  C54 UNL A   1      42.711  23.726  27.589  1.00  0.00    +0.000 C 
ATOM     74  C55 UNL A   1      42.169  22.587  28.200  1.00  0.00    +0.000 C 
ATOM     75  F11 UNL A   1      41.847  22.616  29.502  1.00  0.00    +0.000 F 
ATOM     76  C56 UNL A   1      41.976  21.408  27.484  1.00  0.00    +0.000 C 
ATOM     77  F12 UNL A   1      41.482  20.326  28.098  1.00  0.00    +0.000 F 
ATOM     78  C57 UNL A   1      42.302  21.352  26.137  1.00  0.00    +0.000 C 
ATOM     79  F13 UNL A   1      42.105  20.222  25.444  1.00  0.00    +0.000 F 
ATOM     80  C58 UNL A   1      42.834  22.469  25.509  1.00  0.00    +0.000 C 
ATOM     81  F14 UNL A   1      43.134  22.423  24.204  1.00  0.00    +0.000 F 
ATOM     82  C59 UNL A   1      43.047  23.642  26.231  1.00  0.00    +0.000 C 
ATOM     83  F15 UNL A   1      43.560  24.707  25.599  1.00  0.00    +0.000 F 
ENDBRANCH   72   73
TORSDOF 19
ENDMDL
MODEL 5
REMARK VINA RESULT:     -11.1     39.888     49.635
ROOT
ATOM    129  H35 UNL A   1      23.894  10.123   5.571  1.00  0.00    +0.000 H 
ATOM    130  H36 UNL A   1      23.352   6.210   6.865  1.00  0.00    +0.000 H 
ATOM    131  H37 UNL A   1      27.106   3.552   4.851  1.00  0.00    +0.000 H 
ATOM    132  H38 UNL A   1      26.141   1.523   6.080  1.00  0.00    +0.000 H 
ATOM    133  H39 UNL A   1      19.256   7.336  10.520  1.00  0.00    +0.000 H 
ATOM    134  H40 UNL A   1      19.887   9.258   8.949  1.00  0.00    +0.000 H 
ATOM     36  C30 UNL A   1      22.161   8.699   7.334  1.00  0.00    +0.000 C 
ATOM     37  C31 UNL A   1      21.429   7.753   8.238  1.00  0.00    +0.000 C 
ATOM     38  N4  UNL A   1      21.667   6.490   8.484  1.00  0.00    +0.000 N 
ATOM     39  C32 UNL A   1      20.739   6.115   9.445  1.00  0.00    +0.000 C 
ATOM     40  C33 UNL A   1      20.536   4.890   9.986  1.00  0.00    +0.000 C 
ATOM     52  C40 UNL A   1      21.288   3.717   9.627  1.00  0.00    +0.000 C 
ATOM     53  C41 UNL A   1      21.115   2.414  10.058  1.00  0.00    +0.000 C 
ATOM     54  C42 UNL A   1      22.108   1.624   9.464  1.00  0.00    +0.000 C 
ATOM     55  C43 UNL A   1      22.873   2.429   8.635  1.00  0.00    +0.000 C 
ATOM     56  N5  UNL A   1      22.361   3.710   8.746  1.00  0.00    +0.000 N 
ATOM     57  C44 UNL A   1      23.989   2.055   7.803  1.00  0.00    +0.000 C 
ATOM     69  C51 UNL A   1      24.676   2.893   6.988  1.00  0.00    +0.000 C 
ATOM     70  N6  UNL A   1      24.488   4.251   6.777  1.00  0.00    +0.000 N 
ATOM     71  C52 UNL A   1      25.410   4.612   5.917  1.00  0.00    +0.000 C 
ATOM     72  C53 UNL A   1      25.671   5.969   5.327  1.00  0.00    +0.000 C 
ATOM     84  C60 UNL A   1      24.838   6.983   5.627  1.00  0.00    +0.000 C 
ATOM     85  C61 UNL A   1      24.968   8.353   5.143  1.00  0.00    +0.000 C 
ATOM     86  C62 UNL A   1      24.018   9.108   5.715  1.00  0.00    +0.000 C 
ATOM     87  C63 UNL A   1      23.187   8.265   6.577  1.00  0.00    +0.000 C 
ATOM     88  N7  UNL A   1      23.726   7.011   6.433  1.00  0.00    +0.000 N 
ATOM     89  C64 UNL A   1      26.298   3.523   5.492  1.00  0.00    +0.000 C 
ATOM     90  C65 UNL A   1      25.789   2.490   6.152  1.00  0.00    +0.000 C 
ATOM     91  C66 UNL A   1      19.971   7.295   9.777  1.00  0.00    +0.000 C 
ATOM     92  C67 UNL A   1      20.305   8.316   9.002  1.00  0.00    +0.000 C 
ATOM    125  H31 UNL A   1      20.383   2.081  10.703  1.00  0.00    +0.000 H 
ATOM    126  H32 UNL A   1      22.244   0.612   9.617  1.00  0.00    +0.000 H 
ATOM    127  H33 UNL A   1      22.707   4.500   8.271  1.00  0.00    +0.000 H 
ATOM    128  H34 UNL A   1      25.677   8.687   4.471  1.00  0.00    +0.000 H 
ENDROOT
BRANCH   36   35
ATOM     33  C27 UNL A   1      20.721  12.102   6.499  1.00  0.00    +0.000 C 
ATOM     34  C28 UNL A   1      20.862  10.715   6.561  1.00  0.00    +0.000 C 
ATOM     35  C29 UNL A   1      21.853  10.147   7.376  1.00  0.00    +0.000 C 
ATOM    135  H41 UNL A   1      23.318  10.554   8.849  1.00  0.00    +0.000 H 
ATOM    136  H42 UNL A   1      22.905  12.941   8.905  1.00  0.00    +0.000 H 
ATOM    123  H29 UNL A   1      20.018  12.527   5.874  1.00  0.00    +0.000 H 
ATOM    124  H30 UNL A   1      20.239  10.108   6.007  1.00  0.00    +0.000 H 
ATOM     93  C68 UNL A   1      22.610  10.971   8.224  1.00  0.00    +0.000 C 
ATOM     94  C69 UNL A   1      22.412  12.344   8.224  1.00  0.00    +0.000 C 
ATOM     32  C26 UNL A   1      21.539  12.909   7.293  1.00  0.00    +0.000 C 
BRANCH   32   30
ATOM     30  C25 UNL A   1      21.529  14.369   7.076  1.00  0.00    +0.000 C 
ATOM     31  O3  UNL A   1      21.144  14.826   6.011  1.00  0.00    +0.000 O 
BRANCH   30   29
ATOM    122  H28 UNL A   1      21.582  15.054   8.957  1.00  0.00    +0.000 H 
ATOM     29  N3  UNL A   1      22.001  15.188   8.076  1.00  0.00    +0.000 N 
BRANCH   29   28
ATOM    121  H27 UNL A   1      22.548  17.127   7.704  1.00  0.00    +0.000 H 
ATOM     28  C24 UNL A   1      23.025  16.226   8.028  1.00  0.00    +0.000 C 
ATOM    120  H26 UNL A   1      23.795  15.910   7.355  1.00  0.00    +0.000 H 
BRANCH   28   27
ATOM     27  C23 UNL A   1      23.660  16.517   9.385  1.00  0.00    +0.000 C 
ATOM    118  H24 UNL A   1      24.684  16.783   9.226  1.00  0.00    +0.000 H 
ATOM    119  H25 UNL A   1      23.088  17.307   9.827  1.00  0.00    +0.000 H 
BRANCH   27   26
ATOM     26  C22 UNL A   1      23.616  15.350  10.363  1.00  0.00    +0.000 C 
ATOM    116  H22 UNL A   1      22.865  14.665  10.028  1.00  0.00    +0.000 H 
ATOM    117  H23 UNL A   1      24.604  14.936  10.370  1.00  0.00    +0.000 H 
BRANCH   26   25
ATOM     25  C21 UNL A   1      23.306  15.716  11.813  1.00  0.00    +0.000 C 
ATOM    114  H20 UNL A   1      22.393  15.233  12.091  1.00  0.00    +0.000 H 
ATOM    115  H21 UNL A   1      24.145  15.394  12.393  1.00  0.00    +0.000 H 
BRANCH   25   24
ATOM    113  H19 UNL A   1      22.118  17.448  11.902  1.00  0.00    +0.000 H 
ATOM    112  H18 UNL A   1      23.810  17.740  11.410  1.00  0.00    +0.000 H 
ATOM     24  C20 UNL A   1      23.150  17.217  12.070  1.00  0.00    +0.000 C 
BRANCH   24   23
ATOM    111  H17 UNL A   1      24.172  16.966  13.916  1.00  0.00    +0.000 H 
ATOM    110  H16 UNL A   1      22.559  17.656  14.073  1.00  0.00    +0.000 H 
ATOM     23  C19 UNL A   1      23.464  17.654  13.503  1.00  0.00    +0.000 C 
BRANCH   23   22
ATOM    109  H15 UNL A   1      23.442  19.753  13.639  1.00  0.00    +0.000 H 
ATOM     22  N2  UNL A   1      24.045  18.981  13.537  1.00  0.00    +0.000 N 
BRANCH   22    2
ATOM      1  O1  UNL A   1      26.248  18.532  13.988  1.00  0.00    +0.000 O 
ATOM      2  C1  UNL A   1      25.391  19.214  13.436  1.00  0.00    +0.000 C 
BRANCH    2    3
ATOM      3  C2  UNL A   1      25.750  20.415  12.588  1.00  0.00    +0.000 C 
ATOM     95  H1  UNL A   1      26.793  20.371  12.353  1.00  0.00    +0.000 H 
ATOM     96  H2  UNL A   1      25.513  21.295  13.148  1.00  0.00    +0.000 H 
BRANCH    3    4
ATOM     97  H3  UNL A   1      24.783  21.493  11.054  1.00  0.00    +0.000 H 
ATOM     98  H4  UNL A   1      24.071  19.896  11.475  1.00  0.00    +0.000 H 
ATOM      4  C3  UNL A   1      24.959  20.464  11.290  1.00  0.00    +0.000 C 
BRANCH    4    5
ATOM      5  C4  UNL A   1      25.599  19.827  10.099  1.00  0.00    +0.000 C 
ATOM      6  N1  UNL A   1      26.329  18.728  10.092  1.00  0.00    +0.000 N 
ATOM      7  C5  UNL A   1      26.687  18.575   8.779  1.00  0.00    +0.000 C 
ATOM     14  C12 UNL A   1      26.114  19.571   8.010  1.00  0.00    +0.000 C 
ATOM     21  O2  UNL A   1      25.426  20.402   8.859  1.00  0.00    +0.000 O 
BRANCH    7    8
ATOM     99  H5  UNL A   1      29.347  18.225   8.839  1.00  0.00    +0.000 H 
ATOM    100  H6  UNL A   1      30.639  16.633   7.543  1.00  0.00    +0.000 H 
ATOM    101  H7  UNL A   1      29.503  14.939   6.230  1.00  0.00    +0.000 H 
ATOM    102  H8  UNL A   1      27.084  14.785   6.278  1.00  0.00    +0.000 H 
ATOM    103  H9  UNL A   1      25.785  16.389   7.555  1.00  0.00    +0.000 H 
ATOM      8  C6  UNL A   1      27.460  17.475   8.241  1.00  0.00    +0.000 C 
ATOM      9  C7  UNL A   1      28.864  17.511   8.270  1.00  0.00    +0.000 C 
ATOM     10  C8  UNL A   1      29.608  16.589   7.536  1.00  0.00    +0.000 C 
ATOM     11  C9  UNL A   1      28.955  15.609   6.793  1.00  0.00    +0.000 C 
ATOM     12  C10 UNL A   1      27.562  15.530   6.807  1.00  0.00    +0.000 C 
ATOM     13  C11 UNL A   1      26.813  16.456   7.536  1.00  0.00    +0.000 C 
ENDBRANCH    7    8
BRANCH   14   15
ATOM    104  H10 UNL A   1      28.146  19.874   6.255  1.00  0.00    +0.000 H 
ATOM    105  H11 UNL A   1      27.989  20.145   3.849  1.00  0.00    +0.000 H 
ATOM    106  H12 UNL A   1      25.822  20.247   2.767  1.00  0.00    +0.000 H 
ATOM    107  H13 UNL A   1      23.796  20.151   4.098  1.00  0.00    +0.000 H 
ATOM    108  H14 UNL A   1      23.947  19.905   6.501  1.00  0.00    +0.000 H 
ATOM     15  C13 UNL A   1      26.060  19.838   6.579  1.00  0.00    +0.000 C 
ATOM     16  C14 UNL A   1      27.220  19.924   5.804  1.00  0.00    +0.000 C 
ATOM     17  C15 UNL A   1      27.129  20.081   4.415  1.00  0.00    +0.000 C 
ATOM     18  C16 UNL A   1      25.882  20.150   3.792  1.00  0.00    +0.000 C 
ATOM     19  C17 UNL A   1      24.721  20.088   4.554  1.00  0.00    +0.000 C 
ATOM     20  C18 UNL A   1      24.811  19.940   5.937  1.00  0.00    +0.000 C 
ENDBRANCH   14   15
ENDBRANCH    4    5
ENDBRANCH    3    4
ENDBRANCH    2    3
ENDBRANCH   22    2
ENDBRANCH   23   22
ENDBRANCH   24   23
ENDBRANCH   25   24
ENDBRANCH   26   25
ENDBRANCH   27   26
ENDBRANCH   28   27
ENDBRANCH   29   28
ENDBRANCH   30   29
ENDBRANCH   32   30
ENDBRANCH   36   35
BRANCH   40   41
ATOM     41  C34 UNL A   1      19.453   4.767  11.017  1.00  0.00    +0.000 C 
ATOM     42  C35 UNL A   1      18.111   4.570  10.653  1.00  0.00    +0.000 C 
ATOM     43  F1  UNL A   1      17.767   4.500   9.358  1.00  0.00    +0.000 F 
ATOM     44  C36 UNL A   1      17.110   4.498  11.617  1.00  0.00    +0.000 C 
ATOM     45  F2  UNL A   1      15.829   4.373  11.242  1.00  0.00    +0.000 F 
ATOM     46  C37 UNL A   1      17.433   4.582  12.963  1.00  0.00    +0.000 C 
ATOM     47  F3  UNL A   1      16.466   4.517  13.890  1.00  0.00    +0.000 F 
ATOM     48  C38 UNL A   1      18.755   4.745  13.347  1.00  0.00    +0.000 C 
ATOM     49  F4  UNL A   1      19.069   4.817  14.648  1.00  0.00    +0.000 F 
ATOM     50  C39 UNL A   1      19.756   4.847  12.384  1.00  0.00    +0.000 C 
ATOM     51  F5  UNL A   1      21.022   5.032  12.787  1.00  0.00    +0.000 F 
ENDBRANCH   40   41
BRANCH   57   58
ATOM     65  C49 UNL A   1      24.210  -1.653   6.989  1.00  0.00    +0.000 C 
ATOM     66  F9  UNL A   1      23.637  -2.527   6.152  1.00  0.00    +0.000 F 
ATOM     67  C50 UNL A   1      23.852  -0.309   6.941  1.00  0.00    +0.000 C 
ATOM     68  F10 UNL A   1      22.939   0.086   6.041  1.00  0.00    +0.000 F 
ATOM     58  C45 UNL A   1      24.423   0.620   7.824  1.00  0.00    +0.000 C 
ATOM     59  C46 UNL A   1      25.370   0.157   8.748  1.00  0.00    +0.000 C 
ATOM     60  F6  UNL A   1      25.955   1.013   9.601  1.00  0.00    +0.000 F 
ATOM     61  C47 UNL A   1      25.743  -1.183   8.778  1.00  0.00    +0.000 C 
ATOM     62  F7  UNL A   1      26.677  -1.598   9.645  1.00  0.00    +0.000 F 
ATOM     63  C48 UNL A   1      25.158  -2.088   7.903  1.00  0.00    +0.000 C 
ATOM     64  F8  UNL A   1      25.512  -3.380   7.938  1.00  0.00    +0.000 F 
ENDBRANCH   57   58
BRANCH   72   73
ATOM     73  C54 UNL A   1      26.808   6.204   4.403  1.00  0.00    +0.000 C 
ATOM     74  C55 UNL A   1      28.095   6.451   4.900  1.00  0.00    +0.000 C 
ATOM     75  F11 UNL A   1      28.298   6.528   6.223  1.00  0.00    +0.000 F 
ATOM     76  C56 UNL A   1      29.174   6.642   4.040  1.00  0.00    +0.000 C 
ATOM     77  F12 UNL A   1      30.389   6.903   4.540  1.00  0.00    +0.000 F 
ATOM     78  C57 UNL A   1      28.991   6.568   2.667  1.00  0.00    +0.000 C 
ATOM     79  F13 UNL A   1      30.031   6.740   1.840  1.00  0.00    +0.000 F 
ATOM     80  C58 UNL A   1      27.728   6.319   2.152  1.00  0.00    +0.000 C 
ATOM     81  F14 UNL A   1      27.550   6.231   0.827  1.00  0.00    +0.000 F 
ATOM     82  C59 UNL A   1      26.643   6.149   3.011  1.00  0.00    +0.000 C 
ATOM     83  F15 UNL A   1      25.434   5.907   2.487  1.00  0.00    +0.000 F 
ENDBRANCH   72   73
TORSDOF 19
ENDMDL
MODEL 6
REMARK VINA RESULT:     -11.0     25.925     30.991
ROOT
ATOM    129  H35 UNL A   1      38.869  26.664  27.983  1.00  0.00    +0.000 H 
ATOM    130  H36 UNL A   1      42.662  27.332  29.548  1.00  0.00    +0.000 H 
ATOM    131  H37 UNL A   1      45.466  23.426  28.102  1.00  0.00    +0.000 H 
ATOM    132  H38 UNL A   1      47.420  24.565  29.302  1.00  0.00    +0.000 H 
ATOM    133  H39 UNL A   1      41.677  32.555  31.327  1.00  0.00    +0.000 H 
ATOM    134  H40 UNL A   1      39.612  31.242  30.571  1.00  0.00    +0.000 H 
ATOM     36  C30 UNL A   1      40.235  28.720  29.414  1.00  0.00    +0.000 C 
ATOM     37  C31 UNL A   1      41.174  29.666  30.100  1.00  0.00    +0.000 C 
ATOM     38  N4  UNL A   1      42.460  29.549  30.313  1.00  0.00    +0.000 N 
ATOM     39  C32 UNL A   1      42.847  30.735  30.920  1.00  0.00    +0.000 C 
ATOM     40  C33 UNL A   1      44.070  31.078  31.392  1.00  0.00    +0.000 C 
ATOM     52  C40 UNL A   1      45.223  30.219  31.340  1.00  0.00    +0.000 C 
ATOM     53  C41 UNL A   1      46.488  30.438  31.855  1.00  0.00    +0.000 C 
ATOM     54  C42 UNL A   1      47.288  29.336  31.528  1.00  0.00    +0.000 C 
ATOM     55  C43 UNL A   1      46.510  28.415  30.843  1.00  0.00    +0.000 C 
ATOM     56  N5  UNL A   1      45.247  28.971  30.734  1.00  0.00    +0.000 N 
ATOM     57  C44 UNL A   1      46.892  27.125  30.329  1.00  0.00    +0.000 C 
ATOM     69  C51 UNL A   1      46.066  26.257  29.693  1.00  0.00    +0.000 C 
ATOM     70  N6  UNL A   1      44.721  26.400  29.388  1.00  0.00    +0.000 N 
ATOM     71  C52 UNL A   1      44.377  25.303  28.757  1.00  0.00    +0.000 C 
ATOM     72  C53 UNL A   1      43.036  24.915  28.201  1.00  0.00    +0.000 C 
ATOM     84  C60 UNL A   1      41.984  25.729  28.405  1.00  0.00    +0.000 C 
ATOM     85  C61 UNL A   1      40.629  25.494  27.918  1.00  0.00    +0.000 C 
ATOM     86  C62 UNL A   1      39.865  26.552  28.230  1.00  0.00    +0.000 C 
ATOM     87  C63 UNL A   1      40.670  27.523  28.974  1.00  0.00    +0.000 C 
ATOM     88  N7  UNL A   1      41.905  26.933  29.062  1.00  0.00    +0.000 N 
ATOM     89  C64 UNL A   1      45.472  24.341  28.579  1.00  0.00    +0.000 C 
ATOM     90  C65 UNL A   1      46.473  24.959  29.194  1.00  0.00    +0.000 C 
ATOM     91  C66 UNL A   1      41.674  31.579  30.992  1.00  0.00    +0.000 C 
ATOM     92  C67 UNL A   1      40.597  30.934  30.570  1.00  0.00    +0.000 C 
ATOM    125  H31 UNL A   1      46.790  31.268  32.387  1.00  0.00    +0.000 H 
ATOM    126  H32 UNL A   1      48.288  29.227  31.760  1.00  0.00    +0.000 H 
ATOM    127  H33 UNL A   1      44.478  28.543  30.289  1.00  0.00    +0.000 H 
ATOM    128  H34 UNL A   1      40.310  24.651  27.414  1.00  0.00    +0.000 H 
ENDROOT
BRANCH   36   35
ATOM     33  C27 UNL A   1      37.267  30.234  27.612  1.00  0.00    +0.000 C 
ATOM     34  C28 UNL A   1      38.526  29.673  27.826  1.00  0.00    +0.000 C 
ATOM     35  C29 UNL A   1      38.857  29.155  29.087  1.00  0.00    +0.000 C 
ATOM    135  H41 UNL A   1      38.105  28.674  31.007  1.00  0.00    +0.000 H 
ATOM    136  H42 UNL A   1      35.851  29.439  30.549  1.00  0.00    +0.000 H 
ATOM    123  H29 UNL A   1      37.030  30.649  26.697  1.00  0.00    +0.000 H 
ATOM    124  H30 UNL A   1      39.214  29.640  27.058  1.00  0.00    +0.000 H 
ATOM     93  C68 UNL A   1      37.875  29.085  30.088  1.00  0.00    +0.000 C 
ATOM     94  C69 UNL A   1      36.597  29.566  29.848  1.00  0.00    +0.000 C 
ATOM     32  C26 UNL A   1      36.329  30.226  28.646  1.00  0.00    +0.000 C 
BRANCH   32   30
ATOM     30  C25 UNL A   1      35.080  30.996  28.485  1.00  0.00    +0.000 C 
ATOM     31  O3  UNL A   1      34.775  31.846  29.307  1.00  0.00    +0.000 O 
BRANCH   30   29
ATOM    122  H28 UNL A   1      34.691  30.735  26.537  1.00  0.00    +0.000 H 
ATOM     29  N3  UNL A   1      34.257  30.704  27.420  1.00  0.00    +0.000 N 
BRANCH   29   28
ATOM    121  H27 UNL A   1      32.495  30.386  28.415  1.00  0.00    +0.000 H 
ATOM     28  C24 UNL A   1      32.841  30.357  27.403  1.00  0.00    +0.000 C 
ATOM    120  H26 UNL A   1      32.736  29.385  26.967  1.00  0.00    +0.000 H 
BRANCH   28   27
ATOM     27  C23 UNL A   1      31.984  31.337  26.606  1.00  0.00    +0.000 C 
ATOM    118  H24 UNL A   1      31.334  31.845  27.288  1.00  0.00    +0.000 H 
ATOM    119  H25 UNL A   1      32.662  31.998  26.106  1.00  0.00    +0.000 H 
BRANCH   27   26
ATOM     26  C22 UNL A   1      31.129  30.690  25.525  1.00  0.00    +0.000 C 
ATOM    116  H22 UNL A   1      30.191  30.416  25.965  1.00  0.00    +0.000 H 
ATOM    117  H23 UNL A   1      31.042  31.417  24.745  1.00  0.00    +0.000 H 
BRANCH   26   25
ATOM     25  C21 UNL A   1      31.723  29.444  24.872  1.00  0.00    +0.000 C 
ATOM    114  H20 UNL A   1      31.578  29.520  23.815  1.00  0.00    +0.000 H 
ATOM    115  H21 UNL A   1      32.755  29.417  25.153  1.00  0.00    +0.000 H 
BRANCH   25   24
ATOM    113  H19 UNL A   1      30.120  28.353  25.684  1.00  0.00    +0.000 H 
ATOM    112  H18 UNL A   1      31.734  27.721  26.115  1.00  0.00    +0.000 H 
ATOM     24  C20 UNL A   1      31.109  28.123  25.345  1.00  0.00    +0.000 C 
BRANCH   24   23
ATOM    111  H17 UNL A   1      29.919  26.823  24.158  1.00  0.00    +0.000 H 
ATOM    110  H16 UNL A   1      31.526  26.200  24.522  1.00  0.00    +0.000 H 
ATOM     23  C19 UNL A   1      30.957  27.064  24.251  1.00  0.00    +0.000 C 
BRANCH   23   22
ATOM    109  H15 UNL A   1      31.082  28.415  22.643  1.00  0.00    +0.000 H 
ATOM     22  N2  UNL A   1      31.427  27.553  22.970  1.00  0.00    +0.000 N 
BRANCH   22    2
ATOM      1  O1  UNL A   1      33.461  27.278  21.948  1.00  0.00    +0.000 O 
ATOM      2  C1  UNL A   1      32.330  26.875  22.193  1.00  0.00    +0.000 C 
BRANCH    2    3
ATOM      3  C2  UNL A   1      31.806  25.570  21.632  1.00  0.00    +0.000 C 
ATOM     95  H1  UNL A   1      31.192  25.783  20.782  1.00  0.00    +0.000 H 
ATOM     96  H2  UNL A   1      31.249  25.081  22.404  1.00  0.00    +0.000 H 
BRANCH    3    4
ATOM     97  H3  UNL A   1      33.749  25.238  20.882  1.00  0.00    +0.000 H 
ATOM     98  H4  UNL A   1      32.506  24.017  20.437  1.00  0.00    +0.000 H 
ATOM      4  C3  UNL A   1      32.926  24.635  21.204  1.00  0.00    +0.000 C 
BRANCH    4    5
ATOM      5  C4  UNL A   1      33.433  23.689  22.244  1.00  0.00    +0.000 C 
ATOM      6  N1  UNL A   1      32.839  22.588  22.663  1.00  0.00    +0.000 N 
ATOM      7  C5  UNL A   1      33.690  22.094  23.617  1.00  0.00    +0.000 C 
ATOM     14  C12 UNL A   1      34.814  22.894  23.713  1.00  0.00    +0.000 C 
ATOM     21  O2  UNL A   1      34.647  23.944  22.844  1.00  0.00    +0.000 O 
BRANCH    7    8
ATOM     99  H5  UNL A   1      33.278  19.631  22.638  1.00  0.00    +0.000 H 
ATOM    100  H6  UNL A   1      32.516  17.681  23.865  1.00  0.00    +0.000 H 
ATOM    101  H7  UNL A   1      32.342  17.767  26.283  1.00  0.00    +0.000 H 
ATOM    102  H8  UNL A   1      33.008  19.769  27.478  1.00  0.00    +0.000 H 
ATOM    103  H9  UNL A   1      33.749  21.730  26.255  1.00  0.00    +0.000 H 
ATOM      8  C6  UNL A   1      33.506  20.858  24.347  1.00  0.00    +0.000 C 
ATOM      9  C7  UNL A   1      33.192  19.670  23.666  1.00  0.00    +0.000 C 
ATOM     10  C8  UNL A   1      32.766  18.545  24.371  1.00  0.00    +0.000 C 
ATOM     11  C9  UNL A   1      32.679  18.591  25.760  1.00  0.00    +0.000 C 
ATOM     12  C10 UNL A   1      33.047  19.749  26.447  1.00  0.00    +0.000 C 
ATOM     13  C11 UNL A   1      33.467  20.879  25.744  1.00  0.00    +0.000 C 
ENDBRANCH    7    8
BRANCH   14   15
ATOM    104  H10 UNL A   1      35.930  24.678  25.407  1.00  0.00    +0.000 H 
ATOM    105  H11 UNL A   1      37.929  24.384  26.751  1.00  0.00    +0.000 H 
ATOM    106  H12 UNL A   1      39.214  22.334  26.603  1.00  0.00    +0.000 H 
ATOM    107  H13 UNL A   1      38.544  20.592  25.053  1.00  0.00    +0.000 H 
ATOM    108  H14 UNL A   1      36.564  20.890  23.693  1.00  0.00    +0.000 H 
ATOM     15  C13 UNL A   1      36.062  22.797  24.457  1.00  0.00    +0.000 C 
ATOM     16  C14 UNL A   1      36.475  23.806  25.333  1.00  0.00    +0.000 C 
ATOM     17  C15 UNL A   1      37.629  23.636  26.107  1.00  0.00    +0.000 C 
ATOM     18  C16 UNL A   1      38.375  22.460  26.016  1.00  0.00    +0.000 C 
ATOM     19  C17 UNL A   1      37.988  21.459  25.133  1.00  0.00    +0.000 C 
ATOM     20  C18 UNL A   1      36.844  21.631  24.355  1.00  0.00    +0.000 C 
ENDBRANCH   14   15
ENDBRANCH    4    5
ENDBRANCH    3    4
ENDBRANCH    2    3
ENDBRANCH   22    2
ENDBRANCH   23   22
ENDBRANCH   24   23
ENDBRANCH   25   24
ENDBRANCH   26   25
ENDBRANCH   27   26
ENDBRANCH   28   27
ENDBRANCH   29   28
ENDBRANCH   30   29
ENDBRANCH   32   30
ENDBRANCH   36   35
BRANCH   40   41
ATOM     41  C34 UNL A   1      44.210  32.439  32.007  1.00  0.00    +0.000 C 
ATOM     42  C35 UNL A   1      44.595  33.553  31.244  1.00  0.00    +0.000 C 
ATOM     43  F1  UNL A   1      44.861  33.416  29.936  1.00  0.00    +0.000 F 
ATOM     44  C36 UNL A   1      44.761  34.803  31.834  1.00  0.00    +0.000 C 
ATOM     45  F2  UNL A   1      45.191  35.838  31.097  1.00  0.00    +0.000 F 
ATOM     46  C37 UNL A   1      44.508  34.973  33.186  1.00  0.00    +0.000 C 
ATOM     47  F3  UNL A   1      44.673  36.177  33.753  1.00  0.00    +0.000 F 
ATOM     48  C38 UNL A   1      44.096  33.894  33.952  1.00  0.00    +0.000 C 
ATOM     49  F4  UNL A   1      43.842  34.060  35.258  1.00  0.00    +0.000 F 
ATOM     50  C39 UNL A   1      43.958  32.636  33.373  1.00  0.00    +0.000 C 
ATOM     51  F5  UNL A   1      43.584  31.606  34.147  1.00  0.00    +0.000 F 
ENDBRANCH   40   41
BRANCH   57   58
ATOM     65  C49 UNL A   1      50.009  25.573  31.857  1.00  0.00    +0.000 C 
ATOM     66  F9  UNL A   1      50.343  24.867  32.945  1.00  0.00    +0.000 F 
ATOM     67  C50 UNL A   1      48.683  25.934  31.643  1.00  0.00    +0.000 C 
ATOM     68  F10 UNL A   1      47.757  25.554  32.536  1.00  0.00    +0.000 F 
ATOM     58  C45 UNL A   1      48.315  26.692  30.521  1.00  0.00    +0.000 C 
ATOM     59  C46 UNL A   1      49.320  27.068  29.619  1.00  0.00    +0.000 C 
ATOM     60  F6  UNL A   1      49.012  27.779  28.523  1.00  0.00    +0.000 F 
ATOM     61  C47 UNL A   1      50.642  26.685  29.824  1.00  0.00    +0.000 C 
ATOM     62  F7  UNL A   1      51.582  27.023  28.930  1.00  0.00    +0.000 F 
ATOM     63  C48 UNL A   1      50.987  25.944  30.945  1.00  0.00    +0.000 C 
ATOM     64  F8  UNL A   1      52.262  25.584  31.145  1.00  0.00    +0.000 F 
ENDBRANCH   57   58
BRANCH   72   73
ATOM     73  C54 UNL A   1      42.846  23.644  27.458  1.00  0.00    +0.000 C 
ATOM     74  C55 UNL A   1      42.268  22.530  28.081  1.00  0.00    +0.000 C 
ATOM     75  F11 UNL A   1      41.927  22.590  29.377  1.00  0.00    +0.000 F 
ATOM     76  C56 UNL A   1      42.057  21.343  27.382  1.00  0.00    +0.000 C 
ATOM     77  F12 UNL A   1      41.527  20.284  28.008  1.00  0.00    +0.000 F 
ATOM     78  C57 UNL A   1      42.401  21.255  26.042  1.00  0.00    +0.000 C 
ATOM     79  F13 UNL A   1      42.188  20.118  25.366  1.00  0.00    +0.000 F 
ATOM     80  C58 UNL A   1      42.970  22.347  25.402  1.00  0.00    +0.000 C 
ATOM     81  F14 UNL A   1      43.289  22.270  24.103  1.00  0.00    +0.000 F 
ATOM     82  C59 UNL A   1      43.201  23.527  26.106  1.00  0.00    +0.000 C 
ATOM     83  F15 UNL A   1      43.749  24.568  25.464  1.00  0.00    +0.000 F 
ENDBRANCH   72   73
TORSDOF 19
ENDMDL
MODEL 7
REMARK VINA RESULT:     -11.0     42.320     48.997
ROOT
ATOM    129  H35 UNL A   1      25.059  17.617   3.290  1.00  0.00    +0.000 H 
ATOM    130  H36 UNL A   1      21.267  19.219   3.869  1.00  0.00    +0.000 H 
ATOM    131  H37 UNL A   1      19.701  17.497   8.318  1.00  0.00    +0.000 H 
ATOM    132  H38 UNL A   1      17.573  18.871   7.943  1.00  0.00    +0.000 H 
ATOM    133  H39 UNL A   1      21.394  22.695  -0.525  1.00  0.00    +0.000 H 
ATOM    134  H40 UNL A   1      23.295  20.982  -0.422  1.00  0.00    +0.000 H 
ATOM     36  C30 UNL A   1      23.319  19.460   1.981  1.00  0.00    +0.000 C 
ATOM     37  C31 UNL A   1      22.267  20.425   1.523  1.00  0.00    +0.000 C 
ATOM     38  N4  UNL A   1      21.153  20.778   2.111  1.00  0.00    +0.000 N 
ATOM     39  C32 UNL A   1      20.591  21.750   1.295  1.00  0.00    +0.000 C 
ATOM     40  C33 UNL A   1      19.404  22.386   1.438  1.00  0.00    +0.000 C 
ATOM     52  C40 UNL A   1      18.484  22.138   2.517  1.00  0.00    +0.000 C 
ATOM     53  C41 UNL A   1      17.223  22.672   2.717  1.00  0.00    +0.000 C 
ATOM     54  C42 UNL A   1      16.722  22.163   3.922  1.00  0.00    +0.000 C 
ATOM     55  C43 UNL A   1      17.654  21.284   4.450  1.00  0.00    +0.000 C 
ATOM     56  N5  UNL A   1      18.730  21.281   3.580  1.00  0.00    +0.000 N 
ATOM     57  C44 UNL A   1      17.568  20.506   5.660  1.00  0.00    +0.000 C 
ATOM     69  C51 UNL A   1      18.510  19.638   6.103  1.00  0.00    +0.000 C 
ATOM     70  N6  UNL A   1      19.732  19.312   5.534  1.00  0.00    +0.000 N 
ATOM     71  C52 UNL A   1      20.286  18.442   6.343  1.00  0.00    +0.000 C 
ATOM     72  C53 UNL A   1      21.612  17.747   6.218  1.00  0.00    +0.000 C 
ATOM     84  C60 UNL A   1      22.352  17.948   5.112  1.00  0.00    +0.000 C 
ATOM     85  C61 UNL A   1      23.660  17.355   4.853  1.00  0.00    +0.000 C 
ATOM     86  C62 UNL A   1      24.140  17.846   3.700  1.00  0.00    +0.000 C 
ATOM     87  C63 UNL A   1      23.154  18.759   3.119  1.00  0.00    +0.000 C 
ATOM     88  N7  UNL A   1      22.109  18.729   4.008  1.00  0.00    +0.000 N 
ATOM     89  C64 UNL A   1      19.481  18.124   7.529  1.00  0.00    +0.000 C 
ATOM     90  C65 UNL A   1      18.395  18.858   7.319  1.00  0.00    +0.000 C 
ATOM     91  C66 UNL A   1      21.512  21.970   0.201  1.00  0.00    +0.000 C 
ATOM     92  C67 UNL A   1      22.526  21.120   0.252  1.00  0.00    +0.000 C 
ATOM    125  H31 UNL A   1      16.737  23.330   2.089  1.00  0.00    +0.000 H 
ATOM    126  H32 UNL A   1      15.810  22.402   4.343  1.00  0.00    +0.000 H 
ATOM    127  H33 UNL A   1      19.551  20.749   3.698  1.00  0.00    +0.000 H 
ATOM    128  H34 UNL A   1      24.139  16.671   5.460  1.00  0.00    +0.000 H 
ENDROOT
BRANCH   36   35
ATOM     33  C27 UNL A   1      26.964  19.914   1.056  1.00  0.00    +0.000 C 
ATOM     34  C28 UNL A   1      25.804  19.846   1.828  1.00  0.00    +0.000 C 
ATOM     35  C29 UNL A   1      24.610  19.377   1.259  1.00  0.00    +0.000 C 
ATOM    135  H41 UNL A   1      23.750  18.482  -0.455  1.00  0.00    +0.000 H 
ATOM    136  H42 UNL A   1      25.822  18.390  -1.708  1.00  0.00    +0.000 H 
ATOM    123  H29 UNL A   1      27.837  20.290   1.458  1.00  0.00    +0.000 H 
ATOM    124  H30 UNL A   1      25.825  20.140   2.817  1.00  0.00    +0.000 H 
ATOM     93  C68 UNL A   1      24.619  18.858  -0.044  1.00  0.00    +0.000 C 
ATOM     94  C69 UNL A   1      25.793  18.848  -0.784  1.00  0.00    +0.000 C 
ATOM     32  C26 UNL A   1      26.933  19.464  -0.266  1.00  0.00    +0.000 C 
BRANCH   32   30
ATOM     30  C25 UNL A   1      28.097  19.725  -1.137  1.00  0.00    +0.000 C 
ATOM     31  O3  UNL A   1      28.544  18.833  -1.842  1.00  0.00    +0.000 O 
BRANCH   30   29
ATOM    122  H28 UNL A   1      28.937  21.285  -0.204  1.00  0.00    +0.000 H 
ATOM     29  N3  UNL A   1      28.682  20.970  -1.101  1.00  0.00    +0.000 N 
BRANCH   29   28
ATOM    121  H27 UNL A   1      29.931  21.610  -2.593  1.00  0.00    +0.000 H 
ATOM     28  C24 UNL A   1      28.981  21.893  -2.190  1.00  0.00    +0.000 C 
ATOM    120  H26 UNL A   1      28.987  22.889  -1.798  1.00  0.00    +0.000 H 
BRANCH   28   27
ATOM     27  C23 UNL A   1      27.972  21.832  -3.334  1.00  0.00    +0.000 C 
ATOM    118  H24 UNL A   1      28.016  20.854  -3.768  1.00  0.00    +0.000 H 
ATOM    119  H25 UNL A   1      27.015  22.056  -2.909  1.00  0.00    +0.000 H 
BRANCH   27   26
ATOM     26  C22 UNL A   1      28.209  22.854  -4.437  1.00  0.00    +0.000 C 
ATOM    116  H22 UNL A   1      28.099  22.356  -5.378  1.00  0.00    +0.000 H 
ATOM    117  H23 UNL A   1      27.491  23.632  -4.276  1.00  0.00    +0.000 H 
BRANCH   26   25
ATOM     25  C21 UNL A   1      29.575  23.536  -4.422  1.00  0.00    +0.000 C 
ATOM    114  H20 UNL A   1      29.434  24.571  -4.651  1.00  0.00    +0.000 H 
ATOM    115  H21 UNL A   1      29.984  23.374  -3.446  1.00  0.00    +0.000 H 
BRANCH   25   24
ATOM    113  H19 UNL A   1      30.642  21.909  -5.219  1.00  0.00    +0.000 H 
ATOM    112  H18 UNL A   1      31.517  23.465  -5.280  1.00  0.00    +0.000 H 
ATOM     24  C20 UNL A   1      30.585  22.959  -5.418  1.00  0.00    +0.000 C 
BRANCH   24   23
ATOM    111  H17 UNL A   1      29.195  22.697  -7.005  1.00  0.00    +0.000 H 
ATOM    110  H16 UNL A   1      30.882  22.569  -7.495  1.00  0.00    +0.000 H 
ATOM     23  C19 UNL A   1      30.179  23.099  -6.888  1.00  0.00    +0.000 C 
BRANCH   23   22
ATOM    109  H15 UNL A   1      30.944  25.047  -7.113  1.00  0.00    +0.000 H 
ATOM     22  N2  UNL A   1      30.155  24.489  -7.301  1.00  0.00    +0.000 N 
BRANCH   22    2
ATOM      1  O1  UNL A   1      28.959  25.102  -9.159  1.00  0.00    +0.000 O 
ATOM      2  C1  UNL A   1      29.087  25.063  -7.940  1.00  0.00    +0.000 C 
BRANCH    2    3
ATOM      3  C2  UNL A   1      28.064  25.676  -7.008  1.00  0.00    +0.000 C 
ATOM     95  H1  UNL A   1      28.314  26.705  -6.852  1.00  0.00    +0.000 H 
ATOM     96  H2  UNL A   1      28.085  25.126  -6.090  1.00  0.00    +0.000 H 
BRANCH    3    4
ATOM     97  H3  UNL A   1      26.648  24.852  -8.336  1.00  0.00    +0.000 H 
ATOM     98  H4  UNL A   1      26.420  26.583  -7.905  1.00  0.00    +0.000 H 
ATOM      4  C3  UNL A   1      26.652  25.595  -7.566  1.00  0.00    +0.000 C 
BRANCH    4    5
ATOM      5  C4  UNL A   1      25.574  25.244  -6.591  1.00  0.00    +0.000 C 
ATOM      6  N1  UNL A   1      25.256  24.033  -6.173  1.00  0.00    +0.000 N 
ATOM      7  C5  UNL A   1      24.212  24.243  -5.311  1.00  0.00    +0.000 C 
ATOM     14  C12 UNL A   1      23.958  25.597  -5.192  1.00  0.00    +0.000 C 
ATOM     21  O2  UNL A   1      24.820  26.254  -6.036  1.00  0.00    +0.000 O 
BRANCH    7    8
ATOM     99  H5  UNL A   1      25.285  22.422  -3.660  1.00  0.00    +0.000 H 
ATOM    100  H6  UNL A   1      24.202  20.445  -2.765  1.00  0.00    +0.000 H 
ATOM    101  H7  UNL A   1      21.821  20.117  -3.097  1.00  0.00    +0.000 H 
ATOM    102  H8  UNL A   1      20.512  21.802  -4.248  1.00  0.00    +0.000 H 
ATOM    103  H9  UNL A   1      21.595  23.771  -5.165  1.00  0.00    +0.000 H 
ATOM      8  C6  UNL A   1      23.536  23.218  -4.545  1.00  0.00    +0.000 C 
ATOM      9  C7  UNL A   1      24.275  22.276  -3.811  1.00  0.00    +0.000 C 
ATOM     10  C8  UNL A   1      23.651  21.145  -3.286  1.00  0.00    +0.000 C 
ATOM     11  C9  UNL A   1      22.281  20.964  -3.465  1.00  0.00    +0.000 C 
ATOM     12  C10 UNL A   1      21.531  21.926  -4.142  1.00  0.00    +0.000 C 
ATOM     13  C11 UNL A   1      22.154  23.056  -4.675  1.00  0.00    +0.000 C 
ENDBRANCH    7    8
BRANCH   14   15
ATOM    104  H10 UNL A   1      21.743  26.974  -5.897  1.00  0.00    +0.000 H 
ATOM    105  H11 UNL A   1      20.196  28.131  -4.429  1.00  0.00    +0.000 H 
ATOM    106  H12 UNL A   1      20.597  28.205  -2.039  1.00  0.00    +0.000 H 
ATOM    107  H13 UNL A   1      22.592  27.181  -1.114  1.00  0.00    +0.000 H 
ATOM    108  H14 UNL A   1      24.151  26.046  -2.576  1.00  0.00    +0.000 H 
ATOM     15  C13 UNL A   1      23.064  26.387  -4.358  1.00  0.00    +0.000 C 
ATOM     16  C14 UNL A   1      21.925  27.007  -4.883  1.00  0.00    +0.000 C 
ATOM     17  C15 UNL A   1      21.033  27.675  -4.035  1.00  0.00    +0.000 C 
ATOM     18  C16 UNL A   1      21.268  27.727  -2.660  1.00  0.00    +0.000 C 
ATOM     19  C17 UNL A   1      22.408  27.134  -2.129  1.00  0.00    +0.000 C 
ATOM     20  C18 UNL A   1      23.301  26.476  -2.973  1.00  0.00    +0.000 C 
ENDBRANCH   14   15
ENDBRANCH    4    5
ENDBRANCH    3    4
ENDBRANCH    2    3
ENDBRANCH   22    2
ENDBRANCH   23   22
ENDBRANCH   24   23
ENDBRANCH   25   24
ENDBRANCH   26   25
ENDBRANCH   27   26
ENDBRANCH   28   27
ENDBRANCH   29   28
ENDBRANCH   30   29
ENDBRANCH   32   30
ENDBRANCH   36   35
BRANCH   40   41
ATOM     41  C34 UNL A   1      19.042  23.404   0.398  1.00  0.00    +0.000 C 
ATOM     42  C35 UNL A   1      18.311  23.054  -0.748  1.00  0.00    +0.000 C 
ATOM     43  F1  UNL A   1      17.929  21.783  -0.943  1.00  0.00    +0.000 F 
ATOM     44  C36 UNL A   1      18.016  24.000  -1.727  1.00  0.00    +0.000 C 
ATOM     45  F2  UNL A   1      17.371  23.628  -2.842  1.00  0.00    +0.000 F 
ATOM     46  C37 UNL A   1      18.410  25.319  -1.561  1.00  0.00    +0.000 C 
ATOM     47  F3  UNL A   1      18.128  26.226  -2.506  1.00  0.00    +0.000 F 
ATOM     48  C38 UNL A   1      19.105  25.693  -0.422  1.00  0.00    +0.000 C 
ATOM     49  F4  UNL A   1      19.479  26.971  -0.257  1.00  0.00    +0.000 F 
ATOM     50  C39 UNL A   1      19.429  24.745   0.545  1.00  0.00    +0.000 C 
ATOM     51  F5  UNL A   1      20.126  25.134   1.623  1.00  0.00    +0.000 F 
ENDBRANCH   40   41
BRANCH   57   58
ATOM     65  C49 UNL A   1      15.093  21.819   8.230  1.00  0.00    +0.000 C 
ATOM     66  F9  UNL A   1      15.009  22.820   9.117  1.00  0.00    +0.000 F 
ATOM     67  C50 UNL A   1      16.213  21.706   7.415  1.00  0.00    +0.000 C 
ATOM     68  F10 UNL A   1      17.192  22.616   7.529  1.00  0.00    +0.000 F 
ATOM     58  C45 UNL A   1      16.331  20.653   6.495  1.00  0.00    +0.000 C 
ATOM     59  C46 UNL A   1      15.283  19.724   6.415  1.00  0.00    +0.000 C 
ATOM     60  F6  UNL A   1      15.345  18.711   5.538  1.00  0.00    +0.000 F 
ATOM     61  C47 UNL A   1      14.153  19.854   7.217  1.00  0.00    +0.000 C 
ATOM     62  F7  UNL A   1      13.147  18.977   7.100  1.00  0.00    +0.000 F 
ATOM     63  C48 UNL A   1      14.062  20.897   8.128  1.00  0.00    +0.000 C 
ATOM     64  F8  UNL A   1      12.975  21.016   8.904  1.00  0.00    +0.000 F 
ENDBRANCH   57   58
BRANCH   72   73
ATOM     73  C54 UNL A   1      22.106  16.827   7.273  1.00  0.00    +0.000 C 
ATOM     74  C55 UNL A   1      21.804  15.460   7.230  1.00  0.00    +0.000 C 
ATOM     75  F11 UNL A   1      21.019  14.978   6.255  1.00  0.00    +0.000 F 
ATOM     76  C56 UNL A   1      22.289  14.584   8.199  1.00  0.00    +0.000 C 
ATOM     77  F12 UNL A   1      21.965  13.286   8.150  1.00  0.00    +0.000 F 
ATOM     78  C57 UNL A   1      23.103  15.057   9.218  1.00  0.00    +0.000 C 
ATOM     79  F13 UNL A   1      23.580  14.214  10.144  1.00  0.00    +0.000 F 
ATOM     80  C58 UNL A   1      23.420  16.406   9.278  1.00  0.00    +0.000 C 
ATOM     81  F14 UNL A   1      24.219  16.863  10.252  1.00  0.00    +0.000 F 
ATOM     82  C59 UNL A   1      22.917  17.286   8.321  1.00  0.00    +0.000 C 
ATOM     83  F15 UNL A   1      23.241  18.584   8.401  1.00  0.00    +0.000 F 
ENDBRANCH   72   73
TORSDOF 19
ENDMDL
MODEL 8
REMARK VINA RESULT:     -11.0     29.180     34.239
ROOT
ATOM    129  H35 UNL A   1      42.630  12.550  49.533  1.00  0.00    +0.000 H 
ATOM    130  H36 UNL A   1      44.223  15.764  47.433  1.00  0.00    +0.000 H 
ATOM    131  H37 UNL A   1      44.380  14.334  42.622  1.00  0.00    +0.000 H 
ATOM    132  H38 UNL A   1      45.313  16.662  42.107  1.00  0.00    +0.000 H 
ATOM    133  H39 UNL A   1      44.113  19.398  51.698  1.00  0.00    +0.000 H 
ATOM    134  H40 UNL A   1      43.644  16.957  52.319  1.00  0.00    +0.000 H 
ATOM     36  C30 UNL A   1      43.430  15.237  50.064  1.00  0.00    +0.000 C 
ATOM     37  C31 UNL A   1      43.852  16.675  50.077  1.00  0.00    +0.000 C 
ATOM     38  N4  UNL A   1      44.205  17.445  49.080  1.00  0.00    +0.000 N 
ATOM     39  C32 UNL A   1      44.425  18.698  49.634  1.00  0.00    +0.000 C 
ATOM     40  C33 UNL A   1      44.866  19.823  49.022  1.00  0.00    +0.000 C 
ATOM     52  C40 UNL A   1      45.199  19.901  47.625  1.00  0.00    +0.000 C 
ATOM     53  C41 UNL A   1      45.725  20.969  46.919  1.00  0.00    +0.000 C 
ATOM     54  C42 UNL A   1      45.846  20.587  45.578  1.00  0.00    +0.000 C 
ATOM     55  C43 UNL A   1      45.432  19.269  45.456  1.00  0.00    +0.000 C 
ATOM     56  N5  UNL A   1      45.036  18.863  46.718  1.00  0.00    +0.000 N 
ATOM     57  C44 UNL A   1      45.401  18.445  44.274  1.00  0.00    +0.000 C 
ATOM     69  C51 UNL A   1      45.011  17.147  44.234  1.00  0.00    +0.000 C 
ATOM     70  N6  UNL A   1      44.558  16.340  45.267  1.00  0.00    +0.000 N 
ATOM     71  C52 UNL A   1      44.290  15.177  44.724  1.00  0.00    +0.000 C 
ATOM     72  C53 UNL A   1      43.774  13.927  45.378  1.00  0.00    +0.000 C 
ATOM     84  C60 UNL A   1      43.608  13.909  46.713  1.00  0.00    +0.000 C 
ATOM     85  C61 UNL A   1      43.106  12.778  47.486  1.00  0.00    +0.000 C 
ATOM     86  C62 UNL A   1      42.987  13.147  48.771  1.00  0.00    +0.000 C 
ATOM     87  C63 UNL A   1      43.444  14.531  48.917  1.00  0.00    +0.000 C 
ATOM     88  N7  UNL A   1      43.828  14.889  47.650  1.00  0.00    +0.000 N 
ATOM     89  C64 UNL A   1      44.533  15.117  43.277  1.00  0.00    +0.000 C 
ATOM     90  C65 UNL A   1      44.999  16.335  43.033  1.00  0.00    +0.000 C 
ATOM     91  C66 UNL A   1      44.114  18.599  51.044  1.00  0.00    +0.000 C 
ATOM     92  C67 UNL A   1      43.831  17.351  51.384  1.00  0.00    +0.000 C 
ATOM    125  H31 UNL A   1      45.982  21.886  47.313  1.00  0.00    +0.000 H 
ATOM    126  H32 UNL A   1      46.188  21.186  44.809  1.00  0.00    +0.000 H 
ATOM    127  H33 UNL A   1      44.689  17.968  46.940  1.00  0.00    +0.000 H 
ATOM    128  H34 UNL A   1      42.877  11.846  47.106  1.00  0.00    +0.000 H 
ENDROOT
BRANCH   36   35
ATOM     33  C27 UNL A   1      41.014  14.262  52.814  1.00  0.00    +0.000 C 
ATOM     34  C28 UNL A   1      41.488  14.694  51.575  1.00  0.00    +0.000 C 
ATOM     35  C29 UNL A   1      42.859  14.624  51.286  1.00  0.00    +0.000 C 
ATOM    135  H41 UNL A   1      44.733  13.916  51.971  1.00  0.00    +0.000 H 
ATOM    136  H42 UNL A   1      43.862  12.959  54.020  1.00  0.00    +0.000 H 
ATOM    123  H29 UNL A   1      40.011  14.344  53.046  1.00  0.00    +0.000 H 
ATOM    124  H30 UNL A   1      40.830  15.066  50.872  1.00  0.00    +0.000 H 
ATOM     93  C68 UNL A   1      43.728  13.999  52.194  1.00  0.00    +0.000 C 
ATOM     94  C69 UNL A   1      43.243  13.493  53.391  1.00  0.00    +0.000 C 
ATOM     32  C26 UNL A   1      41.909  13.715  53.736  1.00  0.00    +0.000 C 
BRANCH   32   30
ATOM     30  C25 UNL A   1      41.444  13.450  55.112  1.00  0.00    +0.000 C 
ATOM     31  O3  UNL A   1      41.280  14.376  55.891  1.00  0.00    +0.000 O 
BRANCH   30   29
ATOM    122  H28 UNL A   1      40.325  11.814  55.400  1.00  0.00    +0.000 H 
ATOM     29  N3  UNL A   1      41.246  12.145  55.502  1.00  0.00    +0.000 N 
BRANCH   29   28
ATOM    121  H27 UNL A   1      41.668  10.588  56.765  1.00  0.00    +0.000 H 
ATOM     28  C24 UNL A   1      42.195  11.178  56.045  1.00  0.00    +0.000 C 
ATOM    120  H26 UNL A   1      43.012  11.715  56.481  1.00  0.00    +0.000 H 
BRANCH   28   27
ATOM     27  C23 UNL A   1      42.752  10.219  54.997  1.00  0.00    +0.000 C 
ATOM    118  H24 UNL A   1      43.668  10.626  54.624  1.00  0.00    +0.000 H 
ATOM    119  H25 UNL A   1      42.884   9.276  55.487  1.00  0.00    +0.000 H 
BRANCH   27   26
ATOM     26  C22 UNL A   1      41.824   9.970  53.816  1.00  0.00    +0.000 C 
ATOM    116  H22 UNL A   1      40.928   9.517  54.189  1.00  0.00    +0.000 H 
ATOM    117  H23 UNL A   1      41.665  10.926  53.360  1.00  0.00    +0.000 H 
BRANCH   26   25
ATOM     25  C21 UNL A   1      42.383   9.069  52.716  1.00  0.00    +0.000 C 
ATOM    114  H20 UNL A   1      42.287   9.583  51.783  1.00  0.00    +0.000 H 
ATOM    115  H21 UNL A   1      43.400   8.865  52.980  1.00  0.00    +0.000 H 
BRANCH   25   24
ATOM    113  H19 UNL A   1      40.666   7.918  52.337  1.00  0.00    +0.000 H 
ATOM    112  H18 UNL A   1      41.791   7.194  53.520  1.00  0.00    +0.000 H 
ATOM     24  C20 UNL A   1      41.685   7.712  52.590  1.00  0.00    +0.000 C 
BRANCH   24   23
ATOM    111  H17 UNL A   1      41.645   6.967  50.600  1.00  0.00    +0.000 H 
ATOM    110  H16 UNL A   1      42.187   5.796  51.798  1.00  0.00    +0.000 H 
ATOM     23  C19 UNL A   1      42.236   6.815  51.479  1.00  0.00    +0.000 C 
BRANCH   23   22
ATOM    109  H15 UNL A   1      43.890   8.088  51.210  1.00  0.00    +0.000 H 
ATOM     22  N2  UNL A   1      43.612   7.144  51.165  1.00  0.00    +0.000 N 
BRANCH   22    2
ATOM      1  O1  UNL A   1      44.581   5.068  51.264  1.00  0.00    +0.000 O 
ATOM      2  C1  UNL A   1      44.545   6.206  50.808  1.00  0.00    +0.000 C 
BRANCH    2    3
ATOM      3  C2  UNL A   1      45.564   6.697  49.802  1.00  0.00    +0.000 C 
ATOM     95  H1  UNL A   1      45.800   5.897  49.133  1.00  0.00    +0.000 H 
ATOM     96  H2  UNL A   1      46.429   7.022  50.343  1.00  0.00    +0.000 H 
BRANCH    3    4
ATOM     97  H3  UNL A   1      44.089   8.142  49.372  1.00  0.00    +0.000 H 
ATOM     98  H4  UNL A   1      45.051   7.548  47.974  1.00  0.00    +0.000 H 
ATOM      4  C3  UNL A   1      45.054   7.878  48.992  1.00  0.00    +0.000 C 
BRANCH    4    5
ATOM      5  C4  UNL A   1      45.902   9.109  49.009  1.00  0.00    +0.000 C 
ATOM      6  N1  UNL A   1      45.495  10.347  48.795  1.00  0.00    +0.000 N 
ATOM      7  C5  UNL A   1      46.638  11.095  48.908  1.00  0.00    +0.000 C 
ATOM     14  C12 UNL A   1      47.707  10.285  49.241  1.00  0.00    +0.000 C 
ATOM     21  O2  UNL A   1      47.246   8.992  49.287  1.00  0.00    +0.000 O 
BRANCH    7    8
ATOM     99  H5  UNL A   1      46.926  12.593  46.701  1.00  0.00    +0.000 H 
ATOM    100  H6  UNL A   1      47.507  14.946  46.599  1.00  0.00    +0.000 H 
ATOM    101  H7  UNL A   1      47.586  16.260  48.637  1.00  0.00    +0.000 H 
ATOM    102  H8  UNL A   1      47.006  15.244  50.761  1.00  0.00    +0.000 H 
ATOM    103  H9  UNL A   1      46.447  12.884  50.871  1.00  0.00    +0.000 H 
ATOM      8  C6  UNL A   1      46.710  12.537  48.805  1.00  0.00    +0.000 C 
ATOM      9  C7  UNL A   1      46.972  13.150  47.569  1.00  0.00    +0.000 C 
ATOM     10  C8  UNL A   1      47.294  14.505  47.507  1.00  0.00    +0.000 C 
ATOM     11  C9  UNL A   1      47.326  15.262  48.677  1.00  0.00    +0.000 C 
ATOM     12  C10 UNL A   1      47.008  14.673  49.901  1.00  0.00    +0.000 C 
ATOM     13  C11 UNL A   1      46.692  13.314  49.967  1.00  0.00    +0.000 C 
ENDBRANCH    7    8
BRANCH   14   15
ATOM    104  H10 UNL A   1      49.172   9.268  51.271  1.00  0.00    +0.000 H 
ATOM    105  H11 UNL A   1      51.539   9.601  51.693  1.00  0.00    +0.000 H 
ATOM    106  H12 UNL A   1      52.849  11.045  50.252  1.00  0.00    +0.000 H 
ATOM    107  H13 UNL A   1      51.779  12.222  48.420  1.00  0.00    +0.000 H 
ATOM    108  H14 UNL A   1      49.414  11.913  48.009  1.00  0.00    +0.000 H 
ATOM     15  C13 UNL A   1      49.098  10.540  49.587  1.00  0.00    +0.000 C 
ATOM     16  C14 UNL A   1      49.721   9.890  50.658  1.00  0.00    +0.000 C 
ATOM     17  C15 UNL A   1      51.086  10.083  50.901  1.00  0.00    +0.000 C 
ATOM     18  C16 UNL A   1      51.839  10.921  50.078  1.00  0.00    +0.000 C 
ATOM     19  C17 UNL A   1      51.228  11.591  49.024  1.00  0.00    +0.000 C 
ATOM     20  C18 UNL A   1      49.867  11.406  48.786  1.00  0.00    +0.000 C 
ENDBRANCH   14   15
ENDBRANCH    4    5
ENDBRANCH    3    4
ENDBRANCH    2    3
ENDBRANCH   22    2
ENDBRANCH   23   22
ENDBRANCH   24   23
ENDBRANCH   25   24
ENDBRANCH   26   25
ENDBRANCH   27   26
ENDBRANCH   28   27
ENDBRANCH   29   28
ENDBRANCH   30   29
ENDBRANCH   32   30
ENDBRANCH   36   35
BRANCH   40   41
ATOM     41  C34 UNL A   1      45.015  21.051  49.871  1.00  0.00    +0.000 C 
ATOM     42  C35 UNL A   1      43.929  21.904  50.123  1.00  0.00    +0.000 C 
ATOM     43  F1  UNL A   1      42.725  21.640  49.594  1.00  0.00    +0.000 F 
ATOM     44  C36 UNL A   1      44.089  23.063  50.878  1.00  0.00    +0.000 C 
ATOM     45  F2  UNL A   1      43.051  23.895  51.054  1.00  0.00    +0.000 F 
ATOM     46  C37 UNL A   1      45.324  23.372  51.427  1.00  0.00    +0.000 C 
ATOM     47  F3  UNL A   1      45.476  24.490  52.150  1.00  0.00    +0.000 F 
ATOM     48  C38 UNL A   1      46.403  22.527  51.216  1.00  0.00    +0.000 C 
ATOM     49  F4  UNL A   1      47.596  22.820  51.754  1.00  0.00    +0.000 F 
ATOM     50  C39 UNL A   1      46.255  21.382  50.437  1.00  0.00    +0.000 C 
ATOM     51  F5  UNL A   1      47.324  20.600  50.229  1.00  0.00    +0.000 F 
ENDBRANCH   40   41
BRANCH   57   58
ATOM     65  C49 UNL A   1      45.451  20.583  41.131  1.00  0.00    +0.000 C 
ATOM     66  F9  UNL A   1      44.681  21.504  40.536  1.00  0.00    +0.000 F 
ATOM     67  C50 UNL A   1      45.069  20.044  42.354  1.00  0.00    +0.000 C 
ATOM     68  F10 UNL A   1      43.931  20.470  42.923  1.00  0.00    +0.000 F 
ATOM     58  C45 UNL A   1      45.849  19.062  42.983  1.00  0.00    +0.000 C 
ATOM     59  C46 UNL A   1      47.028  18.647  42.348  1.00  0.00    +0.000 C 
ATOM     60  F6  UNL A   1      47.815  17.723  42.920  1.00  0.00    +0.000 F 
ATOM     61  C47 UNL A   1      47.419  19.206  41.134  1.00  0.00    +0.000 C 
ATOM     62  F7  UNL A   1      48.568  18.822  40.561  1.00  0.00    +0.000 F 
ATOM     63  C48 UNL A   1      46.627  20.168  40.524  1.00  0.00    +0.000 C 
ATOM     64  F8  UNL A   1      47.001  20.699  39.352  1.00  0.00    +0.000 F 
ENDBRANCH   57   58
BRANCH   72   73
ATOM     73  C54 UNL A   1      43.471  12.709  44.586  1.00  0.00    +0.000 C 
ATOM     74  C55 UNL A   1      44.438  11.710  44.410  1.00  0.00    +0.000 C 
ATOM     75  F11 UNL A   1      45.668  11.873  44.916  1.00  0.00    +0.000 F 
ATOM     76  C56 UNL A   1      44.152  10.549  43.694  1.00  0.00    +0.000 C 
ATOM     77  F12 UNL A   1      45.101   9.622  43.517  1.00  0.00    +0.000 F 
ATOM     78  C57 UNL A   1      42.887  10.356  43.159  1.00  0.00    +0.000 C 
ATOM     79  F13 UNL A   1      42.607   9.235  42.481  1.00  0.00    +0.000 F 
ATOM     80  C58 UNL A   1      41.912  11.329  43.325  1.00  0.00    +0.000 C 
ATOM     81  F14 UNL A   1      40.684  11.138  42.824  1.00  0.00    +0.000 F 
ATOM     82  C59 UNL A   1      42.204  12.499  44.023  1.00  0.00    +0.000 C 
ATOM     83  F15 UNL A   1      41.242  13.422  44.171  1.00  0.00    +0.000 F 
ENDBRANCH   72   73
TORSDOF 19
ENDMDL
MODEL 9
REMARK VINA RESULT:     -10.9     38.720     44.510
ROOT
ATOM    129  H35 UNL A   1      46.474  48.040  20.003  1.00  0.00    +0.000 H 
ATOM    130  H36 UNL A   1      48.778  51.473  19.581  1.00  0.00    +0.000 H 
ATOM    131  H37 UNL A   1      52.687  50.909  22.682  1.00  0.00    +0.000 H 
ATOM    132  H38 UNL A   1      53.514  53.176  21.827  1.00  0.00    +0.000 H 
ATOM    133  H39 UNL A   1      45.969  53.563  15.205  1.00  0.00    +0.000 H 
ATOM    134  H40 UNL A   1      44.868  51.562  16.366  1.00  0.00    +0.000 H 
ATOM     36  C30 UNL A   1      46.495  50.387  18.382  1.00  0.00    +0.000 C 
ATOM     37  C31 UNL A   1      46.755  51.654  17.623  1.00  0.00    +0.000 C 
ATOM     38  N4  UNL A   1      47.764  52.482  17.713  1.00  0.00    +0.000 N 
ATOM     39  C32 UNL A   1      47.544  53.446  16.739  1.00  0.00    +0.000 C 
ATOM     40  C33 UNL A   1      48.275  54.554  16.471  1.00  0.00    +0.000 C 
ATOM     52  C40 UNL A   1      49.459  54.932  17.198  1.00  0.00    +0.000 C 
ATOM     53  C41 UNL A   1      50.232  56.070  17.058  1.00  0.00    +0.000 C 
ATOM     54  C42 UNL A   1      51.303  55.982  17.957  1.00  0.00    +0.000 C 
ATOM     55  C43 UNL A   1      51.174  54.807  18.682  1.00  0.00    +0.000 C 
ATOM     56  N5  UNL A   1      50.041  54.172  18.203  1.00  0.00    +0.000 N 
ATOM     57  C44 UNL A   1      52.022  54.303  19.731  1.00  0.00    +0.000 C 
ATOM     69  C51 UNL A   1      51.818  53.154  20.422  1.00  0.00    +0.000 C 
ATOM     70  N6  UNL A   1      50.798  52.224  20.284  1.00  0.00    +0.000 N 
ATOM     71  C52 UNL A   1      51.047  51.284  21.164  1.00  0.00    +0.000 C 
ATOM     72  C53 UNL A   1      50.266  50.034  21.457  1.00  0.00    +0.000 C 
ATOM     84  C60 UNL A   1      49.104  49.825  20.812  1.00  0.00    +0.000 C 
ATOM     85  C61 UNL A   1      48.244  48.658  20.980  1.00  0.00    +0.000 C 
ATOM     86  C62 UNL A   1      47.220  48.744  20.116  1.00  0.00    +0.000 C 
ATOM     87  C63 UNL A   1      47.332  49.993  19.361  1.00  0.00    +0.000 C 
ATOM     88  N7  UNL A   1      48.460  50.587  19.867  1.00  0.00    +0.000 N 
ATOM     89  C64 UNL A   1      52.265  51.505  21.953  1.00  0.00    +0.000 C 
ATOM     90  C65 UNL A   1      52.681  52.673  21.482  1.00  0.00    +0.000 C 
ATOM     91  C66 UNL A   1      46.337  53.071  16.035  1.00  0.00    +0.000 C 
ATOM     92  C67 UNL A   1      45.768  52.014  16.594  1.00  0.00    +0.000 C 
ATOM    125  H31 UNL A   1      50.052  56.849  16.407  1.00  0.00    +0.000 H 
ATOM    126  H32 UNL A   1      52.059  56.676  18.063  1.00  0.00    +0.000 H 
ATOM    127  H33 UNL A   1      49.697  53.308  18.529  1.00  0.00    +0.000 H 
ATOM    128  H34 UNL A   1      48.398  47.891  21.653  1.00  0.00    +0.000 H 
ENDROOT
BRANCH   36   35
ATOM     33  C27 UNL A   1      44.481  47.807  16.475  1.00  0.00    +0.000 C 
ATOM     34  C28 UNL A   1      45.579  48.513  16.968  1.00  0.00    +0.000 C 
ATOM     35  C29 UNL A   1      45.396  49.487  17.962  1.00  0.00    +0.000 C 
ATOM    135  H41 UNL A   1      44.000  50.345  19.301  1.00  0.00    +0.000 H 
ATOM    136  H42 UNL A   1      42.147  48.948  18.600  1.00  0.00    +0.000 H 
ATOM    123  H29 UNL A   1      44.603  47.114  15.719  1.00  0.00    +0.000 H 
ATOM    124  H30 UNL A   1      46.523  48.321  16.601  1.00  0.00    +0.000 H 
ATOM     93  C68 UNL A   1      44.131  49.653  18.547  1.00  0.00    +0.000 C 
ATOM     94  C69 UNL A   1      43.056  48.890  18.115  1.00  0.00    +0.000 C 
ATOM     32  C26 UNL A   1      43.216  48.043  17.017  1.00  0.00    +0.000 C 
BRANCH   32   30
ATOM     30  C25 UNL A   1      42.035  47.448  16.360  1.00  0.00    +0.000 C 
ATOM     31  O3  UNL A   1      41.344  48.126  15.615  1.00  0.00    +0.000 O 
BRANCH   30   29
ATOM    122  H28 UNL A   1      40.748  45.957  16.722  1.00  0.00    +0.000 H 
ATOM     29  N3  UNL A   1      41.712  46.140  16.640  1.00  0.00    +0.000 N 
BRANCH   29   28
ATOM    121  H27 UNL A   1      43.588  45.348  16.862  1.00  0.00    +0.000 H 
ATOM     28  C24 UNL A   1      42.582  44.985  16.836  1.00  0.00    +0.000 C 
ATOM    120  H26 UNL A   1      42.419  44.299  16.032  1.00  0.00    +0.000 H 
BRANCH   28   27
ATOM     27  C23 UNL A   1      42.333  44.254  18.152  1.00  0.00    +0.000 C 
ATOM    118  H24 UNL A   1      41.651  44.836  18.737  1.00  0.00    +0.000 H 
ATOM    119  H25 UNL A   1      41.944  43.289  17.897  1.00  0.00    +0.000 H 
BRANCH   27   26
ATOM     26  C22 UNL A   1      43.586  44.012  18.983  1.00  0.00    +0.000 C 
ATOM    116  H22 UNL A   1      43.304  44.018  20.016  1.00  0.00    +0.000 H 
ATOM    117  H23 UNL A   1      43.982  43.074  18.652  1.00  0.00    +0.000 H 
BRANCH   26   25
ATOM     25  C21 UNL A   1      44.709  45.030  18.796  1.00  0.00    +0.000 C 
ATOM    114  H20 UNL A   1      45.570  44.513  18.429  1.00  0.00    +0.000 H 
ATOM    115  H21 UNL A   1      44.339  45.767  18.114  1.00  0.00    +0.000 H 
BRANCH   25   24
ATOM    113  H19 UNL A   1      44.542  46.687  20.079  1.00  0.00    +0.000 H 
ATOM    112  H18 UNL A   1      46.164  45.942  20.046  1.00  0.00    +0.000 H 
ATOM     24  C20 UNL A   1      45.107  45.778  20.071  1.00  0.00    +0.000 C 
BRANCH   24   23
ATOM    111  H17 UNL A   1      43.987  44.344  21.168  1.00  0.00    +0.000 H 
ATOM    110  H16 UNL A   1      44.459  45.760  22.104  1.00  0.00    +0.000 H 
ATOM     23  C19 UNL A   1      44.769  45.045  21.371  1.00  0.00    +0.000 C 
BRANCH   23   22
ATOM    109  H15 UNL A   1      46.721  44.822  22.125  1.00  0.00    +0.000 H 
ATOM     22  N2  UNL A   1      45.913  44.315  21.881  1.00  0.00    +0.000 N 
BRANCH   22    2
ATOM      1  O1  UNL A   1      45.464  42.376  23.020  1.00  0.00    +0.000 O 
ATOM      2  C1  UNL A   1      45.924  42.954  22.041  1.00  0.00    +0.000 C 
BRANCH    2    3
ATOM      3  C2  UNL A   1      46.578  42.202  20.902  1.00  0.00    +0.000 C 
ATOM     95  H1  UNL A   1      46.257  42.633  19.976  1.00  0.00    +0.000 H 
ATOM     96  H2  UNL A   1      46.286  41.175  20.977  1.00  0.00    +0.000 H 
BRANCH    3    4
ATOM     97  H3  UNL A   1      48.469  41.280  20.750  1.00  0.00    +0.000 H 
ATOM     98  H4  UNL A   1      48.327  42.610  21.952  1.00  0.00    +0.000 H 
ATOM      4  C3  UNL A   1      48.096  42.259  20.968  1.00  0.00    +0.000 C 
BRANCH    4    5
ATOM      5  C4  UNL A   1      48.764  43.218  20.036  1.00  0.00    +0.000 C 
ATOM      6  N1  UNL A   1      48.189  44.212  19.385  1.00  0.00    +0.000 N 
ATOM      7  C5  UNL A   1      49.212  44.772  18.665  1.00  0.00    +0.000 C 
ATOM     14  C12 UNL A   1      50.401  44.125  18.943  1.00  0.00    +0.000 C 
ATOM     21  O2  UNL A   1      50.118  43.100  19.813  1.00  0.00    +0.000 O 
BRANCH    7    8
ATOM     99  H5  UNL A   1      47.950  45.006  16.309  1.00  0.00    +0.000 H 
ATOM    100  H6  UNL A   1      48.168  46.816  14.709  1.00  0.00    +0.000 H 
ATOM    101  H7  UNL A   1      49.408  48.813  15.306  1.00  0.00    +0.000 H 
ATOM    102  H8  UNL A   1      50.357  49.036  17.527  1.00  0.00    +0.000 H 
ATOM    103  H9  UNL A   1      50.161  47.219  19.124  1.00  0.00    +0.000 H 
ATOM      8  C6  UNL A   1      49.100  45.942  17.819  1.00  0.00    +0.000 C 
ATOM      9  C7  UNL A   1      48.487  45.851  16.558  1.00  0.00    +0.000 C 
ATOM     10  C8  UNL A   1      48.602  46.896  15.642  1.00  0.00    +0.000 C 
ATOM     11  C9  UNL A   1      49.303  48.048  15.991  1.00  0.00    +0.000 C 
ATOM     12  C10 UNL A   1      49.863  48.169  17.263  1.00  0.00    +0.000 C 
ATOM     13  C11 UNL A   1      49.756  47.122  18.181  1.00  0.00    +0.000 C 
ENDBRANCH    7    8
BRANCH   14   15
ATOM    104  H10 UNL A   1      52.329  45.473  20.271  1.00  0.00    +0.000 H 
ATOM    105  H11 UNL A   1      54.671  45.673  19.669  1.00  0.00    +0.000 H 
ATOM    106  H12 UNL A   1      55.502  44.660  17.629  1.00  0.00    +0.000 H 
ATOM    107  H13 UNL A   1      53.975  43.500  16.143  1.00  0.00    +0.000 H 
ATOM    108  H14 UNL A   1      51.634  43.318  16.727  1.00  0.00    +0.000 H 
ATOM     15  C13 UNL A   1      51.788  44.354  18.565  1.00  0.00    +0.000 C 
ATOM     16  C14 UNL A   1      52.673  45.046  19.398  1.00  0.00    +0.000 C 
ATOM     17  C15 UNL A   1      54.024  45.161  19.050  1.00  0.00    +0.000 C 
ATOM     18  C16 UNL A   1      54.502  44.587  17.871  1.00  0.00    +0.000 C 
ATOM     19  C17 UNL A   1      53.628  43.916  17.022  1.00  0.00    +0.000 C 
ATOM     20  C18 UNL A   1      52.282  43.807  17.365  1.00  0.00    +0.000 C 
ENDBRANCH   14   15
ENDBRANCH    4    5
ENDBRANCH    3    4
ENDBRANCH    2    3
ENDBRANCH   22    2
ENDBRANCH   23   22
ENDBRANCH   24   23
ENDBRANCH   25   24
ENDBRANCH   26   25
ENDBRANCH   27   26
ENDBRANCH   28   27
ENDBRANCH   29   28
ENDBRANCH   30   29
ENDBRANCH   32   30
ENDBRANCH   36   35
BRANCH   40   41
ATOM     41  C34 UNL A   1      47.805  55.432  15.350  1.00  0.00    +0.000 C 
ATOM     42  C35 UNL A   1      47.083  56.611  15.593  1.00  0.00    +0.000 C 
ATOM     43  F1  UNL A   1      46.785  56.972  16.850  1.00  0.00    +0.000 F 
ATOM     44  C36 UNL A   1      46.616  57.395  14.542  1.00  0.00    +0.000 C 
ATOM     45  F2  UNL A   1      45.875  58.483  14.798  1.00  0.00    +0.000 F 
ATOM     46  C37 UNL A   1      46.895  57.040  13.231  1.00  0.00    +0.000 C 
ATOM     47  F3  UNL A   1      46.441  57.795  12.221  1.00  0.00    +0.000 F 
ATOM     48  C38 UNL A   1      47.633  55.897  12.968  1.00  0.00    +0.000 C 
ATOM     49  F4  UNL A   1      47.911  55.557  11.701  1.00  0.00    +0.000 F 
ATOM     50  C39 UNL A   1      48.076  55.092  14.016  1.00  0.00    +0.000 C 
ATOM     51  F5  UNL A   1      48.765  53.979  13.727  1.00  0.00    +0.000 F 
ENDBRANCH   40   41
BRANCH   57   58
ATOM     65  C49 UNL A   1      55.611  55.544  19.934  1.00  0.00    +0.000 C 
ATOM     66  F9  UNL A   1      56.805  55.238  19.410  1.00  0.00    +0.000 F 
ATOM     67  C50 UNL A   1      54.481  54.828  19.552  1.00  0.00    +0.000 C 
ATOM     68  F10 UNL A   1      54.612  53.843  18.651  1.00  0.00    +0.000 F 
ATOM     58  C45 UNL A   1      53.224  55.117  20.106  1.00  0.00    +0.000 C 
ATOM     59  C46 UNL A   1      53.139  56.153  21.046  1.00  0.00    +0.000 C 
ATOM     60  F6  UNL A   1      51.955  56.476  21.589  1.00  0.00    +0.000 F 
ATOM     61  C47 UNL A   1      54.267  56.883  21.408  1.00  0.00    +0.000 C 
ATOM     62  F7  UNL A   1      54.158  57.894  22.282  1.00  0.00    +0.000 F 
ATOM     63  C48 UNL A   1      55.503  56.574  20.857  1.00  0.00    +0.000 C 
ATOM     64  F8  UNL A   1      56.590  57.273  21.213  1.00  0.00    +0.000 F 
ENDBRANCH   57   58
BRANCH   72   73
ATOM     73  C54 UNL A   1      50.737  49.045  22.457  1.00  0.00    +0.000 C 
ATOM     74  C55 UNL A   1      50.328  49.129  23.795  1.00  0.00    +0.000 C 
ATOM     75  F11 UNL A   1      49.544  50.141  24.192  1.00  0.00    +0.000 F 
ATOM     76  C56 UNL A   1      50.741  48.187  24.735  1.00  0.00    +0.000 C 
ATOM     77  F12 UNL A   1      50.358  48.304  26.012  1.00  0.00    +0.000 F 
ATOM     78  C57 UNL A   1      51.553  47.130  24.349  1.00  0.00    +0.000 C 
ATOM     79  F13 UNL A   1      51.940  46.217  25.250  1.00  0.00    +0.000 F 
ATOM     80  C58 UNL A   1      51.966  47.023  23.029  1.00  0.00    +0.000 C 
ATOM     81  F14 UNL A   1      52.737  45.995  22.651  1.00  0.00    +0.000 F 
ATOM     82  C59 UNL A   1      51.571  47.978  22.094  1.00  0.00    +0.000 C 
ATOM     83  F15 UNL A   1      51.982  47.849  20.824  1.00  0.00    +0.000 F 
ENDBRANCH   72   73
TORSDOF 19
ENDMDL
MODEL 10
REMARK VINA RESULT:     -10.7     44.698     49.537
ROOT
ATOM    129  H35 UNL A   1      16.813  56.415   3.798  1.00  0.00    +0.000 H 
ATOM    130  H36 UNL A   1      15.488  52.477   3.673  1.00  0.00    +0.000 H 
ATOM    131  H37 UNL A   1      12.129  52.026   7.378  1.00  0.00    +0.000 H 
ATOM    132  H38 UNL A   1      11.820  49.603   6.613  1.00  0.00    +0.000 H 
ATOM    133  H39 UNL A   1      18.010  51.137  -1.149  1.00  0.00    +0.000 H 
ATOM    134  H40 UNL A   1      18.701  53.385  -0.133  1.00  0.00    +0.000 H 
ATOM     36  C30 UNL A   1      17.166  54.117   2.146  1.00  0.00    +0.000 C 
ATOM     37  C31 UNL A   1      17.140  52.811   1.409  1.00  0.00    +0.000 C 
ATOM     38  N4  UNL A   1      16.421  51.742   1.641  1.00  0.00    +0.000 N 
ATOM     39  C32 UNL A   1      16.733  50.854   0.622  1.00  0.00    +0.000 C 
ATOM     40  C33 UNL A   1      16.296  49.584   0.450  1.00  0.00    +0.000 C 
ATOM     52  C40 UNL A   1      15.392  48.915   1.349  1.00  0.00    +0.000 C 
ATOM     53  C41 UNL A   1      14.944  47.607   1.309  1.00  0.00    +0.000 C 
ATOM     54  C42 UNL A   1      14.051  47.420   2.371  1.00  0.00    +0.000 C 
ATOM     55  C43 UNL A   1      13.972  48.601   3.093  1.00  0.00    +0.000 C 
ATOM     56  N5  UNL A   1      14.798  49.509   2.453  1.00  0.00    +0.000 N 
ATOM     57  C44 UNL A   1      13.201  48.879   4.278  1.00  0.00    +0.000 C 
ATOM     69  C51 UNL A   1      13.196  50.054   4.954  1.00  0.00    +0.000 C 
ATOM     70  N6  UNL A   1      13.890  51.222   4.675  1.00  0.00    +0.000 N 
ATOM     71  C52 UNL A   1      13.541  52.078   5.606  1.00  0.00    +0.000 C 
ATOM     72  C53 UNL A   1      13.991  53.498   5.798  1.00  0.00    +0.000 C 
ATOM     84  C60 UNL A   1      14.933  54.002   4.979  1.00  0.00    +0.000 C 
ATOM     85  C61 UNL A   1      15.460  55.361   5.034  1.00  0.00    +0.000 C 
ATOM     86  C62 UNL A   1      16.314  55.538   4.014  1.00  0.00    +0.000 C 
ATOM     87  C63 UNL A   1      16.424  54.290   3.257  1.00  0.00    +0.000 C 
ATOM     88  N7  UNL A   1      15.596  53.422   3.925  1.00  0.00    +0.000 N 
ATOM     89  C64 UNL A   1      12.573  51.552   6.577  1.00  0.00    +0.000 C 
ATOM     90  C65 UNL A   1      12.419  50.305   6.151  1.00  0.00    +0.000 C 
ATOM     91  C66 UNL A   1      17.662  51.528  -0.259  1.00  0.00    +0.000 C 
ATOM     92  C67 UNL A   1      18.007  52.711   0.226  1.00  0.00    +0.000 C 
ATOM    125  H31 UNL A   1      15.221  46.893   0.618  1.00  0.00    +0.000 H 
ATOM    126  H32 UNL A   1      13.538  46.549   2.581  1.00  0.00    +0.000 H 
ATOM    127  H33 UNL A   1      14.942  50.441   2.740  1.00  0.00    +0.000 H 
ATOM    128  H34 UNL A   1      15.214  56.071   5.742  1.00  0.00    +0.000 H 
ENDROOT
BRANCH   36   35
ATOM     33  C27 UNL A   1      19.846  56.708   1.473  1.00  0.00    +0.000 C 
ATOM     34  C28 UNL A   1      19.243  55.519   1.886  1.00  0.00    +0.000 C 
ATOM     35  C29 UNL A   1      17.897  55.272   1.576  1.00  0.00    +0.000 C 
ATOM    135  H41 UNL A   1      16.222  55.966   0.484  1.00  0.00    +0.000 H 
ATOM    136  H42 UNL A   1      17.350  57.912  -0.420  1.00  0.00    +0.000 H 
ATOM    123  H29 UNL A   1      20.825  56.912   1.728  1.00  0.00    +0.000 H 
ATOM    124  H30 UNL A   1      19.786  54.823   2.419  1.00  0.00    +0.000 H 
ATOM     93  C68 UNL A   1      17.202  56.161   0.741  1.00  0.00    +0.000 C 
ATOM     94  C69 UNL A   1      17.828  57.302   0.261  1.00  0.00    +0.000 C 
ATOM     32  C26 UNL A   1      19.112  57.618   0.709  1.00  0.00    +0.000 C 
BRANCH   32   30
ATOM     30  C25 UNL A   1      19.681  58.955   0.449  1.00  0.00    +0.000 C 
ATOM     31  O3  UNL A   1      20.887  59.090   0.312  1.00  0.00    +0.000 O 
BRANCH   30   29
ATOM    122  H28 UNL A   1      17.909  59.854   0.702  1.00  0.00    +0.000 H 
ATOM     29  N3  UNL A   1      18.832  60.037   0.410  1.00  0.00    +0.000 N 
BRANCH   29   28
ATOM    121  H27 UNL A   1      18.332  61.682  -0.703  1.00  0.00    +0.000 H 
ATOM     28  C24 UNL A   1      19.091  61.414   0.002  1.00  0.00    +0.000 C 
ATOM    120  H26 UNL A   1      20.072  61.461  -0.423  1.00  0.00    +0.000 H 
BRANCH   28   27
ATOM     27  C23 UNL A   1      19.013  62.414   1.151  1.00  0.00    +0.000 C 
ATOM    118  H24 UNL A   1      19.062  63.401   0.741  1.00  0.00    +0.000 H 
ATOM    119  H25 UNL A   1      18.092  62.221   1.662  1.00  0.00    +0.000 H 
BRANCH   27   26
ATOM     26  C22 UNL A   1      20.122  62.272   2.185  1.00  0.00    +0.000 C 
ATOM    116  H22 UNL A   1      20.263  61.228   2.377  1.00  0.00    +0.000 H 
ATOM    117  H23 UNL A   1      20.981  62.751   1.762  1.00  0.00    +0.000 H 
BRANCH   26   25
ATOM     25  C21 UNL A   1      19.871  62.966   3.522  1.00  0.00    +0.000 C 
ATOM    114  H20 UNL A   1      19.793  64.018   3.342  1.00  0.00    +0.000 H 
ATOM    115  H21 UNL A   1      18.974  62.541   3.920  1.00  0.00    +0.000 H 
BRANCH   25   24
ATOM    113  H19 UNL A   1      21.805  63.324   4.263  1.00  0.00    +0.000 H 
ATOM    112  H18 UNL A   1      21.173  61.692   4.614  1.00  0.00    +0.000 H 
ATOM     24  C20 UNL A   1      20.963  62.740   4.571  1.00  0.00    +0.000 C 
BRANCH   24   23
ATOM    111  H17 UNL A   1      21.476  63.626   6.433  1.00  0.00    +0.000 H 
ATOM    110  H16 UNL A   1      20.236  62.380   6.544  1.00  0.00    +0.000 H 
ATOM     23  C19 UNL A   1      20.599  63.213   5.980  1.00  0.00    +0.000 C 
BRANCH   23   22
ATOM    109  H15 UNL A   1      18.678  63.996   5.628  1.00  0.00    +0.000 H 
ATOM     22  N2  UNL A   1      19.577  64.240   5.947  1.00  0.00    +0.000 N 
BRANCH   22    2
ATOM      1  O1  UNL A   1      20.758  66.206   5.967  1.00  0.00    +0.000 O 
ATOM      2  C1  UNL A   1      19.801  65.534   6.338  1.00  0.00    +0.000 C 
BRANCH    2    3
ATOM      3  C2  UNL A   1      18.766  66.079   7.300  1.00  0.00    +0.000 C 
ATOM     95  H1  UNL A   1      18.630  67.122   7.105  1.00  0.00    +0.000 H 
ATOM     96  H2  UNL A   1      19.123  65.911   8.295  1.00  0.00    +0.000 H 
BRANCH    3    4
ATOM     97  H3  UNL A   1      17.509  64.662   6.371  1.00  0.00    +0.000 H 
ATOM     98  H4  UNL A   1      16.712  66.153   6.983  1.00  0.00    +0.000 H 
ATOM      4  C3  UNL A   1      17.424  65.376   7.164  1.00  0.00    +0.000 C 
BRANCH    4    5
ATOM      5  C4  UNL A   1      16.929  64.654   8.375  1.00  0.00    +0.000 C 
ATOM      6  N1  UNL A   1      15.794  63.989   8.484  1.00  0.00    +0.000 N 
ATOM      7  C5  UNL A   1      15.802  63.530   9.775  1.00  0.00    +0.000 C 
ATOM     14  C12 UNL A   1      16.980  63.891  10.402  1.00  0.00    +0.000 C 
ATOM     21  O2  UNL A   1      17.708  64.641   9.511  1.00  0.00    +0.000 O 
BRANCH    7    8
ATOM     99  H5  UNL A   1      14.791  61.221   8.854  1.00  0.00    +0.000 H 
ATOM    100  H6  UNL A   1      12.786  60.095   9.624  1.00  0.00    +0.000 H 
ATOM    101  H7  UNL A   1      11.643  60.887  11.611  1.00  0.00    +0.000 H 
ATOM    102  H8  UNL A   1      12.549  62.750  12.872  1.00  0.00    +0.000 H 
ATOM    103  H9  UNL A   1      14.542  63.896  12.093  1.00  0.00    +0.000 H 
ATOM      8  C6  UNL A   1      14.784  62.693  10.374  1.00  0.00    +0.000 C 
ATOM      9  C7  UNL A   1      14.298  61.566   9.692  1.00  0.00    +0.000 C 
ATOM     10  C8  UNL A   1      13.152  60.910  10.141  1.00  0.00    +0.000 C 
ATOM     11  C9  UNL A   1      12.504  61.357  11.290  1.00  0.00    +0.000 C 
ATOM     12  C10 UNL A   1      13.016  62.440  12.006  1.00  0.00    +0.000 C 
ATOM     13  C11 UNL A   1      14.159  63.103  11.556  1.00  0.00    +0.000 C 
ENDBRANCH    7    8
BRANCH   14   15
ATOM    104  H10 UNL A   1      18.789  61.996  11.060  1.00  0.00    +0.000 H 
ATOM    105  H11 UNL A   1      19.856  61.659  13.213  1.00  0.00    +0.000 H 
ATOM    106  H12 UNL A   1      19.275  63.064  15.102  1.00  0.00    +0.000 H 
ATOM    107  H13 UNL A   1      17.566  64.769  14.863  1.00  0.00    +0.000 H 
ATOM    108  H14 UNL A   1      16.481  65.094  12.724  1.00  0.00    +0.000 H 
ATOM     15  C13 UNL A   1      17.565  63.592  11.702  1.00  0.00    +0.000 C 
ATOM     16  C14 UNL A   1      18.530  62.593  11.860  1.00  0.00    +0.000 C 
ATOM     17  C15 UNL A   1      19.145  62.399  13.103  1.00  0.00    +0.000 C 
ATOM     18  C16 UNL A   1      18.804  63.200  14.193  1.00  0.00    +0.000 C 
ATOM     19  C17 UNL A   1      17.830  64.182  14.055  1.00  0.00    +0.000 C 
ATOM     20  C18 UNL A   1      17.211  64.371  12.820  1.00  0.00    +0.000 C 
ENDBRANCH   14   15
ENDBRANCH    4    5
ENDBRANCH    3    4
ENDBRANCH    2    3
ENDBRANCH   22    2
ENDBRANCH   23   22
ENDBRANCH   24   23
ENDBRANCH   25   24
ENDBRANCH   26   25
ENDBRANCH   27   26
ENDBRANCH   28   27
ENDBRANCH   29   28
ENDBRANCH   30   29
ENDBRANCH   32   30
ENDBRANCH   36   35
BRANCH   40   41
ATOM     41  C34 UNL A   1      16.798  48.843  -0.754  1.00  0.00    +0.000 C 
ATOM     42  C35 UNL A   1      18.025  48.162  -0.738  1.00  0.00    +0.000 C 
ATOM     43  F1  UNL A   1      18.787  48.171   0.366  1.00  0.00    +0.000 F 
ATOM     44  C36 UNL A   1      18.499  47.512  -1.874  1.00  0.00    +0.000 C 
ATOM     45  F2  UNL A   1      19.703  46.922  -1.853  1.00  0.00    +0.000 F 
ATOM     46  C37 UNL A   1      17.741  47.498  -3.035  1.00  0.00    +0.000 C 
ATOM     47  F3  UNL A   1      18.202  46.876  -4.129  1.00  0.00    +0.000 F 
ATOM     48  C38 UNL A   1      16.512  48.138  -3.064  1.00  0.00    +0.000 C 
ATOM     49  F4  UNL A   1      15.774  48.116  -4.184  1.00  0.00    +0.000 F 
ATOM     50  C39 UNL A   1      16.047  48.814  -1.939  1.00  0.00    +0.000 C 
ATOM     51  F5  UNL A   1      14.866  49.446  -2.008  1.00  0.00    +0.000 F 
ENDBRANCH   40   41
BRANCH   57   58
ATOM     65  C49 UNL A   1      10.222  46.588   4.861  1.00  0.00    +0.000 C 
ATOM     66  F9  UNL A   1       8.980  46.424   4.388  1.00  0.00    +0.000 F 
ATOM     67  C50 UNL A   1      11.045  47.573   4.326  1.00  0.00    +0.000 C 
ATOM     68  F10 UNL A   1      10.575  48.339   3.330  1.00  0.00    +0.000 F 
ATOM     58  C45 UNL A   1      12.342  47.777   4.822  1.00  0.00    +0.000 C 
ATOM     59  C46 UNL A   1      12.787  46.953   5.866  1.00  0.00    +0.000 C 
ATOM     60  F6  UNL A   1      14.025  47.100   6.361  1.00  0.00    +0.000 F 
ATOM     61  C47 UNL A   1      11.969  45.952   6.383  1.00  0.00    +0.000 C 
ATOM     62  F7  UNL A   1      12.427  45.152   7.356  1.00  0.00    +0.000 F 
ATOM     63  C48 UNL A   1      10.686  45.775   5.885  1.00  0.00    +0.000 C 
ATOM     64  F8  UNL A   1       9.897  44.817   6.390  1.00  0.00    +0.000 F 
ENDBRANCH   57   58
BRANCH   72   73
ATOM     73  C54 UNL A   1      13.438  54.344   6.886  1.00  0.00    +0.000 C 
ATOM     74  C55 UNL A   1      12.377  55.225   6.639  1.00  0.00    +0.000 C 
ATOM     75  F11 UNL A   1      11.885  55.348   5.397  1.00  0.00    +0.000 F 
ATOM     76  C56 UNL A   1      11.831  55.999   7.660  1.00  0.00    +0.000 C 
ATOM     77  F12 UNL A   1      10.835  56.853   7.393  1.00  0.00    +0.000 F 
ATOM     78  C57 UNL A   1      12.322  55.890   8.953  1.00  0.00    +0.000 C 
ATOM     79  F13 UNL A   1      11.789  56.626   9.938  1.00  0.00    +0.000 F 
ATOM     80  C58 UNL A   1      13.368  55.020   9.223  1.00  0.00    +0.000 C 
ATOM     81  F14 UNL A   1      13.834  54.901  10.473  1.00  0.00    +0.000 F 
ATOM     82  C59 UNL A   1      13.929  54.261   8.197  1.00  0.00    +0.000 C 
ATOM     83  F15 UNL A   1      14.937  53.427   8.486  1.00  0.00    +0.000 F 
ENDBRANCH   72   73
TORSDOF 19
ENDMDL
