MODEL 1
REMARK VINA RESULT:     -10.1      0.000      0.000
ROOT
ATOM     34  C25 UNL A   1      14.163  50.129   4.173  1.00  0.00    +0.000 C 
ATOM     35  C26 UNL A   1      14.832  49.675   2.907  1.00  0.00    +0.000 C 
ATOM     36  N5  UNL A   1      15.509  50.381   2.034  1.00  0.00    +0.000 N 
ATOM     37  C27 UNL A   1      15.926  49.486   1.059  1.00  0.00    +0.000 C 
ATOM     38  C28 UNL A   1      16.628  49.737  -0.074  1.00  0.00    +0.000 C 
ATOM     50  C35 UNL A   1      17.092  51.043  -0.472  1.00  0.00    +0.000 C 
ATOM     51  C36 UNL A   1      17.808  51.398  -1.603  1.00  0.00    +0.000 C 
ATOM     52  C37 UNL A   1      18.058  52.774  -1.551  1.00  0.00    +0.000 C 
ATOM     53  C38 UNL A   1      17.463  53.283  -0.409  1.00  0.00    +0.000 C 
ATOM     54  N6  UNL A   1      16.883  52.209   0.249  1.00  0.00    +0.000 N 
ATOM     55  C39 UNL A   1      17.422  54.648   0.048  1.00  0.00    +0.000 C 
ATOM     67  C46 UNL A   1      16.813  55.073   1.182  1.00  0.00    +0.000 C 
ATOM     68  N7  UNL A   1      16.135  54.331   2.137  1.00  0.00    +0.000 N 
ATOM     69  C47 UNL A   1      15.770  55.184   3.062  1.00  0.00    +0.000 C 
ATOM     70  C48 UNL A   1      15.002  54.936   4.327  1.00  0.00    +0.000 C 
ATOM     82  C55 UNL A   1      14.610  53.683   4.619  1.00  0.00    +0.000 C 
ATOM     83  C56 UNL A   1      13.844  53.297   5.798  1.00  0.00    +0.000 C 
ATOM     84  C57 UNL A   1      13.652  51.970   5.776  1.00  0.00    +0.000 C 
ATOM     85  C58 UNL A   1      14.239  51.420   4.552  1.00  0.00    +0.000 C 
ATOM     86  N8  UNL A   1      14.813  52.505   3.942  1.00  0.00    +0.000 N 
ATOM     87  C59 UNL A   1      16.178  56.570   2.798  1.00  0.00    +0.000 C 
ATOM     88  C60 UNL A   1      16.778  56.452   1.622  1.00  0.00    +0.000 C 
ATOM     89  C61 UNL A   1      15.455  48.177   1.460  1.00  0.00    +0.000 C 
ATOM     90  C62 UNL A   1      14.739  48.245   2.575  1.00  0.00    +0.000 C 
ATOM    117  H25 UNL A   1      18.106  50.758  -2.355  1.00  0.00    +0.000 H 
ATOM    118  H26 UNL A   1      18.594  53.316  -2.246  1.00  0.00    +0.000 H 
ATOM    119  H27 UNL A   1      16.395  52.265   1.102  1.00  0.00    +0.000 H 
ATOM    120  H28 UNL A   1      13.504  53.940   6.530  1.00  0.00    +0.000 H 
ATOM    121  H29 UNL A   1      13.168  51.424   6.505  1.00  0.00    +0.000 H 
ATOM    122  H30 UNL A   1      15.321  52.446   3.101  1.00  0.00    +0.000 H 
ATOM    123  H31 UNL A   1      16.037  57.413   3.376  1.00  0.00    +0.000 H 
ATOM    124  H32 UNL A   1      17.169  57.243   1.087  1.00  0.00    +0.000 H 
ATOM    125  H33 UNL A   1      15.650  47.304   0.946  1.00  0.00    +0.000 H 
ATOM    126  H34 UNL A   1      14.246  47.491   3.079  1.00  0.00    +0.000 H 
ENDROOT
BRANCH   34   33
ATOM     33  C24 UNL A   1      13.358  49.197   5.004  1.00  0.00    +0.000 C 
ATOM    127  H35 UNL A   1      14.905  48.633   6.331  1.00  0.00    +0.000 H 
ATOM    115  H23 UNL A   1      10.161  48.237   5.387  1.00  0.00    +0.000 H 
ATOM    116  H24 UNL A   1      11.574  49.547   3.921  1.00  0.00    +0.000 H 
ATOM     91  C63 UNL A   1      13.911  48.502   6.090  1.00  0.00    +0.000 C 
ATOM     92  C64 UNL A   1      13.118  47.634   6.847  1.00  0.00    +0.000 C 
ATOM     32  C23 UNL A   1      11.987  49.055   4.730  1.00  0.00    +0.000 C 
ATOM     30  C21 UNL A   1      11.758  47.491   6.549  1.00  0.00    +0.000 C 
ATOM     31  C22 UNL A   1      11.182  48.260   5.536  1.00  0.00    +0.000 C 
ATOM    128  H36 UNL A   1      13.535  47.098   7.624  1.00  0.00    +0.000 H 
BRANCH   30    2
ATOM      1  O1  UNL A   1       9.812  46.241   6.945  1.00  0.00    +0.000 O 
ATOM      2  C1  UNL A   1      10.947  46.523   7.322  1.00  0.00    +0.000 C 
BRANCH    2    3
ATOM      3  N1  UNL A   1      11.453  45.968   8.473  1.00  0.00    +0.000 N 
ATOM     93  H1  UNL A   1      12.075  45.216   8.343  1.00  0.00    +0.000 H 
BRANCH    3    4
ATOM      4  C2  UNL A   1      11.199  46.336   9.854  1.00  0.00    +0.000 C 
ATOM     94  H2  UNL A   1      10.477  45.658  10.261  1.00  0.00    +0.000 H 
ATOM     95  H3  UNL A   1      10.844  47.346   9.857  1.00  0.00    +0.000 H 
BRANCH    4    5
ATOM     97  H5  UNL A   1      12.168  46.710  11.667  1.00  0.00    +0.000 H 
ATOM      5  C3  UNL A   1      12.449  46.293  10.723  1.00  0.00    +0.000 C 
ATOM     96  H4  UNL A   1      12.774  45.275  10.783  1.00  0.00    +0.000 H 
BRANCH    5    6
ATOM     98  H6  UNL A   1      13.474  47.314   9.178  1.00  0.00    +0.000 H 
ATOM     99  H7  UNL A   1      14.502  46.568  10.446  1.00  0.00    +0.000 H 
ATOM      6  C4  UNL A   1      13.622  47.134  10.223  1.00  0.00    +0.000 C 
BRANCH    6    7
ATOM    100  H8  UNL A   1      14.788  48.850  10.656  1.00  0.00    +0.000 H 
ATOM    101  H9  UNL A   1      13.674  48.304  11.955  1.00  0.00    +0.000 H 
ATOM      7  C5  UNL A   1      13.813  48.489  10.911  1.00  0.00    +0.000 C 
BRANCH    7    8
ATOM    102  H10 UNL A   1      12.055  49.141   9.915  1.00  0.00    +0.000 H 
ATOM    103  H11 UNL A   1      13.361  50.358  10.074  1.00  0.00    +0.000 H 
ATOM      8  C6  UNL A   1      12.799  49.580  10.547  1.00  0.00    +0.000 C 
BRANCH    8    9
ATOM      9  C7  UNL A   1      12.087  50.234  11.730  1.00  0.00    +0.000 C 
ATOM    105  H13 UNL A   1      12.130  51.295  11.595  1.00  0.00    +0.000 H 
ATOM    104  H12 UNL A   1      11.075  49.888  11.758  1.00  0.00    +0.000 H 
BRANCH    9   10
ATOM     10  N2  UNL A   1      12.726  49.917  12.994  1.00  0.00    +0.000 N 
ATOM    106  H14 UNL A   1      12.812  48.959  13.207  1.00  0.00    +0.000 H 
BRANCH   10   11
ATOM     11  C8  UNL A   1      13.227  50.789  13.927  1.00  0.00    +0.000 C 
ATOM     12  O2  UNL A   1      14.004  50.393  14.793  1.00  0.00    +0.000 O 
BRANCH   11   13
ATOM    107  H15 UNL A   1      10.912  51.884  14.741  1.00  0.00    +0.000 H 
ATOM    108  H16 UNL A   1      10.293  54.245  14.703  1.00  0.00    +0.000 H 
ATOM     13  C9  UNL A   1      12.832  52.209  13.909  1.00  0.00    +0.000 C 
ATOM     14  C10 UNL A   1      11.572  52.592  14.385  1.00  0.00    +0.000 C 
ATOM     15  C11 UNL A   1      11.220  53.935  14.372  1.00  0.00    +0.000 C 
ATOM     16  C12 UNL A   1      12.151  54.841  13.904  1.00  0.00    +0.000 C 
ATOM     17  N3  UNL A   1      13.385  54.497  13.474  1.00  0.00    +0.000 N 
ATOM     18  C13 UNL A   1      13.747  53.188  13.501  1.00  0.00    +0.000 C 
ATOM    109  H17 UNL A   1      11.889  55.839  13.881  1.00  0.00    +0.000 H 
BRANCH   18   19
ATOM     19  N4  UNL A   1      15.021  52.814  12.989  1.00  0.00    +0.000 N 
ATOM    110  H18 UNL A   1      15.787  52.826  13.607  1.00  0.00    +0.000 H 
BRANCH   19   20
ATOM    111  H19 UNL A   1      13.664  53.580  10.887  1.00  0.00    +0.000 H 
ATOM    112  H20 UNL A   1      13.969  52.898   8.582  1.00  0.00    +0.000 H 
ATOM    113  H21 UNL A   1      15.686  51.286   8.008  1.00  0.00    +0.000 H 
ATOM    114  H22 UNL A   1      16.801  51.050  12.056  1.00  0.00    +0.000 H 
ATOM     20  C14 UNL A   1      15.257  52.427  11.647  1.00  0.00    +0.000 C 
ATOM     21  C15 UNL A   1      14.414  52.914  10.644  1.00  0.00    +0.000 C 
ATOM     22  C16 UNL A   1      14.577  52.508   9.318  1.00  0.00    +0.000 C 
ATOM     23  C17 UNL A   1      15.561  51.576   8.990  1.00  0.00    +0.000 C 
ATOM     24  C18 UNL A   1      16.381  51.030   9.988  1.00  0.00    +0.000 C 
ATOM     25  C19 UNL A   1      17.432  50.010   9.636  1.00  0.00    +0.000 C 
ATOM     26  F1  UNL A   1      16.924  48.963   8.925  1.00  0.00    +0.000 F 
ATOM     27  F2  UNL A   1      18.428  50.530   8.866  1.00  0.00    +0.000 F 
ATOM     28  F3  UNL A   1      18.048  49.455  10.717  1.00  0.00    +0.000 F 
ATOM     29  C20 UNL A   1      16.211  51.458  11.314  1.00  0.00    +0.000 C 
ENDBRANCH   19   20
ENDBRANCH   18   19
ENDBRANCH   11   13
ENDBRANCH   10   11
ENDBRANCH    9   10
ENDBRANCH    8    9
ENDBRANCH    7    8
ENDBRANCH    6    7
ENDBRANCH    5    6
ENDBRANCH    4    5
ENDBRANCH    3    4
ENDBRANCH    2    3
ENDBRANCH   30    2
ENDBRANCH   34   33
BRANCH   38   39
ATOM     39  C29 UNL A   1      16.944  48.575  -0.970  1.00  0.00    +0.000 C 
ATOM     40  C30 UNL A   1      16.185  48.312  -2.121  1.00  0.00    +0.000 C 
ATOM     41  F4  UNL A   1      15.109  49.060  -2.404  1.00  0.00    +0.000 F 
ATOM     42  C31 UNL A   1      16.516  47.260  -2.972  1.00  0.00    +0.000 C 
ATOM     43  F5  UNL A   1      15.757  47.008  -4.047  1.00  0.00    +0.000 F 
ATOM     44  C32 UNL A   1      17.623  46.470  -2.706  1.00  0.00    +0.000 C 
ATOM     45  F6  UNL A   1      17.947  45.466  -3.533  1.00  0.00    +0.000 F 
ATOM     46  C33 UNL A   1      18.395  46.719  -1.580  1.00  0.00    +0.000 C 
ATOM     47  F7  UNL A   1      19.472  45.963  -1.328  1.00  0.00    +0.000 F 
ATOM     48  C34 UNL A   1      18.053  47.754  -0.713  1.00  0.00    +0.000 C 
ATOM     49  F8  UNL A   1      18.816  47.967   0.369  1.00  0.00    +0.000 F 
ENDBRANCH   38   39
BRANCH   55   56
ATOM     65  C45 UNL A   1      19.435  56.027  -0.585  1.00  0.00    +0.000 C 
ATOM     66  F13 UNL A   1      20.143  55.408   0.372  1.00  0.00    +0.000 F 
ATOM     56  C40 UNL A   1      18.089  55.695  -0.793  1.00  0.00    +0.000 C 
ATOM     57  C41 UNL A   1      17.391  56.374  -1.804  1.00  0.00    +0.000 C 
ATOM     58  F9  UNL A   1      16.106  56.076  -2.052  1.00  0.00    +0.000 F 
ATOM     59  C42 UNL A   1      18.027  57.326  -2.596  1.00  0.00    +0.000 C 
ATOM     60  F10 UNL A   1      17.355  57.923  -3.589  1.00  0.00    +0.000 F 
ATOM     61  C43 UNL A   1      19.359  57.640  -2.372  1.00  0.00    +0.000 C 
ATOM     62  F11 UNL A   1      19.970  58.554  -3.138  1.00  0.00    +0.000 F 
ATOM     63  C44 UNL A   1      20.060  56.998  -1.362  1.00  0.00    +0.000 C 
ATOM     64  F12 UNL A   1      21.345  57.307  -1.139  1.00  0.00    +0.000 F 
ENDBRANCH   55   56
BRANCH   70   71
ATOM     71  C49 UNL A   1      14.672  56.045   5.257  1.00  0.00    +0.000 C 
ATOM     72  C50 UNL A   1      13.392  56.614   5.283  1.00  0.00    +0.000 C 
ATOM     73  F14 UNL A   1      12.448  56.178   4.435  1.00  0.00    +0.000 F 
ATOM     74  C51 UNL A   1      13.086  57.655   6.156  1.00  0.00    +0.000 C 
ATOM     75  F15 UNL A   1      11.866  58.210   6.133  1.00  0.00    +0.000 F 
ATOM     76  C52 UNL A   1      14.045  58.126   7.041  1.00  0.00    +0.000 C 
ATOM     77  F16 UNL A   1      13.747  59.121   7.887  1.00  0.00    +0.000 F 
ATOM     78  C53 UNL A   1      15.314  57.568   7.045  1.00  0.00    +0.000 C 
ATOM     79  F17 UNL A   1      16.238  58.007   7.910  1.00  0.00    +0.000 F 
ATOM     80  C54 UNL A   1      15.629  56.548   6.151  1.00  0.00    +0.000 C 
ATOM     81  F18 UNL A   1      16.867  56.031   6.170  1.00  0.00    +0.000 F 
ENDBRANCH   70   71
TORSDOF 17
ENDMDL
MODEL 2
REMARK VINA RESULT:     -10.1      1.807      2.920
ROOT
ATOM     34  C25 UNL A   1      14.715  50.060   4.596  1.00  0.00    +0.000 C 
ATOM     35  C26 UNL A   1      15.238  49.645   3.250  1.00  0.00    +0.000 C 
ATOM     36  N5  UNL A   1      15.679  50.396   2.271  1.00  0.00    +0.000 N 
ATOM     37  C27 UNL A   1      16.055  49.524   1.259  1.00  0.00    +0.000 C 
ATOM     38  C28 UNL A   1      16.541  49.817   0.028  1.00  0.00    +0.000 C 
ATOM     50  C35 UNL A   1      16.770  51.154  -0.461  1.00  0.00    +0.000 C 
ATOM     51  C36 UNL A   1      17.255  51.552  -1.695  1.00  0.00    +0.000 C 
ATOM     52  C37 UNL A   1      17.333  52.949  -1.707  1.00  0.00    +0.000 C 
ATOM     53  C38 UNL A   1      16.857  53.423  -0.496  1.00  0.00    +0.000 C 
ATOM     54  N6  UNL A   1      16.525  52.312   0.263  1.00  0.00    +0.000 N 
ATOM     55  C39 UNL A   1      16.712  54.789  -0.063  1.00  0.00    +0.000 C 
ATOM     67  C46 UNL A   1      16.232  55.178   1.144  1.00  0.00    +0.000 C 
ATOM     68  N7  UNL A   1      15.806  54.394   2.205  1.00  0.00    +0.000 N 
ATOM     69  C47 UNL A   1      15.478  55.230   3.160  1.00  0.00    +0.000 C 
ATOM     70  C48 UNL A   1      14.948  54.937   4.532  1.00  0.00    +0.000 C 
ATOM     82  C55 UNL A   1      14.767  53.656   4.904  1.00  0.00    +0.000 C 
ATOM     83  C56 UNL A   1      14.243  53.223   6.193  1.00  0.00    +0.000 C 
ATOM     84  C57 UNL A   1      14.221  51.883   6.225  1.00  0.00    +0.000 C 
ATOM     85  C58 UNL A   1      14.682  51.364   4.935  1.00  0.00    +0.000 C 
ATOM     86  N8  UNL A   1      15.014  52.488   4.225  1.00  0.00    +0.000 N 
ATOM     87  C59 UNL A   1      15.662  56.645   2.811  1.00  0.00    +0.000 C 
ATOM     88  C60 UNL A   1      16.087  56.558   1.559  1.00  0.00    +0.000 C 
ATOM     89  C61 UNL A   1      15.821  48.182   1.752  1.00  0.00    +0.000 C 
ATOM     90  C62 UNL A   1      15.279  48.203   2.963  1.00  0.00    +0.000 C 
ATOM    117  H25 UNL A   1      17.516  50.926  -2.472  1.00  0.00    +0.000 H 
ATOM    118  H26 UNL A   1      17.685  53.527  -2.486  1.00  0.00    +0.000 H 
ATOM    119  H27 UNL A   1      16.167  52.339   1.180  1.00  0.00    +0.000 H 
ATOM    120  H28 UNL A   1      13.938  53.846   6.957  1.00  0.00    +0.000 H 
ATOM    121  H29 UNL A   1      13.926  51.309   7.030  1.00  0.00    +0.000 H 
ATOM    122  H30 UNL A   1      15.393  52.461   3.317  1.00  0.00    +0.000 H 
ATOM    123  H31 UNL A   1      15.504  57.485   3.389  1.00  0.00    +0.000 H 
ATOM    124  H32 UNL A   1      16.290  57.370   0.955  1.00  0.00    +0.000 H 
ATOM    125  H33 UNL A   1      16.046  47.322   1.229  1.00  0.00    +0.000 H 
ATOM    126  H34 UNL A   1      14.968  47.414   3.550  1.00  0.00    +0.000 H 
ENDROOT
BRANCH   34   33
ATOM     33  C24 UNL A   1      14.170  49.068   5.557  1.00  0.00    +0.000 C 
ATOM    127  H35 UNL A   1      15.979  48.682   6.584  1.00  0.00    +0.000 H 
ATOM    115  H23 UNL A   1      11.206  47.803   6.511  1.00  0.00    +0.000 H 
ATOM    116  H24 UNL A   1      12.194  49.222   4.815  1.00  0.00    +0.000 H 
ATOM     91  C63 UNL A   1      14.976  48.450   6.525  1.00  0.00    +0.000 C 
ATOM     92  C64 UNL A   1      14.422  47.521   7.413  1.00  0.00    +0.000 C 
ATOM     32  C23 UNL A   1      12.793  48.787   5.535  1.00  0.00    +0.000 C 
ATOM     30  C21 UNL A   1      13.053  47.239   7.365  1.00  0.00    +0.000 C 
ATOM     31  C22 UNL A   1      12.230  47.930   6.473  1.00  0.00    +0.000 C 
ATOM    128  H36 UNL A   1      15.024  47.042   8.101  1.00  0.00    +0.000 H 
BRANCH   30    2
ATOM      1  O1  UNL A   1      11.575  45.492   7.885  1.00  0.00    +0.000 O 
ATOM      2  C1  UNL A   1      12.494  46.209   8.270  1.00  0.00    +0.000 C 
BRANCH    2    3
ATOM      3  N1  UNL A   1      12.985  46.080   9.548  1.00  0.00    +0.000 N 
ATOM     93  H1  UNL A   1      13.961  45.968   9.618  1.00  0.00    +0.000 H 
BRANCH    3    4
ATOM      4  C2  UNL A   1      12.265  46.087  10.809  1.00  0.00    +0.000 C 
ATOM     94  H2  UNL A   1      12.339  45.114  11.250  1.00  0.00    +0.000 H 
ATOM     95  H3  UNL A   1      11.250  46.353  10.597  1.00  0.00    +0.000 H 
BRANCH    4    5
ATOM     97  H5  UNL A   1      11.990  47.356  12.445  1.00  0.00    +0.000 H 
ATOM      5  C3  UNL A   1      12.806  47.109  11.799  1.00  0.00    +0.000 C 
ATOM     96  H4  UNL A   1      13.639  46.669  12.307  1.00  0.00    +0.000 H 
BRANCH    5    6
ATOM     98  H6  UNL A   1      13.646  48.221  10.205  1.00  0.00    +0.000 H 
ATOM     99  H7  UNL A   1      14.008  48.819  11.859  1.00  0.00    +0.000 H 
ATOM      6  C4  UNL A   1      13.272  48.429  11.186  1.00  0.00    +0.000 C 
BRANCH    6    7
ATOM    100  H8  UNL A   1      12.609  50.422  11.473  1.00  0.00    +0.000 H 
ATOM    101  H9  UNL A   1      11.348  49.147  11.581  1.00  0.00    +0.000 H 
ATOM      7  C5  UNL A   1      12.205  49.521  11.061  1.00  0.00    +0.000 C 
BRANCH    7    8
ATOM    102  H10 UNL A   1      10.670  50.030   9.685  1.00  0.00    +0.000 H 
ATOM    103  H11 UNL A   1      11.971  48.974   9.050  1.00  0.00    +0.000 H 
ATOM      8  C6  UNL A   1      11.720  49.831   9.639  1.00  0.00    +0.000 C 
BRANCH    8    9
ATOM      9  C7  UNL A   1      12.397  51.021   8.961  1.00  0.00    +0.000 C 
ATOM    105  H13 UNL A   1      13.165  50.642   8.320  1.00  0.00    +0.000 H 
ATOM    104  H12 UNL A   1      11.662  51.566   8.406  1.00  0.00    +0.000 H 
BRANCH    9   10
ATOM     10  N2  UNL A   1      13.016  51.916   9.922  1.00  0.00    +0.000 N 
ATOM    106  H14 UNL A   1      12.437  52.235  10.652  1.00  0.00    +0.000 H 
BRANCH   10   11
ATOM     11  C8  UNL A   1      14.311  52.371   9.938  1.00  0.00    +0.000 C 
ATOM     12  O2  UNL A   1      14.562  53.541   9.659  1.00  0.00    +0.000 O 
BRANCH   11   13
ATOM    107  H15 UNL A   1      15.451  50.486   8.398  1.00  0.00    +0.000 H 
ATOM    108  H16 UNL A   1      17.290  48.996   8.995  1.00  0.00    +0.000 H 
ATOM     13  C9  UNL A   1      15.417  51.458  10.279  1.00  0.00    +0.000 C 
ATOM     14  C10 UNL A   1      15.884  50.537   9.333  1.00  0.00    +0.000 C 
ATOM     15  C11 UNL A   1      16.934  49.694   9.666  1.00  0.00    +0.000 C 
ATOM     16  C12 UNL A   1      17.489  49.821  10.925  1.00  0.00    +0.000 C 
ATOM     17  N3  UNL A   1      17.078  50.726  11.839  1.00  0.00    +0.000 N 
ATOM     18  C13 UNL A   1      16.064  51.570  11.517  1.00  0.00    +0.000 C 
ATOM    109  H17 UNL A   1      18.262  49.187  11.181  1.00  0.00    +0.000 H 
BRANCH   18   19
ATOM     19  N4  UNL A   1      15.585  52.481  12.499  1.00  0.00    +0.000 N 
ATOM    110  H18 UNL A   1      16.173  53.224  12.764  1.00  0.00    +0.000 H 
BRANCH   19   20
ATOM    111  H19 UNL A   1      13.960  54.462  13.032  1.00  0.00    +0.000 H 
ATOM    112  H20 UNL A   1      11.818  54.375  14.161  1.00  0.00    +0.000 H 
ATOM    113  H21 UNL A   1      10.963  52.262  14.985  1.00  0.00    +0.000 H 
ATOM    114  H22 UNL A   1      14.397  50.318  13.531  1.00  0.00    +0.000 H 
ATOM     20  C14 UNL A   1      14.317  52.385  13.123  1.00  0.00    +0.000 C 
ATOM     21  C15 UNL A   1      13.588  53.555  13.356  1.00  0.00    +0.000 C 
ATOM     22  C16 UNL A   1      12.362  53.509  14.023  1.00  0.00    +0.000 C 
ATOM     23  C17 UNL A   1      11.874  52.294  14.502  1.00  0.00    +0.000 C 
ATOM     24  C18 UNL A   1      12.614  51.116  14.331  1.00  0.00    +0.000 C 
ATOM     25  C19 UNL A   1      12.095  49.806  14.864  1.00  0.00    +0.000 C 
ATOM     26  F1  UNL A   1      11.762  49.876  16.184  1.00  0.00    +0.000 F 
ATOM     27  F2  UNL A   1      10.968  49.390  14.220  1.00  0.00    +0.000 F 
ATOM     28  F3  UNL A   1      12.982  48.777  14.762  1.00  0.00    +0.000 F 
ATOM     29  C20 UNL A   1      13.839  51.178  13.648  1.00  0.00    +0.000 C 
ENDBRANCH   19   20
ENDBRANCH   18   19
ENDBRANCH   11   13
ENDBRANCH   10   11
ENDBRANCH    9   10
ENDBRANCH    8    9
ENDBRANCH    7    8
ENDBRANCH    6    7
ENDBRANCH    5    6
ENDBRANCH    4    5
ENDBRANCH    3    4
ENDBRANCH    2    3
ENDBRANCH   30    2
ENDBRANCH   34   33
BRANCH   38   39
ATOM     39  C29 UNL A   1      16.864  48.670  -0.886  1.00  0.00    +0.000 C 
ATOM     40  C30 UNL A   1      15.932  48.195  -1.820  1.00  0.00    +0.000 C 
ATOM     41  F4  UNL A   1      14.697  48.716  -1.865  1.00  0.00    +0.000 F 
ATOM     42  C31 UNL A   1      16.257  47.162  -2.696  1.00  0.00    +0.000 C 
ATOM     43  F5  UNL A   1      15.339  46.703  -3.557  1.00  0.00    +0.000 F 
ATOM     44  C32 UNL A   1      17.526  46.604  -2.674  1.00  0.00    +0.000 C 
ATOM     45  F6  UNL A   1      17.842  45.618  -3.526  1.00  0.00    +0.000 F 
ATOM     46  C33 UNL A   1      18.468  47.066  -1.766  1.00  0.00    +0.000 C 
ATOM     47  F7  UNL A   1      19.698  46.534  -1.751  1.00  0.00    +0.000 F 
ATOM     48  C34 UNL A   1      18.138  48.081  -0.872  1.00  0.00    +0.000 C 
ATOM     49  F8  UNL A   1      19.069  48.504  -0.004  1.00  0.00    +0.000 F 
ENDBRANCH   38   39
BRANCH   55   56
ATOM     65  C45 UNL A   1      18.420  56.367  -1.038  1.00  0.00    +0.000 C 
ATOM     66  F13 UNL A   1      19.342  55.863  -0.205  1.00  0.00    +0.000 F 
ATOM     56  C40 UNL A   1      17.105  55.878  -1.016  1.00  0.00    +0.000 C 
ATOM     57  C41 UNL A   1      16.177  56.442  -1.905  1.00  0.00    +0.000 C 
ATOM     58  F9  UNL A   1      14.913  55.993  -1.933  1.00  0.00    +0.000 F 
ATOM     59  C42 UNL A   1      16.560  57.435  -2.803  1.00  0.00    +0.000 C 
ATOM     60  F10 UNL A   1      15.670  57.921  -3.678  1.00  0.00    +0.000 F 
ATOM     61  C43 UNL A   1      17.865  57.904  -2.806  1.00  0.00    +0.000 C 
ATOM     62  F11 UNL A   1      18.231  58.857  -3.674  1.00  0.00    +0.000 F 
ATOM     63  C44 UNL A   1      18.791  57.378  -1.919  1.00  0.00    +0.000 C 
ATOM     64  F12 UNL A   1      20.051  57.836  -1.917  1.00  0.00    +0.000 F 
ENDBRANCH   55   56
BRANCH   70   71
ATOM     71  C49 UNL A   1      14.623  56.030   5.482  1.00  0.00    +0.000 C 
ATOM     72  C50 UNL A   1      13.307  56.480   5.648  1.00  0.00    +0.000 C 
ATOM     73  F14 UNL A   1      12.318  55.942   4.919  1.00  0.00    +0.000 F 
ATOM     74  C51 UNL A   1      13.006  57.507   6.540  1.00  0.00    +0.000 C 
ATOM     75  F15 UNL A   1      11.744  57.948   6.651  1.00  0.00    +0.000 F 
ATOM     76  C52 UNL A   1      14.010  58.083   7.303  1.00  0.00    +0.000 C 
ATOM     77  F16 UNL A   1      13.718  59.065   8.167  1.00  0.00    +0.000 F 
ATOM     78  C53 UNL A   1      15.318  57.643   7.168  1.00  0.00    +0.000 C 
ATOM     79  F17 UNL A   1      16.289  58.184   7.916  1.00  0.00    +0.000 F 
ATOM     80  C54 UNL A   1      15.624  56.638   6.255  1.00  0.00    +0.000 C 
ATOM     81  F18 UNL A   1      16.898  56.237   6.137  1.00  0.00    +0.000 F 
ENDBRANCH   70   71
TORSDOF 17
ENDMDL
MODEL 3
REMARK VINA RESULT:     -10.1     47.896     52.679
ROOT
ATOM     34  C25 UNL A   1      52.549  20.334  11.429  1.00  0.00    +0.000 C 
ATOM     35  C26 UNL A   1      53.852  19.649  11.127  1.00  0.00    +0.000 C 
ATOM     36  N5  UNL A   1      54.904  19.506  11.896  1.00  0.00    +0.000 N 
ATOM     37  C27 UNL A   1      55.829  18.788  11.149  1.00  0.00    +0.000 C 
ATOM     38  C28 UNL A   1      57.087  18.418  11.492  1.00  0.00    +0.000 C 
ATOM     50  C35 UNL A   1      57.706  18.715  12.759  1.00  0.00    +0.000 C 
ATOM     51  C36 UNL A   1      58.979  18.385  13.198  1.00  0.00    +0.000 C 
ATOM     52  C37 UNL A   1      59.129  18.859  14.506  1.00  0.00    +0.000 C 
ATOM     53  C38 UNL A   1      57.966  19.519  14.868  1.00  0.00    +0.000 C 
ATOM     54  N6  UNL A   1      57.099  19.414  13.792  1.00  0.00    +0.000 N 
ATOM     55  C39 UNL A   1      57.668  20.199  16.102  1.00  0.00    +0.000 C 
ATOM     67  C46 UNL A   1      56.502  20.830  16.383  1.00  0.00    +0.000 C 
ATOM     68  N7  UNL A   1      55.366  20.949  15.599  1.00  0.00    +0.000 N 
ATOM     69  C47 UNL A   1      54.495  21.606  16.325  1.00  0.00    +0.000 C 
ATOM     70  C48 UNL A   1      53.096  22.021  15.978  1.00  0.00    +0.000 C 
ATOM     82  C55 UNL A   1      52.598  21.699  14.771  1.00  0.00    +0.000 C 
ATOM     83  C56 UNL A   1      51.268  22.052  14.290  1.00  0.00    +0.000 C 
ATOM     84  C57 UNL A   1      51.104  21.550  13.058  1.00  0.00    +0.000 C 
ATOM     85  C58 UNL A   1      52.340  20.883  12.642  1.00  0.00    +0.000 C 
ATOM     86  N8  UNL A   1      53.161  20.995  13.734  1.00  0.00    +0.000 N 
ATOM     87  C59 UNL A   1      54.983  21.978  17.659  1.00  0.00    +0.000 C 
ATOM     88  C60 UNL A   1      56.224  21.514  17.628  1.00  0.00    +0.000 C 
ATOM     89  C61 UNL A   1      55.204  18.495   9.876  1.00  0.00    +0.000 C 
ATOM     90  C62 UNL A   1      53.996  19.039   9.797  1.00  0.00    +0.000 C 
ATOM    117  H25 UNL A   1      59.692  17.877  12.653  1.00  0.00    +0.000 H 
ATOM    118  H26 UNL A   1      59.963  18.736  15.100  1.00  0.00    +0.000 H 
ATOM    119  H27 UNL A   1      56.186  19.782  13.763  1.00  0.00    +0.000 H 
ATOM    120  H28 UNL A   1      50.566  22.599  14.813  1.00  0.00    +0.000 H 
ATOM    121  H29 UNL A   1      50.243  21.622  12.493  1.00  0.00    +0.000 H 
ATOM    122  H30 UNL A   1      54.065  20.607  13.772  1.00  0.00    +0.000 H 
ATOM    123  H31 UNL A   1      54.489  22.470  18.420  1.00  0.00    +0.000 H 
ATOM    124  H32 UNL A   1      56.906  21.627  18.395  1.00  0.00    +0.000 H 
ATOM    125  H33 UNL A   1      55.641  17.936   9.127  1.00  0.00    +0.000 H 
ATOM    126  H34 UNL A   1      53.332  19.035   9.008  1.00  0.00    +0.000 H 
ENDROOT
BRANCH   34   33
ATOM     33  C24 UNL A   1      51.490  20.477  10.398  1.00  0.00    +0.000 C 
ATOM    127  H35 UNL A   1      50.437  18.702  10.861  1.00  0.00    +0.000 H 
ATOM    115  H23 UNL A   1      50.402  22.733   8.158  1.00  0.00    +0.000 H 
ATOM    116  H24 UNL A   1      52.237  22.324   9.684  1.00  0.00    +0.000 H 
ATOM     91  C63 UNL A   1      50.468  19.529  10.245  1.00  0.00    +0.000 C 
ATOM     92  C64 UNL A   1      49.488  19.702   9.261  1.00  0.00    +0.000 C 
ATOM     32  C23 UNL A   1      51.478  21.629   9.593  1.00  0.00    +0.000 C 
ATOM     30  C21 UNL A   1      49.502  20.847   8.456  1.00  0.00    +0.000 C 
ATOM     31  C22 UNL A   1      50.456  21.842   8.676  1.00  0.00    +0.000 C 
ATOM    128  H36 UNL A   1      48.758  18.986   9.128  1.00  0.00    +0.000 H 
BRANCH   30    2
ATOM      1  O1  UNL A   1      48.037  22.093   7.113  1.00  0.00    +0.000 O 
ATOM      2  C1  UNL A   1      48.495  20.985   7.380  1.00  0.00    +0.000 C 
BRANCH    2    3
ATOM      3  N1  UNL A   1      48.053  19.872   6.706  1.00  0.00    +0.000 N 
ATOM     93  H1  UNL A   1      47.200  19.496   7.022  1.00  0.00    +0.000 H 
BRANCH    3    4
ATOM      4  C2  UNL A   1      48.670  19.173   5.592  1.00  0.00    +0.000 C 
ATOM     94  H2  UNL A   1      48.034  19.266   4.736  1.00  0.00    +0.000 H 
ATOM     95  H3  UNL A   1      48.798  18.151   5.886  1.00  0.00    +0.000 H 
BRANCH    4    5
ATOM     97  H5  UNL A   1      50.021  19.920   4.185  1.00  0.00    +0.000 H 
ATOM      5  C3  UNL A   1      50.046  19.718   5.235  1.00  0.00    +0.000 C 
ATOM     96  H4  UNL A   1      50.224  20.586   5.835  1.00  0.00    +0.000 H 
BRANCH    5    6
ATOM     98  H6  UNL A   1      51.847  18.808   4.593  1.00  0.00    +0.000 H 
ATOM     99  H7  UNL A   1      50.763  17.788   5.597  1.00  0.00    +0.000 H 
ATOM      6  C4  UNL A   1      51.208  18.750   5.450  1.00  0.00    +0.000 C 
BRANCH    6    7
ATOM    100  H8  UNL A   1      52.241  18.060   7.169  1.00  0.00    +0.000 H 
ATOM    101  H9  UNL A   1      51.514  19.699   7.289  1.00  0.00    +0.000 H 
ATOM      7  C5  UNL A   1      52.067  19.003   6.693  1.00  0.00    +0.000 C 
BRANCH    7    8
ATOM    102  H10 UNL A   1      54.135  19.221   7.119  1.00  0.00    +0.000 H 
ATOM    103  H11 UNL A   1      53.282  20.711   6.608  1.00  0.00    +0.000 H 
ATOM      8  C6  UNL A   1      53.429  19.664   6.449  1.00  0.00    +0.000 C 
BRANCH    8    9
ATOM      9  C7  UNL A   1      53.979  19.528   5.029  1.00  0.00    +0.000 C 
ATOM    105  H13 UNL A   1      53.979  18.488   4.774  1.00  0.00    +0.000 H 
ATOM    104  H12 UNL A   1      53.358  20.090   4.363  1.00  0.00    +0.000 H 
BRANCH    9   10
ATOM     10  N2  UNL A   1      55.342  20.015   4.923  1.00  0.00    +0.000 N 
ATOM    106  H14 UNL A   1      55.457  20.883   4.472  1.00  0.00    +0.000 H 
BRANCH   10   11
ATOM     11  C8  UNL A   1      56.490  19.414   5.375  1.00  0.00    +0.000 C 
ATOM     12  O2  UNL A   1      56.958  19.714   6.471  1.00  0.00    +0.000 O 
BRANCH   11   13
ATOM    107  H15 UNL A   1      57.923  19.805   3.135  1.00  0.00    +0.000 H 
ATOM    108  H16 UNL A   1      59.064  18.117   1.790  1.00  0.00    +0.000 H 
ATOM     13  C9  UNL A   1      57.181  18.411   4.546  1.00  0.00    +0.000 C 
ATOM     14  C10 UNL A   1      57.890  18.810   3.406  1.00  0.00    +0.000 C 
ATOM     15  C11 UNL A   1      58.546  17.854   2.643  1.00  0.00    +0.000 C 
ATOM     16  C12 UNL A   1      58.484  16.540   3.064  1.00  0.00    +0.000 C 
ATOM     17  N3  UNL A   1      57.838  16.138   4.180  1.00  0.00    +0.000 N 
ATOM     18  C13 UNL A   1      57.209  17.068   4.945  1.00  0.00    +0.000 C 
ATOM    109  H17 UNL A   1      58.960  15.824   2.494  1.00  0.00    +0.000 H 
BRANCH   18   19
ATOM     19  N4  UNL A   1      56.472  16.641   6.084  1.00  0.00    +0.000 N 
ATOM    110  H18 UNL A   1      56.921  16.667   6.960  1.00  0.00    +0.000 H 
BRANCH   19   20
ATOM    111  H19 UNL A   1      55.096  16.064   3.935  1.00  0.00    +0.000 H 
ATOM    112  H20 UNL A   1      52.787  15.343   3.788  1.00  0.00    +0.000 H 
ATOM    113  H21 UNL A   1      51.454  15.118   5.800  1.00  0.00    +0.000 H 
ATOM    114  H22 UNL A   1      54.755  16.323   8.109  1.00  0.00    +0.000 H 
ATOM     20  C14 UNL A   1      55.134  16.179   6.040  1.00  0.00    +0.000 C 
ATOM     21  C15 UNL A   1      54.541  15.942   4.797  1.00  0.00    +0.000 C 
ATOM     22  C16 UNL A   1      53.205  15.545   4.709  1.00  0.00    +0.000 C 
ATOM     23  C17 UNL A   1      52.437  15.422   5.867  1.00  0.00    +0.000 C 
ATOM     24  C18 UNL A   1      52.994  15.709   7.121  1.00  0.00    +0.000 C 
ATOM     25  C19 UNL A   1      52.159  15.592   8.370  1.00  0.00    +0.000 C 
ATOM     26  F1  UNL A   1      50.994  16.294   8.285  1.00  0.00    +0.000 F 
ATOM     27  F2  UNL A   1      51.797  14.306   8.637  1.00  0.00    +0.000 F 
ATOM     28  F3  UNL A   1      52.781  16.045   9.495  1.00  0.00    +0.000 F 
ATOM     29  C20 UNL A   1      54.341  16.095   7.191  1.00  0.00    +0.000 C 
ENDBRANCH   19   20
ENDBRANCH   18   19
ENDBRANCH   11   13
ENDBRANCH   10   11
ENDBRANCH    9   10
ENDBRANCH    8    9
ENDBRANCH    7    8
ENDBRANCH    6    7
ENDBRANCH    5    6
ENDBRANCH    4    5
ENDBRANCH    3    4
ENDBRANCH    2    3
ENDBRANCH   30    2
ENDBRANCH   34   33
BRANCH   38   39
ATOM     39  C29 UNL A   1      57.886  17.645  10.483  1.00  0.00    +0.000 C 
ATOM     40  C30 UNL A   1      58.615  18.294   9.476  1.00  0.00    +0.000 C 
ATOM     41  F4  UNL A   1      58.554  19.628   9.352  1.00  0.00    +0.000 F 
ATOM     42  C31 UNL A   1      59.392  17.571   8.573  1.00  0.00    +0.000 C 
ATOM     43  F5  UNL A   1      60.054  18.210   7.600  1.00  0.00    +0.000 F 
ATOM     44  C32 UNL A   1      59.476  16.190   8.676  1.00  0.00    +0.000 C 
ATOM     45  F6  UNL A   1      60.233  15.497   7.815  1.00  0.00    +0.000 F 
ATOM     46  C33 UNL A   1      58.772  15.528   9.672  1.00  0.00    +0.000 C 
ATOM     47  F7  UNL A   1      58.860  14.195   9.779  1.00  0.00    +0.000 F 
ATOM     48  C34 UNL A   1      57.974  16.246  10.560  1.00  0.00    +0.000 C 
ATOM     49  F8  UNL A   1      57.303  15.577  11.509  1.00  0.00    +0.000 F 
ENDBRANCH   38   39
BRANCH   55   56
ATOM     65  C45 UNL A   1      59.553  21.358  17.312  1.00  0.00    +0.000 C 
ATOM     66  F13 UNL A   1      59.401  22.418  16.505  1.00  0.00    +0.000 F 
ATOM     56  C40 UNL A   1      58.728  20.233  17.163  1.00  0.00    +0.000 C 
ATOM     57  C41 UNL A   1      58.930  19.148  18.029  1.00  0.00    +0.000 C 
ATOM     58  F9  UNL A   1      58.152  18.058  17.936  1.00  0.00    +0.000 F 
ATOM     59  C42 UNL A   1      59.899  19.200  19.026  1.00  0.00    +0.000 C 
ATOM     60  F10 UNL A   1      60.038  18.173  19.876  1.00  0.00    +0.000 F 
ATOM     61  C43 UNL A   1      60.705  20.321  19.155  1.00  0.00    +0.000 C 
ATOM     62  F11 UNL A   1      61.635  20.371  20.119  1.00  0.00    +0.000 F 
ATOM     63  C44 UNL A   1      60.538  21.395  18.294  1.00  0.00    +0.000 C 
ATOM     64  F12 UNL A   1      61.321  22.476  18.413  1.00  0.00    +0.000 F 
ENDBRANCH   55   56
BRANCH   70   71
ATOM     71  C49 UNL A   1      52.255  22.777  16.941  1.00  0.00    +0.000 C 
ATOM     72  C50 UNL A   1      51.511  22.117  17.927  1.00  0.00    +0.000 C 
ATOM     73  F14 UNL A   1      51.525  20.778  17.994  1.00  0.00    +0.000 F 
ATOM     74  C51 UNL A   1      50.723  22.830  18.828  1.00  0.00    +0.000 C 
ATOM     75  F15 UNL A   1      49.987  22.174  19.737  1.00  0.00    +0.000 F 
ATOM     76  C52 UNL A   1      50.687  24.216  18.779  1.00  0.00    +0.000 C 
ATOM     77  F16 UNL A   1      49.936  24.900  19.652  1.00  0.00    +0.000 F 
ATOM     78  C53 UNL A   1      51.429  24.891  17.822  1.00  0.00    +0.000 C 
ATOM     79  F17 UNL A   1      51.412  26.230  17.781  1.00  0.00    +0.000 F 
ATOM     80  C54 UNL A   1      52.192  24.178  16.901  1.00  0.00    +0.000 C 
ATOM     81  F18 UNL A   1      52.893  24.855  15.980  1.00  0.00    +0.000 F 
ENDBRANCH   70   71
TORSDOF 17
ENDMDL
MODEL 4
REMARK VINA RESULT:     -10.0     46.483     51.374
ROOT
ATOM     34  C25 UNL A   1      53.629  19.661  11.837  1.00  0.00    +0.000 C 
ATOM     35  C26 UNL A   1      55.007  19.083  11.683  1.00  0.00    +0.000 C 
ATOM     36  N5  UNL A   1      56.012  19.117  12.524  1.00  0.00    +0.000 N 
ATOM     37  C27 UNL A   1      57.049  18.428  11.909  1.00  0.00    +0.000 C 
ATOM     38  C28 UNL A   1      58.309  18.217  12.363  1.00  0.00    +0.000 C 
ATOM     50  C35 UNL A   1      58.808  18.690  13.630  1.00  0.00    +0.000 C 
ATOM     51  C36 UNL A   1      60.072  18.530  14.175  1.00  0.00    +0.000 C 
ATOM     52  C37 UNL A   1      60.086  19.134  15.437  1.00  0.00    +0.000 C 
ATOM     53  C38 UNL A   1      58.844  19.707  15.661  1.00  0.00    +0.000 C 
ATOM     54  N6  UNL A   1      58.068  19.418  14.549  1.00  0.00    +0.000 N 
ATOM     55  C39 UNL A   1      58.399  20.464  16.801  1.00  0.00    +0.000 C 
ATOM     67  C46 UNL A   1      57.163  21.000  16.948  1.00  0.00    +0.000 C 
ATOM     68  N7  UNL A   1      56.077  20.933  16.088  1.00  0.00    +0.000 N 
ATOM     69  C47 UNL A   1      55.101  21.564  16.693  1.00  0.00    +0.000 C 
ATOM     70  C48 UNL A   1      53.697  21.805  16.222  1.00  0.00    +0.000 C 
ATOM     82  C55 UNL A   1      53.317  21.326  15.024  1.00  0.00    +0.000 C 
ATOM     83  C56 UNL A   1      51.996  21.499  14.432  1.00  0.00    +0.000 C 
ATOM     84  C57 UNL A   1      51.966  20.872  13.247  1.00  0.00    +0.000 C 
ATOM     85  C58 UNL A   1      53.285  20.296  12.974  1.00  0.00    +0.000 C 
ATOM     86  N8  UNL A   1      54.014  20.588  14.098  1.00  0.00    +0.000 N 
ATOM     87  C59 UNL A   1      55.458  22.104  18.011  1.00  0.00    +0.000 C 
ATOM     88  C60 UNL A   1      56.736  21.765  18.101  1.00  0.00    +0.000 C 
ATOM     89  C61 UNL A   1      56.544  17.959  10.636  1.00  0.00    +0.000 C 
ATOM     90  C62 UNL A   1      55.300  18.371  10.430  1.00  0.00    +0.000 C 
ATOM    117  H25 UNL A   1      60.866  18.047  13.727  1.00  0.00    +0.000 H 
ATOM    118  H26 UNL A   1      60.884  19.150  16.089  1.00  0.00    +0.000 H 
ATOM    119  H27 UNL A   1      57.129  19.689  14.429  1.00  0.00    +0.000 H 
ATOM    120  H28 UNL A   1      51.212  22.020  14.855  1.00  0.00    +0.000 H 
ATOM    121  H29 UNL A   1      51.145  20.806  12.626  1.00  0.00    +0.000 H 
ATOM    122  H30 UNL A   1      54.945  20.297  14.229  1.00  0.00    +0.000 H 
ATOM    123  H31 UNL A   1      54.869  22.613  18.689  1.00  0.00    +0.000 H 
ATOM    124  H32 UNL A   1      57.349  22.014  18.893  1.00  0.00    +0.000 H 
ATOM    125  H33 UNL A   1      57.083  17.379   9.973  1.00  0.00    +0.000 H 
ATOM    126  H34 UNL A   1      54.695  18.229   9.606  1.00  0.00    +0.000 H 
ENDROOT
BRANCH   34   33
ATOM     33  C24 UNL A   1      52.635  19.603  10.734  1.00  0.00    +0.000 C 
ATOM    127  H35 UNL A   1      53.191  21.412   9.790  1.00  0.00    +0.000 H 
ATOM    115  H23 UNL A   1      50.371  17.476   9.452  1.00  0.00    +0.000 H 
ATOM    116  H24 UNL A   1      51.837  17.746  11.360  1.00  0.00    +0.000 H 
ATOM     91  C63 UNL A   1      52.551  20.605   9.756  1.00  0.00    +0.000 C 
ATOM     92  C64 UNL A   1      51.600  20.511   8.733  1.00  0.00    +0.000 C 
ATOM     32  C23 UNL A   1      51.796  18.479  10.635  1.00  0.00    +0.000 C 
ATOM     30  C21 UNL A   1      50.761  19.394   8.659  1.00  0.00    +0.000 C 
ATOM     31  C22 UNL A   1      50.913  18.347   9.570  1.00  0.00    +0.000 C 
ATOM    128  H36 UNL A   1      51.517  21.266   8.035  1.00  0.00    +0.000 H 
BRANCH   30    2
ATOM      1  O1  UNL A   1      48.987  20.307   7.425  1.00  0.00    +0.000 O 
ATOM      2  C1  UNL A   1      49.721  19.340   7.607  1.00  0.00    +0.000 C 
BRANCH    2    3
ATOM      3  N1  UNL A   1      49.560  18.197   6.860  1.00  0.00    +0.000 N 
ATOM     93  H1  UNL A   1      48.828  17.604   7.145  1.00  0.00    +0.000 H 
BRANCH    3    4
ATOM      4  C2  UNL A   1      50.320  17.743   5.709  1.00  0.00    +0.000 C 
ATOM     94  H2  UNL A   1      51.267  18.243   5.706  1.00  0.00    +0.000 H 
ATOM     95  H3  UNL A   1      49.745  17.971   4.835  1.00  0.00    +0.000 H 
BRANCH    4    5
ATOM     97  H5  UNL A   1      51.628  16.114   5.713  1.00  0.00    +0.000 H 
ATOM      5  C3  UNL A   1      50.566  16.241   5.712  1.00  0.00    +0.000 C 
ATOM     96  H4  UNL A   1      50.084  15.828   6.574  1.00  0.00    +0.000 H 
BRANCH    5    6
ATOM     98  H6  UNL A   1      50.827  14.827   4.158  1.00  0.00    +0.000 H 
ATOM     99  H7  UNL A   1      49.800  16.247   3.767  1.00  0.00    +0.000 H 
ATOM      6  C4  UNL A   1      50.054  15.492   4.482  1.00  0.00    +0.000 C 
BRANCH    6    7
ATOM    100  H8  UNL A   1      49.035  13.809   5.270  1.00  0.00    +0.000 H 
ATOM    101  H9  UNL A   1      48.425  14.438   3.702  1.00  0.00    +0.000 H 
ATOM      7  C5  UNL A   1      48.779  14.668   4.685  1.00  0.00    +0.000 C 
BRANCH    7    8
ATOM    102  H10 UNL A   1      47.707  16.430   5.186  1.00  0.00    +0.000 H 
ATOM    103  H11 UNL A   1      47.700  15.133   6.422  1.00  0.00    +0.000 H 
ATOM      8  C6  UNL A   1      47.617  15.383   5.385  1.00  0.00    +0.000 C 
BRANCH    8    9
ATOM      9  C7  UNL A   1      46.220  14.939   4.956  1.00  0.00    +0.000 C 
ATOM    105  H13 UNL A   1      46.328  14.103   4.296  1.00  0.00    +0.000 H 
ATOM    104  H12 UNL A   1      45.658  14.676   5.827  1.00  0.00    +0.000 H 
BRANCH    9   10
ATOM     10  N2  UNL A   1      45.512  15.985   4.240  1.00  0.00    +0.000 N 
ATOM    106  H14 UNL A   1      44.533  16.001   4.354  1.00  0.00    +0.000 H 
BRANCH   10   11
ATOM     11  C8  UNL A   1      46.038  16.954   3.425  1.00  0.00    +0.000 C 
ATOM     12  O2  UNL A   1      46.643  16.644   2.400  1.00  0.00    +0.000 O 
BRANCH   11   13
ATOM    107  H15 UNL A   1      47.731  18.507   4.820  1.00  0.00    +0.000 H 
ATOM    108  H16 UNL A   1      47.463  20.870   5.372  1.00  0.00    +0.000 H 
ATOM     13  C9  UNL A   1      45.894  18.379   3.773  1.00  0.00    +0.000 C 
ATOM     14  C10 UNL A   1      46.894  19.026   4.510  1.00  0.00    +0.000 C 
ATOM     15  C11 UNL A   1      46.750  20.371   4.819  1.00  0.00    +0.000 C 
ATOM     16  C12 UNL A   1      45.620  21.020   4.359  1.00  0.00    +0.000 C 
ATOM     17  N3  UNL A   1      44.662  20.425   3.616  1.00  0.00    +0.000 N 
ATOM     18  C13 UNL A   1      44.803  19.114   3.291  1.00  0.00    +0.000 C 
ATOM    109  H17 UNL A   1      45.502  22.017   4.597  1.00  0.00    +0.000 H 
BRANCH   18   19
ATOM     19  N4  UNL A   1      43.765  18.467   2.565  1.00  0.00    +0.000 N 
ATOM    110  H18 UNL A   1      44.007  17.696   2.003  1.00  0.00    +0.000 H 
BRANCH   19   20
ATOM    111  H19 UNL A   1      41.944  17.638   4.251  1.00  0.00    +0.000 H 
ATOM    112  H20 UNL A   1      39.591  18.215   4.313  1.00  0.00    +0.000 H 
ATOM    113  H21 UNL A   1      38.662  19.710   2.646  1.00  0.00    +0.000 H 
ATOM    114  H22 UNL A   1      42.455  20.060   0.862  1.00  0.00    +0.000 H 
ATOM     20  C14 UNL A   1      42.405  18.862   2.597  1.00  0.00    +0.000 C 
ATOM     21  C15 UNL A   1      41.559  18.297   3.556  1.00  0.00    +0.000 C 
ATOM     22  C16 UNL A   1      40.200  18.614   3.581  1.00  0.00    +0.000 C 
ATOM     23  C17 UNL A   1      39.665  19.469   2.618  1.00  0.00    +0.000 C 
ATOM     24  C18 UNL A   1      40.482  20.003   1.612  1.00  0.00    +0.000 C 
ATOM     25  C19 UNL A   1      39.901  20.913   0.561  1.00  0.00    +0.000 C 
ATOM     26  F1  UNL A   1      38.817  20.366  -0.058  1.00  0.00    +0.000 F 
ATOM     27  F2  UNL A   1      39.472  22.099   1.077  1.00  0.00    +0.000 F 
ATOM     28  F3  UNL A   1      40.772  21.234  -0.436  1.00  0.00    +0.000 F 
ATOM     29  C20 UNL A   1      41.849  19.683   1.608  1.00  0.00    +0.000 C 
ENDBRANCH   19   20
ENDBRANCH   18   19
ENDBRANCH   11   13
ENDBRANCH   10   11
ENDBRANCH    9   10
ENDBRANCH    8    9
ENDBRANCH    7    8
ENDBRANCH    6    7
ENDBRANCH    5    6
ENDBRANCH    4    5
ENDBRANCH    3    4
ENDBRANCH    2    3
ENDBRANCH   30    2
ENDBRANCH   34   33
BRANCH   38   39
ATOM     39  C29 UNL A   1      59.245  17.438  11.485  1.00  0.00    +0.000 C 
ATOM     40  C30 UNL A   1      59.321  16.039  11.558  1.00  0.00    +0.000 C 
ATOM     41  F4  UNL A   1      58.603  15.371  12.474  1.00  0.00    +0.000 F 
ATOM     42  C31 UNL A   1      60.157  15.320  10.707  1.00  0.00    +0.000 C 
ATOM     43  F5  UNL A   1      60.238  13.988  10.818  1.00  0.00    +0.000 F 
ATOM     44  C32 UNL A   1      60.911  15.982   9.750  1.00  0.00    +0.000 C 
ATOM     45  F6  UNL A   1      61.706  15.289   8.923  1.00  0.00    +0.000 F 
ATOM     46  C33 UNL A   1      60.843  17.365   9.651  1.00  0.00    +0.000 C 
ATOM     47  F7  UNL A   1      61.563  18.004   8.719  1.00  0.00    +0.000 F 
ATOM     48  C34 UNL A   1      60.027  18.087  10.518  1.00  0.00    +0.000 C 
ATOM     49  F8  UNL A   1      59.985  19.423  10.400  1.00  0.00    +0.000 F 
ENDBRANCH   38   39
BRANCH   55   56
ATOM     65  C45 UNL A   1      59.516  19.764  18.950  1.00  0.00    +0.000 C 
ATOM     66  F13 UNL A   1      58.780  18.643  18.952  1.00  0.00    +0.000 F 
ATOM     56  C40 UNL A   1      59.374  20.701  17.916  1.00  0.00    +0.000 C 
ATOM     57  C41 UNL A   1      60.164  21.859  17.963  1.00  0.00    +0.000 C 
ATOM     58  F9  UNL A   1      60.076  22.775  16.986  1.00  0.00    +0.000 F 
ATOM     59  C42 UNL A   1      61.084  22.056  18.989  1.00  0.00    +0.000 C 
ATOM     60  F10 UNL A   1      61.865  23.145  18.985  1.00  0.00    +0.000 F 
ATOM     61  C43 UNL A   1      61.207  21.118  20.003  1.00  0.00    +0.000 C 
ATOM     62  F11 UNL A   1      62.096  21.307  20.988  1.00  0.00    +0.000 F 
ATOM     63  C44 UNL A   1      60.418  19.977  19.989  1.00  0.00    +0.000 C 
ATOM     64  F12 UNL A   1      60.531  19.073  20.972  1.00  0.00    +0.000 F 
ENDBRANCH   55   56
BRANCH   70   71
ATOM     71  C49 UNL A   1      52.725  22.559  17.053  1.00  0.00    +0.000 C 
ATOM     72  C50 UNL A   1      52.568  23.944  16.910  1.00  0.00    +0.000 C 
ATOM     73  F14 UNL A   1      53.326  24.617  16.031  1.00  0.00    +0.000 F 
ATOM     74  C51 UNL A   1      51.656  24.648  17.693  1.00  0.00    +0.000 C 
ATOM     75  F15 UNL A   1      51.553  25.978  17.566  1.00  0.00    +0.000 F 
ATOM     76  C52 UNL A   1      50.862  23.976  18.612  1.00  0.00    +0.000 C 
ATOM     77  F16 UNL A   1      49.979  24.653  19.358  1.00  0.00    +0.000 F 
ATOM     78  C53 UNL A   1      50.989  22.604  18.759  1.00  0.00    +0.000 C 
ATOM     79  F17 UNL A   1      50.212  21.948  19.633  1.00  0.00    +0.000 F 
ATOM     80  C54 UNL A   1      51.922  21.905  17.999  1.00  0.00    +0.000 C 
ATOM     81  F18 UNL A   1      52.030  20.578  18.168  1.00  0.00    +0.000 F 
ENDBRANCH   70   71
TORSDOF 17
ENDMDL
MODEL 5
REMARK VINA RESULT:     -10.0     28.750     34.451
ROOT
ATOM     34  C25 UNL A   1      18.570  17.327   6.251  1.00  0.00    +0.000 C 
ATOM     35  C26 UNL A   1      17.582  17.182   7.374  1.00  0.00    +0.000 C 
ATOM     36  N5  UNL A   1      16.528  17.915   7.643  1.00  0.00    +0.000 N 
ATOM     37  C27 UNL A   1      15.951  17.354   8.774  1.00  0.00    +0.000 C 
ATOM     38  C28 UNL A   1      14.859  17.771   9.461  1.00  0.00    +0.000 C 
ATOM     50  C35 UNL A   1      14.068  18.924   9.110  1.00  0.00    +0.000 C 
ATOM     51  C36 UNL A   1      12.946  19.429   9.747  1.00  0.00    +0.000 C 
ATOM     52  C37 UNL A   1      12.499  20.545   9.031  1.00  0.00    +0.000 C 
ATOM     53  C38 UNL A   1      13.366  20.760   7.972  1.00  0.00    +0.000 C 
ATOM     54  N6  UNL A   1      14.317  19.753   8.026  1.00  0.00    +0.000 N 
ATOM     55  C39 UNL A   1      13.332  21.808   6.985  1.00  0.00    +0.000 C 
ATOM     67  C46 UNL A   1      14.223  21.957   5.975  1.00  0.00    +0.000 C 
ATOM     68  N7  UNL A   1      15.313  21.164   5.651  1.00  0.00    +0.000 N 
ATOM     69  C47 UNL A   1      15.832  21.691   4.569  1.00  0.00    +0.000 C 
ATOM     70  C48 UNL A   1      17.030  21.248   3.783  1.00  0.00    +0.000 C 
ATOM     82  C55 UNL A   1      17.709  20.158   4.184  1.00  0.00    +0.000 C 
ATOM     83  C56 UNL A   1      18.899  19.624   3.532  1.00  0.00    +0.000 C 
ATOM     84  C57 UNL A   1      19.295  18.522   4.186  1.00  0.00    +0.000 C 
ATOM     85  C58 UNL A   1      18.414  18.303   5.335  1.00  0.00    +0.000 C 
ATOM     86  N8  UNL A   1      17.483  19.305   5.237  1.00  0.00    +0.000 N 
ATOM     87  C59 UNL A   1      15.125  22.883   4.081  1.00  0.00    +0.000 C 
ATOM     88  C60 UNL A   1      14.176  23.023   4.995  1.00  0.00    +0.000 C 
ATOM     89  C61 UNL A   1      16.751  16.199   9.125  1.00  0.00    +0.000 C 
ATOM     90  C62 UNL A   1      17.794  16.072   8.315  1.00  0.00    +0.000 C 
ATOM    117  H25 UNL A   1      12.514  19.047  10.602  1.00  0.00    +0.000 H 
ATOM    118  H26 UNL A   1      11.666  21.111   9.254  1.00  0.00    +0.000 H 
ATOM    119  H27 UNL A   1      15.060  19.642   7.390  1.00  0.00    +0.000 H 
ATOM    120  H28 UNL A   1      19.362  20.028   2.703  1.00  0.00    +0.000 H 
ATOM    121  H29 UNL A   1      20.093  17.925   3.921  1.00  0.00    +0.000 H 
ATOM    122  H30 UNL A   1      16.727  19.403   5.859  1.00  0.00    +0.000 H 
ATOM    123  H31 UNL A   1      15.316  23.458   3.246  1.00  0.00    +0.000 H 
ATOM    124  H32 UNL A   1      13.490  23.794   5.008  1.00  0.00    +0.000 H 
ATOM    125  H33 UNL A   1      16.538  15.557   9.905  1.00  0.00    +0.000 H 
ATOM    126  H34 UNL A   1      18.555  15.376   8.338  1.00  0.00    +0.000 H 
ENDROOT
BRANCH   34   33
ATOM     33  C24 UNL A   1      19.765  16.451   6.151  1.00  0.00    +0.000 C 
ATOM    127  H35 UNL A   1      18.933  15.033   4.819  1.00  0.00    +0.000 H 
ATOM    115  H23 UNL A   1      22.986  16.413   7.105  1.00  0.00    +0.000 H 
ATOM    116  H24 UNL A   1      20.938  17.664   7.427  1.00  0.00    +0.000 H 
ATOM     91  C63 UNL A   1      19.774  15.295   5.356  1.00  0.00    +0.000 C 
ATOM     92  C64 UNL A   1      20.921  14.496   5.289  1.00  0.00    +0.000 C 
ATOM     32  C23 UNL A   1      20.940  16.826   6.824  1.00  0.00    +0.000 C 
ATOM     30  C21 UNL A   1      22.077  14.875   5.979  1.00  0.00    +0.000 C 
ATOM     31  C22 UNL A   1      22.104  16.079   6.686  1.00  0.00    +0.000 C 
ATOM    128  H36 UNL A   1      20.914  13.628   4.731  1.00  0.00    +0.000 H 
BRANCH   30    2
ATOM      1  O1  UNL A   1      24.182  14.229   5.168  1.00  0.00    +0.000 O 
ATOM      2  C1  UNL A   1      23.262  13.989   5.946  1.00  0.00    +0.000 C 
BRANCH    2    3
ATOM      3  N1  UNL A   1      23.316  12.884   6.762  1.00  0.00    +0.000 N 
ATOM     93  H1  UNL A   1      23.342  12.016   6.299  1.00  0.00    +0.000 H 
BRANCH    3    4
ATOM      4  C2  UNL A   1      23.340  12.819   8.213  1.00  0.00    +0.000 C 
ATOM     94  H2  UNL A   1      23.647  11.837   8.506  1.00  0.00    +0.000 H 
ATOM     95  H3  UNL A   1      22.353  13.049   8.560  1.00  0.00    +0.000 H 
BRANCH    4    5
ATOM     97  H5  UNL A   1      25.167  13.285   9.111  1.00  0.00    +0.000 H 
ATOM      5  C3  UNL A   1      24.288  13.831   8.840  1.00  0.00    +0.000 C 
ATOM     96  H4  UNL A   1      24.468  14.605   8.122  1.00  0.00    +0.000 H 
BRANCH    5    6
ATOM     98  H6  UNL A   1      24.386  14.124  10.934  1.00  0.00    +0.000 H 
ATOM     99  H7  UNL A   1      22.751  14.230  10.199  1.00  0.00    +0.000 H 
ATOM      6  C4  UNL A   1      23.787  14.488  10.125  1.00  0.00    +0.000 C 
BRANCH    6    7
ATOM    100  H8  UNL A   1      24.063  16.359   9.166  1.00  0.00    +0.000 H 
ATOM    101  H9  UNL A   1      24.579  16.268  10.885  1.00  0.00    +0.000 H 
ATOM      7  C5  UNL A   1      23.837  16.019  10.156  1.00  0.00    +0.000 C 
BRANCH    7    8
ATOM    102  H10 UNL A   1      21.962  16.018  11.151  1.00  0.00    +0.000 H 
ATOM    103  H11 UNL A   1      22.089  17.093   9.723  1.00  0.00    +0.000 H 
ATOM      8  C6  UNL A   1      22.556  16.726  10.613  1.00  0.00    +0.000 C 
BRANCH    8    9
ATOM      9  C7  UNL A   1      22.765  17.944  11.512  1.00  0.00    +0.000 C 
ATOM    105  H13 UNL A   1      23.023  18.774  10.887  1.00  0.00    +0.000 H 
ATOM    104  H12 UNL A   1      21.861  18.133  12.053  1.00  0.00    +0.000 H 
BRANCH    9   10
ATOM     10  N2  UNL A   1      23.846  17.744  12.459  1.00  0.00    +0.000 N 
ATOM    106  H14 UNL A   1      23.983  16.819  12.770  1.00  0.00    +0.000 H 
BRANCH   10   11
ATOM     11  C8  UNL A   1      24.701  18.685  12.975  1.00  0.00    +0.000 C 
ATOM     12  O2  UNL A   1      25.530  18.371  13.827  1.00  0.00    +0.000 O 
BRANCH   11   13
ATOM    107  H15 UNL A   1      23.176  20.673  13.947  1.00  0.00    +0.000 H 
ATOM    108  H16 UNL A   1      23.088  22.987  13.175  1.00  0.00    +0.000 H 
ATOM     13  C9  UNL A   1      24.629  20.085  12.522  1.00  0.00    +0.000 C 
ATOM     14  C10 UNL A   1      23.769  20.986  13.163  1.00  0.00    +0.000 C 
ATOM     15  C11 UNL A   1      23.722  22.305  12.732  1.00  0.00    +0.000 C 
ATOM     16  C12 UNL A   1      24.553  22.673  11.692  1.00  0.00    +0.000 C 
ATOM     17  N3  UNL A   1      25.416  21.830  11.085  1.00  0.00    +0.000 N 
ATOM     18  C13 UNL A   1      25.484  20.542  11.512  1.00  0.00    +0.000 C 
ATOM    109  H17 UNL A   1      24.512  23.649  11.360  1.00  0.00    +0.000 H 
BRANCH   18   19
ATOM     19  N4  UNL A   1      26.344  19.635  10.832  1.00  0.00    +0.000 N 
ATOM    110  H18 UNL A   1      27.200  19.403  11.259  1.00  0.00    +0.000 H 
BRANCH   19   20
ATOM    111  H19 UNL A   1      24.233  20.095   9.355  1.00  0.00    +0.000 H 
ATOM    112  H20 UNL A   1      23.632  19.065   7.245  1.00  0.00    +0.000 H 
ATOM    113  H21 UNL A   1      25.052  17.353   6.280  1.00  0.00    +0.000 H 
ATOM    114  H22 UNL A   1      27.686  17.718   9.538  1.00  0.00    +0.000 H 
ATOM     20  C14 UNL A   1      26.047  19.044   9.579  1.00  0.00    +0.000 C 
ATOM     21  C15 UNL A   1      24.855  19.387   8.934  1.00  0.00    +0.000 C 
ATOM     22  C16 UNL A   1      24.499  18.781   7.728  1.00  0.00    +0.000 C 
ATOM     23  C17 UNL A   1      25.313  17.792   7.177  1.00  0.00    +0.000 C 
ATOM     24  C18 UNL A   1      26.484  17.390   7.835  1.00  0.00    +0.000 C 
ATOM     25  C19 UNL A   1      27.355  16.310   7.248  1.00  0.00    +0.000 C 
ATOM     26  F1  UNL A   1      26.654  15.176   6.959  1.00  0.00    +0.000 F 
ATOM     27  F2  UNL A   1      27.941  16.689   6.077  1.00  0.00    +0.000 F 
ATOM     28  F3  UNL A   1      28.373  15.916   8.063  1.00  0.00    +0.000 F 
ATOM     29  C20 UNL A   1      26.834  18.018   9.040  1.00  0.00    +0.000 C 
ENDBRANCH   19   20
ENDBRANCH   18   19
ENDBRANCH   11   13
ENDBRANCH   10   11
ENDBRANCH    9   10
ENDBRANCH    8    9
ENDBRANCH    7    8
ENDBRANCH    6    7
ENDBRANCH    5    6
ENDBRANCH    4    5
ENDBRANCH    3    4
ENDBRANCH    2    3
ENDBRANCH   30    2
ENDBRANCH   34   33
BRANCH   38   39
ATOM     39  C29 UNL A   1      14.448  16.977  10.667  1.00  0.00    +0.000 C 
ATOM     40  C30 UNL A   1      13.585  15.876  10.558  1.00  0.00    +0.000 C 
ATOM     41  F4  UNL A   1      13.050  15.554   9.371  1.00  0.00    +0.000 F 
ATOM     42  C31 UNL A   1      13.248  15.117  11.676  1.00  0.00    +0.000 C 
ATOM     43  F5  UNL A   1      12.396  14.090  11.553  1.00  0.00    +0.000 F 
ATOM     44  C32 UNL A   1      13.786  15.425  12.916  1.00  0.00    +0.000 C 
ATOM     45  F6  UNL A   1      13.469  14.686  13.988  1.00  0.00    +0.000 F 
ATOM     46  C33 UNL A   1      14.650  16.502  13.045  1.00  0.00    +0.000 C 
ATOM     47  F7  UNL A   1      15.179  16.795  14.241  1.00  0.00    +0.000 F 
ATOM     48  C34 UNL A   1      14.970  17.279  11.934  1.00  0.00    +0.000 C 
ATOM     49  F8  UNL A   1      15.806  18.316  12.091  1.00  0.00    +0.000 F 
ENDBRANCH   38   39
BRANCH   55   56
ATOM     65  C45 UNL A   1      11.015  22.630   6.428  1.00  0.00    +0.000 C 
ATOM     66  F13 UNL A   1      10.806  21.516   5.713  1.00  0.00    +0.000 F 
ATOM     56  C40 UNL A   1      12.241  22.832   7.079  1.00  0.00    +0.000 C 
ATOM     57  C41 UNL A   1      12.411  24.017   7.811  1.00  0.00    +0.000 C 
ATOM     58  F9  UNL A   1      13.560  24.245   8.467  1.00  0.00    +0.000 F 
ATOM     59  C42 UNL A   1      11.382  24.949   7.913  1.00  0.00    +0.000 C 
ATOM     60  F10 UNL A   1      11.548  26.048   8.661  1.00  0.00    +0.000 F 
ATOM     61  C43 UNL A   1      10.178  24.730   7.259  1.00  0.00    +0.000 C 
ATOM     62  F11 UNL A   1       9.187  25.627   7.361  1.00  0.00    +0.000 F 
ATOM     63  C44 UNL A   1       9.998  23.577   6.510  1.00  0.00    +0.000 C 
ATOM     64  F12 UNL A   1       8.838  23.368   5.872  1.00  0.00    +0.000 F 
ENDBRANCH   55   56
BRANCH   70   71
ATOM     71  C49 UNL A   1      17.476  21.987   2.575  1.00  0.00    +0.000 C 
ATOM     72  C50 UNL A   1      18.294  23.119   2.678  1.00  0.00    +0.000 C 
ATOM     73  F14 UNL A   1      18.664  23.571   3.885  1.00  0.00    +0.000 F 
ATOM     74  C51 UNL A   1      18.709  23.811   1.542  1.00  0.00    +0.000 C 
ATOM     75  F15 UNL A   1      19.458  24.915   1.668  1.00  0.00    +0.000 F 
ATOM     76  C52 UNL A   1      18.337  23.367   0.281  1.00  0.00    +0.000 C 
ATOM     77  F16 UNL A   1      18.744  24.028  -0.811  1.00  0.00    +0.000 F 
ATOM     78  C53 UNL A   1      17.541  22.240   0.154  1.00  0.00    +0.000 C 
ATOM     79  F17 UNL A   1      17.194  21.796  -1.062  1.00  0.00    +0.000 F 
ATOM     80  C54 UNL A   1      17.101  21.566   1.290  1.00  0.00    +0.000 C 
ATOM     81  F18 UNL A   1      16.323  20.483   1.140  1.00  0.00    +0.000 F 
ENDBRANCH   70   71
TORSDOF 17
ENDMDL
MODEL 6
REMARK VINA RESULT:      -9.9     64.248     70.988
ROOT
ATOM     34  C25 UNL A   1      29.102 -14.142  30.991  1.00  0.00    +0.000 C 
ATOM     35  C26 UNL A   1      28.860 -14.265  32.469  1.00  0.00    +0.000 C 
ATOM     36  N5  UNL A   1      27.874 -13.781  33.185  1.00  0.00    +0.000 N 
ATOM     37  C27 UNL A   1      28.113 -14.190  34.490  1.00  0.00    +0.000 C 
ATOM     38  C28 UNL A   1      27.395 -13.913  35.607  1.00  0.00    +0.000 C 
ATOM     50  C35 UNL A   1      26.196 -13.114  35.627  1.00  0.00    +0.000 C 
ATOM     51  C36 UNL A   1      25.402 -12.774  36.709  1.00  0.00    +0.000 C 
ATOM     52  C37 UNL A   1      24.329 -12.006  36.244  1.00  0.00    +0.000 C 
ATOM     53  C38 UNL A   1      24.477 -11.832  34.877  1.00  0.00    +0.000 C 
ATOM     54  N6  UNL A   1      25.620 -12.525  34.511  1.00  0.00    +0.000 N 
ATOM     55  C39 UNL A   1      23.640 -11.087  33.973  1.00  0.00    +0.000 C 
ATOM     67  C46 UNL A   1      23.853 -10.959  32.641  1.00  0.00    +0.000 C 
ATOM     68  N7  UNL A   1      24.863 -11.503  31.864  1.00  0.00    +0.000 N 
ATOM     69  C47 UNL A   1      24.611 -11.130  30.633  1.00  0.00    +0.000 C 
ATOM     70  C48 UNL A   1      25.379 -11.426  29.379  1.00  0.00    +0.000 C 
ATOM     82  C55 UNL A   1      26.488 -12.185  29.454  1.00  0.00    +0.000 C 
ATOM     83  C56 UNL A   1      27.341 -12.537  28.326  1.00  0.00    +0.000 C 
ATOM     84  C57 UNL A   1      28.339 -13.319  28.764  1.00  0.00    +0.000 C 
ATOM     85  C58 UNL A   1      28.222 -13.479  30.216  1.00  0.00    +0.000 C 
ATOM     86  N8  UNL A   1      27.077 -12.797  30.534  1.00  0.00    +0.000 N 
ATOM     87  C59 UNL A   1      23.405 -10.304  30.490  1.00  0.00    +0.000 C 
ATOM     88  C60 UNL A   1      23.002 -10.199  31.748  1.00  0.00    +0.000 C 
ATOM     89  C61 UNL A   1      29.320 -14.990  34.466  1.00  0.00    +0.000 C 
ATOM     90  C62 UNL A   1      29.842 -15.034  33.247  1.00  0.00    +0.000 C 
ATOM    117  H25 UNL A   1      25.572 -13.042  37.691  1.00  0.00    +0.000 H 
ATOM    118  H26 UNL A   1      23.558 -11.634  36.820  1.00  0.00    +0.000 H 
ATOM    119  H27 UNL A   1      25.972 -12.590  33.594  1.00  0.00    +0.000 H 
ATOM    120  H28 UNL A   1      27.201 -12.234  27.350  1.00  0.00    +0.000 H 
ATOM    121  H29 UNL A   1      29.072 -13.740  28.173  1.00  0.00    +0.000 H 
ATOM    122  H30 UNL A   1      26.711 -12.751  31.447  1.00  0.00    +0.000 H 
ATOM    123  H31 UNL A   1      22.982  -9.910  29.635  1.00  0.00    +0.000 H 
ATOM    124  H32 UNL A   1      22.187  -9.645  32.053  1.00  0.00    +0.000 H 
ATOM    125  H33 UNL A   1      29.721 -15.464  35.290  1.00  0.00    +0.000 H 
ATOM    126  H34 UNL A   1      30.712 -15.490  32.929  1.00  0.00    +0.000 H 
ENDROOT
BRANCH   34   33
ATOM     33  C24 UNL A   1      30.330 -14.686  30.357  1.00  0.00    +0.000 C 
ATOM    127  H35 UNL A   1      31.556 -12.990  30.669  1.00  0.00    +0.000 H 
ATOM    115  H23 UNL A   1      31.477 -17.581  29.095  1.00  0.00    +0.000 H 
ATOM    116  H24 UNL A   1      29.442 -16.555  29.913  1.00  0.00    +0.000 H 
ATOM     91  C63 UNL A   1      31.518 -13.944  30.278  1.00  0.00    +0.000 C 
ATOM     92  C64 UNL A   1      32.653 -14.496  29.673  1.00  0.00    +0.000 C 
ATOM     32  C23 UNL A   1      30.317 -16.007  29.877  1.00  0.00    +0.000 C 
ATOM     30  C21 UNL A   1      32.617 -15.806  29.184  1.00  0.00    +0.000 C 
ATOM     31  C22 UNL A   1      31.469 -16.582  29.355  1.00  0.00    +0.000 C 
ATOM    128  H36 UNL A   1      33.515 -13.935  29.586  1.00  0.00    +0.000 H 
BRANCH   30    2
ATOM      1  O1  UNL A   1      34.501 -17.198  29.051  1.00  0.00    +0.000 O 
ATOM      2  C1  UNL A   1      33.807 -16.352  28.493  1.00  0.00    +0.000 C 
BRANCH    2    3
ATOM      3  N1  UNL A   1      34.147 -15.890  27.244  1.00  0.00    +0.000 N 
ATOM     93  H1  UNL A   1      35.106 -15.719  27.103  1.00  0.00    +0.000 H 
BRANCH    3    4
ATOM      4  C2  UNL A   1      33.289 -15.619  26.104  1.00  0.00    +0.000 C 
ATOM     94  H2  UNL A   1      32.289 -15.911  26.353  1.00  0.00    +0.000 H 
ATOM     95  H3  UNL A   1      33.672 -16.177  25.275  1.00  0.00    +0.000 H 
BRANCH    4    5
ATOM     97  H5  UNL A   1      33.162 -14.138  24.637  1.00  0.00    +0.000 H 
ATOM      5  C3  UNL A   1      33.279 -14.152  25.700  1.00  0.00    +0.000 C 
ATOM     96  H4  UNL A   1      32.482 -13.669  26.226  1.00  0.00    +0.000 H 
BRANCH    5    6
ATOM     98  H6  UNL A   1      34.943 -13.007  25.063  1.00  0.00    +0.000 H 
ATOM     99  H7  UNL A   1      35.221 -14.085  26.471  1.00  0.00    +0.000 H 
ATOM      6  C4  UNL A   1      34.568 -13.386  25.992  1.00  0.00    +0.000 C 
BRANCH    6    7
ATOM    100  H8  UNL A   1      34.959 -12.464  27.861  1.00  0.00    +0.000 H 
ATOM    101  H9  UNL A   1      33.389 -12.054  27.091  1.00  0.00    +0.000 H 
ATOM      7  C5  UNL A   1      34.440 -12.207  26.961  1.00  0.00    +0.000 C 
BRANCH    7    8
ATOM    102  H10 UNL A   1      35.392 -11.012  25.487  1.00  0.00    +0.000 H 
ATOM    103  H11 UNL A   1      35.724 -10.565  27.190  1.00  0.00    +0.000 H 
ATOM      8  C6  UNL A   1      34.993 -10.864  26.468  1.00  0.00    +0.000 C 
BRANCH    8    9
ATOM      9  C7  UNL A   1      33.980  -9.723  26.397  1.00  0.00    +0.000 C 
ATOM    105  H13 UNL A   1      33.933  -9.263  27.363  1.00  0.00    +0.000 H 
ATOM    104  H12 UNL A   1      34.296  -9.026  25.650  1.00  0.00    +0.000 H 
BRANCH    9   10
ATOM     10  N2  UNL A   1      32.649 -10.196  26.063  1.00  0.00    +0.000 N 
ATOM    106  H14 UNL A   1      32.095 -10.502  26.818  1.00  0.00    +0.000 H 
BRANCH   10   11
ATOM     11  C8  UNL A   1      32.066 -10.269  24.822  1.00  0.00    +0.000 C 
ATOM     12  O2  UNL A   1      31.889 -11.358  24.282  1.00  0.00    +0.000 O 
BRANCH   11   13
ATOM    107  H15 UNL A   1      33.455  -8.841  23.018  1.00  0.00    +0.000 H 
ATOM    108  H16 UNL A   1      32.740  -6.811  21.865  1.00  0.00    +0.000 H 
ATOM     13  C9  UNL A   1      31.656  -9.040  24.119  1.00  0.00    +0.000 C 
ATOM     14  C10 UNL A   1      32.523  -8.436  23.200  1.00  0.00    +0.000 C 
ATOM     15  C11 UNL A   1      32.117  -7.286  22.536  1.00  0.00    +0.000 C 
ATOM     16  C12 UNL A   1      30.852  -6.801  22.804  1.00  0.00    +0.000 C 
ATOM     17  N3  UNL A   1      29.987  -7.388  23.659  1.00  0.00    +0.000 N 
ATOM     18  C13 UNL A   1      30.366  -8.525  24.298  1.00  0.00    +0.000 C 
ATOM    109  H17 UNL A   1      30.550  -5.939  22.322  1.00  0.00    +0.000 H 
BRANCH   18   19
ATOM     19  N4  UNL A   1      29.483  -9.110  25.248  1.00  0.00    +0.000 N 
ATOM    110  H18 UNL A   1      28.919  -9.860  24.951  1.00  0.00    +0.000 H 
BRANCH   19   20
ATOM    111  H19 UNL A   1      28.787  -6.723  26.063  1.00  0.00    +0.000 H 
ATOM    112  H20 UNL A   1      28.634  -5.907  28.340  1.00  0.00    +0.000 H 
ATOM    113  H21 UNL A   1      29.199  -7.363  30.193  1.00  0.00    +0.000 H 
ATOM    114  H22 UNL A   1      30.057 -10.462  27.482  1.00  0.00    +0.000 H 
ATOM     20  C14 UNL A   1      29.362  -8.681  26.592  1.00  0.00    +0.000 C 
ATOM     21  C15 UNL A   1      29.002  -7.355  26.850  1.00  0.00    +0.000 C 
ATOM     22  C16 UNL A   1      28.932  -6.878  28.160  1.00  0.00    +0.000 C 
ATOM     23  C17 UNL A   1      29.263  -7.715  29.226  1.00  0.00    +0.000 C 
ATOM     24  C18 UNL A   1      29.681  -9.032  28.989  1.00  0.00    +0.000 C 
ATOM     25  C19 UNL A   1      30.056  -9.931  30.139  1.00  0.00    +0.000 C 
ATOM     26  F1  UNL A   1      30.982  -9.363  30.963  1.00  0.00    +0.000 F 
ATOM     27  F2  UNL A   1      28.991 -10.233  30.933  1.00  0.00    +0.000 F 
ATOM     28  F3  UNL A   1      30.587 -11.126  29.757  1.00  0.00    +0.000 F 
ATOM     29  C20 UNL A   1      29.735  -9.498  27.666  1.00  0.00    +0.000 C 
ENDBRANCH   19   20
ENDBRANCH   18   19
ENDBRANCH   11   13
ENDBRANCH   10   11
ENDBRANCH    9   10
ENDBRANCH    8    9
ENDBRANCH    7    8
ENDBRANCH    6    7
ENDBRANCH    5    6
ENDBRANCH    4    5
ENDBRANCH    3    4
ENDBRANCH    2    3
ENDBRANCH   30    2
ENDBRANCH   34   33
BRANCH   38   39
ATOM     39  C29 UNL A   1      27.884 -14.481  36.908  1.00  0.00    +0.000 C 
ATOM     40  C30 UNL A   1      27.434 -15.724  37.378  1.00  0.00    +0.000 C 
ATOM     41  F4  UNL A   1      26.495 -16.402  36.700  1.00  0.00    +0.000 F 
ATOM     42  C31 UNL A   1      27.928 -16.265  38.563  1.00  0.00    +0.000 C 
ATOM     43  F5  UNL A   1      27.459 -17.437  39.009  1.00  0.00    +0.000 F 
ATOM     44  C32 UNL A   1      28.899 -15.588  39.285  1.00  0.00    +0.000 C 
ATOM     45  F6  UNL A   1      29.383 -16.114  40.418  1.00  0.00    +0.000 F 
ATOM     46  C33 UNL A   1      29.367 -14.362  38.833  1.00  0.00    +0.000 C 
ATOM     47  F7  UNL A   1      30.313 -13.712  39.525  1.00  0.00    +0.000 F 
ATOM     48  C34 UNL A   1      28.856 -13.808  37.662  1.00  0.00    +0.000 C 
ATOM     49  F8  UNL A   1      29.326 -12.620  37.253  1.00  0.00    +0.000 F 
ENDBRANCH   38   39
BRANCH   55   56
ATOM     65  C45 UNL A   1      21.168 -10.955  34.450  1.00  0.00    +0.000 C 
ATOM     66  F13 UNL A   1      21.004 -12.148  33.860  1.00  0.00    +0.000 F 
ATOM     56  C40 UNL A   1      22.444 -10.380  34.537  1.00  0.00    +0.000 C 
ATOM     57  C41 UNL A   1      22.562  -9.128  35.161  1.00  0.00    +0.000 C 
ATOM     58  F9  UNL A   1      23.766  -8.547  35.284  1.00  0.00    +0.000 F 
ATOM     59  C42 UNL A   1      21.449  -8.492  35.704  1.00  0.00    +0.000 C 
ATOM     60  F10 UNL A   1      21.594  -7.322  36.340  1.00  0.00    +0.000 F 
ATOM     61  C43 UNL A   1      20.196  -9.078  35.605  1.00  0.00    +0.000 C 
ATOM     62  F11 UNL A   1      19.127  -8.466  36.131  1.00  0.00    +0.000 F 
ATOM     63  C44 UNL A   1      20.054 -10.304  34.971  1.00  0.00    +0.000 C 
ATOM     64  F12 UNL A   1      18.842 -10.867  34.868  1.00  0.00    +0.000 F 
ENDBRANCH   55   56
BRANCH   70   71
ATOM     71  C49 UNL A   1      24.936 -10.902  28.062  1.00  0.00    +0.000 C 
ATOM     72  C50 UNL A   1      23.933 -11.544  27.325  1.00  0.00    +0.000 C 
ATOM     73  F14 UNL A   1      23.376 -12.671  27.792  1.00  0.00    +0.000 F 
ATOM     74  C51 UNL A   1      23.522 -11.049  26.090  1.00  0.00    +0.000 C 
ATOM     75  F15 UNL A   1      22.589 -11.704  25.384  1.00  0.00    +0.000 F 
ATOM     76  C52 UNL A   1      24.084  -9.887  25.582  1.00  0.00    +0.000 C 
ATOM     77  F16 UNL A   1      23.681  -9.407  24.398  1.00  0.00    +0.000 F 
ATOM     78  C53 UNL A   1      25.067  -9.225  26.302  1.00  0.00    +0.000 C 
ATOM     79  F17 UNL A   1      25.600  -8.093  25.825  1.00  0.00    +0.000 F 
ATOM     80  C54 UNL A   1      25.500  -9.736  27.522  1.00  0.00    +0.000 C 
ATOM     81  F18 UNL A   1      26.459  -9.081  28.193  1.00  0.00    +0.000 F 
ENDBRANCH   70   71
TORSDOF 17
ENDMDL
MODEL 7
REMARK VINA RESULT:      -9.9     45.505     50.484
ROOT
ATOM     34  C25 UNL A   1      53.198  19.825  11.352  1.00  0.00    +0.000 C 
ATOM     35  C26 UNL A   1      54.535  19.170  11.148  1.00  0.00    +0.000 C 
ATOM     36  N5  UNL A   1      55.545  19.085  11.979  1.00  0.00    +0.000 N 
ATOM     37  C27 UNL A   1      56.531  18.371  11.311  1.00  0.00    +0.000 C 
ATOM     38  C28 UNL A   1      57.777  18.050  11.737  1.00  0.00    +0.000 C 
ATOM     50  C35 UNL A   1      58.314  18.408  13.027  1.00  0.00    +0.000 C 
ATOM     51  C36 UNL A   1      59.568  18.132  13.548  1.00  0.00    +0.000 C 
ATOM     52  C37 UNL A   1      59.629  18.653  14.845  1.00  0.00    +0.000 C 
ATOM     53  C38 UNL A   1      58.429  19.289  15.117  1.00  0.00    +0.000 C 
ATOM     54  N6  UNL A   1      57.628  19.122  13.998  1.00  0.00    +0.000 N 
ATOM     55  C39 UNL A   1      58.041  20.000  16.308  1.00  0.00    +0.000 C 
ATOM     67  C46 UNL A   1      56.843  20.603  16.501  1.00  0.00    +0.000 C 
ATOM     68  N7  UNL A   1      55.751  20.662  15.650  1.00  0.00    +0.000 N 
ATOM     69  C47 UNL A   1      54.821  21.315  16.303  1.00  0.00    +0.000 C 
ATOM     70  C48 UNL A   1      53.433  21.677  15.863  1.00  0.00    +0.000 C 
ATOM     82  C55 UNL A   1      53.015  21.300  14.641  1.00  0.00    +0.000 C 
ATOM     83  C56 UNL A   1      51.705  21.596  14.074  1.00  0.00    +0.000 C 
ATOM     84  C57 UNL A   1      51.627  21.049  12.853  1.00  0.00    +0.000 C 
ATOM     85  C58 UNL A   1      52.904  20.407  12.531  1.00  0.00    +0.000 C 
ATOM     86  N8  UNL A   1      53.657  20.579  13.663  1.00  0.00    +0.000 N 
ATOM     87  C59 UNL A   1      55.221  21.746  17.649  1.00  0.00    +0.000 C 
ATOM     88  C60 UNL A   1      56.475  21.320  17.704  1.00  0.00    +0.000 C 
ATOM     89  C61 UNL A   1      55.989  18.017  10.016  1.00  0.00    +0.000 C 
ATOM     90  C62 UNL A   1      54.773  18.522   9.850  1.00  0.00    +0.000 C 
ATOM    117  H25 UNL A   1      60.326  17.628  13.062  1.00  0.00    +0.000 H 
ATOM    118  H26 UNL A   1      60.431  18.575  15.489  1.00  0.00    +0.000 H 
ATOM    119  H27 UNL A   1      56.709  19.461  13.905  1.00  0.00    +0.000 H 
ATOM    120  H28 UNL A   1      50.960  22.138  14.537  1.00  0.00    +0.000 H 
ATOM    121  H29 UNL A   1      50.799  21.076  12.237  1.00  0.00    +0.000 H 
ATOM    122  H30 UNL A   1      54.568  20.221  13.766  1.00  0.00    +0.000 H 
ATOM    123  H31 UNL A   1      54.671  22.247  18.363  1.00  0.00    +0.000 H 
ATOM    124  H32 UNL A   1      57.108  21.478  18.504  1.00  0.00    +0.000 H 
ATOM    125  H33 UNL A   1      56.484  17.447   9.313  1.00  0.00    +0.000 H 
ATOM    126  H34 UNL A   1      54.155  18.472   9.025  1.00  0.00    +0.000 H 
ENDROOT
BRANCH   34   33
ATOM     33  C24 UNL A   1      52.196  19.902  10.258  1.00  0.00    +0.000 C 
ATOM    127  H35 UNL A   1      52.682  21.852   9.599  1.00  0.00    +0.000 H 
ATOM    115  H23 UNL A   1      49.992  17.919   8.676  1.00  0.00    +0.000 H 
ATOM    116  H24 UNL A   1      51.467  17.944  10.596  1.00  0.00    +0.000 H 
ATOM     91  C63 UNL A   1      52.068  21.038   9.445  1.00  0.00    +0.000 C 
ATOM     92  C64 UNL A   1      51.111  21.069   8.425  1.00  0.00    +0.000 C 
ATOM     32  C23 UNL A   1      51.395  18.778   9.992  1.00  0.00    +0.000 C 
ATOM     30  C21 UNL A   1      50.309  19.948   8.185  1.00  0.00    +0.000 C 
ATOM     31  C22 UNL A   1      50.506  18.779   8.923  1.00  0.00    +0.000 C 
ATOM    128  H36 UNL A   1      50.996  21.919   7.850  1.00  0.00    +0.000 H 
BRANCH   30    2
ATOM      1  O1  UNL A   1      49.456  20.682   6.126  1.00  0.00    +0.000 O 
ATOM      2  C1  UNL A   1      49.262  20.019   7.141  1.00  0.00    +0.000 C 
BRANCH    2    3
ATOM      3  N1  UNL A   1      48.065  19.368   7.326  1.00  0.00    +0.000 N 
ATOM     93  H1  UNL A   1      47.805  19.218   8.264  1.00  0.00    +0.000 H 
BRANCH    3    4
ATOM      4  C2  UNL A   1      47.130  18.872   6.331  1.00  0.00    +0.000 C 
ATOM     94  H2  UNL A   1      47.161  19.521   5.480  1.00  0.00    +0.000 H 
ATOM     95  H3  UNL A   1      46.160  18.853   6.784  1.00  0.00    +0.000 H 
BRANCH    4    5
ATOM     97  H5  UNL A   1      48.085  17.555   5.021  1.00  0.00    +0.000 H 
ATOM      5  C3  UNL A   1      47.445  17.456   5.872  1.00  0.00    +0.000 C 
ATOM     96  H4  UNL A   1      47.898  16.935   6.691  1.00  0.00    +0.000 H 
BRANCH    5    6
ATOM     98  H6  UNL A   1      45.661  16.385   6.264  1.00  0.00    +0.000 H 
ATOM     99  H7  UNL A   1      46.649  15.793   4.886  1.00  0.00    +0.000 H 
ATOM      6  C4  UNL A   1      46.243  16.639   5.402  1.00  0.00    +0.000 C 
BRANCH    6    7
ATOM    100  H8  UNL A   1      44.854  18.159   4.896  1.00  0.00    +0.000 H 
ATOM    101  H9  UNL A   1      44.630  16.579   4.071  1.00  0.00    +0.000 H 
ATOM      7  C5  UNL A   1      45.316  17.332   4.398  1.00  0.00    +0.000 C 
BRANCH    7    8
ATOM    102  H10 UNL A   1      45.788  17.167   2.335  1.00  0.00    +0.000 H 
ATOM    103  H11 UNL A   1      47.019  17.975   3.356  1.00  0.00    +0.000 H 
ATOM      8  C6  UNL A   1      45.981  17.864   3.123  1.00  0.00    +0.000 C 
BRANCH    8    9
ATOM      9  C7  UNL A   1      45.504  19.241   2.661  1.00  0.00    +0.000 C 
ATOM    105  H13 UNL A   1      45.224  19.801   3.529  1.00  0.00    +0.000 H 
ATOM    104  H12 UNL A   1      46.299  19.721   2.129  1.00  0.00    +0.000 H 
BRANCH    9   10
ATOM     10  N2  UNL A   1      44.345  19.153   1.792  1.00  0.00    +0.000 N 
ATOM    106  H14 UNL A   1      44.408  18.506   1.051  1.00  0.00    +0.000 H 
BRANCH   10   11
ATOM     11  C8  UNL A   1      43.172  19.860   1.876  1.00  0.00    +0.000 C 
ATOM     12  O2  UNL A   1      43.101  21.002   1.427  1.00  0.00    +0.000 O 
BRANCH   11   13
ATOM    107  H15 UNL A   1      42.927  18.919   4.381  1.00  0.00    +0.000 H 
ATOM    108  H16 UNL A   1      40.941  17.941   5.410  1.00  0.00    +0.000 H 
ATOM     13  C9  UNL A   1      41.986  19.262   2.515  1.00  0.00    +0.000 C 
ATOM     14  C10 UNL A   1      42.050  18.830   3.845  1.00  0.00    +0.000 C 
ATOM     15  C11 UNL A   1      40.920  18.281   4.437  1.00  0.00    +0.000 C 
ATOM     16  C12 UNL A   1      39.768  18.206   3.679  1.00  0.00    +0.000 C 
ATOM     17  N3  UNL A   1      39.675  18.650   2.406  1.00  0.00    +0.000 N 
ATOM     18  C13 UNL A   1      40.769  19.208   1.825  1.00  0.00    +0.000 C 
ATOM    109  H17 UNL A   1      38.929  17.787   4.110  1.00  0.00    +0.000 H 
BRANCH   18   19
ATOM     19  N4  UNL A   1      40.693  19.616   0.464  1.00  0.00    +0.000 N 
ATOM    110  H18 UNL A   1      41.321  19.208  -0.175  1.00  0.00    +0.000 H 
BRANCH   19   20
ATOM    111  H19 UNL A   1      41.272  21.751  -0.934  1.00  0.00    +0.000 H 
ATOM    112  H20 UNL A   1      39.759  23.462  -1.743  1.00  0.00    +0.000 H 
ATOM    113  H21 UNL A   1      37.391  23.327  -1.242  1.00  0.00    +0.000 H 
ATOM    114  H22 UNL A   1      38.054  19.752   0.871  1.00  0.00    +0.000 H 
ATOM     20  C14 UNL A   1      39.774  20.573  -0.030  1.00  0.00    +0.000 C 
ATOM     21  C15 UNL A   1      40.261  21.674  -0.741  1.00  0.00    +0.000 C 
ATOM     22  C16 UNL A   1      39.393  22.670  -1.193  1.00  0.00    +0.000 C 
ATOM     23  C17 UNL A   1      38.031  22.595  -0.898  1.00  0.00    +0.000 C 
ATOM     24  C18 UNL A   1      37.529  21.530  -0.138  1.00  0.00    +0.000 C 
ATOM     25  C19 UNL A   1      36.061  21.458   0.194  1.00  0.00    +0.000 C 
ATOM     26  F1  UNL A   1      35.600  22.605   0.767  1.00  0.00    +0.000 F 
ATOM     27  F2  UNL A   1      35.285  21.258  -0.908  1.00  0.00    +0.000 F 
ATOM     28  F3  UNL A   1      35.739  20.458   1.062  1.00  0.00    +0.000 F 
ATOM     29  C20 UNL A   1      38.413  20.531   0.297  1.00  0.00    +0.000 C 
ENDBRANCH   19   20
ENDBRANCH   18   19
ENDBRANCH   11   13
ENDBRANCH   10   11
ENDBRANCH    9   10
ENDBRANCH    8    9
ENDBRANCH    7    8
ENDBRANCH    6    7
ENDBRANCH    5    6
ENDBRANCH    4    5
ENDBRANCH    3    4
ENDBRANCH    2    3
ENDBRANCH   30    2
ENDBRANCH   34   33
BRANCH   38   39
ATOM     39  C29 UNL A   1      58.655  17.269  10.802  1.00  0.00    +0.000 C 
ATOM     40  C30 UNL A   1      59.555  17.910   9.938  1.00  0.00    +0.000 C 
ATOM     41  F4  UNL A   1      59.596  19.250   9.880  1.00  0.00    +0.000 F 
ATOM     42  C31 UNL A   1      60.399  17.176   9.108  1.00  0.00    +0.000 C 
ATOM     43  F5  UNL A   1      61.226  17.810   8.267  1.00  0.00    +0.000 F 
ATOM     44  C32 UNL A   1      60.379  15.790   9.146  1.00  0.00    +0.000 C 
ATOM     45  F6  UNL A   1      61.200  15.084   8.356  1.00  0.00    +0.000 F 
ATOM     46  C33 UNL A   1      59.505  15.135  10.001  1.00  0.00    +0.000 C 
ATOM     47  F7  UNL A   1      59.492  13.795  10.047  1.00  0.00    +0.000 F 
ATOM     48  C34 UNL A   1      58.642  15.866  10.814  1.00  0.00    +0.000 C 
ATOM     49  F8  UNL A   1      57.806  15.204  11.628  1.00  0.00    +0.000 F 
ENDBRANCH   38   39
BRANCH   55   56
ATOM     65  C45 UNL A   1      59.294  18.998  18.254  1.00  0.00    +0.000 C 
ATOM     66  F13 UNL A   1      58.651  17.838  18.053  1.00  0.00    +0.000 F 
ATOM     56  C40 UNL A   1      59.036  20.101  17.426  1.00  0.00    +0.000 C 
ATOM     57  C41 UNL A   1      59.731  21.293  17.680  1.00  0.00    +0.000 C 
ATOM     58  F9  UNL A   1      59.532  22.368  16.902  1.00  0.00    +0.000 F 
ATOM     59  C42 UNL A   1      60.671  21.368  18.704  1.00  0.00    +0.000 C 
ATOM     60  F10 UNL A   1      61.361  22.500  18.895  1.00  0.00    +0.000 F 
ATOM     61  C43 UNL A   1      60.909  20.266  19.512  1.00  0.00    +0.000 C 
ATOM     62  F11 UNL A   1      61.817  20.339  20.495  1.00  0.00    +0.000 F 
ATOM     63  C44 UNL A   1      60.215  19.085  19.293  1.00  0.00    +0.000 C 
ATOM     64  F12 UNL A   1      60.439  18.023  20.078  1.00  0.00    +0.000 F 
ENDBRANCH   55   56
BRANCH   70   71
ATOM     71  C49 UNL A   1      52.518  22.437  16.750  1.00  0.00    +0.000 C 
ATOM     72  C50 UNL A   1      51.831  21.807  17.796  1.00  0.00    +0.000 C 
ATOM     73  F14 UNL A   1      51.971  20.488  17.990  1.00  0.00    +0.000 F 
ATOM     74  C51 UNL A   1      50.972  22.524  18.625  1.00  0.00    +0.000 C 
ATOM     75  F15 UNL A   1      50.294  21.891  19.594  1.00  0.00    +0.000 F 
ATOM     76  C52 UNL A   1      50.806  23.890  18.444  1.00  0.00    +0.000 C 
ATOM     77  F16 UNL A   1      49.986  24.580  19.248  1.00  0.00    +0.000 F 
ATOM     78  C53 UNL A   1      51.488  24.538  17.425  1.00  0.00    +0.000 C 
ATOM     79  F17 UNL A   1      51.345  25.859  17.257  1.00  0.00    +0.000 F 
ATOM     80  C54 UNL A   1      52.323  23.816  16.577  1.00  0.00    +0.000 C 
ATOM     81  F18 UNL A   1      52.964  24.466  15.593  1.00  0.00    +0.000 F 
ENDBRANCH   70   71
TORSDOF 17
ENDMDL
MODEL 8
REMARK VINA RESULT:      -9.9     47.847     52.665
ROOT
ATOM     34  C25 UNL A   1      52.673  20.296  11.384  1.00  0.00    +0.000 C 
ATOM     35  C26 UNL A   1      53.986  19.630  11.086  1.00  0.00    +0.000 C 
ATOM     36  N5  UNL A   1      55.038  19.502  11.858  1.00  0.00    +0.000 N 
ATOM     37  C27 UNL A   1      55.975  18.799  11.114  1.00  0.00    +0.000 C 
ATOM     38  C28 UNL A   1      57.238  18.447  11.461  1.00  0.00    +0.000 C 
ATOM     50  C35 UNL A   1      57.849  18.752  12.731  1.00  0.00    +0.000 C 
ATOM     51  C36 UNL A   1      59.124  18.441  13.174  1.00  0.00    +0.000 C 
ATOM     52  C37 UNL A   1      59.263  18.916  14.482  1.00  0.00    +0.000 C 
ATOM     53  C38 UNL A   1      58.089  19.558  14.841  1.00  0.00    +0.000 C 
ATOM     54  N6  UNL A   1      57.227  19.441  13.762  1.00  0.00    +0.000 N 
ATOM     55  C39 UNL A   1      57.777  20.233  16.074  1.00  0.00    +0.000 C 
ATOM     67  C46 UNL A   1      56.600  20.845  16.352  1.00  0.00    +0.000 C 
ATOM     68  N7  UNL A   1      55.465  20.948  15.564  1.00  0.00    +0.000 N 
ATOM     69  C47 UNL A   1      54.582  21.591  16.288  1.00  0.00    +0.000 C 
ATOM     70  C48 UNL A   1      53.178  21.986  15.936  1.00  0.00    +0.000 C 
ATOM     82  C55 UNL A   1      52.689  21.657  14.727  1.00  0.00    +0.000 C 
ATOM     83  C56 UNL A   1      51.355  21.991  14.242  1.00  0.00    +0.000 C 
ATOM     84  C57 UNL A   1      51.203  21.488  13.009  1.00  0.00    +0.000 C 
ATOM     85  C58 UNL A   1      52.451  20.840  12.597  1.00  0.00    +0.000 C 
ATOM     86  N8  UNL A   1      53.266  20.963  13.692  1.00  0.00    +0.000 N 
ATOM     87  C59 UNL A   1      55.060  21.969  17.624  1.00  0.00    +0.000 C 
ATOM     88  C60 UNL A   1      56.308  21.524  17.597  1.00  0.00    +0.000 C 
ATOM     89  C61 UNL A   1      55.360  18.498   9.838  1.00  0.00    +0.000 C 
ATOM     90  C62 UNL A   1      54.144  19.024   9.756  1.00  0.00    +0.000 C 
ATOM    117  H25 UNL A   1      59.847  17.944  12.631  1.00  0.00    +0.000 H 
ATOM    118  H26 UNL A   1      60.097  18.805  15.079  1.00  0.00    +0.000 H 
ATOM    119  H27 UNL A   1      56.309  19.796  13.730  1.00  0.00    +0.000 H 
ATOM    120  H28 UNL A   1      50.644  22.527  14.763  1.00  0.00    +0.000 H 
ATOM    121  H29 UNL A   1      50.344  21.548  12.441  1.00  0.00    +0.000 H 
ATOM    122  H30 UNL A   1      54.176  20.589  13.733  1.00  0.00    +0.000 H 
ATOM    123  H31 UNL A   1      54.556  22.453  18.384  1.00  0.00    +0.000 H 
ATOM    124  H32 UNL A   1      56.985  21.646  18.366  1.00  0.00    +0.000 H 
ATOM    125  H33 UNL A   1      55.808  17.946   9.091  1.00  0.00    +0.000 H 
ATOM    126  H34 UNL A   1      53.483  19.011   8.964  1.00  0.00    +0.000 H 
ENDROOT
BRANCH   34   33
ATOM     33  C24 UNL A   1      51.615  20.424  10.350  1.00  0.00    +0.000 C 
ATOM    127  H35 UNL A   1      52.096  22.388   9.730  1.00  0.00    +0.000 H 
ATOM    115  H23 UNL A   1      49.297  18.528   8.825  1.00  0.00    +0.000 H 
ATOM    116  H24 UNL A   1      50.873  18.467  10.662  1.00  0.00    +0.000 H 
ATOM     91  C63 UNL A   1      51.462  21.589   9.583  1.00  0.00    +0.000 C 
ATOM     92  C64 UNL A   1      50.452  21.668   8.617  1.00  0.00    +0.000 C 
ATOM     32  C23 UNL A   1      50.782  19.322  10.090  1.00  0.00    +0.000 C 
ATOM     30  C21 UNL A   1      49.620  20.568   8.384  1.00  0.00    +0.000 C 
ATOM     31  C22 UNL A   1      49.837  19.372   9.072  1.00  0.00    +0.000 C 
ATOM    128  H36 UNL A   1      50.320  22.538   8.078  1.00  0.00    +0.000 H 
BRANCH   30    2
ATOM      1  O1  UNL A   1      48.318  21.763   6.841  1.00  0.00    +0.000 O 
ATOM      2  C1  UNL A   1      48.519  20.689   7.402  1.00  0.00    +0.000 C 
BRANCH    2    3
ATOM      3  N1  UNL A   1      47.708  19.610   7.145  1.00  0.00    +0.000 N 
ATOM     93  H1  UNL A   1      47.025  19.420   7.829  1.00  0.00    +0.000 H 
BRANCH    3    4
ATOM      4  C2  UNL A   1      47.717  18.710   6.005  1.00  0.00    +0.000 C 
ATOM     94  H2  UNL A   1      48.375  19.108   5.261  1.00  0.00    +0.000 H 
ATOM     95  H3  UNL A   1      46.710  18.634   5.649  1.00  0.00    +0.000 H 
BRANCH    4    5
ATOM     97  H5  UNL A   1      49.206  17.246   6.062  1.00  0.00    +0.000 H 
ATOM      5  C3  UNL A   1      48.180  17.304   6.359  1.00  0.00    +0.000 C 
ATOM     96  H4  UNL A   1      48.029  17.160   7.409  1.00  0.00    +0.000 H 
BRANCH    5    6
ATOM     98  H6  UNL A   1      46.546  16.567   5.233  1.00  0.00    +0.000 H 
ATOM     99  H7  UNL A   1      47.332  15.393   6.341  1.00  0.00    +0.000 H 
ATOM      6  C4  UNL A   1      47.463  16.175   5.621  1.00  0.00    +0.000 C 
BRANCH    6    7
ATOM    100  H8  UNL A   1      47.868  15.976   3.550  1.00  0.00    +0.000 H 
ATOM    101  H9  UNL A   1      48.065  14.489   4.539  1.00  0.00    +0.000 H 
ATOM      7  C5  UNL A   1      48.233  15.543   4.458  1.00  0.00    +0.000 C 
BRANCH    7    8
ATOM    102  H10 UNL A   1      49.986  16.512   5.163  1.00  0.00    +0.000 H 
ATOM    103  H11 UNL A   1      50.045  15.923   3.472  1.00  0.00    +0.000 H 
ATOM      8  C6  UNL A   1      49.757  15.720   4.482  1.00  0.00    +0.000 C 
BRANCH    8    9
ATOM      9  C7  UNL A   1      50.553  14.487   4.907  1.00  0.00    +0.000 C 
ATOM    105  H13 UNL A   1      50.020  14.008   5.702  1.00  0.00    +0.000 H 
ATOM    104  H12 UNL A   1      50.659  13.837   4.063  1.00  0.00    +0.000 H 
BRANCH    9   10
ATOM     10  N2  UNL A   1      51.874  14.834   5.399  1.00  0.00    +0.000 N 
ATOM    106  H14 UNL A   1      52.635  14.479   4.883  1.00  0.00    +0.000 H 
BRANCH   10   11
ATOM     11  C8  UNL A   1      52.192  15.598   6.493  1.00  0.00    +0.000 C 
ATOM     12  O2  UNL A   1      52.018  15.160   7.628  1.00  0.00    +0.000 O 
BRANCH   11   13
ATOM    107  H15 UNL A   1      50.903  17.947   6.686  1.00  0.00    +0.000 H 
ATOM    108  H16 UNL A   1      51.842  20.183   6.402  1.00  0.00    +0.000 H 
ATOM     13  C9  UNL A   1      52.738  16.956   6.321  1.00  0.00    +0.000 C 
ATOM     14  C10 UNL A   1      51.903  18.071   6.467  1.00  0.00    +0.000 C 
ATOM     15  C11 UNL A   1      52.435  19.344   6.314  1.00  0.00    +0.000 C 
ATOM     16  C12 UNL A   1      53.786  19.449   6.042  1.00  0.00    +0.000 C 
ATOM     17  N3  UNL A   1      54.616  18.389   5.933  1.00  0.00    +0.000 N 
ATOM     18  C13 UNL A   1      54.109  17.140   6.101  1.00  0.00    +0.000 C 
ATOM    109  H17 UNL A   1      54.183  20.393   5.915  1.00  0.00    +0.000 H 
BRANCH   18   19
ATOM     19  N4  UNL A   1      54.966  16.018   5.923  1.00  0.00    +0.000 N 
ATOM    110  H18 UNL A   1      55.176  15.469   6.712  1.00  0.00    +0.000 H 
BRANCH   19   20
ATOM    111  H19 UNL A   1      57.491  16.194   5.258  1.00  0.00    +0.000 H 
ATOM    112  H20 UNL A   1      58.519  15.640   3.134  1.00  0.00    +0.000 H 
ATOM    113  H21 UNL A   1      57.155  14.844   1.295  1.00  0.00    +0.000 H 
ATOM    114  H22 UNL A   1      53.731  15.145   3.718  1.00  0.00    +0.000 H 
ATOM     20  C14 UNL A   1      55.538  15.642   4.683  1.00  0.00    +0.000 C 
ATOM     21  C15 UNL A   1      56.910  15.829   4.487  1.00  0.00    +0.000 C 
ATOM     22  C16 UNL A   1      57.501  15.528   3.258  1.00  0.00    +0.000 C 
ATOM     23  C17 UNL A   1      56.714  15.076   2.198  1.00  0.00    +0.000 C 
ATOM     24  C18 UNL A   1      55.328  14.935   2.354  1.00  0.00    +0.000 C 
ATOM     25  C19 UNL A   1      54.476  14.464   1.204  1.00  0.00    +0.000 C 
ATOM     26  F1  UNL A   1      54.675  15.199   0.074  1.00  0.00    +0.000 F 
ATOM     27  F2  UNL A   1      54.738  13.173   0.856  1.00  0.00    +0.000 F 
ATOM     28  F3  UNL A   1      53.137  14.519   1.449  1.00  0.00    +0.000 F 
ATOM     29  C20 UNL A   1      54.753  15.232   3.599  1.00  0.00    +0.000 C 
ENDBRANCH   19   20
ENDBRANCH   18   19
ENDBRANCH   11   13
ENDBRANCH   10   11
ENDBRANCH    9   10
ENDBRANCH    8    9
ENDBRANCH    7    8
ENDBRANCH    6    7
ENDBRANCH    5    6
ENDBRANCH    4    5
ENDBRANCH    3    4
ENDBRANCH    2    3
ENDBRANCH   30    2
ENDBRANCH   34   33
BRANCH   38   39
ATOM     39  C29 UNL A   1      58.052  17.687  10.454  1.00  0.00    +0.000 C 
ATOM     40  C30 UNL A   1      58.054  16.285  10.424  1.00  0.00    +0.000 C 
ATOM     41  F4  UNL A   1      57.377  15.590  11.350  1.00  0.00    +0.000 F 
ATOM     42  C31 UNL A   1      58.775  15.589   9.456  1.00  0.00    +0.000 C 
ATOM     43  F5  UNL A   1      58.788  14.250   9.468  1.00  0.00    +0.000 F 
ATOM     44  C32 UNL A   1      59.483  16.280   8.485  1.00  0.00    +0.000 C 
ATOM     45  F6  UNL A   1      60.166  15.610   7.547  1.00  0.00    +0.000 F 
ATOM     46  C33 UNL A   1      59.486  17.667   8.489  1.00  0.00    +0.000 C 
ATOM     47  F7  UNL A   1      60.163  18.336   7.544  1.00  0.00    +0.000 F 
ATOM     48  C34 UNL A   1      58.787  18.366   9.470  1.00  0.00    +0.000 C 
ATOM     49  F8  UNL A   1      58.813  19.706   9.449  1.00  0.00    +0.000 F 
ENDBRANCH   38   39
BRANCH   55   56
ATOM     65  C45 UNL A   1      59.022  19.194  18.005  1.00  0.00    +0.000 C 
ATOM     66  F13 UNL A   1      58.261  18.096  17.888  1.00  0.00    +0.000 F 
ATOM     56  C40 UNL A   1      58.831  20.281  17.139  1.00  0.00    +0.000 C 
ATOM     57  C41 UNL A   1      59.651  21.408  17.306  1.00  0.00    +0.000 C 
ATOM     58  F9  UNL A   1      59.517  22.465  16.489  1.00  0.00    +0.000 F 
ATOM     59  C42 UNL A   1      60.644  21.433  18.281  1.00  0.00    +0.000 C 
ATOM     60  F10 UNL A   1      61.449  22.498  18.387  1.00  0.00    +0.000 F 
ATOM     61  C43 UNL A   1      60.814  20.347  19.128  1.00  0.00    +0.000 C 
ATOM     62  F11 UNL A   1      61.773  20.371  20.063  1.00  0.00    +0.000 F 
ATOM     63  C44 UNL A   1      59.999  19.233  18.996  1.00  0.00    +0.000 C 
ATOM     64  F12 UNL A   1      60.157  18.187  19.819  1.00  0.00    +0.000 F 
ENDBRANCH   55   56
BRANCH   70   71
ATOM     71  C49 UNL A   1      52.323  22.728  16.897  1.00  0.00    +0.000 C 
ATOM     72  C50 UNL A   1      51.603  22.058  17.895  1.00  0.00    +0.000 C 
ATOM     73  F14 UNL A   1      51.655  20.720  17.975  1.00  0.00    +0.000 F 
ATOM     74  C51 UNL A   1      50.801  22.758  18.794  1.00  0.00    +0.000 C 
ATOM     75  F15 UNL A   1      50.089  22.091  19.714  1.00  0.00    +0.000 F 
ATOM     76  C52 UNL A   1      50.727  24.142  18.731  1.00  0.00    +0.000 C 
ATOM     77  F16 UNL A   1      49.962  24.814  19.601  1.00  0.00    +0.000 F 
ATOM     78  C53 UNL A   1      51.443  24.827  17.762  1.00  0.00    +0.000 C 
ATOM     79  F17 UNL A   1      51.389  26.165  17.708  1.00  0.00    +0.000 F 
ATOM     80  C54 UNL A   1      52.220  24.126  16.844  1.00  0.00    +0.000 C 
ATOM     81  F18 UNL A   1      52.897  24.813  15.911  1.00  0.00    +0.000 F 
ENDBRANCH   70   71
TORSDOF 17
ENDMDL
MODEL 9
REMARK VINA RESULT:      -9.8     43.134     46.836
ROOT
ATOM     34  C25 UNL A   1      25.308  38.355  48.615  1.00  0.00    +0.000 C 
ATOM     35  C26 UNL A   1      26.597  39.086  48.368  1.00  0.00    +0.000 C 
ATOM     36  N5  UNL A   1      27.587  38.764  47.570  1.00  0.00    +0.000 N 
ATOM     37  C27 UNL A   1      28.528  39.776  47.701  1.00  0.00    +0.000 C 
ATOM     38  C28 UNL A   1      29.742  39.882  47.107  1.00  0.00    +0.000 C 
ATOM     50  C35 UNL A   1      30.285  38.917  46.185  1.00  0.00    +0.000 C 
ATOM     51  C36 UNL A   1      31.508  38.935  45.534  1.00  0.00    +0.000 C 
ATOM     52  C37 UNL A   1      31.588  37.802  44.717  1.00  0.00    +0.000 C 
ATOM     53  C38 UNL A   1      30.433  37.057  44.889  1.00  0.00    +0.000 C 
ATOM     54  N6  UNL A   1      29.638  37.757  45.784  1.00  0.00    +0.000 N 
ATOM     55  C39 UNL A   1      30.080  35.797  44.286  1.00  0.00    +0.000 C 
ATOM     67  C46 UNL A   1      28.926  35.122  44.508  1.00  0.00    +0.000 C 
ATOM     68  N7  UNL A   1      27.853  35.473  45.312  1.00  0.00    +0.000 N 
ATOM     69  C47 UNL A   1      26.963  34.523  45.159  1.00  0.00    +0.000 C 
ATOM     70  C48 UNL A   1      25.611  34.382  45.793  1.00  0.00    +0.000 C 
ATOM     82  C55 UNL A   1      25.185  35.335  46.642  1.00  0.00    +0.000 C 
ATOM     83  C56 UNL A   1      23.908  35.321  47.345  1.00  0.00    +0.000 C 
ATOM     84  C57 UNL A   1      23.808  36.435  48.085  1.00  0.00    +0.000 C 
ATOM     85  C58 UNL A   1      25.040  37.215  47.948  1.00  0.00    +0.000 C 
ATOM     86  N8  UNL A   1      25.787  36.501  47.048  1.00  0.00    +0.000 N 
ATOM     87  C59 UNL A   1      27.374  33.457  44.235  1.00  0.00    +0.000 C 
ATOM     88  C60 UNL A   1      28.593  33.853  43.896  1.00  0.00    +0.000 C 
ATOM     89  C61 UNL A   1      27.981  40.742  48.631  1.00  0.00    +0.000 C 
ATOM     90  C62 UNL A   1      26.806  40.343  49.102  1.00  0.00    +0.000 C 
ATOM    117  H25 UNL A   1      32.234  39.660  45.635  1.00  0.00    +0.000 H 
ATOM    118  H26 UNL A   1      32.373  37.563  44.092  1.00  0.00    +0.000 H 
ATOM    119  H27 UNL A   1      28.747  37.473  46.090  1.00  0.00    +0.000 H 
ATOM    120  H28 UNL A   1      23.197  34.576  47.283  1.00  0.00    +0.000 H 
ATOM    121  H29 UNL A   1      22.993  36.699  48.661  1.00  0.00    +0.000 H 
ATOM    122  H30 UNL A   1      26.668  36.795  46.723  1.00  0.00    +0.000 H 
ATOM    123  H31 UNL A   1      26.851  32.622  43.929  1.00  0.00    +0.000 H 
ATOM    124  H32 UNL A   1      29.224  33.323  43.275  1.00  0.00    +0.000 H 
ATOM    125  H33 UNL A   1      28.444  41.626  48.892  1.00  0.00    +0.000 H 
ATOM    126  H34 UNL A   1      26.199  40.796  49.802  1.00  0.00    +0.000 H 
ENDROOT
BRANCH   34   33
ATOM     33  C24 UNL A   1      24.330  38.826  49.628  1.00  0.00    +0.000 C 
ATOM    127  H35 UNL A   1      25.250  37.932  51.310  1.00  0.00    +0.000 H 
ATOM    115  H23 UNL A   1      21.686  40.887  49.855  1.00  0.00    +0.000 H 
ATOM    116  H24 UNL A   1      23.165  39.890  48.218  1.00  0.00    +0.000 H 
ATOM     91  C63 UNL A   1      24.458  38.509  50.989  1.00  0.00    +0.000 C 
ATOM     92  C64 UNL A   1      23.514  38.973  51.912  1.00  0.00    +0.000 C 
ATOM     32  C23 UNL A   1      23.280  39.666  49.219  1.00  0.00    +0.000 C 
ATOM     30  C21 UNL A   1      22.465  39.793  51.484  1.00  0.00    +0.000 C 
ATOM     31  C22 UNL A   1      22.394  40.197  50.150  1.00  0.00    +0.000 C 
ATOM    128  H36 UNL A   1      23.591  38.710  52.906  1.00  0.00    +0.000 H 
BRANCH   30    2
ATOM      1  O1  UNL A   1      21.723  41.075  53.304  1.00  0.00    +0.000 O 
ATOM      2  C1  UNL A   1      21.441  40.227  52.463  1.00  0.00    +0.000 C 
BRANCH    2    3
ATOM      3  N1  UNL A   1      20.191  39.656  52.445  1.00  0.00    +0.000 N 
ATOM     93  H1  UNL A   1      19.543  40.075  51.834  1.00  0.00    +0.000 H 
BRANCH    3    4
ATOM      4  C2  UNL A   1      19.693  38.522  53.202  1.00  0.00    +0.000 C 
ATOM     94  H2  UNL A   1      18.761  38.795  53.654  1.00  0.00    +0.000 H 
ATOM     95  H3  UNL A   1      20.434  38.274  53.934  1.00  0.00    +0.000 H 
BRANCH    4    5
ATOM     97  H5  UNL A   1      18.898  36.607  52.944  1.00  0.00    +0.000 H 
ATOM      5  C3  UNL A   1      19.470  37.284  52.345  1.00  0.00    +0.000 C 
ATOM     96  H4  UNL A   1      18.972  37.589  51.447  1.00  0.00    +0.000 H 
BRANCH    5    6
ATOM     98  H6  UNL A   1      20.628  35.513  52.273  1.00  0.00    +0.000 H 
ATOM     99  H7  UNL A   1      21.546  37.050  52.414  1.00  0.00    +0.000 H 
ATOM      6  C4  UNL A   1      20.736  36.527  51.948  1.00  0.00    +0.000 C 
BRANCH    6    7
ATOM    100  H8  UNL A   1      21.969  35.956  50.320  1.00  0.00    +0.000 H 
ATOM    101  H9  UNL A   1      21.128  37.535  50.157  1.00  0.00    +0.000 H 
ATOM      7  C5  UNL A   1      21.061  36.508  50.451  1.00  0.00    +0.000 C 
BRANCH    7    8
ATOM    102  H10 UNL A   1      19.665  36.642  48.857  1.00  0.00    +0.000 H 
ATOM    103  H11 UNL A   1      19.229  35.522  50.186  1.00  0.00    +0.000 H 
ATOM      8  C6  UNL A   1      19.998  35.887  49.537  1.00  0.00    +0.000 C 
BRANCH    8    9
ATOM      9  C7  UNL A   1      20.461  34.684  48.717  1.00  0.00    +0.000 C 
ATOM    105  H13 UNL A   1      21.421  34.916  48.304  1.00  0.00    +0.000 H 
ATOM    104  H12 UNL A   1      20.510  33.828  49.356  1.00  0.00    +0.000 H 
BRANCH    9   10
ATOM     10  N2  UNL A   1      19.559  34.395  47.616  1.00  0.00    +0.000 N 
ATOM    106  H14 UNL A   1      18.744  33.891  47.846  1.00  0.00    +0.000 H 
BRANCH   10   11
ATOM     11  C8  UNL A   1      19.702  34.739  46.296  1.00  0.00    +0.000 C 
ATOM     12  O2  UNL A   1      20.689  35.368  45.921  1.00  0.00    +0.000 O 
BRANCH   11   13
ATOM    107  H15 UNL A   1      19.631  32.586  44.689  1.00  0.00    +0.000 H 
ATOM    108  H16 UNL A   1      17.897  31.996  43.075  1.00  0.00    +0.000 H 
ATOM     13  C9  UNL A   1      18.669  34.367  45.313  1.00  0.00    +0.000 C 
ATOM     14  C10 UNL A   1      18.805  33.191  44.564  1.00  0.00    +0.000 C 
ATOM     15  C11 UNL A   1      17.817  32.848  43.651  1.00  0.00    +0.000 C 
ATOM     16  C12 UNL A   1      16.723  33.684  43.541  1.00  0.00    +0.000 C 
ATOM     17  N3  UNL A   1      16.555  34.803  44.279  1.00  0.00    +0.000 N 
ATOM     18  C13 UNL A   1      17.506  35.137  45.190  1.00  0.00    +0.000 C 
ATOM    109  H17 UNL A   1      15.992  33.440  42.855  1.00  0.00    +0.000 H 
BRANCH   18   19
ATOM     19  N4  UNL A   1      17.364  36.349  45.922  1.00  0.00    +0.000 N 
ATOM    110  H18 UNL A   1      17.899  37.124  45.638  1.00  0.00    +0.000 H 
BRANCH   19   20
ATOM    111  H19 UNL A   1      14.927  35.423  46.152  1.00  0.00    +0.000 H 
ATOM    112  H20 UNL A   1      13.381  35.727  47.992  1.00  0.00    +0.000 H 
ATOM    113  H21 UNL A   1      14.023  37.060  49.912  1.00  0.00    +0.000 H 
ATOM    114  H22 UNL A   1      17.774  37.772  48.148  1.00  0.00    +0.000 H 
ATOM     20  C14 UNL A   1      16.503  36.510  47.035  1.00  0.00    +0.000 C 
ATOM     21  C15 UNL A   1      15.216  35.968  46.979  1.00  0.00    +0.000 C 
ATOM     22  C16 UNL A   1      14.317  36.158  48.031  1.00  0.00    +0.000 C 
ATOM     23  C17 UNL A   1      14.686  36.931  49.132  1.00  0.00    +0.000 C 
ATOM     24  C18 UNL A   1      15.951  37.532  49.185  1.00  0.00    +0.000 C 
ATOM     25  C19 UNL A   1      16.343  38.380  50.367  1.00  0.00    +0.000 C 
ATOM     26  F1  UNL A   1      15.429  39.357  50.632  1.00  0.00    +0.000 F 
ATOM     27  F2  UNL A   1      16.452  37.656  51.516  1.00  0.00    +0.000 F 
ATOM     28  F3  UNL A   1      17.535  39.022  50.216  1.00  0.00    +0.000 F 
ATOM     29  C20 UNL A   1      16.846  37.321  48.125  1.00  0.00    +0.000 C 
ENDBRANCH   19   20
ENDBRANCH   18   19
ENDBRANCH   11   13
ENDBRANCH   10   11
ENDBRANCH    9   10
ENDBRANCH    8    9
ENDBRANCH    7    8
ENDBRANCH    6    7
ENDBRANCH    5    6
ENDBRANCH    4    5
ENDBRANCH    3    4
ENDBRANCH    2    3
ENDBRANCH   30    2
ENDBRANCH   34   33
BRANCH   38   39
ATOM     39  C29 UNL A   1      30.574  41.089  47.432  1.00  0.00    +0.000 C 
ATOM     40  C30 UNL A   1      30.337  42.328  46.818  1.00  0.00    +0.000 C 
ATOM     41  F4  UNL A   1      29.397  42.440  45.867  1.00  0.00    +0.000 F 
ATOM     42  C31 UNL A   1      31.083  43.453  47.161  1.00  0.00    +0.000 C 
ATOM     43  F5  UNL A   1      30.860  44.618  46.537  1.00  0.00    +0.000 F 
ATOM     44  C32 UNL A   1      32.060  43.368  48.140  1.00  0.00    +0.000 C 
ATOM     45  F6  UNL A   1      32.769  44.454  48.478  1.00  0.00    +0.000 F 
ATOM     46  C33 UNL A   1      32.305  42.156  48.769  1.00  0.00    +0.000 C 
ATOM     47  F7  UNL A   1      33.242  42.076  49.724  1.00  0.00    +0.000 F 
ATOM     48  C34 UNL A   1      31.577  41.024  48.411  1.00  0.00    +0.000 C 
ATOM     49  F8  UNL A   1      31.840  39.865  49.034  1.00  0.00    +0.000 F 
ENDBRANCH   38   39
BRANCH   55   56
ATOM     65  C45 UNL A   1      31.190  35.623  42.029  1.00  0.00    +0.000 C 
ATOM     66  F13 UNL A   1      30.430  36.638  41.592  1.00  0.00    +0.000 F 
ATOM     56  C40 UNL A   1      31.064  35.164  43.348  1.00  0.00    +0.000 C 
ATOM     57  C41 UNL A   1      31.879  34.096  43.755  1.00  0.00    +0.000 C 
ATOM     58  F9  UNL A   1      31.807  33.635  45.014  1.00  0.00    +0.000 F 
ATOM     59  C42 UNL A   1      32.806  33.532  42.884  1.00  0.00    +0.000 C 
ATOM     60  F10 UNL A   1      33.611  32.549  43.310  1.00  0.00    +0.000 F 
ATOM     61  C43 UNL A   1      32.913  34.001  41.583  1.00  0.00    +0.000 C 
ATOM     62  F11 UNL A   1      33.809  33.459  40.747  1.00  0.00    +0.000 F 
ATOM     63  C44 UNL A   1      32.100  35.038  41.153  1.00  0.00    +0.000 C 
ATOM     64  F12 UNL A   1      32.196  35.487  39.894  1.00  0.00    +0.000 F 
ENDBRANCH   55   56
BRANCH   70   71
ATOM     71  C49 UNL A   1      24.740  33.216  45.500  1.00  0.00    +0.000 C 
ATOM     72  C50 UNL A   1      23.697  33.306  44.570  1.00  0.00    +0.000 C 
ATOM     73  F14 UNL A   1      23.450  34.470  43.950  1.00  0.00    +0.000 F 
ATOM     74  C51 UNL A   1      22.880  32.211  44.298  1.00  0.00    +0.000 C 
ATOM     75  F15 UNL A   1      21.862  32.333  43.435  1.00  0.00    +0.000 F 
ATOM     76  C52 UNL A   1      23.111  30.997  44.929  1.00  0.00    +0.000 C 
ATOM     77  F16 UNL A   1      22.332  29.941  44.660  1.00  0.00    +0.000 F 
ATOM     78  C53 UNL A   1      24.149  30.879  45.841  1.00  0.00    +0.000 C 
ATOM     79  F17 UNL A   1      24.387  29.705  46.439  1.00  0.00    +0.000 F 
ATOM     80  C54 UNL A   1      24.945  31.983  46.136  1.00  0.00    +0.000 C 
ATOM     81  F18 UNL A   1      25.937  31.844  47.029  1.00  0.00    +0.000 F 
ENDBRANCH   70   71
TORSDOF 17
ENDMDL
MODEL 10
REMARK VINA RESULT:      -9.8      2.213      3.527
ROOT
ATOM     34  C25 UNL A   1      13.232  49.696   3.523  1.00  0.00    +0.000 C 
ATOM     35  C26 UNL A   1      14.145  49.334   2.387  1.00  0.00    +0.000 C 
ATOM     36  N5  UNL A   1      14.990  50.095   1.735  1.00  0.00    +0.000 N 
ATOM     37  C27 UNL A   1      15.595  49.275   0.792  1.00  0.00    +0.000 C 
ATOM     38  C28 UNL A   1      16.516  49.604  -0.146  1.00  0.00    +0.000 C 
ATOM     50  C35 UNL A   1      17.058  50.927  -0.328  1.00  0.00    +0.000 C 
ATOM     51  C36 UNL A   1      17.992  51.359  -1.255  1.00  0.00    +0.000 C 
ATOM     52  C37 UNL A   1      18.232  52.720  -1.036  1.00  0.00    +0.000 C 
ATOM     53  C38 UNL A   1      17.417  53.146   0.001  1.00  0.00    +0.000 C 
ATOM     54  N6  UNL A   1      16.710  52.034   0.432  1.00  0.00    +0.000 N 
ATOM     55  C39 UNL A   1      17.289  54.469   0.555  1.00  0.00    +0.000 C 
ATOM     67  C46 UNL A   1      16.461  54.811   1.572  1.00  0.00    +0.000 C 
ATOM     68  N7  UNL A   1      15.599  54.008   2.301  1.00  0.00    +0.000 N 
ATOM     69  C47 UNL A   1      15.054  54.790   3.201  1.00  0.00    +0.000 C 
ATOM     70  C48 UNL A   1      14.042  54.454   4.256  1.00  0.00    +0.000 C 
ATOM     82  C55 UNL A   1      13.593  53.190   4.354  1.00  0.00    +0.000 C 
ATOM     83  C56 UNL A   1      12.599  52.725   5.313  1.00  0.00    +0.000 C 
ATOM     84  C57 UNL A   1      12.410  51.409   5.139  1.00  0.00    +0.000 C 
ATOM     85  C58 UNL A   1      13.234  50.949   4.019  1.00  0.00    +0.000 C 
ATOM     86  N8  UNL A   1      13.926  52.068   3.634  1.00  0.00    +0.000 N 
ATOM     87  C59 UNL A   1      15.514  56.183   3.145  1.00  0.00    +0.000 C 
ATOM     88  C60 UNL A   1      16.342  56.150   2.111  1.00  0.00    +0.000 C 
ATOM     89  C61 UNL A   1      15.046  47.947   0.976  1.00  0.00    +0.000 C 
ATOM     90  C62 UNL A   1      14.117  47.939   1.923  1.00  0.00    +0.000 C 
ATOM    117  H25 UNL A   1      18.436  50.777  -1.982  1.00  0.00    +0.000 H 
ATOM    118  H26 UNL A   1      18.903  53.307  -1.556  1.00  0.00    +0.000 H 
ATOM    119  H27 UNL A   1      16.057  52.030   1.168  1.00  0.00    +0.000 H 
ATOM    120  H28 UNL A   1      12.118  53.312   6.013  1.00  0.00    +0.000 H 
ATOM    121  H29 UNL A   1      11.784  50.815   5.705  1.00  0.00    +0.000 H 
ATOM    122  H30 UNL A   1      14.596  52.068   2.913  1.00  0.00    +0.000 H 
ATOM    123  H31 UNL A   1      15.261  56.978   3.753  1.00  0.00    +0.000 H 
ATOM    124  H32 UNL A   1      16.839  56.974   1.737  1.00  0.00    +0.000 H 
ATOM    125  H33 UNL A   1      15.340  47.116   0.439  1.00  0.00    +0.000 H 
ATOM    126  H34 UNL A   1      13.528  47.157   2.248  1.00  0.00    +0.000 H 
ENDROOT
BRANCH   34   33
ATOM     33  C24 UNL A   1      12.270  48.716   4.089  1.00  0.00    +0.000 C 
ATOM    127  H35 UNL A   1      13.590  47.835   5.487  1.00  0.00    +0.000 H 
ATOM    115  H23 UNL A   1       8.998  47.967   3.920  1.00  0.00    +0.000 H 
ATOM    116  H24 UNL A   1      10.669  49.368   2.867  1.00  0.00    +0.000 H 
ATOM     91  C63 UNL A   1      12.631  47.823   5.109  1.00  0.00    +0.000 C 
ATOM     92  C64 UNL A   1      11.693  46.916   5.614  1.00  0.00    +0.000 C 
ATOM     32  C23 UNL A   1      10.941  48.728   3.631  1.00  0.00    +0.000 C 
ATOM     30  C21 UNL A   1      10.379  46.929   5.134  1.00  0.00    +0.000 C 
ATOM     31  C22 UNL A   1       9.990  47.886   4.195  1.00  0.00    +0.000 C 
ATOM    128  H36 UNL A   1      11.971  46.237   6.340  1.00  0.00    +0.000 H 
BRANCH   30    2
ATOM      1  O1  UNL A   1       8.481  45.566   4.924  1.00  0.00    +0.000 O 
ATOM      2  C1  UNL A   1       9.416  45.923   5.636  1.00  0.00    +0.000 C 
BRANCH    2    3
ATOM      3  N1  UNL A   1       9.554  45.415   6.906  1.00  0.00    +0.000 N 
ATOM     93  H1  UNL A   1      10.094  44.596   6.978  1.00  0.00    +0.000 H 
BRANCH    3    4
ATOM      4  C2  UNL A   1       9.013  45.920   8.156  1.00  0.00    +0.000 C 
ATOM     94  H2  UNL A   1       8.732  45.087   8.767  1.00  0.00    +0.000 H 
ATOM     95  H3  UNL A   1       8.174  46.540   7.915  1.00  0.00    +0.000 H 
BRANCH    4    5
ATOM     97  H5  UNL A   1       9.932  46.465   9.951  1.00  0.00    +0.000 H 
ATOM      5  C3  UNL A   1      10.004  46.777   8.931  1.00  0.00    +0.000 C 
ATOM     96  H4  UNL A   1      10.974  46.629   8.504  1.00  0.00    +0.000 H 
BRANCH    5    6
ATOM     98  H6  UNL A   1       8.920  48.458   9.626  1.00  0.00    +0.000 H 
ATOM     99  H7  UNL A   1       9.466  48.524   7.917  1.00  0.00    +0.000 H 
ATOM      6  C4  UNL A   1       9.712  48.277   8.929  1.00  0.00    +0.000 C 
BRANCH    6    7
ATOM    100  H8  UNL A   1      11.065  49.072  10.354  1.00  0.00    +0.000 H 
ATOM    101  H9  UNL A   1      10.591  50.173   9.015  1.00  0.00    +0.000 H 
ATOM      7  C5  UNL A   1      10.886  49.186   9.305  1.00  0.00    +0.000 C 
BRANCH    7    8
ATOM    102  H10 UNL A   1      12.369  49.723   7.884  1.00  0.00    +0.000 H 
ATOM    103  H11 UNL A   1      12.096  47.966   8.102  1.00  0.00    +0.000 H 
ATOM      8  C6  UNL A   1      12.207  48.921   8.572  1.00  0.00    +0.000 C 
BRANCH    8    9
ATOM      9  C7  UNL A   1      13.441  48.809   9.466  1.00  0.00    +0.000 C 
ATOM    105  H13 UNL A   1      13.941  49.756   9.456  1.00  0.00    +0.000 H 
ATOM    104  H12 UNL A   1      13.129  48.546  10.455  1.00  0.00    +0.000 H 
BRANCH    9   10
ATOM     10  N2  UNL A   1      14.373  47.806   8.985  1.00  0.00    +0.000 N 
ATOM    106  H14 UNL A   1      14.000  46.907   8.832  1.00  0.00    +0.000 H 
BRANCH   10   11
ATOM     11  C8  UNL A   1      15.711  47.956   8.717  1.00  0.00    +0.000 C 
ATOM     12  O2  UNL A   1      16.551  47.390   9.413  1.00  0.00    +0.000 O 
BRANCH   11   13
ATOM    107  H15 UNL A   1      15.249  47.628   6.090  1.00  0.00    +0.000 H 
ATOM    108  H16 UNL A   1      15.996  49.064   4.262  1.00  0.00    +0.000 H 
ATOM     13  C9  UNL A   1      16.155  48.807   7.599  1.00  0.00    +0.000 C 
ATOM     14  C10 UNL A   1      15.808  48.473   6.284  1.00  0.00    +0.000 C 
ATOM     15  C11 UNL A   1      16.224  49.292   5.242  1.00  0.00    +0.000 C 
ATOM     16  C12 UNL A   1      16.952  50.421   5.562  1.00  0.00    +0.000 C 
ATOM     17  N3  UNL A   1      17.267  50.780   6.825  1.00  0.00    +0.000 N 
ATOM     18  C13 UNL A   1      16.847  49.998   7.853  1.00  0.00    +0.000 C 
ATOM    109  H17 UNL A   1      17.274  51.026   4.790  1.00  0.00    +0.000 H 
BRANCH   18   19
ATOM     19  N4  UNL A   1      17.232  50.337   9.180  1.00  0.00    +0.000 N 
ATOM    110  H18 UNL A   1      18.134  50.081   9.478  1.00  0.00    +0.000 H 
BRANCH   19   20
ATOM    111  H19 UNL A   1      17.256  50.081  11.784  1.00  0.00    +0.000 H 
ATOM    112  H20 UNL A   1      15.813  51.159  13.405  1.00  0.00    +0.000 H 
ATOM    113  H21 UNL A   1      14.060  52.661  12.663  1.00  0.00    +0.000 H 
ATOM    114  H22 UNL A   1      15.212  52.013   8.670  1.00  0.00    +0.000 H 
ATOM     20  C14 UNL A   1      16.399  51.019  10.101  1.00  0.00    +0.000 C 
ATOM     21  C15 UNL A   1      16.530  50.741  11.465  1.00  0.00    +0.000 C 
ATOM     22  C16 UNL A   1      15.687  51.347  12.399  1.00  0.00    +0.000 C 
ATOM     23  C17 UNL A   1      14.675  52.206  11.970  1.00  0.00    +0.000 C 
ATOM     24  C18 UNL A   1      14.488  52.455  10.604  1.00  0.00    +0.000 C 
ATOM     25  C19 UNL A   1      13.384  53.370  10.140  1.00  0.00    +0.000 C 
ATOM     26  F1  UNL A   1      12.169  53.018  10.648  1.00  0.00    +0.000 F 
ATOM     27  F2  UNL A   1      13.582  54.663  10.521  1.00  0.00    +0.000 F 
ATOM     28  F3  UNL A   1      13.223  53.401   8.788  1.00  0.00    +0.000 F 
ATOM     29  C20 UNL A   1      15.352  51.847   9.680  1.00  0.00    +0.000 C 
ENDBRANCH   19   20
ENDBRANCH   18   19
ENDBRANCH   11   13
ENDBRANCH   10   11
ENDBRANCH    9   10
ENDBRANCH    8    9
ENDBRANCH    7    8
ENDBRANCH    6    7
ENDBRANCH    5    6
ENDBRANCH    4    5
ENDBRANCH    3    4
ENDBRANCH    2    3
ENDBRANCH   30    2
ENDBRANCH   34   33
BRANCH   38   39
ATOM     39  C29 UNL A   1      17.005  48.513  -1.056  1.00  0.00    +0.000 C 
ATOM     40  C30 UNL A   1      18.114  47.722  -0.718  1.00  0.00    +0.000 C 
ATOM     41  F4  UNL A   1      18.807  47.975   0.403  1.00  0.00    +0.000 F 
ATOM     42  C31 UNL A   1      18.531  46.682  -1.545  1.00  0.00    +0.000 C 
ATOM     43  F5  UNL A   1      19.612  45.961  -1.218  1.00  0.00    +0.000 F 
ATOM     44  C32 UNL A   1      17.834  46.396  -2.709  1.00  0.00    +0.000 C 
ATOM     45  F6  UNL A   1      18.230  45.387  -3.498  1.00  0.00    +0.000 F 
ATOM     46  C33 UNL A   1      16.729  47.158  -3.057  1.00  0.00    +0.000 C 
ATOM     47  F7  UNL A   1      16.048  46.875  -4.177  1.00  0.00    +0.000 F 
ATOM     48  C34 UNL A   1      16.324  48.214  -2.245  1.00  0.00    +0.000 C 
ATOM     49  F8  UNL A   1      15.254  48.935  -2.611  1.00  0.00    +0.000 F 
ENDBRANCH   38   39
BRANCH   55   56
ATOM     65  C45 UNL A   1      19.346  55.926   0.536  1.00  0.00    +0.000 C 
ATOM     66  F13 UNL A   1      19.792  55.288   1.628  1.00  0.00    +0.000 F 
ATOM     56  C40 UNL A   1      18.119  55.567  -0.040  1.00  0.00    +0.000 C 
ATOM     57  C41 UNL A   1      17.695  56.268  -1.180  1.00  0.00    +0.000 C 
ATOM     58  F9  UNL A   1      16.537  55.947  -1.777  1.00  0.00    +0.000 F 
ATOM     59  C42 UNL A   1      18.486  57.269  -1.738  1.00  0.00    +0.000 C 
ATOM     60  F10 UNL A   1      18.086  57.889  -2.857  1.00  0.00    +0.000 F 
ATOM     61  C43 UNL A   1      19.695  57.609  -1.151  1.00  0.00    +0.000 C 
ATOM     62  F11 UNL A   1      20.456  58.570  -1.692  1.00  0.00    +0.000 F 
ATOM     63  C44 UNL A   1      20.121  56.946  -0.010  1.00  0.00    +0.000 C 
ATOM     64  F12 UNL A   1      21.286  57.279   0.562  1.00  0.00    +0.000 F 
ENDBRANCH   55   56
BRANCH   70   71
ATOM     71  C49 UNL A   1      13.531  55.489   5.190  1.00  0.00    +0.000 C 
ATOM     72  C50 UNL A   1      12.495  56.355   4.818  1.00  0.00    +0.000 C 
ATOM     73  F14 UNL A   1      11.967  56.278   3.588  1.00  0.00    +0.000 F 
ATOM     74  C51 UNL A   1      12.020  57.326   5.697  1.00  0.00    +0.000 C 
ATOM     75  F15 UNL A   1      11.056  58.170   5.304  1.00  0.00    +0.000 F 
ATOM     76  C52 UNL A   1      12.552  57.429   6.975  1.00  0.00    +0.000 C 
ATOM     77  F16 UNL A   1      12.087  58.357   7.823  1.00  0.00    +0.000 F 
ATOM     78  C53 UNL A   1      13.567  56.572   7.371  1.00  0.00    +0.000 C 
ATOM     79  F17 UNL A   1      14.071  56.656   8.609  1.00  0.00    +0.000 F 
ATOM     80  C54 UNL A   1      14.063  55.623   6.482  1.00  0.00    +0.000 C 
ATOM     81  F18 UNL A   1      15.052  54.812   6.887  1.00  0.00    +0.000 F 
ENDBRANCH   70   71
TORSDOF 17
ENDMDL
