MODEL 1
REMARK VINA RESULT:      -6.3      0.000      0.000
ROOT
ATOM    138  H39 UNL A   1      59.431  15.612  -1.104  1.00  0.00    +0.000 H 
ATOM    139  H40 UNL A   1      61.518  15.368   0.441  1.00  0.00    +0.000 H 
ATOM    140  H41 UNL A   1      58.133  15.414   2.826  1.00  0.00    +0.000 H 
ATOM    141  H42 UNL A   1      55.481  15.469   8.634  1.00  0.00    +0.000 H 
ATOM    142  H43 UNL A   1      53.453  15.696   7.121  1.00  0.00    +0.000 H 
ATOM    143  H44 UNL A   1      56.827  15.511   4.702  1.00  0.00    +0.000 H 
ATOM    144  H45 UNL A   1      60.742  15.001   7.805  1.00  0.00    +0.000 H 
ATOM    145  H46 UNL A   1      62.237  15.153   5.733  1.00  0.00    +0.000 H 
ATOM    146  H47 UNL A   1      54.142  15.659  -0.190  1.00  0.00    +0.000 H 
ATOM    147  H48 UNL A   1      52.667  16.038   1.868  1.00  0.00    +0.000 H 
ATOM     41  C29 UNL A   1      54.071  15.809   4.340  1.00  0.00    +0.000 C 
ATOM     42  C30 UNL A   1      54.643  15.773   2.951  1.00  0.00    +0.000 C 
ATOM     43  N7  UNL A   1      55.888  15.636   2.572  1.00  0.00    +0.000 N 
ATOM     44  C31 UNL A   1      55.862  15.624   1.184  1.00  0.00    +0.000 C 
ATOM     45  C32 UNL A   1      56.904  15.567   0.320  1.00  0.00    +0.000 C 
ATOM     57  C39 UNL A   1      58.284  15.512   0.721  1.00  0.00    +0.000 C 
ATOM     58  C40 UNL A   1      59.415  15.529  -0.075  1.00  0.00    +0.000 C 
ATOM     59  C41 UNL A   1      60.536  15.414   0.756  1.00  0.00    +0.000 C 
ATOM     60  C42 UNL A   1      60.104  15.372   2.072  1.00  0.00    +0.000 C 
ATOM     61  N8  UNL A   1      58.720  15.430   2.036  1.00  0.00    +0.000 N 
ATOM     62  C43 UNL A   1      60.893  15.284   3.273  1.00  0.00    +0.000 C 
ATOM     74  C50 UNL A   1      60.394  15.261   4.533  1.00  0.00    +0.000 C 
ATOM     75  N9  UNL A   1      59.072  15.313   4.951  1.00  0.00    +0.000 N 
ATOM     76  C51 UNL A   1      59.103  15.240   6.258  1.00  0.00    +0.000 C 
ATOM     77  C52 UNL A   1      57.962  15.278   7.239  1.00  0.00    +0.000 C 
ATOM     89  C59 UNL A   1      56.706  15.425   6.778  1.00  0.00    +0.000 C 
ATOM     90  C60 UNL A   1      55.503  15.505   7.603  1.00  0.00    +0.000 C 
ATOM     91  C61 UNL A   1      54.433  15.633   6.803  1.00  0.00    +0.000 C 
ATOM     92  C62 UNL A   1      54.878  15.671   5.410  1.00  0.00    +0.000 C 
ATOM     93  N10 UNL A   1      56.240  15.532   5.491  1.00  0.00    +0.000 N 
ATOM     94  C63 UNL A   1      60.454  15.110   6.820  1.00  0.00    +0.000 C 
ATOM     95  C64 UNL A   1      61.205  15.170   5.730  1.00  0.00    +0.000 C 
ATOM     96  C65 UNL A   1      54.475  15.714   0.786  1.00  0.00    +0.000 C 
ATOM     97  C66 UNL A   1      53.686  15.878   1.838  1.00  0.00    +0.000 C 
ENDROOT
BRANCH   41   40
ATOM     98  C67 UNL A   1      52.044  17.219   4.725  1.00  0.00    +0.000 C 
ATOM     99  C68 UNL A   1      50.679  17.353   4.962  1.00  0.00    +0.000 C 
ATOM     37  C25 UNL A   1      49.849  16.229   4.915  1.00  0.00    +0.000 C 
ATOM     38  C26 UNL A   1      50.399  14.957   4.737  1.00  0.00    +0.000 C 
ATOM     39  C27 UNL A   1      51.777  14.816   4.570  1.00  0.00    +0.000 C 
ATOM    136  H37 UNL A   1      49.788  14.125   4.732  1.00  0.00    +0.000 H 
ATOM     40  C28 UNL A   1      52.608  15.947   4.540  1.00  0.00    +0.000 C 
ATOM    137  H38 UNL A   1      52.188  13.875   4.467  1.00  0.00    +0.000 H 
ATOM    148  H49 UNL A   1      52.644  18.058   4.684  1.00  0.00    +0.000 H 
ATOM    149  H50 UNL A   1      50.280  18.281   5.174  1.00  0.00    +0.000 H 
BRANCH   37   35
ATOM     35  C24 UNL A   1      48.383  16.349   5.075  1.00  0.00    +0.000 C 
ATOM     36  O5  UNL A   1      47.758  15.468   5.645  1.00  0.00    +0.000 O 
BRANCH   35   34
ATOM     34  N6  UNL A   1      47.730  17.444   4.569  1.00  0.00    +0.000 N 
ATOM    135  H36 UNL A   1      47.740  17.525   3.588  1.00  0.00    +0.000 H 
BRANCH   34   33
ATOM     33  C23 UNL A   1      47.025  18.498   5.274  1.00  0.00    +0.000 C 
ATOM    133  H34 UNL A   1      45.986  18.445   5.024  1.00  0.00    +0.000 H 
ATOM    134  H35 UNL A   1      47.182  18.354   6.323  1.00  0.00    +0.000 H 
BRANCH   33   32
ATOM    131  H32 UNL A   1      48.383  19.761   4.256  1.00  0.00    +0.000 H 
ATOM    132  H33 UNL A   1      46.726  20.402   4.460  1.00  0.00    +0.000 H 
ATOM     32  C22 UNL A   1      47.546  19.883   4.911  1.00  0.00    +0.000 C 
BRANCH   32   31
ATOM    129  H30 UNL A   1      48.946  21.162   5.860  1.00  0.00    +0.000 H 
ATOM    130  H31 UNL A   1      47.221  21.469   6.239  1.00  0.00    +0.000 H 
ATOM     31  C21 UNL A   1      47.991  20.739   6.098  1.00  0.00    +0.000 C 
BRANCH   31   30
ATOM     30  C20 UNL A   1      48.121  20.000   7.432  1.00  0.00    +0.000 C 
ATOM    127  H28 UNL A   1      47.980  20.711   8.219  1.00  0.00    +0.000 H 
ATOM    128  H29 UNL A   1      47.383  19.227   7.414  1.00  0.00    +0.000 H 
BRANCH   30   29
ATOM    125  H26 UNL A   1      49.503  18.989   8.688  1.00  0.00    +0.000 H 
ATOM     29  C19 UNL A   1      49.462  19.300   7.664  1.00  0.00    +0.000 C 
ATOM    126  H27 UNL A   1      49.499  18.484   6.974  1.00  0.00    +0.000 H 
BRANCH   29   28
ATOM    124  H25 UNL A   1      50.475  21.157   7.695  1.00  0.00    +0.000 H 
ATOM    123  H24 UNL A   1      50.903  20.120   6.332  1.00  0.00    +0.000 H 
ATOM     28  C18 UNL A   1      50.689  20.158   7.380  1.00  0.00    +0.000 C 
BRANCH   28   27
ATOM    122  H23 UNL A   1      52.647  20.273   8.044  1.00  0.00    +0.000 H 
ATOM     27  N5  UNL A   1      51.851  19.697   8.111  1.00  0.00    +0.000 N 
BRANCH   27   25
ATOM     25  C17 UNL A   1      52.003  18.582   8.877  1.00  0.00    +0.000 C 
ATOM     26  O4  UNL A   1      52.027  17.494   8.292  1.00  0.00    +0.000 O 
BRANCH   25   22
ATOM    118  H19 UNL A   1      52.044  17.609  10.734  1.00  0.00    +0.000 H 
ATOM     22  C15 UNL A   1      52.078  18.627  10.409  1.00  0.00    +0.000 C 
BRANCH   22   21
ATOM    117  H18 UNL A   1      53.456  20.122  11.043  1.00  0.00    +0.000 H 
ATOM     21  N4  UNL A   1      53.351  19.152  10.912  1.00  0.00    +0.000 N 
BRANCH   21   19
ATOM     19  C14 UNL A   1      54.387  18.322  11.199  1.00  0.00    +0.000 C 
ATOM     20  O2  UNL A   1      54.231  17.131  10.922  1.00  0.00    +0.000 O 
BRANCH   19   16
ATOM    113  H14 UNL A   1      56.457  18.159  11.556  1.00  0.00    +0.000 H 
ATOM     16  C12 UNL A   1      55.691  18.854  11.830  1.00  0.00    +0.000 C 
BRANCH   16   15
ATOM     15  N3  UNL A   1      56.004  20.148  11.243  1.00  0.00    +0.000 N 
ATOM    112  H13 UNL A   1      55.666  20.955  11.693  1.00  0.00    +0.000 H 
BRANCH   15   13
ATOM     13  C11 UNL A   1      56.744  20.306  10.096  1.00  0.00    +0.000 C 
ATOM     14  O1  UNL A   1      57.970  20.227  10.214  1.00  0.00    +0.000 O 
BRANCH   13    2
ATOM      2  C1  UNL A   1      56.076  20.489   8.703  1.00  0.00    +0.000 C 
ATOM    103  H4  UNL A   1      55.059  20.761   8.892  1.00  0.00    +0.000 H 
BRANCH    2    1
ATOM      1  N1  UNL A   1      56.668  21.637   7.982  1.00  0.00    +0.000 N 
ATOM    100  H1  UNL A   1      57.164  22.233   8.645  1.00  0.00    +0.000 H 
ATOM    101  H2  UNL A   1      55.926  22.173   7.531  1.00  0.00    +0.000 H 
ATOM    102  H3  UNL A   1      57.320  21.295   7.277  1.00  0.00    +0.000 H 
ENDBRANCH    2    1
BRANCH    2    3
ATOM    105  H6  UNL A   1      56.481  18.509   8.296  1.00  0.00    +0.000 H 
ATOM      3  C2  UNL A   1      55.781  19.207   7.887  1.00  0.00    +0.000 C 
ATOM    104  H5  UNL A   1      54.737  19.011   8.000  1.00  0.00    +0.000 H 
BRANCH    3    4
ATOM      4  C3  UNL A   1      56.074  19.130   6.403  1.00  0.00    +0.000 C 
ATOM      5  C4  UNL A   1      55.205  19.092   5.325  1.00  0.00    +0.000 C 
ATOM      6  N2  UNL A   1      55.937  19.168   4.168  1.00  0.00    +0.000 N 
ATOM      7  C5  UNL A   1      57.277  19.096   4.451  1.00  0.00    +0.000 C 
ATOM      8  C6  UNL A   1      58.382  19.087   3.588  1.00  0.00    +0.000 C 
ATOM      9  C7  UNL A   1      59.645  18.912   4.158  1.00  0.00    +0.000 C 
ATOM    106  H7  UNL A   1      54.177  19.020   5.384  1.00  0.00    +0.000 H 
ATOM     11  C9  UNL A   1      58.684  18.837   6.384  1.00  0.00    +0.000 C 
ATOM     12  C10 UNL A   1      57.395  19.007   5.838  1.00  0.00    +0.000 C 
ATOM     10  C8  UNL A   1      59.796  18.770   5.535  1.00  0.00    +0.000 C 
ATOM    107  H8  UNL A   1      55.555  19.260   3.265  1.00  0.00    +0.000 H 
ATOM    111  H12 UNL A   1      58.809  18.762   7.405  1.00  0.00    +0.000 H 
ATOM    108  H9  UNL A   1      58.265  19.204   2.569  1.00  0.00    +0.000 H 
ATOM    110  H11 UNL A   1      60.735  18.615   5.932  1.00  0.00    +0.000 H 
ATOM    109  H10 UNL A   1      60.478  18.887   3.549  1.00  0.00    +0.000 H 
ENDBRANCH    3    4
ENDBRANCH    2    3
ENDBRANCH   13    2
ENDBRANCH   15   13
ENDBRANCH   16   15
BRANCH   16   17
ATOM     17  C13 UNL A   1      55.919  18.690  13.340  1.00  0.00    +0.000 C 
ATOM    114  H15 UNL A   1      55.004  18.948  13.830  1.00  0.00    +0.000 H 
ATOM    115  H16 UNL A   1      56.752  19.324  13.558  1.00  0.00    +0.000 H 
BRANCH   17   18
ATOM     18  S1  UNL A   1      56.419  17.046  13.949  1.00  0.00    +0.000 S 
ATOM    116  H17 UNL A   1      57.604  17.148  14.608  1.00  0.00    +0.000 H 
ENDBRANCH   17   18
ENDBRANCH   16   17
ENDBRANCH   19   16
ENDBRANCH   21   19
ENDBRANCH   22   21
BRANCH   22   23
ATOM    119  H20 UNL A   1      50.231  18.587  11.483  1.00  0.00    +0.000 H 
ATOM     23  C16 UNL A   1      50.858  19.327  11.031  1.00  0.00    +0.000 C 
ATOM    120  H21 UNL A   1      50.347  19.850  10.250  1.00  0.00    +0.000 H 
BRANCH   23   24
ATOM    121  H22 UNL A   1      50.453  20.511  12.559  1.00  0.00    +0.000 H 
ATOM     24  O3  UNL A   1      51.229  20.282  12.025  1.00  0.00    +0.000 O 
ENDBRANCH   23   24
ENDBRANCH   22   23
ENDBRANCH   25   22
ENDBRANCH   27   25
ENDBRANCH   28   27
ENDBRANCH   29   28
ENDBRANCH   30   29
ENDBRANCH   31   30
ENDBRANCH   32   31
ENDBRANCH   33   32
ENDBRANCH   34   33
ENDBRANCH   35   34
ENDBRANCH   37   35
ENDBRANCH   41   40
BRANCH   45   46
ATOM     46  C33 UNL A   1      56.590  15.570  -1.148  1.00  0.00    +0.000 C 
ATOM     47  C34 UNL A   1      56.169  14.406  -1.811  1.00  0.00    +0.000 C 
ATOM     48  F1  UNL A   1      56.083  13.244  -1.148  1.00  0.00    +0.000 F 
ATOM     49  C35 UNL A   1      55.871  14.426  -3.172  1.00  0.00    +0.000 C 
ATOM     50  F2  UNL A   1      55.517  13.293  -3.794  1.00  0.00    +0.000 F 
ATOM     51  C36 UNL A   1      55.952  15.611  -3.886  1.00  0.00    +0.000 C 
ATOM     52  F3  UNL A   1      55.660  15.630  -5.193  1.00  0.00    +0.000 F 
ATOM     53  C37 UNL A   1      56.347  16.776  -3.246  1.00  0.00    +0.000 C 
ATOM     54  F4  UNL A   1      56.416  17.926  -3.932  1.00  0.00    +0.000 F 
ATOM     55  C38 UNL A   1      56.673  16.755  -1.892  1.00  0.00    +0.000 C 
ATOM     56  F5  UNL A   1      57.067  17.896  -1.305  1.00  0.00    +0.000 F 
ENDBRANCH   45   46
BRANCH   62   63
ATOM     65  F6  UNL A   1      62.571  17.604   3.172  1.00  0.00    +0.000 F 
ATOM     66  C46 UNL A   1      64.546  16.337   2.983  1.00  0.00    +0.000 C 
ATOM     67  F7  UNL A   1      65.264  17.467   2.921  1.00  0.00    +0.000 F 
ATOM     68  C47 UNL A   1      65.182  15.107   2.908  1.00  0.00    +0.000 C 
ATOM     69  F8  UNL A   1      66.516  15.048   2.795  1.00  0.00    +0.000 F 
ATOM     70  C48 UNL A   1      64.436  13.939   2.944  1.00  0.00    +0.000 C 
ATOM     71  F9  UNL A   1      65.051  12.750   2.884  1.00  0.00    +0.000 F 
ATOM     72  C49 UNL A   1      63.049  14.000   3.039  1.00  0.00    +0.000 C 
ATOM     73  F10 UNL A   1      62.352  12.854   3.059  1.00  0.00    +0.000 F 
ATOM     63  C44 UNL A   1      62.385  15.233   3.126  1.00  0.00    +0.000 C 
ATOM     64  C45 UNL A   1      63.161  16.401   3.108  1.00  0.00    +0.000 C 
ENDBRANCH   62   63
BRANCH   77   78
ATOM     78  C53 UNL A   1      58.210  15.188   8.701  1.00  0.00    +0.000 C 
ATOM     79  C54 UNL A   1      58.331  16.346   9.483  1.00  0.00    +0.000 C 
ATOM     80  F11 UNL A   1      58.244  17.554   8.906  1.00  0.00    +0.000 F 
ATOM     81  C55 UNL A   1      58.584  16.268  10.850  1.00  0.00    +0.000 C 
ATOM     82  F12 UNL A   1      58.740  17.390  11.566  1.00  0.00    +0.000 F 
ATOM     83  C56 UNL A   1      58.691  15.030  11.468  1.00  0.00    +0.000 C 
ATOM     84  F13 UNL A   1      58.931  14.956  12.784  1.00  0.00    +0.000 F 
ATOM     85  C57 UNL A   1      58.556  13.872  10.718  1.00  0.00    +0.000 C 
ATOM     86  F14 UNL A   1      58.644  12.674  11.314  1.00  0.00    +0.000 F 
ATOM     87  C58 UNL A   1      58.329  13.949   9.345  1.00  0.00    +0.000 C 
ATOM     88  F15 UNL A   1      58.213  12.812   8.644  1.00  0.00    +0.000 F 
ENDBRANCH   77   78
TORSDOF 28
ENDMDL
MODEL 2
REMARK VINA RESULT:      -5.7     33.332     38.627
ROOT
ATOM    138  H39 UNL A   1      52.151  54.005  21.610  1.00  0.00    +0.000 H 
ATOM    139  H40 UNL A   1      52.849  56.043  20.140  1.00  0.00    +0.000 H 
ATOM    140  H41 UNL A   1      49.670  54.135  18.294  1.00  0.00    +0.000 H 
ATOM    141  H42 UNL A   1      45.720  53.573  13.310  1.00  0.00    +0.000 H 
ATOM    142  H43 UNL A   1      45.039  51.596  14.754  1.00  0.00    +0.000 H 
ATOM    143  H44 UNL A   1      48.137  53.578  16.691  1.00  0.00    +0.000 H 
ATOM    144  H45 UNL A   1      49.336  57.484  13.772  1.00  0.00    +0.000 H 
ATOM    145  H46 UNL A   1      51.228  57.971  15.426  1.00  0.00    +0.000 H 
ATOM    146  H47 UNL A   1      48.221  50.367  21.257  1.00  0.00    +0.000 H 
ATOM    147  H48 UNL A   1      46.680  49.548  19.383  1.00  0.00    +0.000 H 
ATOM     41  C29 UNL A   1      46.573  51.304  17.139  1.00  0.00    +0.000 C 
ATOM     42  C30 UNL A   1      47.461  51.408  18.347  1.00  0.00    +0.000 C 
ATOM     43  N7  UNL A   1      48.368  52.307  18.632  1.00  0.00    +0.000 N 
ATOM     44  C31 UNL A   1      48.862  51.963  19.883  1.00  0.00    +0.000 C 
ATOM     45  C32 UNL A   1      49.862  52.546  20.586  1.00  0.00    +0.000 C 
ATOM     57  C39 UNL A   1      50.622  53.677  20.123  1.00  0.00    +0.000 C 
ATOM     58  C40 UNL A   1      51.705  54.294  20.726  1.00  0.00    +0.000 C 
ATOM     59  C41 UNL A   1      52.088  55.378  19.929  1.00  0.00    +0.000 C 
ATOM     60  C42 UNL A   1      51.274  55.408  18.807  1.00  0.00    +0.000 C 
ATOM     61  N8  UNL A   1      50.378  54.361  18.942  1.00  0.00    +0.000 N 
ATOM     62  C43 UNL A   1      51.311  56.324  17.696  1.00  0.00    +0.000 C 
ATOM     74  C50 UNL A   1      50.484  56.279  16.624  1.00  0.00    +0.000 C 
ATOM     75  N9  UNL A   1      49.455  55.389  16.348  1.00  0.00    +0.000 N 
ATOM     76  C51 UNL A   1      48.942  55.772  15.205  1.00  0.00    +0.000 C 
ATOM     77  C52 UNL A   1      47.820  55.158  14.415  1.00  0.00    +0.000 C 
ATOM     89  C59 UNL A   1      47.223  54.043  14.879  1.00  0.00    +0.000 C 
ATOM     90  C60 UNL A   1      46.143  53.319  14.216  1.00  0.00    +0.000 C 
ATOM     91  C61 UNL A   1      45.790  52.270  14.975  1.00  0.00    +0.000 C 
ATOM     92  C62 UNL A   1      46.639  52.233  16.167  1.00  0.00    +0.000 C 
ATOM     93  N10 UNL A   1      47.453  53.328  16.029  1.00  0.00    +0.000 N 
ATOM     94  C63 UNL A   1      49.575  56.969  14.634  1.00  0.00    +0.000 C 
ATOM     95  C64 UNL A   1      50.534  57.212  15.516  1.00  0.00    +0.000 C 
ATOM     96  C65 UNL A   1      48.118  50.806  20.328  1.00  0.00    +0.000 C 
ATOM     97  C66 UNL A   1      47.288  50.381  19.386  1.00  0.00    +0.000 C 
ENDROOT
BRANCH   41   40
ATOM     98  C67 UNL A   1      45.985  48.945  16.564  1.00  0.00    +0.000 C 
ATOM     99  C68 UNL A   1      45.053  47.921  16.417  1.00  0.00    +0.000 C 
ATOM     37  C25 UNL A   1      43.733  48.115  16.834  1.00  0.00    +0.000 C 
ATOM     38  C26 UNL A   1      43.319  49.366  17.298  1.00  0.00    +0.000 C 
ATOM     39  C27 UNL A   1      44.238  50.412  17.379  1.00  0.00    +0.000 C 
ATOM    136  H37 UNL A   1      42.337  49.515  17.578  1.00  0.00    +0.000 H 
ATOM     40  C28 UNL A   1      45.583  50.204  17.034  1.00  0.00    +0.000 C 
ATOM    137  H38 UNL A   1      43.928  51.344  17.696  1.00  0.00    +0.000 H 
ATOM    148  H49 UNL A   1      46.976  48.776  16.328  1.00  0.00    +0.000 H 
ATOM    149  H50 UNL A   1      45.336  47.021  15.998  1.00  0.00    +0.000 H 
BRANCH   37   35
ATOM     35  C24 UNL A   1      42.739  47.020  16.772  1.00  0.00    +0.000 C 
ATOM     36  O5  UNL A   1      41.694  47.179  16.160  1.00  0.00    +0.000 O 
BRANCH   35   34
ATOM     34  N6  UNL A   1      42.990  45.835  17.416  1.00  0.00    +0.000 N 
ATOM    135  H36 UNL A   1      43.085  45.898  18.394  1.00  0.00    +0.000 H 
BRANCH   34   33
ATOM     33  C23 UNL A   1      43.135  44.502  16.861  1.00  0.00    +0.000 C 
ATOM    133  H34 UNL A   1      42.285  44.291  16.245  1.00  0.00    +0.000 H 
ATOM    134  H35 UNL A   1      44.043  44.480  16.294  1.00  0.00    +0.000 H 
BRANCH   33   32
ATOM    131  H32 UNL A   1      42.579  42.631  17.676  1.00  0.00    +0.000 H 
ATOM    132  H33 UNL A   1      44.264  43.147  17.986  1.00  0.00    +0.000 H 
ATOM     32  C22 UNL A   1      43.234  43.434  17.943  1.00  0.00    +0.000 C 
BRANCH   32   31
ATOM    129  H30 UNL A   1      42.226  44.758  19.258  1.00  0.00    +0.000 H 
ATOM    130  H31 UNL A   1      42.392  43.066  19.824  1.00  0.00    +0.000 H 
ATOM     31  C21 UNL A   1      42.862  43.902  19.351  1.00  0.00    +0.000 C 
BRANCH   31   30
ATOM     30  C20 UNL A   1      44.040  44.286  20.250  1.00  0.00    +0.000 C 
ATOM    127  H28 UNL A   1      44.905  44.402  19.630  1.00  0.00    +0.000 H 
ATOM    128  H29 UNL A   1      43.749  45.184  20.753  1.00  0.00    +0.000 H 
BRANCH   30   29
ATOM    125  H26 UNL A   1      44.697  43.822  22.215  1.00  0.00    +0.000 H 
ATOM     29  C19 UNL A   1      44.380  43.278  21.350  1.00  0.00    +0.000 C 
ATOM    126  H27 UNL A   1      43.494  42.701  21.515  1.00  0.00    +0.000 H 
BRANCH   29   28
ATOM    124  H25 UNL A   1      45.018  41.442  20.513  1.00  0.00    +0.000 H 
ATOM    123  H24 UNL A   1      45.988  41.990  21.882  1.00  0.00    +0.000 H 
ATOM     28  C18 UNL A   1      45.477  42.283  20.988  1.00  0.00    +0.000 C 
BRANCH   28   27
ATOM    122  H23 UNL A   1      46.116  42.966  19.141  1.00  0.00    +0.000 H 
ATOM     27  N5  UNL A   1      46.438  42.850  20.065  1.00  0.00    +0.000 N 
BRANCH   27   25
ATOM     25  C17 UNL A   1      47.720  43.246  20.288  1.00  0.00    +0.000 C 
ATOM     26  O4  UNL A   1      48.526  42.377  20.637  1.00  0.00    +0.000 O 
BRANCH   25   22
ATOM    118  H19 UNL A   1      49.239  44.691  20.246  1.00  0.00    +0.000 H 
ATOM     22  C15 UNL A   1      48.171  44.709  20.186  1.00  0.00    +0.000 C 
BRANCH   22   21
ATOM    117  H18 UNL A   1      46.976  45.189  18.490  1.00  0.00    +0.000 H 
ATOM     21  N4  UNL A   1      47.866  45.321  18.889  1.00  0.00    +0.000 N 
BRANCH   21   19
ATOM     19  C14 UNL A   1      48.792  46.064  18.229  1.00  0.00    +0.000 C 
ATOM     20  O2  UNL A   1      48.732  47.286  18.388  1.00  0.00    +0.000 O 
BRANCH   19   16
ATOM    113  H14 UNL A   1      49.708  44.349  17.418  1.00  0.00    +0.000 H 
ATOM     16  C12 UNL A   1      49.865  45.404  17.338  1.00  0.00    +0.000 C 
BRANCH   16   15
ATOM     15  N3  UNL A   1      49.643  45.807  15.959  1.00  0.00    +0.000 N 
ATOM    112  H13 UNL A   1      49.045  46.569  15.789  1.00  0.00    +0.000 H 
BRANCH   15   13
ATOM     13  C11 UNL A   1      50.223  45.182  14.880  1.00  0.00    +0.000 C 
ATOM     14  O1  UNL A   1      49.872  44.020  14.659  1.00  0.00    +0.000 O 
BRANCH   13    2
ATOM      2  C1  UNL A   1      51.208  45.923  13.931  1.00  0.00    +0.000 C 
ATOM    103  H4  UNL A   1      52.191  45.727  14.307  1.00  0.00    +0.000 H 
BRANCH    2    1
ATOM      1  N1  UNL A   1      51.175  45.336  12.575  1.00  0.00    +0.000 N 
ATOM    100  H1  UNL A   1      50.214  45.324  12.234  1.00  0.00    +0.000 H 
ATOM    101  H2  UNL A   1      51.536  44.382  12.609  1.00  0.00    +0.000 H 
ATOM    102  H3  UNL A   1      51.752  45.896  11.948  1.00  0.00    +0.000 H 
ENDBRANCH    2    1
BRANCH    2    3
ATOM    105  H6  UNL A   1      51.394  47.616  15.094  1.00  0.00    +0.000 H 
ATOM      3  C2  UNL A   1      51.269  47.466  14.042  1.00  0.00    +0.000 C 
ATOM    104  H5  UNL A   1      52.047  47.786  13.383  1.00  0.00    +0.000 H 
BRANCH    3    4
ATOM      4  C3  UNL A   1      50.063  48.329  13.731  1.00  0.00    +0.000 C 
ATOM      5  C4  UNL A   1      49.240  49.046  14.583  1.00  0.00    +0.000 C 
ATOM      6  N2  UNL A   1      48.367  49.788  13.829  1.00  0.00    +0.000 N 
ATOM      7  C5  UNL A   1      48.490  49.459  12.503  1.00  0.00    +0.000 C 
ATOM      8  C6  UNL A   1      47.778  49.922  11.389  1.00  0.00    +0.000 C 
ATOM      9  C7  UNL A   1      48.060  49.337  10.152  1.00  0.00    +0.000 C 
ATOM    106  H7  UNL A   1      49.277  49.026  15.615  1.00  0.00    +0.000 H 
ATOM     11  C9  UNL A   1      49.766  47.932  11.152  1.00  0.00    +0.000 C 
ATOM     12  C10 UNL A   1      49.500  48.501  12.415  1.00  0.00    +0.000 C 
ATOM     10  C8  UNL A   1      49.027  48.342  10.036  1.00  0.00    +0.000 C 
ATOM    107  H8  UNL A   1      47.743  50.460  14.187  1.00  0.00    +0.000 H 
ATOM    111  H12 UNL A   1      50.502  47.217  11.050  1.00  0.00    +0.000 H 
ATOM    108  H9  UNL A   1      47.070  50.668  11.480  1.00  0.00    +0.000 H 
ATOM    110  H11 UNL A   1      49.202  47.904   9.118  1.00  0.00    +0.000 H 
ATOM    109  H10 UNL A   1      47.544  49.646   9.314  1.00  0.00    +0.000 H 
ENDBRANCH    3    4
ENDBRANCH    2    3
ENDBRANCH   13    2
ENDBRANCH   15   13
ENDBRANCH   16   15
BRANCH   16   17
ATOM     17  C13 UNL A   1      51.318  45.343  17.831  1.00  0.00    +0.000 C 
ATOM    114  H15 UNL A   1      51.364  45.875  18.758  1.00  0.00    +0.000 H 
ATOM    115  H16 UNL A   1      51.893  45.760  17.031  1.00  0.00    +0.000 H 
BRANCH   17   18
ATOM     18  S1  UNL A   1      52.050  43.697  18.113  1.00  0.00    +0.000 S 
ATOM    116  H17 UNL A   1      53.378  43.829  18.374  1.00  0.00    +0.000 H 
ENDBRANCH   17   18
ENDBRANCH   16   17
ENDBRANCH   19   16
ENDBRANCH   21   19
ENDBRANCH   22   21
BRANCH   22   23
ATOM    119  H20 UNL A   1      48.478  46.187  21.698  1.00  0.00    +0.000 H 
ATOM     23  C16 UNL A   1      47.679  45.554  21.373  1.00  0.00    +0.000 C 
ATOM    120  H21 UNL A   1      47.371  44.882  22.147  1.00  0.00    +0.000 H 
BRANCH   23   24
ATOM    121  H22 UNL A   1      46.648  47.236  21.455  1.00  0.00    +0.000 H 
ATOM     24  O3  UNL A   1      46.559  46.369  21.031  1.00  0.00    +0.000 O 
ENDBRANCH   23   24
ENDBRANCH   22   23
ENDBRANCH   25   22
ENDBRANCH   27   25
ENDBRANCH   28   27
ENDBRANCH   29   28
ENDBRANCH   30   29
ENDBRANCH   31   30
ENDBRANCH   32   31
ENDBRANCH   33   32
ENDBRANCH   34   33
ENDBRANCH   35   34
ENDBRANCH   37   35
ENDBRANCH   41   40
BRANCH   45   46
ATOM     46  C33 UNL A   1      50.197  51.966  21.929  1.00  0.00    +0.000 C 
ATOM     47  C34 UNL A   1      49.587  52.432  23.104  1.00  0.00    +0.000 C 
ATOM     48  F1  UNL A   1      48.715  53.450  23.055  1.00  0.00    +0.000 F 
ATOM     49  C35 UNL A   1      49.900  51.876  24.342  1.00  0.00    +0.000 C 
ATOM     50  F2  UNL A   1      49.340  52.369  25.456  1.00  0.00    +0.000 F 
ATOM     51  C36 UNL A   1      50.799  50.825  24.427  1.00  0.00    +0.000 C 
ATOM     52  F3  UNL A   1      51.095  50.288  25.618  1.00  0.00    +0.000 F 
ATOM     53  C37 UNL A   1      51.399  50.336  23.276  1.00  0.00    +0.000 C 
ATOM     54  F4  UNL A   1      52.261  49.312  23.354  1.00  0.00    +0.000 F 
ATOM     55  C38 UNL A   1      51.110  50.907  22.040  1.00  0.00    +0.000 C 
ATOM     56  F5  UNL A   1      51.719  50.422  20.946  1.00  0.00    +0.000 F 
ENDBRANCH   45   46
BRANCH   62   63
ATOM     65  F6  UNL A   1      50.950  58.880  18.939  1.00  0.00    +0.000 F 
ATOM     66  C46 UNL A   1      53.116  59.612  18.378  1.00  0.00    +0.000 C 
ATOM     67  F7  UNL A   1      52.867  60.793  18.960  1.00  0.00    +0.000 F 
ATOM     68  C47 UNL A   1      54.346  59.380  17.781  1.00  0.00    +0.000 C 
ATOM     69  F8  UNL A   1      55.293  60.328  17.806  1.00  0.00    +0.000 F 
ATOM     70  C48 UNL A   1      54.593  58.168  17.154  1.00  0.00    +0.000 C 
ATOM     71  F9  UNL A   1      55.786  57.938  16.589  1.00  0.00    +0.000 F 
ATOM     72  C49 UNL A   1      53.603  57.192  17.109  1.00  0.00    +0.000 C 
ATOM     73  F10 UNL A   1      53.865  56.034  16.484  1.00  0.00    +0.000 F 
ATOM     63  C44 UNL A   1      52.354  57.401  17.713  1.00  0.00    +0.000 C 
ATOM     64  C45 UNL A   1      52.133  58.626  18.360  1.00  0.00    +0.000 C 
ENDBRANCH   62   63
BRANCH   77   78
ATOM     78  C53 UNL A   1      47.386  55.745  13.121  1.00  0.00    +0.000 C 
ATOM     79  C54 UNL A   1      47.772  55.168  11.903  1.00  0.00    +0.000 C 
ATOM     80  F11 UNL A   1      48.560  54.082  11.898  1.00  0.00    +0.000 F 
ATOM     81  C55 UNL A   1      47.387  55.727  10.687  1.00  0.00    +0.000 C 
ATOM     82  F12 UNL A   1      47.807  55.181   9.538  1.00  0.00    +0.000 F 
ATOM     83  C56 UNL A   1      46.582  56.856  10.665  1.00  0.00    +0.000 C 
ATOM     84  F13 UNL A   1      46.208  57.392   9.495  1.00  0.00    +0.000 F 
ATOM     85  C57 UNL A   1      46.172  57.433  11.857  1.00  0.00    +0.000 C 
ATOM     86  F14 UNL A   1      45.383  58.517  11.841  1.00  0.00    +0.000 F 
ATOM     87  C58 UNL A   1      46.579  56.891  13.074  1.00  0.00    +0.000 C 
ATOM     88  F15 UNL A   1      46.177  57.476  14.211  1.00  0.00    +0.000 F 
ENDBRANCH   77   78
TORSDOF 28
ENDMDL
MODEL 3
REMARK VINA RESULT:      -5.7     54.871     61.040
ROOT
ATOM    138  H39 UNL A   1      18.094  34.964  47.718  1.00  0.00    +0.000 H 
ATOM    139  H40 UNL A   1      20.126  33.661  46.729  1.00  0.00    +0.000 H 
ATOM    140  H41 UNL A   1      21.402  37.457  47.785  1.00  0.00    +0.000 H 
ATOM    141  H42 UNL A   1      25.991  41.895  47.905  1.00  0.00    +0.000 H 
ATOM    142  H43 UNL A   1      24.009  43.152  48.878  1.00  0.00    +0.000 H 
ATOM    143  H44 UNL A   1      22.742  39.303  47.955  1.00  0.00    +0.000 H 
ATOM    144  H45 UNL A   1      26.757  36.918  46.110  1.00  0.00    +0.000 H 
ATOM    145  H46 UNL A   1      25.210  34.926  45.671  1.00  0.00    +0.000 H 
ATOM    146  H47 UNL A   1      17.530  39.843  49.880  1.00  0.00    +0.000 H 
ATOM    147  H48 UNL A   1      18.904  42.004  49.847  1.00  0.00    +0.000 H 
ATOM     41  C29 UNL A   1      21.598  41.635  48.989  1.00  0.00    +0.000 C 
ATOM     42  C30 UNL A   1      20.491  40.619  49.008  1.00  0.00    +0.000 C 
ATOM     43  N7  UNL A   1      20.514  39.363  48.638  1.00  0.00    +0.000 N 
ATOM     44  C31 UNL A   1      19.244  38.868  48.903  1.00  0.00    +0.000 C 
ATOM     45  C32 UNL A   1      18.746  37.636  48.638  1.00  0.00    +0.000 C 
ATOM     57  C39 UNL A   1      19.491  36.584  47.999  1.00  0.00    +0.000 C 
ATOM     58  C40 UNL A   1      19.054  35.327  47.618  1.00  0.00    +0.000 C 
ATOM     59  C41 UNL A   1      20.142  34.634  47.073  1.00  0.00    +0.000 C 
ATOM     60  C42 UNL A   1      21.243  35.476  47.073  1.00  0.00    +0.000 C 
ATOM     61  N8  UNL A   1      20.830  36.667  47.646  1.00  0.00    +0.000 N 
ATOM     62  C43 UNL A   1      22.573  35.214  46.587  1.00  0.00    +0.000 C 
ATOM     74  C50 UNL A   1      23.599  36.098  46.610  1.00  0.00    +0.000 C 
ATOM     75  N9  UNL A   1      23.618  37.403  47.082  1.00  0.00    +0.000 N 
ATOM     76  C51 UNL A   1      24.842  37.834  46.903  1.00  0.00    +0.000 C 
ATOM     77  C52 UNL A   1      25.427  39.186  47.208  1.00  0.00    +0.000 C 
ATOM     89  C59 UNL A   1      24.632  40.144  47.722  1.00  0.00    +0.000 C 
ATOM     90  C60 UNL A   1      25.045  41.507  48.045  1.00  0.00    +0.000 C 
ATOM     91  C61 UNL A   1      23.995  42.173  48.550  1.00  0.00    +0.000 C 
ATOM     92  C62 UNL A   1      22.828  41.291  48.562  1.00  0.00    +0.000 C 
ATOM     93  N10 UNL A   1      23.301  40.105  48.061  1.00  0.00    +0.000 N 
ATOM     94  C63 UNL A   1      25.749  36.839  46.315  1.00  0.00    +0.000 C 
ATOM     95  C64 UNL A   1      24.932  35.814  46.118  1.00  0.00    +0.000 C 
ATOM     96  C65 UNL A   1      18.490  39.940  49.513  1.00  0.00    +0.000 C 
ATOM     97  C66 UNL A   1      19.193  41.064  49.537  1.00  0.00    +0.000 C 
ENDROOT
BRANCH   41   40
ATOM     98  C67 UNL A   1      20.979  44.023  48.590  1.00  0.00    +0.000 C 
ATOM     99  C68 UNL A   1      20.797  45.327  49.041  1.00  0.00    +0.000 C 
ATOM     37  C25 UNL A   1      20.886  45.611  50.407  1.00  0.00    +0.000 C 
ATOM     38  C26 UNL A   1      21.265  44.614  51.308  1.00  0.00    +0.000 C 
ATOM     39  C27 UNL A   1      21.516  43.322  50.846  1.00  0.00    +0.000 C 
ATOM    136  H37 UNL A   1      21.358  44.832  52.313  1.00  0.00    +0.000 H 
ATOM     40  C28 UNL A   1      21.355  43.011  49.486  1.00  0.00    +0.000 C 
ATOM    137  H38 UNL A   1      21.823  42.591  51.507  1.00  0.00    +0.000 H 
ATOM    148  H49 UNL A   1      20.838  43.799  47.592  1.00  0.00    +0.000 H 
ATOM    149  H50 UNL A   1      20.597  46.084  48.367  1.00  0.00    +0.000 H 
BRANCH   37   35
ATOM     35  C24 UNL A   1      20.612  46.968  50.929  1.00  0.00    +0.000 C 
ATOM     36  O5  UNL A   1      20.882  47.243  52.088  1.00  0.00    +0.000 O 
BRANCH   35   34
ATOM     34  N6  UNL A   1      20.041  47.910  50.111  1.00  0.00    +0.000 N 
ATOM    135  H36 UNL A   1      20.657  48.353  49.483  1.00  0.00    +0.000 H 
BRANCH   34   33
ATOM     33  C23 UNL A   1      18.659  48.346  50.038  1.00  0.00    +0.000 C 
ATOM    133  H34 UNL A   1      18.234  48.307  51.019  1.00  0.00    +0.000 H 
ATOM    134  H35 UNL A   1      18.649  49.343  49.648  1.00  0.00    +0.000 H 
BRANCH   33   32
ATOM    131  H32 UNL A   1      17.819  47.933  48.141  1.00  0.00    +0.000 H 
ATOM    132  H33 UNL A   1      18.285  46.507  49.115  1.00  0.00    +0.000 H 
ATOM     32  C22 UNL A   1      17.827  47.473  49.108  1.00  0.00    +0.000 C 
BRANCH   32   31
ATOM    129  H30 UNL A   1      16.122  48.038  50.235  1.00  0.00    +0.000 H 
ATOM    130  H31 UNL A   1      15.794  47.276  48.646  1.00  0.00    +0.000 H 
ATOM     31  C21 UNL A   1      16.375  47.261  49.544  1.00  0.00    +0.000 C 
BRANCH   31   30
ATOM     30  C20 UNL A   1      16.079  45.917  50.215  1.00  0.00    +0.000 C 
ATOM    127  H28 UNL A   1      15.807  46.108  51.232  1.00  0.00    +0.000 H 
ATOM    128  H29 UNL A   1      15.298  45.466  49.639  1.00  0.00    +0.000 H 
BRANCH   30   29
ATOM    125  H26 UNL A   1      17.698  44.939  49.250  1.00  0.00    +0.000 H 
ATOM     29  C19 UNL A   1      17.236  44.916  50.215  1.00  0.00    +0.000 C 
ATOM    126  H27 UNL A   1      17.894  45.215  51.004  1.00  0.00    +0.000 H 
BRANCH   29   28
ATOM    124  H25 UNL A   1      17.262  42.851  49.758  1.00  0.00    +0.000 H 
ATOM    123  H24 UNL A   1      15.769  43.406  50.517  1.00  0.00    +0.000 H 
ATOM     28  C18 UNL A   1      16.836  43.476  50.514  1.00  0.00    +0.000 C 
BRANCH   28   27
ATOM    122  H23 UNL A   1      17.907  43.679  52.275  1.00  0.00    +0.000 H 
ATOM     27  N5  UNL A   1      17.337  43.032  51.798  1.00  0.00    +0.000 N 
BRANCH   27   25
ATOM     25  C17 UNL A   1      17.136  41.850  52.442  1.00  0.00    +0.000 C 
ATOM     26  O4  UNL A   1      16.171  41.168  52.080  1.00  0.00    +0.000 O 
BRANCH   25   22
ATOM    118  H19 UNL A   1      18.045  40.315  53.543  1.00  0.00    +0.000 H 
ATOM     22  C15 UNL A   1      18.005  41.381  53.616  1.00  0.00    +0.000 C 
BRANCH   22   21
ATOM    117  H18 UNL A   1      19.942  41.553  52.747  1.00  0.00    +0.000 H 
ATOM     21  N4  UNL A   1      19.398  41.828  53.520  1.00  0.00    +0.000 N 
BRANCH   21   19
ATOM     19  C14 UNL A   1      19.950  42.613  54.481  1.00  0.00    +0.000 C 
ATOM     20  O2  UNL A   1      19.827  43.832  54.335  1.00  0.00    +0.000 O 
BRANCH   19   16
ATOM    113  H14 UNL A   1      19.960  41.398  56.202  1.00  0.00    +0.000 H 
ATOM     16  C12 UNL A   1      20.682  42.002  55.694  1.00  0.00    +0.000 C 
BRANCH   16   15
ATOM     15  N3  UNL A   1      21.754  41.145  55.214  1.00  0.00    +0.000 N 
ATOM    112  H13 UNL A   1      21.782  40.215  55.533  1.00  0.00    +0.000 H 
BRANCH   15   13
ATOM     13  C11 UNL A   1      22.730  41.562  54.340  1.00  0.00    +0.000 C 
ATOM     14  O1  UNL A   1      23.074  42.745  54.418  1.00  0.00    +0.000 O 
BRANCH   13    2
ATOM      2  C1  UNL A   1      23.431  40.579  53.359  1.00  0.00    +0.000 C 
ATOM    103  H4  UNL A   1      24.214  41.135  52.887  1.00  0.00    +0.000 H 
BRANCH    2    1
ATOM      1  N1  UNL A   1      24.104  39.489  54.096  1.00  0.00    +0.000 N 
ATOM    100  H1  UNL A   1      23.425  39.011  54.690  1.00  0.00    +0.000 H 
ATOM    101  H2  UNL A   1      24.847  39.879  54.676  1.00  0.00    +0.000 H 
ATOM    102  H3  UNL A   1      24.502  38.825  53.433  1.00  0.00    +0.000 H 
ENDBRANCH    2    1
BRANCH    2    3
ATOM    105  H6  UNL A   1      21.716  40.678  52.219  1.00  0.00    +0.000 H 
ATOM      3  C2  UNL A   1      22.663  40.203  52.069  1.00  0.00    +0.000 C 
ATOM    104  H5  UNL A   1      23.272  40.521  51.250  1.00  0.00    +0.000 H 
BRANCH    3    4
ATOM      4  C3  UNL A   1      22.264  38.771  51.776  1.00  0.00    +0.000 C 
ATOM      5  C4  UNL A   1      21.071  38.112  52.021  1.00  0.00    +0.000 C 
ATOM      6  N2  UNL A   1      21.133  36.866  51.450  1.00  0.00    +0.000 N 
ATOM      7  C5  UNL A   1      22.395  36.628  50.969  1.00  0.00    +0.000 C 
ATOM      8  C6  UNL A   1      22.926  35.486  50.356  1.00  0.00    +0.000 C 
ATOM      9  C7  UNL A   1      24.288  35.493  50.045  1.00  0.00    +0.000 C 
ATOM    106  H7  UNL A   1      20.269  38.494  52.546  1.00  0.00    +0.000 H 
ATOM     11  C9  UNL A   1      24.517  37.757  50.884  1.00  0.00    +0.000 C 
ATOM     12  C10 UNL A   1      23.146  37.778  51.214  1.00  0.00    +0.000 C 
ATOM     10  C8  UNL A   1      25.079  36.605  50.321  1.00  0.00    +0.000 C 
ATOM    107  H8  UNL A   1      20.379  36.234  51.394  1.00  0.00    +0.000 H 
ATOM    111  H12 UNL A   1      25.104  38.587  51.056  1.00  0.00    +0.000 H 
ATOM    108  H9  UNL A   1      22.332  34.668  50.143  1.00  0.00    +0.000 H 
ATOM    110  H11 UNL A   1      26.088  36.579  50.107  1.00  0.00    +0.000 H 
ATOM    109  H10 UNL A   1      24.713  34.662  49.604  1.00  0.00    +0.000 H 
ENDBRANCH    3    4
ENDBRANCH    2    3
ENDBRANCH   13    2
ENDBRANCH   15   13
ENDBRANCH   16   15
BRANCH   16   17
ATOM     17  C13 UNL A   1      20.977  42.884  56.917  1.00  0.00    +0.000 C 
ATOM    114  H15 UNL A   1      20.080  42.935  57.498  1.00  0.00    +0.000 H 
ATOM    115  H16 UNL A   1      21.313  43.812  56.507  1.00  0.00    +0.000 H 
BRANCH   17   18
ATOM     18  S1  UNL A   1      22.319  42.362  58.036  1.00  0.00    +0.000 S 
ATOM    116  H17 UNL A   1      23.378  41.927  57.302  1.00  0.00    +0.000 H 
ENDBRANCH   17   18
ENDBRANCH   16   17
ENDBRANCH   19   16
ENDBRANCH   21   19
ENDBRANCH   22   21
BRANCH   22   23
ATOM    119  H20 UNL A   1      18.148  41.919  55.679  1.00  0.00    +0.000 H 
ATOM     23  C16 UNL A   1      17.369  41.705  54.978  1.00  0.00    +0.000 C 
ATOM    120  H21 UNL A   1      16.793  40.854  55.280  1.00  0.00    +0.000 H 
BRANCH   23   24
ATOM    121  H22 UNL A   1      15.897  42.818  55.681  1.00  0.00    +0.000 H 
ATOM     24  O3  UNL A   1      16.489  42.826  54.913  1.00  0.00    +0.000 O 
ENDBRANCH   23   24
ENDBRANCH   22   23
ENDBRANCH   25   22
ENDBRANCH   27   25
ENDBRANCH   28   27
ENDBRANCH   29   28
ENDBRANCH   30   29
ENDBRANCH   31   30
ENDBRANCH   32   31
ENDBRANCH   33   32
ENDBRANCH   34   33
ENDBRANCH   35   34
ENDBRANCH   37   35
ENDBRANCH   41   40
BRANCH   45   46
ATOM     46  C33 UNL A   1      17.325  37.363  49.032  1.00  0.00    +0.000 C 
ATOM     47  C34 UNL A   1      16.322  37.155  48.072  1.00  0.00    +0.000 C 
ATOM     48  F1  UNL A   1      16.609  37.246  46.765  1.00  0.00    +0.000 F 
ATOM     49  C35 UNL A   1      15.008  36.892  48.453  1.00  0.00    +0.000 C 
ATOM     50  F2  UNL A   1      14.059  36.745  47.518  1.00  0.00    +0.000 F 
ATOM     51  C36 UNL A   1      14.679  36.795  49.796  1.00  0.00    +0.000 C 
ATOM     52  F3  UNL A   1      13.416  36.536  50.161  1.00  0.00    +0.000 F 
ATOM     53  C37 UNL A   1      15.657  36.977  50.761  1.00  0.00    +0.000 C 
ATOM     54  F4  UNL A   1      15.343  36.873  52.061  1.00  0.00    +0.000 F 
ATOM     55  C38 UNL A   1      16.966  37.268  50.385  1.00  0.00    +0.000 C 
ATOM     56  F5  UNL A   1      17.887  37.454  51.343  1.00  0.00    +0.000 F 
ENDBRANCH   45   46
BRANCH   62   63
ATOM     65  F6  UNL A   1      21.869  34.477  43.909  1.00  0.00    +0.000 F 
ATOM     66  C46 UNL A   1      22.771  32.313  44.121  1.00  0.00    +0.000 C 
ATOM     67  F7  UNL A   1      22.392  32.033  42.866  1.00  0.00    +0.000 F 
ATOM     68  C47 UNL A   1      23.417  31.349  44.880  1.00  0.00    +0.000 C 
ATOM     69  F8  UNL A   1      23.682  30.145  44.353  1.00  0.00    +0.000 F 
ATOM     70  C48 UNL A   1      23.783  31.629  46.187  1.00  0.00    +0.000 C 
ATOM     71  F9  UNL A   1      24.419  30.704  46.918  1.00  0.00    +0.000 F 
ATOM     72  C49 UNL A   1      23.489  32.871  46.743  1.00  0.00    +0.000 C 
ATOM     73  F10 UNL A   1      23.844  33.110  48.015  1.00  0.00    +0.000 F 
ATOM     63  C44 UNL A   1      22.844  33.864  45.991  1.00  0.00    +0.000 C 
ATOM     64  C45 UNL A   1      22.501  33.566  44.663  1.00  0.00    +0.000 C 
ENDBRANCH   62   63
BRANCH   77   78
ATOM     78  C53 UNL A   1      26.854  39.483  46.921  1.00  0.00    +0.000 C 
ATOM     79  C54 UNL A   1      27.869  39.039  47.780  1.00  0.00    +0.000 C 
ATOM     80  F11 UNL A   1      27.553  38.352  48.888  1.00  0.00    +0.000 F 
ATOM     81  C55 UNL A   1      29.206  39.332  47.527  1.00  0.00    +0.000 C 
ATOM     82  F12 UNL A   1      30.153  38.934  48.388  1.00  0.00    +0.000 F 
ATOM     83  C56 UNL A   1      29.558  40.051  46.393  1.00  0.00    +0.000 C 
ATOM     84  F13 UNL A   1      30.845  40.331  46.149  1.00  0.00    +0.000 F 
ATOM     85  C57 UNL A   1      28.573  40.485  45.520  1.00  0.00    +0.000 C 
ATOM     86  F14 UNL A   1      28.909  41.168  44.417  1.00  0.00    +0.000 F 
ATOM     87  C58 UNL A   1      27.232  40.215  45.787  1.00  0.00    +0.000 C 
ATOM     88  F15 UNL A   1      26.300  40.657  44.929  1.00  0.00    +0.000 F 
ENDBRANCH   77   78
TORSDOF 28
ENDMDL
MODEL 4
REMARK VINA RESULT:      -5.5     27.274     34.753
ROOT
ATOM    138  H39 UNL A   1      36.771  33.221  34.422  1.00  0.00    +0.000 H 
ATOM    139  H40 UNL A   1      35.856  33.040  31.986  1.00  0.00    +0.000 H 
ATOM    140  H41 UNL A   1      39.133  30.532  32.335  1.00  0.00    +0.000 H 
ATOM    141  H42 UNL A   1      43.330  26.540  29.648  1.00  0.00    +0.000 H 
ATOM    142  H43 UNL A   1      44.208  26.714  32.027  1.00  0.00    +0.000 H 
ATOM    143  H44 UNL A   1      40.838  29.130  31.737  1.00  0.00    +0.000 H 
ATOM    144  H45 UNL A   1      39.174  28.644  27.024  1.00  0.00    +0.000 H 
ATOM    145  H46 UNL A   1      37.414  30.410  27.601  1.00  0.00    +0.000 H 
ATOM    146  H47 UNL A   1      40.719  30.742  37.080  1.00  0.00    +0.000 H 
ATOM    147  H48 UNL A   1      42.788  29.395  36.399  1.00  0.00    +0.000 H 
ATOM     41  C29 UNL A   1      42.721  28.480  33.699  1.00  0.00    +0.000 C 
ATOM     42  C30 UNL A   1      41.745  29.394  34.385  1.00  0.00    +0.000 C 
ATOM     43  N7  UNL A   1      40.669  29.966  33.906  1.00  0.00    +0.000 N 
ATOM     44  C31 UNL A   1      40.110  30.667  34.966  1.00  0.00    +0.000 C 
ATOM     45  C32 UNL A   1      39.021  31.474  34.964  1.00  0.00    +0.000 C 
ATOM     57  C39 UNL A   1      38.227  31.756  33.799  1.00  0.00    +0.000 C 
ATOM     58  C40 UNL A   1      37.152  32.619  33.676  1.00  0.00    +0.000 C 
ATOM     59  C41 UNL A   1      36.671  32.533  32.364  1.00  0.00    +0.000 C 
ATOM     60  C42 UNL A   1      37.476  31.651  31.659  1.00  0.00    +0.000 C 
ATOM     61  N8  UNL A   1      38.424  31.181  32.552  1.00  0.00    +0.000 N 
ATOM     62  C43 UNL A   1      37.386  31.267  30.274  1.00  0.00    +0.000 C 
ATOM     74  C50 UNL A   1      38.224  30.404  29.650  1.00  0.00    +0.000 C 
ATOM     75  N9  UNL A   1      39.314  29.716  30.165  1.00  0.00    +0.000 N 
ATOM     76  C51 UNL A   1      39.785  28.995  29.178  1.00  0.00    +0.000 C 
ATOM     77  C52 UNL A   1      40.975  28.075  29.158  1.00  0.00    +0.000 C 
ATOM     89  C59 UNL A   1      41.719  27.941  30.273  1.00  0.00    +0.000 C 
ATOM     90  C60 UNL A   1      42.913  27.110  30.401  1.00  0.00    +0.000 C 
ATOM     91  C61 UNL A   1      43.382  27.209  31.655  1.00  0.00    +0.000 C 
ATOM     92  C62 UNL A   1      42.534  28.133  32.411  1.00  0.00    +0.000 C 
ATOM     93  N10 UNL A   1      41.569  28.510  31.514  1.00  0.00    +0.000 N 
ATOM     94  C63 UNL A   1      39.030  29.126  27.925  1.00  0.00    +0.000 C 
ATOM     95  C64 UNL A   1      38.115  30.027  28.255  1.00  0.00    +0.000 C 
ATOM     96  C65 UNL A   1      40.932  30.407  36.127  1.00  0.00    +0.000 C 
ATOM     97  C66 UNL A   1      41.994  29.682  35.806  1.00  0.00    +0.000 C 
ENDROOT
BRANCH   41   40
ATOM     98  C67 UNL A   1      43.705  26.745  35.202  1.00  0.00    +0.000 C 
ATOM     99  C68 UNL A   1      44.765  26.238  35.950  1.00  0.00    +0.000 C 
ATOM     37  C25 UNL A   1      46.025  26.838  35.870  1.00  0.00    +0.000 C 
ATOM     38  C26 UNL A   1      46.199  28.009  35.129  1.00  0.00    +0.000 C 
ATOM     39  C27 UNL A   1      45.119  28.557  34.436  1.00  0.00    +0.000 C 
ATOM    136  H37 UNL A   1      47.123  28.467  35.094  1.00  0.00    +0.000 H 
ATOM     40  C28 UNL A   1      43.869  27.917  34.450  1.00  0.00    +0.000 C 
ATOM    137  H38 UNL A   1      45.240  29.437  33.911  1.00  0.00    +0.000 H 
ATOM    148  H49 UNL A   1      42.796  26.256  35.202  1.00  0.00    +0.000 H 
ATOM    149  H50 UNL A   1      44.620  25.419  36.563  1.00  0.00    +0.000 H 
BRANCH   37   35
ATOM     35  C24 UNL A   1      47.192  26.272  36.582  1.00  0.00    +0.000 C 
ATOM     36  O5  UNL A   1      47.554  26.758  37.643  1.00  0.00    +0.000 O 
BRANCH   35   34
ATOM     34  N6  UNL A   1      47.872  25.210  36.040  1.00  0.00    +0.000 N 
ATOM    135  H36 UNL A   1      48.606  24.854  36.591  1.00  0.00    +0.000 H 
BRANCH   34   33
ATOM     33  C23 UNL A   1      47.663  24.538  34.771  1.00  0.00    +0.000 C 
ATOM    133  H34 UNL A   1      46.646  24.209  34.719  1.00  0.00    +0.000 H 
ATOM    134  H35 UNL A   1      47.888  25.235  33.991  1.00  0.00    +0.000 H 
BRANCH   33   32
ATOM    131  H32 UNL A   1      47.966  22.470  34.447  1.00  0.00    +0.000 H 
ATOM    132  H33 UNL A   1      49.213  23.557  33.766  1.00  0.00    +0.000 H 
ATOM     32  C22 UNL A   1      48.579  23.334  34.599  1.00  0.00    +0.000 C 
BRANCH   32   31
ATOM    129  H30 UNL A   1      49.770  23.990  36.226  1.00  0.00    +0.000 H 
ATOM    130  H31 UNL A   1      48.967  22.401  36.433  1.00  0.00    +0.000 H 
ATOM     31  C21 UNL A   1      49.510  23.052  35.780  1.00  0.00    +0.000 C 
BRANCH   31   30
ATOM     30  C20 UNL A   1      50.807  22.317  35.436  1.00  0.00    +0.000 C 
ATOM    127  H28 UNL A   1      51.582  23.048  35.323  1.00  0.00    +0.000 H 
ATOM    128  H29 UNL A   1      50.979  21.630  36.238  1.00  0.00    +0.000 H 
BRANCH   30   29
ATOM    125  H26 UNL A   1      51.091  20.485  34.401  1.00  0.00    +0.000 H 
ATOM     29  C19 UNL A   1      50.764  21.475  34.160  1.00  0.00    +0.000 C 
ATOM    126  H27 UNL A   1      49.754  21.512  33.808  1.00  0.00    +0.000 H 
BRANCH   29   28
ATOM    124  H25 UNL A   1      51.095  21.861  32.106  1.00  0.00    +0.000 H 
ATOM    123  H24 UNL A   1      52.554  21.451  33.011  1.00  0.00    +0.000 H 
ATOM     28  C18 UNL A   1      51.633  21.995  33.020  1.00  0.00    +0.000 C 
BRANCH   28   27
ATOM    122  H23 UNL A   1      52.613  23.627  33.835  1.00  0.00    +0.000 H 
ATOM     27  N5  UNL A   1      51.925  23.406  33.166  1.00  0.00    +0.000 N 
BRANCH   27   25
ATOM     25  C17 UNL A   1      51.388  24.471  32.511  1.00  0.00    +0.000 C 
ATOM     26  O4  UNL A   1      50.682  24.230  31.526  1.00  0.00    +0.000 O 
BRANCH   25   22
ATOM    118  H19 UNL A   1      52.530  26.221  32.336  1.00  0.00    +0.000 H 
ATOM     22  C15 UNL A   1      51.675  25.925  32.907  1.00  0.00    +0.000 C 
BRANCH   22   21
ATOM    117  H18 UNL A   1      49.733  26.798  32.965  1.00  0.00    +0.000 H 
ATOM     21  N4  UNL A   1      50.609  26.854  32.519  1.00  0.00    +0.000 N 
BRANCH   21   19
ATOM     19  C14 UNL A   1      50.810  27.788  31.554  1.00  0.00    +0.000 C 
ATOM     20  O2  UNL A   1      51.937  28.286  31.495  1.00  0.00    +0.000 O 
BRANCH   19   16
ATOM    113  H14 UNL A   1      48.855  27.553  30.805  1.00  0.00    +0.000 H 
ATOM     16  C12 UNL A   1      49.684  28.191  30.579  1.00  0.00    +0.000 C 
BRANCH   16   15
ATOM     15  N3  UNL A   1      49.300  29.568  30.847  1.00  0.00    +0.000 N 
ATOM    112  H13 UNL A   1      49.907  30.284  30.553  1.00  0.00    +0.000 H 
BRANCH   15   13
ATOM     13  C11 UNL A   1      48.137  29.924  31.487  1.00  0.00    +0.000 C 
ATOM     14  O1  UNL A   1      48.113  29.778  32.713  1.00  0.00    +0.000 O 
BRANCH   13    2
ATOM      2  C1  UNL A   1      46.938  30.559  30.725  1.00  0.00    +0.000 C 
ATOM    103  H4  UNL A   1      46.782  31.523  31.162  1.00  0.00    +0.000 H 
BRANCH    2    1
ATOM      1  N1  UNL A   1      47.290  30.814  29.311  1.00  0.00    +0.000 N 
ATOM    100  H1  UNL A   1      46.870  30.094  28.723  1.00  0.00    +0.000 H 
ATOM    101  H2  UNL A   1      48.304  30.792  29.204  1.00  0.00    +0.000 H 
ATOM    102  H3  UNL A   1      46.937  31.729  29.034  1.00  0.00    +0.000 H 
ENDBRANCH    2    1
BRANCH    2    3
ATOM    105  H6  UNL A   1      45.424  29.239  30.262  1.00  0.00    +0.000 H 
ATOM      3  C2  UNL A   1      45.531  29.986  31.020  1.00  0.00    +0.000 C 
ATOM    104  H5  UNL A   1      45.538  29.679  32.044  1.00  0.00    +0.000 H 
BRANCH    3    4
ATOM      4  C3  UNL A   1      44.282  30.822  30.832  1.00  0.00    +0.000 C 
ATOM      5  C4  UNL A   1      43.516  31.034  29.697  1.00  0.00    +0.000 C 
ATOM      6  N2  UNL A   1      42.400  31.751  30.048  1.00  0.00    +0.000 N 
ATOM      7  C5  UNL A   1      42.488  32.151  31.357  1.00  0.00    +0.000 C 
ATOM      8  C6  UNL A   1      41.613  32.934  32.121  1.00  0.00    +0.000 C 
ATOM      9  C7  UNL A   1      42.007  33.263  33.421  1.00  0.00    +0.000 C 
ATOM    106  H7  UNL A   1      43.747  30.707  28.746  1.00  0.00    +0.000 H 
ATOM     11  C9  UNL A   1      44.054  31.985  33.176  1.00  0.00    +0.000 C 
ATOM     12  C10 UNL A   1      43.686  31.640  31.858  1.00  0.00    +0.000 C 
ATOM     10  C8  UNL A   1      43.218  32.811  33.937  1.00  0.00    +0.000 C 
ATOM    107  H8  UNL A   1      41.646  31.948  29.448  1.00  0.00    +0.000 H 
ATOM    111  H12 UNL A   1      44.935  31.629  33.578  1.00  0.00    +0.000 H 
ATOM    108  H9  UNL A   1      40.711  33.256  31.737  1.00  0.00    +0.000 H 
ATOM    110  H11 UNL A   1      43.503  33.088  34.889  1.00  0.00    +0.000 H 
ATOM    109  H10 UNL A   1      41.391  33.849  34.005  1.00  0.00    +0.000 H 
ENDBRANCH    3    4
ENDBRANCH    2    3
ENDBRANCH   13    2
ENDBRANCH   15   13
ENDBRANCH   16   15
BRANCH   16   17
ATOM     17  C13 UNL A   1      49.769  27.755  29.109  1.00  0.00    +0.000 C 
ATOM    114  H15 UNL A   1      48.808  27.923  28.670  1.00  0.00    +0.000 H 
ATOM    115  H16 UNL A   1      50.085  26.734  29.148  1.00  0.00    +0.000 H 
BRANCH   17   18
ATOM     18  S1  UNL A   1      51.003  28.578  28.050  1.00  0.00    +0.000 S 
ATOM    116  H17 UNL A   1      52.112  28.865  28.783  1.00  0.00    +0.000 H 
ENDBRANCH   17   18
ENDBRANCH   16   17
ENDBRANCH   19   16
ENDBRANCH   21   19
ENDBRANCH   22   21
BRANCH   22   23
ATOM    119  H20 UNL A   1      52.746  26.882  34.490  1.00  0.00    +0.000 H 
ATOM     23  C16 UNL A   1      52.071  26.059  34.387  1.00  0.00    +0.000 C 
ATOM    120  H21 UNL A   1      52.526  25.138  34.688  1.00  0.00    +0.000 H 
BRANCH   23   24
ATOM    121  H22 UNL A   1      50.740  27.231  35.255  1.00  0.00    +0.000 H 
ATOM     24  O3  UNL A   1      50.943  26.284  35.232  1.00  0.00    +0.000 O 
ENDBRANCH   23   24
ENDBRANCH   22   23
ENDBRANCH   25   22
ENDBRANCH   27   25
ENDBRANCH   28   27
ENDBRANCH   29   28
ENDBRANCH   30   29
ENDBRANCH   31   30
ENDBRANCH   32   31
ENDBRANCH   33   32
ENDBRANCH   34   33
ENDBRANCH   35   34
ENDBRANCH   37   35
ENDBRANCH   41   40
BRANCH   45   46
ATOM     46  C33 UNL A   1      38.631  32.115  36.263  1.00  0.00    +0.000 C 
ATOM     47  C34 UNL A   1      37.928  31.406  37.251  1.00  0.00    +0.000 C 
ATOM     48  F1  UNL A   1      37.546  30.140  37.031  1.00  0.00    +0.000 F 
ATOM     49  C35 UNL A   1      37.581  32.012  38.456  1.00  0.00    +0.000 C 
ATOM     50  F2  UNL A   1      36.869  31.330  39.364  1.00  0.00    +0.000 F 
ATOM     51  C36 UNL A   1      37.959  33.320  38.713  1.00  0.00    +0.000 C 
ATOM     52  F3  UNL A   1      37.629  33.899  39.875  1.00  0.00    +0.000 F 
ATOM     53  C37 UNL A   1      38.670  34.033  37.760  1.00  0.00    +0.000 C 
ATOM     54  F4  UNL A   1      39.046  35.295  38.010  1.00  0.00    +0.000 F 
ATOM     55  C38 UNL A   1      38.994  33.440  36.542  1.00  0.00    +0.000 C 
ATOM     56  F5  UNL A   1      39.670  34.161  35.633  1.00  0.00    +0.000 F 
ENDBRANCH   45   46
BRANCH   62   63
ATOM     65  F6  UNL A   1      37.280  34.042  29.569  1.00  0.00    +0.000 F 
ATOM     66  C46 UNL A   1      35.292  33.793  28.333  1.00  0.00    +0.000 C 
ATOM     67  F7  UNL A   1      35.298  35.106  28.062  1.00  0.00    +0.000 F 
ATOM     68  C47 UNL A   1      34.268  32.991  27.852  1.00  0.00    +0.000 C 
ATOM     69  F8  UNL A   1      33.296  33.524  27.098  1.00  0.00    +0.000 F 
ATOM     70  C48 UNL A   1      34.247  31.639  28.157  1.00  0.00    +0.000 C 
ATOM     71  F9  UNL A   1      33.266  30.861  27.682  1.00  0.00    +0.000 F 
ATOM     72  C49 UNL A   1      35.243  31.089  28.958  1.00  0.00    +0.000 C 
ATOM     73  F10 UNL A   1      35.191  29.780  29.248  1.00  0.00    +0.000 F 
ATOM     63  C44 UNL A   1      36.294  31.880  29.448  1.00  0.00    +0.000 C 
ATOM     64  C45 UNL A   1      36.306  33.242  29.110  1.00  0.00    +0.000 C 
ENDBRANCH   62   63
BRANCH   77   78
ATOM     78  C53 UNL A   1      41.355  27.344  27.922  1.00  0.00    +0.000 C 
ATOM     79  C54 UNL A   1      42.136  27.959  26.933  1.00  0.00    +0.000 C 
ATOM     80  F11 UNL A   1      42.534  29.231  27.090  1.00  0.00    +0.000 F 
ATOM     81  C55 UNL A   1      42.477  27.286  25.763  1.00  0.00    +0.000 C 
ATOM     82  F12 UNL A   1      43.187  27.912  24.814  1.00  0.00    +0.000 F 
ATOM     83  C56 UNL A   1      42.068  25.974  25.571  1.00  0.00    +0.000 C 
ATOM     84  F13 UNL A   1      42.399  25.326  24.446  1.00  0.00    +0.000 F 
ATOM     85  C57 UNL A   1      41.311  25.340  26.543  1.00  0.00    +0.000 C 
ATOM     86  F14 UNL A   1      40.925  24.068  26.368  1.00  0.00    +0.000 F 
ATOM     87  C58 UNL A   1      40.947  26.022  27.703  1.00  0.00    +0.000 C 
ATOM     88  F15 UNL A   1      40.204  25.386  28.621  1.00  0.00    +0.000 F 
ENDBRANCH   77   78
TORSDOF 28
ENDMDL
MODEL 5
REMARK VINA RESULT:      -5.4     35.887     43.290
ROOT
ATOM    138  H39 UNL A   1      21.866  20.711   3.119  1.00  0.00    +0.000 H 
ATOM    139  H40 UNL A   1      22.426  18.458   4.307  1.00  0.00    +0.000 H 
ATOM    140  H41 UNL A   1      18.646  19.654   5.503  1.00  0.00    +0.000 H 
ATOM    141  H42 UNL A   1      13.493  18.785   9.171  1.00  0.00    +0.000 H 
ATOM    142  H43 UNL A   1      12.950  20.975   8.001  1.00  0.00    +0.000 H 
ATOM    143  H44 UNL A   1      16.686  19.720   6.680  1.00  0.00    +0.000 H 
ATOM    144  H45 UNL A   1      17.602  15.369   9.013  1.00  0.00    +0.000 H 
ATOM    145  H46 UNL A   1      19.908  15.410   7.904  1.00  0.00    +0.000 H 
ATOM    146  H47 UNL A   1      17.523  23.863   3.033  1.00  0.00    +0.000 H 
ATOM    147  H48 UNL A   1      15.449  24.123   4.512  1.00  0.00    +0.000 H 
ATOM     41  C29 UNL A   1      14.999  21.908   6.252  1.00  0.00    +0.000 C 
ATOM     42  C30 UNL A   1      16.177  22.145   5.350  1.00  0.00    +0.000 C 
ATOM     43  N7  UNL A   1      17.242  21.405   5.168  1.00  0.00    +0.000 N 
ATOM     44  C31 UNL A   1      17.993  22.056   4.199  1.00  0.00    +0.000 C 
ATOM     45  C32 UNL A   1      19.212  21.723   3.711  1.00  0.00    +0.000 C 
ATOM     57  C39 UNL A   1      19.971  20.580   4.144  1.00  0.00    +0.000 C 
ATOM     58  C40 UNL A   1      21.247  20.199   3.767  1.00  0.00    +0.000 C 
ATOM     59  C41 UNL A   1      21.554  18.997   4.417  1.00  0.00    +0.000 C 
ATOM     60  C42 UNL A   1      20.486  18.656   5.233  1.00  0.00    +0.000 C 
ATOM     61  N8  UNL A   1      19.522  19.634   5.053  1.00  0.00    +0.000 N 
ATOM     62  C43 UNL A   1      20.356  17.522   6.111  1.00  0.00    +0.000 C 
ATOM     74  C50 UNL A   1      19.279  17.262   6.892  1.00  0.00    +0.000 C 
ATOM     75  N9  UNL A   1      18.103  17.986   7.029  1.00  0.00    +0.000 N 
ATOM     76  C51 UNL A   1      17.366  17.320   7.884  1.00  0.00    +0.000 C 
ATOM     77  C52 UNL A   1      16.004  17.655   8.425  1.00  0.00    +0.000 C 
ATOM     89  C59 UNL A   1      15.403  18.795   8.033  1.00  0.00    +0.000 C 
ATOM     90  C60 UNL A   1      14.099  19.267   8.489  1.00  0.00    +0.000 C 
ATOM     91  C61 UNL A   1      13.817  20.428   7.877  1.00  0.00    +0.000 C 
ATOM     92  C62 UNL A   1      14.935  20.795   7.006  1.00  0.00    +0.000 C 
ATOM     93  N10 UNL A   1      15.826  19.763   7.156  1.00  0.00    +0.000 N 
ATOM     94  C63 UNL A   1      17.985  16.079   8.370  1.00  0.00    +0.000 C 
ATOM     95  C64 UNL A   1      19.165  16.113   7.767  1.00  0.00    +0.000 C 
ATOM     96  C65 UNL A   1      17.241  23.222   3.792  1.00  0.00    +0.000 C 
ATOM     97  C66 UNL A   1      16.144  23.361   4.522  1.00  0.00    +0.000 C 
ENDROOT
BRANCH   41   40
ATOM     98  C67 UNL A   1      13.791  23.818   7.319  1.00  0.00    +0.000 C 
ATOM     99  C68 UNL A   1      12.714  24.698   7.380  1.00  0.00    +0.000 C 
ATOM     37  C25 UNL A   1      11.769  24.717   6.350  1.00  0.00    +0.000 C 
ATOM     38  C26 UNL A   1      11.841  23.782   5.315  1.00  0.00    +0.000 C 
ATOM     39  C27 UNL A   1      12.881  22.853   5.291  1.00  0.00    +0.000 C 
ATOM    136  H37 UNL A   1      11.126  23.779   4.570  1.00  0.00    +0.000 H 
ATOM     40  C28 UNL A   1      13.877  22.878   6.281  1.00  0.00    +0.000 C 
ATOM    137  H38 UNL A   1      12.920  22.144   4.542  1.00  0.00    +0.000 H 
ATOM    148  H49 UNL A   1      14.529  23.857   8.040  1.00  0.00    +0.000 H 
ATOM    149  H50 UNL A   1      12.613  25.336   8.186  1.00  0.00    +0.000 H 
BRANCH   37   35
ATOM     35  C24 UNL A   1      10.663  25.699   6.340  1.00  0.00    +0.000 C 
ATOM     36  O5  UNL A   1      10.019  25.903   7.359  1.00  0.00    +0.000 O 
BRANCH   35   34
ATOM     34  N6  UNL A   1      10.354  26.367   5.182  1.00  0.00    +0.000 N 
ATOM    135  H36 UNL A   1      11.113  26.537   4.578  1.00  0.00    +0.000 H 
BRANCH   34   33
ATOM     33  C23 UNL A   1       9.070  26.858   4.721  1.00  0.00    +0.000 C 
ATOM    133  H34 UNL A   1       8.661  26.154   4.026  1.00  0.00    +0.000 H 
ATOM    134  H35 UNL A   1       8.437  26.975   5.576  1.00  0.00    +0.000 H 
BRANCH   33   32
ATOM    131  H32 UNL A   1       8.723  28.137   3.072  1.00  0.00    +0.000 H 
ATOM    132  H33 UNL A   1       8.700  28.916   4.682  1.00  0.00    +0.000 H 
ATOM     32  C22 UNL A   1       9.182  28.213   4.035  1.00  0.00    +0.000 C 
BRANCH   32   31
ATOM    129  H30 UNL A   1      10.641  29.748   4.152  1.00  0.00    +0.000 H 
ATOM    130  H31 UNL A   1      11.236  28.079   4.421  1.00  0.00    +0.000 H 
ATOM     31  C21 UNL A   1      10.611  28.725   3.840  1.00  0.00    +0.000 C 
BRANCH   31   30
ATOM     30  C20 UNL A   1      11.147  28.652   2.408  1.00  0.00    +0.000 C 
ATOM    127  H28 UNL A   1      10.470  29.185   1.773  1.00  0.00    +0.000 H 
ATOM    128  H29 UNL A   1      12.129  29.075   2.438  1.00  0.00    +0.000 H 
BRANCH   30   29
ATOM    125  H26 UNL A   1      12.315  27.141   1.479  1.00  0.00    +0.000 H 
ATOM     29  C19 UNL A   1      11.313  27.240   1.842  1.00  0.00    +0.000 C 
ATOM    126  H27 UNL A   1      11.085  26.566   2.641  1.00  0.00    +0.000 H 
BRANCH   29   28
ATOM    124  H25 UNL A   1       9.468  26.486   1.131  1.00  0.00    +0.000 H 
ATOM    123  H24 UNL A   1      10.836  26.185   0.057  1.00  0.00    +0.000 H 
ATOM     28  C18 UNL A   1      10.360  26.892   0.703  1.00  0.00    +0.000 C 
BRANCH   28   27
ATOM    122  H23 UNL A   1      10.730  28.688  -0.260  1.00  0.00    +0.000 H 
ATOM     27  N5  UNL A   1       9.995  28.061  -0.071  1.00  0.00    +0.000 N 
BRANCH   27   25
ATOM     25  C17 UNL A   1       8.782  28.418  -0.574  1.00  0.00    +0.000 C 
ATOM     26  O4  UNL A   1       8.439  27.899  -1.642  1.00  0.00    +0.000 O 
BRANCH   25   22
ATOM    118  H19 UNL A   1       8.361  29.728   1.008  1.00  0.00    +0.000 H 
ATOM     22  C15 UNL A   1       7.880  29.466   0.089  1.00  0.00    +0.000 C 
BRANCH   22   21
ATOM    117  H18 UNL A   1       7.243  30.748  -1.489  1.00  0.00    +0.000 H 
ATOM     21  N4  UNL A   1       7.789  30.717  -0.670  1.00  0.00    +0.000 N 
BRANCH   21   19
ATOM     19  C14 UNL A   1       8.447  31.834  -0.263  1.00  0.00    +0.000 C 
ATOM     20  O2  UNL A   1       7.749  32.801   0.051  1.00  0.00    +0.000 O 
BRANCH   19   16
ATOM    113  H14 UNL A   1      10.287  30.973   0.295  1.00  0.00    +0.000 H 
ATOM     16  C12 UNL A   1       9.988  31.877  -0.192  1.00  0.00    +0.000 C 
BRANCH   16   15
ATOM     15  N3  UNL A   1      10.522  31.876  -1.545  1.00  0.00    +0.000 N 
ATOM    112  H13 UNL A   1      11.333  31.349  -1.723  1.00  0.00    +0.000 H 
BRANCH   15   13
ATOM     13  C11 UNL A   1       9.956  32.571  -2.587  1.00  0.00    +0.000 C 
ATOM     14  O1  UNL A   1       9.634  33.741  -2.363  1.00  0.00    +0.000 O 
BRANCH   13    2
ATOM      2  C1  UNL A   1       9.804  31.948  -4.005  1.00  0.00    +0.000 C 
ATOM    103  H4  UNL A   1      10.794  31.718  -4.339  1.00  0.00    +0.000 H 
BRANCH    2    1
ATOM      1  N1  UNL A   1       9.095  30.652  -3.938  1.00  0.00    +0.000 N 
ATOM    100  H1  UNL A   1       9.142  30.193  -4.847  1.00  0.00    +0.000 H 
ATOM    101  H2  UNL A   1       8.119  30.812  -3.687  1.00  0.00    +0.000 H 
ATOM    102  H3  UNL A   1       9.535  30.061  -3.234  1.00  0.00    +0.000 H 
ENDBRANCH    2    1
BRANCH    2    3
ATOM    105  H6  UNL A   1       9.842  33.838  -4.828  1.00  0.00    +0.000 H 
ATOM      3  C2  UNL A   1       9.432  32.908  -5.161  1.00  0.00    +0.000 C 
ATOM    104  H5  UNL A   1       9.820  32.468  -6.055  1.00  0.00    +0.000 H 
BRANCH    3    4
ATOM      4  C3  UNL A   1       7.991  33.273  -5.453  1.00  0.00    +0.000 C 
ATOM      5  C4  UNL A   1       6.969  32.504  -5.984  1.00  0.00    +0.000 C 
ATOM      6  N2  UNL A   1       5.803  33.226  -5.929  1.00  0.00    +0.000 N 
ATOM      7  C5  UNL A   1       6.060  34.508  -5.519  1.00  0.00    +0.000 C 
ATOM      8  C6  UNL A   1       5.192  35.597  -5.364  1.00  0.00    +0.000 C 
ATOM      9  C7  UNL A   1       5.753  36.827  -5.013  1.00  0.00    +0.000 C 
ATOM    106  H7  UNL A   1       7.068  31.548  -6.360  1.00  0.00    +0.000 H 
ATOM     11  C9  UNL A   1       7.968  35.844  -4.915  1.00  0.00    +0.000 C 
ATOM     12  C10 UNL A   1       7.431  34.589  -5.274  1.00  0.00    +0.000 C 
ATOM     10  C8  UNL A   1       7.124  36.956  -4.808  1.00  0.00    +0.000 C 
ATOM    107  H8  UNL A   1       4.911  32.872  -6.152  1.00  0.00    +0.000 H 
ATOM    111  H12 UNL A   1       8.978  35.942  -4.731  1.00  0.00    +0.000 H 
ATOM    108  H9  UNL A   1       4.174  35.493  -5.505  1.00  0.00    +0.000 H 
ATOM    110  H11 UNL A   1       7.521  37.879  -4.576  1.00  0.00    +0.000 H 
ATOM    109  H10 UNL A   1       5.142  37.652  -4.904  1.00  0.00    +0.000 H 
ENDBRANCH    3    4
ENDBRANCH    2    3
ENDBRANCH   13    2
ENDBRANCH   15   13
ENDBRANCH   16   15
BRANCH   16   17
ATOM     17  C13 UNL A   1      10.669  32.793   0.836  1.00  0.00    +0.000 C 
ATOM    114  H15 UNL A   1      10.036  32.832   1.697  1.00  0.00    +0.000 H 
ATOM    115  H16 UNL A   1      10.804  33.721   0.321  1.00  0.00    +0.000 H 
BRANCH   17   18
ATOM     18  S1  UNL A   1      12.339  32.336   1.407  1.00  0.00    +0.000 S 
ATOM    116  H17 UNL A   1      12.255  31.265   2.240  1.00  0.00    +0.000 H 
ENDBRANCH   17   18
ENDBRANCH   16   17
ENDBRANCH   19   16
ENDBRANCH   21   19
ENDBRANCH   22   21
BRANCH   22   23
ATOM    119  H20 UNL A   1       6.225  28.162  -0.264  1.00  0.00    +0.000 H 
ATOM     23  C16 UNL A   1       6.502  28.897   0.463  1.00  0.00    +0.000 C 
ATOM    120  H21 UNL A   1       5.806  29.710   0.483  1.00  0.00    +0.000 H 
BRANCH   23   24
ATOM    121  H22 UNL A   1       7.077  27.510   1.746  1.00  0.00    +0.000 H 
ATOM     24  O3  UNL A   1       6.498  28.288   1.754  1.00  0.00    +0.000 O 
ENDBRANCH   23   24
ENDBRANCH   22   23
ENDBRANCH   25   22
ENDBRANCH   27   25
ENDBRANCH   28   27
ENDBRANCH   29   28
ENDBRANCH   30   29
ENDBRANCH   31   30
ENDBRANCH   32   31
ENDBRANCH   33   32
ENDBRANCH   34   33
ENDBRANCH   35   34
ENDBRANCH   37   35
ENDBRANCH   41   40
BRANCH   45   46
ATOM     46  C33 UNL A   1      19.805  22.612   2.656  1.00  0.00    +0.000 C 
ATOM     47  C34 UNL A   1      19.455  22.480   1.303  1.00  0.00    +0.000 C 
ATOM     48  F1  UNL A   1      18.610  21.514   0.914  1.00  0.00    +0.000 F 
ATOM     49  C35 UNL A   1      20.005  23.319   0.337  1.00  0.00    +0.000 C 
ATOM     50  F2  UNL A   1      19.692  23.144  -0.955  1.00  0.00    +0.000 F 
ATOM     51  C36 UNL A   1      20.884  24.325   0.706  1.00  0.00    +0.000 C 
ATOM     52  F3  UNL A   1      21.407  25.135  -0.224  1.00  0.00    +0.000 F 
ATOM     53  C37 UNL A   1      21.228  24.486   2.040  1.00  0.00    +0.000 C 
ATOM     54  F4  UNL A   1      22.070  25.465   2.400  1.00  0.00    +0.000 F 
ATOM     55  C38 UNL A   1      20.702  23.631   3.005  1.00  0.00    +0.000 C 
ATOM     56  F5  UNL A   1      21.067  23.802   4.286  1.00  0.00    +0.000 F 
ENDBRANCH   45   46
BRANCH   62   63
ATOM     65  F6  UNL A   1      22.523  17.758   7.969  1.00  0.00    +0.000 F 
ATOM     66  C46 UNL A   1      23.580  15.801   7.196  1.00  0.00    +0.000 C 
ATOM     67  F7  UNL A   1      24.571  15.989   8.079  1.00  0.00    +0.000 F 
ATOM     68  C47 UNL A   1      23.613  14.711   6.340  1.00  0.00    +0.000 C 
ATOM     69  F8  UNL A   1      24.624  13.834   6.407  1.00  0.00    +0.000 F 
ATOM     70  C48 UNL A   1      22.602  14.533   5.408  1.00  0.00    +0.000 C 
ATOM     71  F9  UNL A   1      22.626  13.474   4.588  1.00  0.00    +0.000 F 
ATOM     72  C49 UNL A   1      21.563  15.454   5.321  1.00  0.00    +0.000 C 
ATOM     73  F10 UNL A   1      20.605  15.264   4.402  1.00  0.00    +0.000 F 
ATOM     63  C44 UNL A   1      21.504  16.560   6.184  1.00  0.00    +0.000 C 
ATOM     64  C45 UNL A   1      22.527  16.709   7.133  1.00  0.00    +0.000 C 
ENDBRANCH   62   63
BRANCH   77   78
ATOM     78  C53 UNL A   1      15.331  16.762   9.404  1.00  0.00    +0.000 C 
ATOM     79  C54 UNL A   1      15.472  16.971  10.783  1.00  0.00    +0.000 C 
ATOM     80  F11 UNL A   1      16.238  17.977  11.232  1.00  0.00    +0.000 F 
ATOM     81  C55 UNL A   1      14.861  16.126  11.706  1.00  0.00    +0.000 C 
ATOM     82  F12 UNL A   1      15.048  16.321  13.018  1.00  0.00    +0.000 F 
ATOM     83  C56 UNL A   1      14.073  15.071  11.267  1.00  0.00    +0.000 C 
ATOM     84  F13 UNL A   1      13.483  14.260  12.155  1.00  0.00    +0.000 F 
ATOM     85  C57 UNL A   1      13.905  14.856   9.908  1.00  0.00    +0.000 C 
ATOM     86  F14 UNL A   1      13.133  13.847   9.480  1.00  0.00    +0.000 F 
ATOM     87  C58 UNL A   1      14.537  15.686   8.984  1.00  0.00    +0.000 C 
ATOM     88  F15 UNL A   1      14.365  15.448   7.676  1.00  0.00    +0.000 F 
ENDBRANCH   77   78
TORSDOF 28
ENDMDL
MODEL 6
REMARK VINA RESULT:      -5.4     25.894     34.210
ROOT
ATOM    138  H39 UNL A   1      36.781  33.229  34.400  1.00  0.00    +0.000 H 
ATOM    139  H40 UNL A   1      35.869  33.044  31.963  1.00  0.00    +0.000 H 
ATOM    140  H41 UNL A   1      39.155  30.549  32.314  1.00  0.00    +0.000 H 
ATOM    141  H42 UNL A   1      43.370  26.573  29.631  1.00  0.00    +0.000 H 
ATOM    142  H43 UNL A   1      44.245  26.751  32.010  1.00  0.00    +0.000 H 
ATOM    143  H44 UNL A   1      40.866  29.153  31.717  1.00  0.00    +0.000 H 
ATOM    144  H45 UNL A   1      39.208  28.661  27.003  1.00  0.00    +0.000 H 
ATOM    145  H46 UNL A   1      37.440  30.420  27.580  1.00  0.00    +0.000 H 
ATOM    146  H47 UNL A   1      40.738  30.766  37.060  1.00  0.00    +0.000 H 
ATOM    147  H48 UNL A   1      42.812  29.426  36.381  1.00  0.00    +0.000 H 
ATOM     41  C29 UNL A   1      42.751  28.512  33.681  1.00  0.00    +0.000 C 
ATOM     42  C30 UNL A   1      41.770  29.421  34.367  1.00  0.00    +0.000 C 
ATOM     43  N7  UNL A   1      40.693  29.989  33.887  1.00  0.00    +0.000 N 
ATOM     44  C31 UNL A   1      40.130  30.688  34.946  1.00  0.00    +0.000 C 
ATOM     45  C32 UNL A   1      39.039  31.490  34.944  1.00  0.00    +0.000 C 
ATOM     57  C39 UNL A   1      38.244  31.770  33.778  1.00  0.00    +0.000 C 
ATOM     58  C40 UNL A   1      37.166  32.628  33.654  1.00  0.00    +0.000 C 
ATOM     59  C41 UNL A   1      36.686  32.540  32.342  1.00  0.00    +0.000 C 
ATOM     60  C42 UNL A   1      37.495  31.662  31.637  1.00  0.00    +0.000 C 
ATOM     61  N8  UNL A   1      38.444  31.195  32.531  1.00  0.00    +0.000 N 
ATOM     62  C43 UNL A   1      37.407  31.277  30.252  1.00  0.00    +0.000 C 
ATOM     74  C50 UNL A   1      38.248  30.417  29.629  1.00  0.00    +0.000 C 
ATOM     75  N9  UNL A   1      39.341  29.734  30.145  1.00  0.00    +0.000 N 
ATOM     76  C51 UNL A   1      39.816  29.014  29.158  1.00  0.00    +0.000 C 
ATOM     77  C52 UNL A   1      41.010  28.100  29.139  1.00  0.00    +0.000 C 
ATOM     89  C59 UNL A   1      41.753  27.968  30.254  1.00  0.00    +0.000 C 
ATOM     90  C60 UNL A   1      42.951  27.142  30.383  1.00  0.00    +0.000 C 
ATOM     91  C61 UNL A   1      43.418  27.243  31.638  1.00  0.00    +0.000 C 
ATOM     92  C62 UNL A   1      42.566  28.163  32.393  1.00  0.00    +0.000 C 
ATOM     93  N10 UNL A   1      41.600  28.537  31.495  1.00  0.00    +0.000 N 
ATOM     94  C63 UNL A   1      39.061  29.142  27.904  1.00  0.00    +0.000 C 
ATOM     95  C64 UNL A   1      38.143  30.040  28.234  1.00  0.00    +0.000 C 
ATOM     96  C65 UNL A   1      40.952  30.431  36.107  1.00  0.00    +0.000 C 
ATOM     97  C66 UNL A   1      42.018  29.710  35.788  1.00  0.00    +0.000 C 
ENDROOT
BRANCH   41   40
ATOM     98  C67 UNL A   1      43.757  26.748  35.137  1.00  0.00    +0.000 C 
ATOM     99  C68 UNL A   1      44.816  26.243  35.885  1.00  0.00    +0.000 C 
ATOM     37  C25 UNL A   1      46.060  26.882  35.853  1.00  0.00    +0.000 C 
ATOM     38  C26 UNL A   1      46.214  28.085  35.160  1.00  0.00    +0.000 C 
ATOM     39  C27 UNL A   1      45.131  28.628  34.468  1.00  0.00    +0.000 C 
ATOM    136  H37 UNL A   1      47.125  28.570  35.161  1.00  0.00    +0.000 H 
ATOM     40  C28 UNL A   1      43.901  27.953  34.433  1.00  0.00    +0.000 C 
ATOM    137  H38 UNL A   1      45.236  29.530  33.978  1.00  0.00    +0.000 H 
ATOM    148  H49 UNL A   1      42.862  26.234  35.100  1.00  0.00    +0.000 H 
ATOM    149  H50 UNL A   1      44.684  25.399  36.465  1.00  0.00    +0.000 H 
BRANCH   37   35
ATOM     35  C24 UNL A   1      47.229  26.322  36.567  1.00  0.00    +0.000 C 
ATOM     36  O5  UNL A   1      47.635  26.857  37.587  1.00  0.00    +0.000 O 
BRANCH   35   34
ATOM     34  N6  UNL A   1      47.863  25.211  36.069  1.00  0.00    +0.000 N 
ATOM    135  H36 UNL A   1      48.264  24.617  36.744  1.00  0.00    +0.000 H 
BRANCH   34   33
ATOM     33  C23 UNL A   1      48.026  24.788  34.692  1.00  0.00    +0.000 C 
ATOM    133  H34 UNL A   1      47.279  25.265  34.093  1.00  0.00    +0.000 H 
ATOM    134  H35 UNL A   1      49.012  25.064  34.378  1.00  0.00    +0.000 H 
BRANCH   33   32
ATOM    131  H32 UNL A   1      47.051  23.086  33.900  1.00  0.00    +0.000 H 
ATOM    132  H33 UNL A   1      48.819  22.938  34.121  1.00  0.00    +0.000 H 
ATOM     32  C22 UNL A   1      47.892  23.279  34.532  1.00  0.00    +0.000 C 
BRANCH   32   31
ATOM    129  H30 UNL A   1      48.415  22.857  36.543  1.00  0.00    +0.000 H 
ATOM    130  H31 UNL A   1      46.680  22.681  36.132  1.00  0.00    +0.000 H 
ATOM     31  C21 UNL A   1      47.693  22.504  35.836  1.00  0.00    +0.000 C 
BRANCH   31   30
ATOM     30  C20 UNL A   1      47.841  20.984  35.729  1.00  0.00    +0.000 C 
ATOM    127  H28 UNL A   1      48.781  20.712  36.162  1.00  0.00    +0.000 H 
ATOM    128  H29 UNL A   1      46.997  20.569  36.239  1.00  0.00    +0.000 H 
BRANCH   30   29
ATOM    125  H26 UNL A   1      47.090  19.615  34.290  1.00  0.00    +0.000 H 
ATOM     29  C19 UNL A   1      47.794  20.421  34.307  1.00  0.00    +0.000 C 
ATOM    126  H27 UNL A   1      47.520  21.235  33.669  1.00  0.00    +0.000 H 
BRANCH   29   28
ATOM    124  H25 UNL A   1      49.233  20.219  32.770  1.00  0.00    +0.000 H 
ATOM    123  H24 UNL A   1      49.130  18.829  33.852  1.00  0.00    +0.000 H 
ATOM     28  C18 UNL A   1      49.126  19.896  33.784  1.00  0.00    +0.000 C 
BRANCH   28   27
ATOM    122  H23 UNL A   1      50.270  20.157  35.490  1.00  0.00    +0.000 H 
ATOM     27  N5  UNL A   1      50.246  20.417  34.540  1.00  0.00    +0.000 N 
BRANCH   27   25
ATOM     25  C17 UNL A   1      51.271  21.213  34.129  1.00  0.00    +0.000 C 
ATOM     26  O4  UNL A   1      51.686  21.048  32.977  1.00  0.00    +0.000 O 
BRANCH   25   22
ATOM    118  H19 UNL A   1      52.969  21.921  35.134  1.00  0.00    +0.000 H 
ATOM     22  C15 UNL A   1      51.951  22.237  35.047  1.00  0.00    +0.000 C 
BRANCH   22   21
ATOM    117  H18 UNL A   1      51.181  24.104  34.369  1.00  0.00    +0.000 H 
ATOM     21  N4  UNL A   1      52.011  23.583  34.470  1.00  0.00    +0.000 N 
BRANCH   21   19
ATOM     19  C14 UNL A   1      53.192  24.123  34.071  1.00  0.00    +0.000 C 
ATOM     20  O2  UNL A   1      54.091  24.166  34.914  1.00  0.00    +0.000 O 
BRANCH   19   16
ATOM    113  H14 UNL A   1      52.835  23.984  32.000  1.00  0.00    +0.000 H 
ATOM     16  C12 UNL A   1      53.392  24.642  32.632  1.00  0.00    +0.000 C 
BRANCH   16   15
ATOM     15  N3  UNL A   1      52.825  25.978  32.530  1.00  0.00    +0.000 N 
ATOM    112  H13 UNL A   1      53.402  26.744  32.747  1.00  0.00    +0.000 H 
BRANCH   15   13
ATOM     13  C11 UNL A   1      51.528  26.228  32.149  1.00  0.00    +0.000 C 
ATOM     14  O1  UNL A   1      50.729  26.497  33.050  1.00  0.00    +0.000 O 
BRANCH   13    2
ATOM      2  C1  UNL A   1      51.101  26.257  30.653  1.00  0.00    +0.000 C 
ATOM    103  H4  UNL A   1      50.527  27.150  30.522  1.00  0.00    +0.000 H 
BRANCH    2    1
ATOM      1  N1  UNL A   1      52.279  26.407  29.772  1.00  0.00    +0.000 N 
ATOM    100  H1  UNL A   1      52.656  27.351  29.868  1.00  0.00    +0.000 H 
ATOM    101  H2  UNL A   1      52.001  26.249  28.803  1.00  0.00    +0.000 H 
ATOM    102  H3  UNL A   1      52.991  25.727  30.037  1.00  0.00    +0.000 H 
ENDBRANCH    2    1
BRANCH    2    3
ATOM    105  H6  UNL A   1      50.558  24.360  30.057  1.00  0.00    +0.000 H 
ATOM      3  C2  UNL A   1      50.002  25.260  30.214  1.00  0.00    +0.000 C 
ATOM    104  H5  UNL A   1      49.257  25.274  30.980  1.00  0.00    +0.000 H 
BRANCH    3    4
ATOM      4  C3  UNL A   1      49.267  25.422  28.899  1.00  0.00    +0.000 C 
ATOM      5  C4  UNL A   1      49.562  24.910  27.646  1.00  0.00    +0.000 C 
ATOM      6  N2  UNL A   1      48.529  25.210  26.795  1.00  0.00    +0.000 N 
ATOM      7  C5  UNL A   1      47.632  26.041  27.415  1.00  0.00    +0.000 C 
ATOM      8  C6  UNL A   1      46.463  26.635  26.922  1.00  0.00    +0.000 C 
ATOM      9  C7  UNL A   1      45.783  27.521  27.761  1.00  0.00    +0.000 C 
ATOM    106  H7  UNL A   1      50.418  24.390  27.395  1.00  0.00    +0.000 H 
ATOM     11  C9  UNL A   1      47.388  27.141  29.540  1.00  0.00    +0.000 C 
ATOM     12  C10 UNL A   1      48.098  26.245  28.714  1.00  0.00    +0.000 C 
ATOM     10  C8  UNL A   1      46.247  27.786  29.046  1.00  0.00    +0.000 C 
ATOM    107  H8  UNL A   1      48.445  24.876  25.873  1.00  0.00    +0.000 H 
ATOM    111  H12 UNL A   1      47.706  27.320  30.505  1.00  0.00    +0.000 H 
ATOM    108  H9  UNL A   1      46.117  26.425  25.971  1.00  0.00    +0.000 H 
ATOM    110  H11 UNL A   1      45.746  28.464  29.641  1.00  0.00    +0.000 H 
ATOM    109  H10 UNL A   1      44.926  27.985  27.423  1.00  0.00    +0.000 H 
ENDBRANCH    3    4
ENDBRANCH    2    3
ENDBRANCH   13    2
ENDBRANCH   15   13
ENDBRANCH   16   15
BRANCH   16   17
ATOM     17  C13 UNL A   1      54.728  24.386  31.918  1.00  0.00    +0.000 C 
ATOM    114  H15 UNL A   1      54.506  23.903  30.990  1.00  0.00    +0.000 H 
ATOM    115  H16 UNL A   1      55.299  23.807  32.613  1.00  0.00    +0.000 H 
BRANCH   17   18
ATOM     18  S1  UNL A   1      55.781  25.827  31.545  1.00  0.00    +0.000 S 
ATOM    116  H17 UNL A   1      55.269  26.932  32.150  1.00  0.00    +0.000 H 
ENDBRANCH   17   18
ENDBRANCH   16   17
ENDBRANCH   19   16
ENDBRANCH   21   19
ENDBRANCH   22   21
BRANCH   22   23
ATOM    119  H20 UNL A   1      52.140  21.959  37.158  1.00  0.00    +0.000 H 
ATOM     23  C16 UNL A   1      51.365  22.225  36.469  1.00  0.00    +0.000 C 
ATOM    120  H21 UNL A   1      50.565  21.514  36.487  1.00  0.00    +0.000 H 
BRANCH   23   24
ATOM    121  H22 UNL A   1      51.556  24.091  37.086  1.00  0.00    +0.000 H 
ATOM     24  O3  UNL A   1      50.831  23.493  36.846  1.00  0.00    +0.000 O 
ENDBRANCH   23   24
ENDBRANCH   22   23
ENDBRANCH   25   22
ENDBRANCH   27   25
ENDBRANCH   28   27
ENDBRANCH   29   28
ENDBRANCH   30   29
ENDBRANCH   31   30
ENDBRANCH   32   31
ENDBRANCH   33   32
ENDBRANCH   34   33
ENDBRANCH   35   34
ENDBRANCH   37   35
ENDBRANCH   41   40
BRANCH   45   46
ATOM     46  C33 UNL A   1      38.644  32.130  36.243  1.00  0.00    +0.000 C 
ATOM     47  C34 UNL A   1      37.936  31.422  37.226  1.00  0.00    +0.000 C 
ATOM     48  F1  UNL A   1      37.550  30.157  37.001  1.00  0.00    +0.000 F 
ATOM     49  C35 UNL A   1      37.585  32.026  38.431  1.00  0.00    +0.000 C 
ATOM     50  F2  UNL A   1      36.867  31.344  39.335  1.00  0.00    +0.000 F 
ATOM     51  C36 UNL A   1      37.966  33.333  38.692  1.00  0.00    +0.000 C 
ATOM     52  F3  UNL A   1      37.633  33.910  39.854  1.00  0.00    +0.000 F 
ATOM     53  C37 UNL A   1      38.684  34.044  37.743  1.00  0.00    +0.000 C 
ATOM     54  F4  UNL A   1      39.063  35.305  37.998  1.00  0.00    +0.000 F 
ATOM     55  C38 UNL A   1      39.011  33.454  36.525  1.00  0.00    +0.000 C 
ATOM     56  F5  UNL A   1      39.693  34.174  35.621  1.00  0.00    +0.000 F 
ENDBRANCH   45   46
BRANCH   62   63
ATOM     65  F6  UNL A   1      35.198  29.798  29.185  1.00  0.00    +0.000 F 
ATOM     66  C46 UNL A   1      34.226  31.700  28.195  1.00  0.00    +0.000 C 
ATOM     67  F7  UNL A   1      33.234  30.939  27.710  1.00  0.00    +0.000 F 
ATOM     68  C47 UNL A   1      34.247  33.061  27.930  1.00  0.00    +0.000 C 
ATOM     69  F8  UNL A   1      33.266  33.620  27.208  1.00  0.00    +0.000 F 
ATOM     70  C48 UNL A   1      35.288  33.842  28.408  1.00  0.00    +0.000 C 
ATOM     71  F9  UNL A   1      35.303  35.159  28.165  1.00  0.00    +0.000 F 
ATOM     72  C49 UNL A   1      36.319  33.259  29.139  1.00  0.00    +0.000 C 
ATOM     73  F10 UNL A   1      37.320  34.037  29.578  1.00  0.00    +0.000 F 
ATOM     63  C44 UNL A   1      36.313  31.886  29.426  1.00  0.00    +0.000 C 
ATOM     64  C45 UNL A   1      35.239  31.118  28.950  1.00  0.00    +0.000 C 
ENDBRANCH   62   63
BRANCH   77   78
ATOM     78  C53 UNL A   1      41.393  27.370  27.903  1.00  0.00    +0.000 C 
ATOM     79  C54 UNL A   1      42.221  27.967  26.942  1.00  0.00    +0.000 C 
ATOM     80  F11 UNL A   1      42.661  29.221  27.126  1.00  0.00    +0.000 F 
ATOM     81  C55 UNL A   1      42.566  27.296  25.772  1.00  0.00    +0.000 C 
ATOM     82  F12 UNL A   1      43.322  27.907  24.849  1.00  0.00    +0.000 F 
ATOM     83  C56 UNL A   1      42.114  26.003  25.553  1.00  0.00    +0.000 C 
ATOM     84  F13 UNL A   1      42.449  25.356  24.428  1.00  0.00    +0.000 F 
ATOM     85  C57 UNL A   1      41.309  25.385  26.498  1.00  0.00    +0.000 C 
ATOM     86  F14 UNL A   1      40.882  24.130  26.296  1.00  0.00    +0.000 F 
ATOM     87  C58 UNL A   1      40.942  26.066  27.657  1.00  0.00    +0.000 C 
ATOM     88  F15 UNL A   1      40.154  25.447  28.548  1.00  0.00    +0.000 F 
ENDBRANCH   77   78
TORSDOF 28
ENDMDL
MODEL 7
REMARK VINA RESULT:      -5.3      8.508     12.708
ROOT
ATOM    138  H39 UNL A   1      60.042  23.920   0.628  1.00  0.00    +0.000 H 
ATOM    139  H40 UNL A   1      59.908  25.564  -1.392  1.00  0.00    +0.000 H 
ATOM    140  H41 UNL A   1      57.624  27.109   1.697  1.00  0.00    +0.000 H 
ATOM    141  H42 UNL A   1      53.583  31.545   3.880  1.00  0.00    +0.000 H 
ATOM    142  H43 UNL A   1      53.729  29.944   5.847  1.00  0.00    +0.000 H 
ATOM    143  H44 UNL A   1      56.138  28.446   2.809  1.00  0.00    +0.000 H 
ATOM    144  H45 UNL A   1      55.809  31.728  -0.978  1.00  0.00    +0.000 H 
ATOM    145  H46 UNL A   1      57.263  30.112  -2.331  1.00  0.00    +0.000 H 
ATOM    146  H47 UNL A   1      58.089  24.039   5.625  1.00  0.00    +0.000 H 
ATOM    147  H48 UNL A   1      56.235  25.349   6.810  1.00  0.00    +0.000 H 
ATOM     41  C29 UNL A   1      55.382  27.668   5.386  1.00  0.00    +0.000 C 
ATOM     42  C30 UNL A   1      56.350  26.612   4.930  1.00  0.00    +0.000 C 
ATOM     43  N7  UNL A   1      57.001  26.520   3.798  1.00  0.00    +0.000 N 
ATOM     44  C31 UNL A   1      57.791  25.384   3.909  1.00  0.00    +0.000 C 
ATOM     45  C32 UNL A   1      58.601  24.825   2.977  1.00  0.00    +0.000 C 
ATOM     57  C39 UNL A   1      58.781  25.343   1.648  1.00  0.00    +0.000 C 
ATOM     58  C40 UNL A   1      59.519  24.809   0.606  1.00  0.00    +0.000 C 
ATOM     59  C41 UNL A   1      59.434  25.684  -0.483  1.00  0.00    +0.000 C 
ATOM     60  C42 UNL A   1      58.605  26.739  -0.134  1.00  0.00    +0.000 C 
ATOM     61  N8  UNL A   1      58.215  26.519   1.176  1.00  0.00    +0.000 N 
ATOM     62  C43 UNL A   1      58.201  27.865  -0.936  1.00  0.00    +0.000 C 
ATOM     74  C50 UNL A   1      57.372  28.855  -0.526  1.00  0.00    +0.000 C 
ATOM     75  N9  UNL A   1      56.745  29.018   0.702  1.00  0.00    +0.000 N 
ATOM     76  C51 UNL A   1      56.068  30.136   0.616  1.00  0.00    +0.000 C 
ATOM     77  C52 UNL A   1      55.180  30.790   1.640  1.00  0.00    +0.000 C 
ATOM     89  C59 UNL A   1      54.995  30.186   2.829  1.00  0.00    +0.000 C 
ATOM     90  C60 UNL A   1      54.146  30.681   3.909  1.00  0.00    +0.000 C 
ATOM     91  C61 UNL A   1      54.217  29.830   4.945  1.00  0.00    +0.000 C 
ATOM     92  C62 UNL A   1      55.096  28.715   4.590  1.00  0.00    +0.000 C 
ATOM     93  N10 UNL A   1      55.519  29.015   3.320  1.00  0.00    +0.000 N 
ATOM     94  C63 UNL A   1      56.207  30.825  -0.674  1.00  0.00    +0.000 C 
ATOM     95  C64 UNL A   1      56.978  29.982  -1.347  1.00  0.00    +0.000 C 
ATOM     96  C65 UNL A   1      57.580  24.848   5.234  1.00  0.00    +0.000 C 
ATOM     97  C66 UNL A   1      56.646  25.530   5.882  1.00  0.00    +0.000 C 
ENDROOT
BRANCH   41   40
ATOM     98  C67 UNL A   1      55.534  27.922   7.867  1.00  0.00    +0.000 C 
ATOM     99  C68 UNL A   1      54.986  27.802   9.141  1.00  0.00    +0.000 C 
ATOM     37  C25 UNL A   1      53.643  27.446   9.292  1.00  0.00    +0.000 C 
ATOM     38  C26 UNL A   1      52.877  27.105   8.174  1.00  0.00    +0.000 C 
ATOM     39  C27 UNL A   1      53.448  27.158   6.902  1.00  0.00    +0.000 C 
ATOM    136  H37 UNL A   1      51.893  26.815   8.290  1.00  0.00    +0.000 H 
ATOM     40  C28 UNL A   1      54.774  27.587   6.737  1.00  0.00    +0.000 C 
ATOM    137  H38 UNL A   1      52.892  26.879   6.079  1.00  0.00    +0.000 H 
ATOM    148  H49 UNL A   1      56.504  28.259   7.754  1.00  0.00    +0.000 H 
ATOM    149  H50 UNL A   1      55.572  27.975   9.974  1.00  0.00    +0.000 H 
BRANCH   37   35
ATOM     35  C24 UNL A   1      53.006  27.396  10.627  1.00  0.00    +0.000 C 
ATOM     36  O5  UNL A   1      52.474  28.394  11.087  1.00  0.00    +0.000 O 
BRANCH   35   34
ATOM     34  N6  UNL A   1      53.030  26.229  11.349  1.00  0.00    +0.000 N 
ATOM    135  H36 UNL A   1      53.124  26.338  12.323  1.00  0.00    +0.000 H 
BRANCH   34   33
ATOM     33  C23 UNL A   1      52.936  24.859  10.882  1.00  0.00    +0.000 C 
ATOM    133  H34 UNL A   1      52.391  24.845   9.962  1.00  0.00    +0.000 H 
ATOM    134  H35 UNL A   1      53.931  24.488  10.752  1.00  0.00    +0.000 H 
BRANCH   33   32
ATOM    131  H32 UNL A   1      52.891  23.793  12.709  1.00  0.00    +0.000 H 
ATOM    132  H33 UNL A   1      51.326  24.461  12.157  1.00  0.00    +0.000 H 
ATOM     32  C22 UNL A   1      52.229  23.956  11.884  1.00  0.00    +0.000 C 
BRANCH   32   31
ATOM    129  H30 UNL A   1      52.587  21.892  11.555  1.00  0.00    +0.000 H 
ATOM    130  H31 UNL A   1      50.877  22.358  11.818  1.00  0.00    +0.000 H 
ATOM     31  C21 UNL A   1      51.805  22.590  11.339  1.00  0.00    +0.000 C 
BRANCH   31   30
ATOM     30  C20 UNL A   1      51.526  22.539   9.835  1.00  0.00    +0.000 C 
ATOM    127  H28 UNL A   1      50.809  23.300   9.605  1.00  0.00    +0.000 H 
ATOM    128  H29 UNL A   1      52.471  22.680   9.355  1.00  0.00    +0.000 H 
BRANCH   30   29
ATOM    125  H26 UNL A   1      51.794  20.661   8.881  1.00  0.00    +0.000 H 
ATOM     29  C19 UNL A   1      50.983  21.206   9.315  1.00  0.00    +0.000 C 
ATOM    126  H27 UNL A   1      50.543  20.711  10.155  1.00  0.00    +0.000 H 
BRANCH   29   28
ATOM    124  H25 UNL A   1      50.334  21.636   7.347  1.00  0.00    +0.000 H 
ATOM    123  H24 UNL A   1      49.163  22.048   8.603  1.00  0.00    +0.000 H 
ATOM     28  C18 UNL A   1      49.882  21.330   8.268  1.00  0.00    +0.000 C 
BRANCH   28   27
ATOM    122  H23 UNL A   1      48.332  19.973   8.476  1.00  0.00    +0.000 H 
ATOM     27  N5  UNL A   1      49.210  20.068   8.039  1.00  0.00    +0.000 N 
BRANCH   27   25
ATOM     25  C17 UNL A   1      49.615  18.993   7.309  1.00  0.00    +0.000 C 
ATOM     26  O4  UNL A   1      49.933  17.975   7.933  1.00  0.00    +0.000 O 
BRANCH   25   22
ATOM    118  H19 UNL A   1      50.245  19.944   5.550  1.00  0.00    +0.000 H 
ATOM     22  C15 UNL A   1      49.749  19.025   5.782  1.00  0.00    +0.000 C 
BRANCH   22   21
ATOM    117  H18 UNL A   1      50.266  17.057   5.151  1.00  0.00    +0.000 H 
ATOM     21  N4  UNL A   1      50.620  17.971   5.253  1.00  0.00    +0.000 N 
BRANCH   21   19
ATOM     19  C14 UNL A   1      51.905  18.233   4.904  1.00  0.00    +0.000 C 
ATOM     20  O2  UNL A   1      52.256  19.415   4.941  1.00  0.00    +0.000 O 
BRANCH   19   16
ATOM    113  H14 UNL A   1      53.717  17.584   4.047  1.00  0.00    +0.000 H 
ATOM     16  C12 UNL A   1      52.873  17.103   4.494  1.00  0.00    +0.000 C 
BRANCH   16   15
ATOM     15  N3  UNL A   1      53.314  16.404   5.691  1.00  0.00    +0.000 N 
ATOM    112  H13 UNL A   1      52.910  15.530   5.893  1.00  0.00    +0.000 H 
BRANCH   15   13
ATOM     13  C11 UNL A   1      54.263  16.897   6.555  1.00  0.00    +0.000 C 
ATOM     14  O1  UNL A   1      55.365  17.168   6.070  1.00  0.00    +0.000 O 
BRANCH   13    2
ATOM      2  C1  UNL A   1      53.946  17.181   8.052  1.00  0.00    +0.000 C 
ATOM    103  H4  UNL A   1      53.075  16.605   8.288  1.00  0.00    +0.000 H 
BRANCH    2    1
ATOM      1  N1  UNL A   1      55.019  16.658   8.925  1.00  0.00    +0.000 N 
ATOM    100  H1  UNL A   1      54.817  15.687   9.165  1.00  0.00    +0.000 H 
ATOM    101  H2  UNL A   1      55.065  17.216   9.777  1.00  0.00    +0.000 H 
ATOM    102  H3  UNL A   1      55.911  16.709   8.435  1.00  0.00    +0.000 H 
ENDBRANCH    2    1
BRANCH    2    3
ATOM    105  H6  UNL A   1      53.055  18.936   7.438  1.00  0.00    +0.000 H 
ATOM      3  C2  UNL A   1      53.355  18.569   8.397  1.00  0.00    +0.000 C 
ATOM    104  H5  UNL A   1      52.604  18.402   9.139  1.00  0.00    +0.000 H 
BRANCH    3    4
ATOM      4  C3  UNL A   1      54.228  19.693   8.916  1.00  0.00    +0.000 C 
ATOM      5  C4  UNL A   1      55.085  20.541   8.235  1.00  0.00    +0.000 C 
ATOM      6  N2  UNL A   1      55.549  21.491   9.109  1.00  0.00    +0.000 N 
ATOM      7  C5  UNL A   1      55.143  21.198  10.385  1.00  0.00    +0.000 C 
ATOM      8  C6  UNL A   1      55.416  21.855  11.592  1.00  0.00    +0.000 C 
ATOM      9  C7  UNL A   1      54.937  21.272  12.769  1.00  0.00    +0.000 C 
ATOM    106  H7  UNL A   1      55.333  20.470   7.236  1.00  0.00    +0.000 H 
ATOM     11  C9  UNL A   1      53.892  19.480  11.513  1.00  0.00    +0.000 C 
ATOM     12  C10 UNL A   1      54.366  20.041  10.309  1.00  0.00    +0.000 C 
ATOM     10  C8  UNL A   1      54.201  20.091  12.734  1.00  0.00    +0.000 C 
ATOM    107  H8  UNL A   1      56.095  22.271   8.856  1.00  0.00    +0.000 H 
ATOM    111  H12 UNL A   1      53.319  18.622  11.494  1.00  0.00    +0.000 H 
ATOM    108  H9  UNL A   1      55.953  22.736  11.611  1.00  0.00    +0.000 H 
ATOM    110  H11 UNL A   1      53.879  19.664  13.616  1.00  0.00    +0.000 H 
ATOM    109  H10 UNL A   1      55.132  21.724  13.676  1.00  0.00    +0.000 H 
ENDBRANCH    3    4
ENDBRANCH    2    3
ENDBRANCH   13    2
ENDBRANCH   15   13
ENDBRANCH   16   15
BRANCH   16   17
ATOM     17  C13 UNL A   1      52.554  16.251   3.257  1.00  0.00    +0.000 C 
ATOM    114  H15 UNL A   1      51.785  16.756   2.711  1.00  0.00    +0.000 H 
ATOM    115  H16 UNL A   1      52.287  15.293   3.650  1.00  0.00    +0.000 H 
BRANCH   17   18
ATOM     18  S1  UNL A   1      53.912  15.907   2.090  1.00  0.00    +0.000 S 
ATOM    116  H17 UNL A   1      54.623  14.833   2.524  1.00  0.00    +0.000 H 
ENDBRANCH   17   18
ENDBRANCH   16   17
ENDBRANCH   19   16
ENDBRANCH   21   19
ENDBRANCH   22   21
BRANCH   22   23
ATOM    119  H20 UNL A   1      47.696  18.456   5.615  1.00  0.00    +0.000 H 
ATOM     23  C16 UNL A   1      48.382  19.076   5.078  1.00  0.00    +0.000 C 
ATOM    120  H21 UNL A   1      48.519  18.732   4.074  1.00  0.00    +0.000 H 
BRANCH   23   24
ATOM    121  H22 UNL A   1      48.104  20.811   4.177  1.00  0.00    +0.000 H 
ATOM     24  O3  UNL A   1      47.852  20.400   5.018  1.00  0.00    +0.000 O 
ENDBRANCH   23   24
ENDBRANCH   22   23
ENDBRANCH   25   22
ENDBRANCH   27   25
ENDBRANCH   28   27
ENDBRANCH   29   28
ENDBRANCH   30   29
ENDBRANCH   31   30
ENDBRANCH   32   31
ENDBRANCH   33   32
ENDBRANCH   34   33
ENDBRANCH   35   34
ENDBRANCH   37   35
ENDBRANCH   41   40
BRANCH   45   46
ATOM     46  C33 UNL A   1      59.349  23.582   3.363  1.00  0.00    +0.000 C 
ATOM     47  C34 UNL A   1      58.734  22.320   3.351  1.00  0.00    +0.000 C 
ATOM     48  F1  UNL A   1      57.435  22.205   3.035  1.00  0.00    +0.000 F 
ATOM     49  C35 UNL A   1      59.443  21.174   3.702  1.00  0.00    +0.000 C 
ATOM     50  F2  UNL A   1      58.822  19.987   3.729  1.00  0.00    +0.000 F 
ATOM     51  C36 UNL A   1      60.786  21.261   4.036  1.00  0.00    +0.000 C 
ATOM     52  F3  UNL A   1      61.468  20.157   4.367  1.00  0.00    +0.000 F 
ATOM     53  C37 UNL A   1      61.419  22.495   4.035  1.00  0.00    +0.000 C 
ATOM     54  F4  UNL A   1      62.720  22.580   4.347  1.00  0.00    +0.000 F 
ATOM     55  C38 UNL A   1      60.705  23.647   3.712  1.00  0.00    +0.000 C 
ATOM     56  F5  UNL A   1      61.343  24.828   3.736  1.00  0.00    +0.000 F 
ENDBRANCH   45   46
BRANCH   62   63
ATOM     65  F6  UNL A   1      60.634  29.186  -1.672  1.00  0.00    +0.000 F 
ATOM     66  C46 UNL A   1      60.405  28.636  -3.950  1.00  0.00    +0.000 C 
ATOM     67  F7  UNL A   1      61.542  29.291  -4.221  1.00  0.00    +0.000 F 
ATOM     68  C47 UNL A   1      59.696  28.026  -4.973  1.00  0.00    +0.000 C 
ATOM     69  F8  UNL A   1      60.158  28.073  -6.231  1.00  0.00    +0.000 F 
ATOM     70  C48 UNL A   1      58.505  27.372  -4.696  1.00  0.00    +0.000 C 
ATOM     71  F9  UNL A   1      57.826  26.771  -5.682  1.00  0.00    +0.000 F 
ATOM     72  C49 UNL A   1      58.014  27.341  -3.395  1.00  0.00    +0.000 C 
ATOM     73  F10 UNL A   1      56.852  26.712  -3.157  1.00  0.00    +0.000 F 
ATOM     63  C44 UNL A   1      58.719  27.943  -2.342  1.00  0.00    +0.000 C 
ATOM     64  C45 UNL A   1      59.932  28.581  -2.642  1.00  0.00    +0.000 C 
ENDBRANCH   62   63
BRANCH   77   78
ATOM     78  C53 UNL A   1      54.486  32.069   1.342  1.00  0.00    +0.000 C 
ATOM     79  C54 UNL A   1      55.191  33.281   1.314  1.00  0.00    +0.000 C 
ATOM     80  F11 UNL A   1      56.506  33.295   1.576  1.00  0.00    +0.000 F 
ATOM     81  C55 UNL A   1      54.541  34.486   1.057  1.00  0.00    +0.000 C 
ATOM     82  F12 UNL A   1      55.230  35.635   1.079  1.00  0.00    +0.000 F 
ATOM     83  C56 UNL A   1      53.179  34.499   0.794  1.00  0.00    +0.000 C 
ATOM     84  F13 UNL A   1      52.555  35.658   0.544  1.00  0.00    +0.000 F 
ATOM     85  C57 UNL A   1      52.465  33.311   0.799  1.00  0.00    +0.000 C 
ATOM     86  F14 UNL A   1      51.151  33.318   0.532  1.00  0.00    +0.000 F 
ATOM     87  C58 UNL A   1      53.109  32.108   1.082  1.00  0.00    +0.000 C 
ATOM     88  F15 UNL A   1      52.391  30.976   1.091  1.00  0.00    +0.000 F 
ENDBRANCH   77   78
TORSDOF 28
ENDMDL
MODEL 8
REMARK VINA RESULT:      -5.3      8.450     12.659
ROOT
ATOM    138  H39 UNL A   1      60.016  23.815   0.721  1.00  0.00    +0.000 H 
ATOM    139  H40 UNL A   1      59.901  25.448  -1.309  1.00  0.00    +0.000 H 
ATOM    140  H41 UNL A   1      57.605  27.021   1.757  1.00  0.00    +0.000 H 
ATOM    141  H42 UNL A   1      53.570  31.486   3.889  1.00  0.00    +0.000 H 
ATOM    142  H43 UNL A   1      53.697  29.896   5.867  1.00  0.00    +0.000 H 
ATOM    143  H44 UNL A   1      56.118  28.371   2.852  1.00  0.00    +0.000 H 
ATOM    144  H45 UNL A   1      55.826  31.631  -0.956  1.00  0.00    +0.000 H 
ATOM    145  H46 UNL A   1      57.281  30.002  -2.290  1.00  0.00    +0.000 H 
ATOM    146  H47 UNL A   1      58.033  23.971   5.706  1.00  0.00    +0.000 H 
ATOM    147  H48 UNL A   1      56.178  25.296   6.872  1.00  0.00    +0.000 H 
ATOM     41  C29 UNL A   1      55.343  27.610   5.429  1.00  0.00    +0.000 C 
ATOM     42  C30 UNL A   1      56.309  26.548   4.985  1.00  0.00    +0.000 C 
ATOM     43  N7  UNL A   1      56.967  26.447   3.858  1.00  0.00    +0.000 N 
ATOM     44  C31 UNL A   1      57.751  25.307   3.979  1.00  0.00    +0.000 C 
ATOM     45  C32 UNL A   1      58.565  24.740   3.056  1.00  0.00    +0.000 C 
ATOM     57  C39 UNL A   1      58.755  25.250   1.725  1.00  0.00    +0.000 C 
ATOM     58  C40 UNL A   1      59.497  24.706   0.691  1.00  0.00    +0.000 C 
ATOM     59  C41 UNL A   1      59.422  25.575  -0.404  1.00  0.00    +0.000 C 
ATOM     60  C42 UNL A   1      58.596  26.636  -0.067  1.00  0.00    +0.000 C 
ATOM     61  N8  UNL A   1      58.197  26.425   1.243  1.00  0.00    +0.000 N 
ATOM     62  C43 UNL A   1      58.201  27.758  -0.877  1.00  0.00    +0.000 C 
ATOM     74  C50 UNL A   1      57.374  28.755  -0.477  1.00  0.00    +0.000 C 
ATOM     75  N9  UNL A   1      56.740  28.927   0.745  1.00  0.00    +0.000 N 
ATOM     76  C51 UNL A   1      56.068  30.048   0.648  1.00  0.00    +0.000 C 
ATOM     77  C52 UNL A   1      55.177  30.711   1.663  1.00  0.00    +0.000 C 
ATOM     89  C59 UNL A   1      54.982  30.115   2.854  1.00  0.00    +0.000 C 
ATOM     90  C60 UNL A   1      54.129  30.620   3.927  1.00  0.00    +0.000 C 
ATOM     91  C61 UNL A   1      54.190  29.775   4.968  1.00  0.00    +0.000 C 
ATOM     92  C62 UNL A   1      55.066  28.654   4.624  1.00  0.00    +0.000 C 
ATOM     93  N10 UNL A   1      55.498  28.945   3.356  1.00  0.00    +0.000 N 
ATOM     94  C63 UNL A   1      56.219  30.729  -0.645  1.00  0.00    +0.000 C 
ATOM     95  C64 UNL A   1      56.990  29.878  -1.308  1.00  0.00    +0.000 C 
ATOM     96  C65 UNL A   1      57.530  24.780   5.307  1.00  0.00    +0.000 C 
ATOM     97  C66 UNL A   1      56.595  25.470   5.945  1.00  0.00    +0.000 C 
ENDROOT
BRANCH   41   40
ATOM     98  C67 UNL A   1      55.497  27.824   7.913  1.00  0.00    +0.000 C 
ATOM     99  C68 UNL A   1      54.938  27.713   9.184  1.00  0.00    +0.000 C 
ATOM     37  C25 UNL A   1      53.579  27.418   9.325  1.00  0.00    +0.000 C 
ATOM     38  C26 UNL A   1      52.803  27.128   8.200  1.00  0.00    +0.000 C 
ATOM     39  C27 UNL A   1      53.381  27.171   6.931  1.00  0.00    +0.000 C 
ATOM    136  H37 UNL A   1      51.806  26.882   8.308  1.00  0.00    +0.000 H 
ATOM     40  C28 UNL A   1      54.726  27.540   6.776  1.00  0.00    +0.000 C 
ATOM    137  H38 UNL A   1      52.816  26.930   6.102  1.00  0.00    +0.000 H 
ATOM    148  H49 UNL A   1      56.481  28.117   7.808  1.00  0.00    +0.000 H 
ATOM    149  H50 UNL A   1      55.528  27.846  10.021  1.00  0.00    +0.000 H 
BRANCH   37   35
ATOM     35  C24 UNL A   1      52.936  27.379  10.657  1.00  0.00    +0.000 C 
ATOM     36  O5  UNL A   1      52.543  28.413  11.175  1.00  0.00    +0.000 O 
BRANCH   35   34
ATOM     34  N6  UNL A   1      52.796  26.181  11.311  1.00  0.00    +0.000 N 
ATOM    135  H36 UNL A   1      52.896  26.221  12.290  1.00  0.00    +0.000 H 
BRANCH   34   33
ATOM     33  C23 UNL A   1      52.520  24.865  10.767  1.00  0.00    +0.000 C 
ATOM    133  H34 UNL A   1      51.742  24.950  10.037  1.00  0.00    +0.000 H 
ATOM    134  H35 UNL A   1      53.425  24.494  10.332  1.00  0.00    +0.000 H 
BRANCH   33   32
ATOM    131  H32 UNL A   1      52.817  23.879  12.615  1.00  0.00    +0.000 H 
ATOM    132  H33 UNL A   1      51.115  24.206  12.170  1.00  0.00    +0.000 H 
ATOM     32  C22 UNL A   1      52.079  23.878  11.840  1.00  0.00    +0.000 C 
BRANCH   32   31
ATOM    129  H30 UNL A   1      52.809  21.909  11.548  1.00  0.00    +0.000 H 
ATOM    130  H31 UNL A   1      51.058  22.051  11.898  1.00  0.00    +0.000 H 
ATOM     31  C21 UNL A   1      51.898  22.436  11.359  1.00  0.00    +0.000 C 
BRANCH   31   30
ATOM     30  C20 UNL A   1      51.556  22.275   9.876  1.00  0.00    +0.000 C 
ATOM    127  H28 UNL A   1      50.708  22.892   9.662  1.00  0.00    +0.000 H 
ATOM    128  H29 UNL A   1      52.437  22.555   9.338  1.00  0.00    +0.000 H 
BRANCH   30   29
ATOM    125  H26 UNL A   1      52.127  20.388   9.088  1.00  0.00    +0.000 H 
ATOM     29  C19 UNL A   1      51.225  20.849   9.432  1.00  0.00    +0.000 C 
ATOM    126  H27 UNL A   1      50.798  20.359  10.282  1.00  0.00    +0.000 H 
BRANCH   29   28
ATOM    124  H25 UNL A   1      50.685  20.933   7.388  1.00  0.00    +0.000 H 
ATOM    123  H24 UNL A   1      49.420  21.473   8.494  1.00  0.00    +0.000 H 
ATOM     28  C18 UNL A   1      50.189  20.750   8.318  1.00  0.00    +0.000 C 
BRANCH   28   27
ATOM    122  H23 UNL A   1      48.759  19.324   8.773  1.00  0.00    +0.000 H 
ATOM     27  N5  UNL A   1      49.588  19.434   8.254  1.00  0.00    +0.000 N 
BRANCH   27   25
ATOM     25  C17 UNL A   1      50.005  18.326   7.581  1.00  0.00    +0.000 C 
ATOM     26  O4  UNL A   1      50.524  17.424   8.246  1.00  0.00    +0.000 O 
BRANCH   25   22
ATOM    118  H19 UNL A   1      50.524  18.976   5.656  1.00  0.00    +0.000 H 
ATOM     22  C15 UNL A   1      49.912  18.194   6.055  1.00  0.00    +0.000 C 
BRANCH   22   21
ATOM    117  H18 UNL A   1      50.008  16.102   5.670  1.00  0.00    +0.000 H 
ATOM     21  N4  UNL A   1      50.494  16.949   5.545  1.00  0.00    +0.000 N 
BRANCH   21   19
ATOM     19  C14 UNL A   1      51.691  16.945   4.904  1.00  0.00    +0.000 C 
ATOM     20  O2  UNL A   1      52.042  18.008   4.386  1.00  0.00    +0.000 O 
BRANCH   19   16
ATOM    113  H14 UNL A   1      53.282  15.846   4.068  1.00  0.00    +0.000 H 
ATOM     16  C12 UNL A   1      52.565  15.675   4.843  1.00  0.00    +0.000 C 
BRANCH   16   15
ATOM     15  N3  UNL A   1      53.269  15.526   6.106  1.00  0.00    +0.000 N 
ATOM    112  H13 UNL A   1      53.042  14.757   6.676  1.00  0.00    +0.000 H 
BRANCH   15   13
ATOM     13  C11 UNL A   1      54.233  16.400   6.549  1.00  0.00    +0.000 C 
ATOM     14  O1  UNL A   1      55.234  16.527   5.837  1.00  0.00    +0.000 O 
BRANCH   13    2
ATOM      2  C1  UNL A   1      54.043  17.254   7.836  1.00  0.00    +0.000 C 
ATOM    103  H4  UNL A   1      53.078  17.001   8.223  1.00  0.00    +0.000 H 
BRANCH    2    1
ATOM      1  N1  UNL A   1      55.010  16.854   8.880  1.00  0.00    +0.000 N 
ATOM    100  H1  UNL A   1      54.760  15.931   9.238  1.00  0.00    +0.000 H 
ATOM    101  H2  UNL A   1      54.986  17.532   9.642  1.00  0.00    +0.000 H 
ATOM    102  H3  UNL A   1      55.947  16.822   8.481  1.00  0.00    +0.000 H 
ENDBRANCH    2    1
BRANCH    2    3
ATOM    105  H6  UNL A   1      53.250  18.793   6.717  1.00  0.00    +0.000 H 
ATOM      3  C2  UNL A   1      53.780  18.767   7.646  1.00  0.00    +0.000 C 
ATOM    104  H5  UNL A   1      53.280  19.100   8.530  1.00  0.00    +0.000 H 
BRANCH    3    4
ATOM      4  C3  UNL A   1      54.913  19.742   7.402  1.00  0.00    +0.000 C 
ATOM      5  C4  UNL A   1      55.810  19.819   6.349  1.00  0.00    +0.000 C 
ATOM      6  N2  UNL A   1      56.563  20.956   6.496  1.00  0.00    +0.000 N 
ATOM      7  C5  UNL A   1      56.292  21.550   7.701  1.00  0.00    +0.000 C 
ATOM      8  C6  UNL A   1      56.851  22.692   8.290  1.00  0.00    +0.000 C 
ATOM      9  C7  UNL A   1      56.441  23.019   9.585  1.00  0.00    +0.000 C 
ATOM    106  H7  UNL A   1      55.897  19.134   5.582  1.00  0.00    +0.000 H 
ATOM     11  C9  UNL A   1      54.911  21.138   9.627  1.00  0.00    +0.000 C 
ATOM     12  C10 UNL A   1      55.309  20.779   8.322  1.00  0.00    +0.000 C 
ATOM     10  C8  UNL A   1      55.498  22.244  10.253  1.00  0.00    +0.000 C 
ATOM    107  H8  UNL A   1      57.204  21.296   5.831  1.00  0.00    +0.000 H 
ATOM    111  H12 UNL A   1      54.190  20.588  10.119  1.00  0.00    +0.000 H 
ATOM    108  H9  UNL A   1      57.541  23.270   7.784  1.00  0.00    +0.000 H 
ATOM    110  H11 UNL A   1      55.229  22.488  11.219  1.00  0.00    +0.000 H 
ATOM    109  H10 UNL A   1      56.844  23.847  10.051  1.00  0.00    +0.000 H 
ENDBRANCH    3    4
ENDBRANCH    2    3
ENDBRANCH   13    2
ENDBRANCH   15   13
ENDBRANCH   16   15
BRANCH   16   17
ATOM     17  C13 UNL A   1      51.998  14.402   4.196  1.00  0.00    +0.000 C 
ATOM    114  H15 UNL A   1      51.061  14.194   4.669  1.00  0.00    +0.000 H 
ATOM    115  H16 UNL A   1      52.759  13.664   4.339  1.00  0.00    +0.000 H 
BRANCH   17   18
ATOM     18  S1  UNL A   1      51.707  14.420   2.396  1.00  0.00    +0.000 S 
ATOM    116  H17 UNL A   1      51.907  13.174   1.892  1.00  0.00    +0.000 H 
ENDBRANCH   17   18
ENDBRANCH   16   17
ENDBRANCH   19   16
ENDBRANCH   21   19
ENDBRANCH   22   21
BRANCH   22   23
ATOM    119  H20 UNL A   1      47.800  18.332   6.346  1.00  0.00    +0.000 H 
ATOM     23  C16 UNL A   1      48.487  18.443   5.534  1.00  0.00    +0.000 C 
ATOM    120  H21 UNL A   1      48.294  17.732   4.757  1.00  0.00    +0.000 H 
BRANCH   23   24
ATOM    121  H22 UNL A   1      48.769  19.786   4.113  1.00  0.00    +0.000 H 
ATOM     24  O3  UNL A   1      48.333  19.749   4.978  1.00  0.00    +0.000 O 
ENDBRANCH   23   24
ENDBRANCH   22   23
ENDBRANCH   25   22
ENDBRANCH   27   25
ENDBRANCH   28   27
ENDBRANCH   29   28
ENDBRANCH   30   29
ENDBRANCH   31   30
ENDBRANCH   32   31
ENDBRANCH   33   32
ENDBRANCH   34   33
ENDBRANCH   35   34
ENDBRANCH   37   35
ENDBRANCH   41   40
BRANCH   45   46
ATOM     46  C33 UNL A   1      59.305  23.496   3.454  1.00  0.00    +0.000 C 
ATOM     47  C34 UNL A   1      60.657  23.535   3.830  1.00  0.00    +0.000 C 
ATOM     48  F1  UNL A   1      61.335  24.691   3.796  1.00  0.00    +0.000 F 
ATOM     49  C35 UNL A   1      61.328  22.374   4.207  1.00  0.00    +0.000 C 
ATOM     50  F2  UNL A   1      62.631  22.428   4.516  1.00  0.00    +0.000 F 
ATOM     51  C36 UNL A   1      60.656  21.163   4.250  1.00  0.00    +0.000 C 
ATOM     52  F3  UNL A   1      61.302  20.048   4.618  1.00  0.00    +0.000 F 
ATOM     53  C37 UNL A   1      59.315  21.105   3.901  1.00  0.00    +0.000 C 
ATOM     54  F4  UNL A   1      58.660  19.937   3.952  1.00  0.00    +0.000 F 
ATOM     55  C38 UNL A   1      58.648  22.259   3.497  1.00  0.00    +0.000 C 
ATOM     56  F5  UNL A   1      57.354  22.168   3.150  1.00  0.00    +0.000 F 
ENDBRANCH   45   46
BRANCH   62   63
ATOM     65  F6  UNL A   1      56.981  26.440  -3.109  1.00  0.00    +0.000 F 
ATOM     66  C46 UNL A   1      58.569  27.264  -4.639  1.00  0.00    +0.000 C 
ATOM     67  F7  UNL A   1      57.957  26.602  -5.630  1.00  0.00    +0.000 F 
ATOM     68  C47 UNL A   1      59.702  28.018  -4.907  1.00  0.00    +0.000 C 
ATOM     69  F8  UNL A   1      60.173  28.101  -6.159  1.00  0.00    +0.000 F 
ATOM     70  C48 UNL A   1      60.352  28.680  -3.877  1.00  0.00    +0.000 C 
ATOM     71  F9  UNL A   1      61.439  29.419  -4.136  1.00  0.00    +0.000 F 
ATOM     72  C49 UNL A   1      59.878  28.576  -2.573  1.00  0.00    +0.000 C 
ATOM     73  F10 UNL A   1      60.534  29.217  -1.593  1.00  0.00    +0.000 F 
ATOM     63  C44 UNL A   1      58.728  27.827  -2.280  1.00  0.00    +0.000 C 
ATOM     64  C45 UNL A   1      58.075  27.182  -3.341  1.00  0.00    +0.000 C 
ENDBRANCH   62   63
BRANCH   77   78
ATOM     78  C53 UNL A   1      54.490  31.991   1.354  1.00  0.00    +0.000 C 
ATOM     79  C54 UNL A   1      53.108  32.028   1.119  1.00  0.00    +0.000 C 
ATOM     80  F11 UNL A   1      52.394  30.894   1.153  1.00  0.00    +0.000 F 
ATOM     81  C55 UNL A   1      52.462  33.222   0.808  1.00  0.00    +0.000 C 
ATOM     82  F12 UNL A   1      51.148  33.223   0.545  1.00  0.00    +0.000 F 
ATOM     83  C56 UNL A   1      53.180  34.408   0.756  1.00  0.00    +0.000 C 
ATOM     84  F13 UNL A   1      52.558  35.557   0.460  1.00  0.00    +0.000 F 
ATOM     85  C57 UNL A   1      54.544  34.399   1.002  1.00  0.00    +0.000 C 
ATOM     86  F14 UNL A   1      55.240  35.545   0.966  1.00  0.00    +0.000 F 
ATOM     87  C58 UNL A   1      55.196  33.200   1.287  1.00  0.00    +0.000 C 
ATOM     88  F15 UNL A   1      56.518  33.220   1.511  1.00  0.00    +0.000 F 
ENDBRANCH   77   78
TORSDOF 28
ENDMDL
MODEL 9
REMARK VINA RESULT:      -5.3     41.210     45.611
ROOT
ATOM    138  H39 UNL A   1      50.110  57.444   0.152  1.00  0.00    +0.000 H 
ATOM    139  H40 UNL A   1      51.190  55.805   1.869  1.00  0.00    +0.000 H 
ATOM    140  H41 UNL A   1      48.454  58.177   3.879  1.00  0.00    +0.000 H 
ATOM    141  H42 UNL A   1      45.726  60.020   9.350  1.00  0.00    +0.000 H 
ATOM    142  H43 UNL A   1      44.671  61.605   7.668  1.00  0.00    +0.000 H 
ATOM    143  H44 UNL A   1      47.309  59.141   5.608  1.00  0.00    +0.000 H 
ATOM    144  H45 UNL A   1      49.268  56.028   9.026  1.00  0.00    +0.000 H 
ATOM    145  H46 UNL A   1      50.749  55.111   7.151  1.00  0.00    +0.000 H 
ATOM    146  H47 UNL A   1      46.247  61.152   0.510  1.00  0.00    +0.000 H 
ATOM    147  H48 UNL A   1      45.147  62.436   2.433  1.00  0.00    +0.000 H 
ATOM     41  C29 UNL A   1      45.611  61.276   4.997  1.00  0.00    +0.000 C 
ATOM     42  C30 UNL A   1      46.203  60.863   3.679  1.00  0.00    +0.000 C 
ATOM     43  N7  UNL A   1      47.051  59.900   3.419  1.00  0.00    +0.000 N 
ATOM     44  C31 UNL A   1      47.235  59.920   2.043  1.00  0.00    +0.000 C 
ATOM     45  C32 UNL A   1      48.068  59.160   1.291  1.00  0.00    +0.000 C 
ATOM     57  C39 UNL A   1      48.949  58.157   1.826  1.00  0.00    +0.000 C 
ATOM     58  C40 UNL A   1      49.886  57.388   1.158  1.00  0.00    +0.000 C 
ATOM     59  C41 UNL A   1      50.476  56.519   2.083  1.00  0.00    +0.000 C 
ATOM     60  C42 UNL A   1      49.940  56.780   3.335  1.00  0.00    +0.000 C 
ATOM     61  N8  UNL A   1      49.003  57.785   3.161  1.00  0.00    +0.000 N 
ATOM     62  C43 UNL A   1      50.258  56.159   4.594  1.00  0.00    +0.000 C 
ATOM     74  C50 UNL A   1      49.697  56.481   5.784  1.00  0.00    +0.000 C 
ATOM     75  N9  UNL A   1      48.729  57.435   6.066  1.00  0.00    +0.000 N 
ATOM     76  C51 UNL A   1      48.503  57.352   7.353  1.00  0.00    +0.000 C 
ATOM     77  C52 UNL A   1      47.570  58.166   8.208  1.00  0.00    +0.000 C 
ATOM     89  C59 UNL A   1      46.848  59.149   7.638  1.00  0.00    +0.000 C 
ATOM     90  C60 UNL A   1      45.923  60.038   8.337  1.00  0.00    +0.000 C 
ATOM     91  C61 UNL A   1      45.373  60.881   7.449  1.00  0.00    +0.000 C 
ATOM     92  C62 UNL A   1      45.927  60.608   6.122  1.00  0.00    +0.000 C 
ATOM     93  N10 UNL A   1      46.786  59.560   6.329  1.00  0.00    +0.000 N 
ATOM     94  C63 UNL A   1      49.288  56.314   8.035  1.00  0.00    +0.000 C 
ATOM     95  C64 UNL A   1      50.028  55.842   7.042  1.00  0.00    +0.000 C 
ATOM     96  C65 UNL A   1      46.373  60.953   1.515  1.00  0.00    +0.000 C 
ATOM     97  C66 UNL A   1      45.765  61.612   2.491  1.00  0.00    +0.000 C 
ENDROOT
BRANCH   41   40
ATOM     98  C67 UNL A   1      45.086  63.703   5.281  1.00  0.00    +0.000 C 
ATOM     99  C68 UNL A   1      44.173  64.748   5.389  1.00  0.00    +0.000 C 
ATOM     37  C25 UNL A   1      42.812  64.512   5.171  1.00  0.00    +0.000 C 
ATOM     38  C26 UNL A   1      42.352  63.212   4.952  1.00  0.00    +0.000 C 
ATOM     39  C27 UNL A   1      43.260  62.153   4.915  1.00  0.00    +0.000 C 
ATOM    136  H37 UNL A   1      41.344  63.035   4.820  1.00  0.00    +0.000 H 
ATOM     40  C28 UNL A   1      44.636  62.393   5.058  1.00  0.00    +0.000 C 
ATOM    137  H38 UNL A   1      42.918  61.188   4.782  1.00  0.00    +0.000 H 
ATOM    148  H49 UNL A   1      46.097  63.892   5.367  1.00  0.00    +0.000 H 
ATOM    149  H50 UNL A   1      44.501  65.698   5.631  1.00  0.00    +0.000 H 
BRANCH   37   35
ATOM     35  C24 UNL A   1      41.828  65.617   5.190  1.00  0.00    +0.000 C 
ATOM     36  O5  UNL A   1      42.128  66.692   5.686  1.00  0.00    +0.000 O 
BRANCH   35   34
ATOM     34  N6  UNL A   1      40.576  65.423   4.664  1.00  0.00    +0.000 N 
ATOM    135  H36 UNL A   1      39.971  64.868   5.207  1.00  0.00    +0.000 H 
BRANCH   34   33
ATOM     33  C23 UNL A   1      40.016  65.921   3.421  1.00  0.00    +0.000 C 
ATOM    133  H34 UNL A   1      39.125  66.471   3.641  1.00  0.00    +0.000 H 
ATOM    134  H35 UNL A   1      40.753  66.541   2.955  1.00  0.00    +0.000 H 
BRANCH   33   32
ATOM    131  H32 UNL A   1      39.139  64.044   2.994  1.00  0.00    +0.000 H 
ATOM    132  H33 UNL A   1      39.097  65.244   1.668  1.00  0.00    +0.000 H 
ATOM     32  C22 UNL A   1      39.672  64.797   2.452  1.00  0.00    +0.000 C 
BRANCH   32   31
ATOM    129  H30 UNL A   1      41.314  64.849   1.112  1.00  0.00    +0.000 H 
ATOM    130  H31 UNL A   1      41.524  63.825   2.567  1.00  0.00    +0.000 H 
ATOM     31  C21 UNL A   1      40.874  64.134   1.775  1.00  0.00    +0.000 C 
BRANCH   31   30
ATOM     30  C20 UNL A   1      40.562  62.871   0.970  1.00  0.00    +0.000 C 
ATOM    127  H28 UNL A   1      39.509  62.854   0.775  1.00  0.00    +0.000 H 
ATOM    128  H29 UNL A   1      41.161  62.929   0.085  1.00  0.00    +0.000 H 
BRANCH   30   29
ATOM    125  H26 UNL A   1      41.921  61.655   2.057  1.00  0.00    +0.000 H 
ATOM     29  C19 UNL A   1      40.938  61.552   1.648  1.00  0.00    +0.000 C 
ATOM    126  H27 UNL A   1      40.189  61.371   2.391  1.00  0.00    +0.000 H 
BRANCH   29   28
ATOM    124  H25 UNL A   1      39.916  60.117   0.476  1.00  0.00    +0.000 H 
ATOM    123  H24 UNL A   1      41.388  59.514   1.240  1.00  0.00    +0.000 H 
ATOM     28  C18 UNL A   1      40.932  60.336   0.729  1.00  0.00    +0.000 C 
BRANCH   28   27
ATOM    122  H23 UNL A   1      42.519  61.050  -0.393  1.00  0.00    +0.000 H 
ATOM     27  N5  UNL A   1      41.657  60.584  -0.500  1.00  0.00    +0.000 N 
BRANCH   27   25
ATOM     25  C17 UNL A   1      41.321  60.268  -1.780  1.00  0.00    +0.000 C 
ATOM     26  O4  UNL A   1      40.206  59.769  -1.963  1.00  0.00    +0.000 O 
BRANCH   25   22
ATOM    118  H19 UNL A   1      42.068  59.643  -3.637  1.00  0.00    +0.000 H 
ATOM     22  C15 UNL A   1      42.283  60.444  -2.962  1.00  0.00    +0.000 C 
BRANCH   22   21
ATOM    117  H18 UNL A   1      42.336  61.721  -4.666  1.00  0.00    +0.000 H 
ATOM     21  N4  UNL A   1      42.041  61.671  -3.728  1.00  0.00    +0.000 N 
BRANCH   21   19
ATOM     19  C14 UNL A   1      41.419  62.738  -3.165  1.00  0.00    +0.000 C 
ATOM     20  O2  UNL A   1      42.114  63.471  -2.458  1.00  0.00    +0.000 O 
BRANCH   19   16
ATOM    113  H14 UNL A   1      39.555  62.186  -3.977  1.00  0.00    +0.000 H 
ATOM     16  C12 UNL A   1      39.921  63.016  -3.411  1.00  0.00    +0.000 C 
BRANCH   16   15
ATOM     15  N3  UNL A   1      39.232  63.049  -2.131  1.00  0.00    +0.000 N 
ATOM    112  H13 UNL A   1      39.763  62.906  -1.315  1.00  0.00    +0.000 H 
BRANCH   15   13
ATOM     13  C11 UNL A   1      37.881  63.268  -1.997  1.00  0.00    +0.000 C 
ATOM     14  O1  UNL A   1      37.133  62.483  -2.586  1.00  0.00    +0.000 O 
BRANCH   13    2
ATOM      2  C1  UNL A   1      37.316  64.394  -1.084  1.00  0.00    +0.000 C 
ATOM    103  H4  UNL A   1      37.143  63.945  -0.128  1.00  0.00    +0.000 H 
BRANCH    2    1
ATOM      1  N1  UNL A   1      38.331  65.444  -0.854  1.00  0.00    +0.000 N 
ATOM    100  H1  UNL A   1      38.573  65.882  -1.743  1.00  0.00    +0.000 H 
ATOM    101  H2  UNL A   1      39.166  65.025  -0.443  1.00  0.00    +0.000 H 
ATOM    102  H3  UNL A   1      37.954  66.147  -0.219  1.00  0.00    +0.000 H 
ENDBRANCH    2    1
BRANCH    2    3
ATOM    105  H6  UNL A   1      35.806  65.768  -0.799  1.00  0.00    +0.000 H 
ATOM      3  C2  UNL A   1      35.861  64.850  -1.346  1.00  0.00    +0.000 C 
ATOM    104  H5  UNL A   1      35.739  64.879  -2.408  1.00  0.00    +0.000 H 
BRANCH    3    4
ATOM      4  C3  UNL A   1      34.679  64.076  -0.800  1.00  0.00    +0.000 C 
ATOM      5  C4  UNL A   1      33.615  63.490  -1.467  1.00  0.00    +0.000 C 
ATOM      6  N2  UNL A   1      32.869  62.778  -0.562  1.00  0.00    +0.000 N 
ATOM      7  C5  UNL A   1      33.325  63.007   0.711  1.00  0.00    +0.000 C 
ATOM      8  C6  UNL A   1      32.845  62.534   1.939  1.00  0.00    +0.000 C 
ATOM      9  C7  UNL A   1      33.459  63.011   3.100  1.00  0.00    +0.000 C 
ATOM    106  H7  UNL A   1      33.417  63.575  -2.476  1.00  0.00    +0.000 H 
ATOM     11  C9  UNL A   1      35.021  64.326   1.792  1.00  0.00    +0.000 C 
ATOM     12  C10 UNL A   1      34.418  63.867   0.602  1.00  0.00    +0.000 C 
ATOM     10  C8  UNL A   1      34.521  63.908   3.031  1.00  0.00    +0.000 C 
ATOM    107  H8  UNL A   1      32.116  62.187  -0.794  1.00  0.00    +0.000 H 
ATOM    111  H12 UNL A   1      35.828  64.967   1.750  1.00  0.00    +0.000 H 
ATOM    108  H9  UNL A   1      32.064  61.860   1.984  1.00  0.00    +0.000 H 
ATOM    110  H11 UNL A   1      34.943  64.268   3.900  1.00  0.00    +0.000 H 
ATOM    109  H10 UNL A   1      33.120  62.692   4.022  1.00  0.00    +0.000 H 
ENDBRANCH    3    4
ENDBRANCH    2    3
ENDBRANCH   13    2
ENDBRANCH   15   13
ENDBRANCH   16   15
BRANCH   16   17
ATOM     17  C13 UNL A   1      39.512  64.061  -4.460  1.00  0.00    +0.000 C 
ATOM    114  H15 UNL A   1      40.408  64.412  -4.926  1.00  0.00    +0.000 H 
ATOM    115  H16 UNL A   1      38.962  64.795  -3.909  1.00  0.00    +0.000 H 
BRANCH   17   18
ATOM     18  S1  UNL A   1      38.378  63.534  -5.786  1.00  0.00    +0.000 S 
ATOM    116  H17 UNL A   1      38.103  64.592  -6.595  1.00  0.00    +0.000 H 
ENDBRANCH   17   18
ENDBRANCH   16   17
ENDBRANCH   19   16
ENDBRANCH   21   19
ENDBRANCH   22   21
BRANCH   22   23
ATOM    119  H20 UNL A   1      44.074  59.292  -2.787  1.00  0.00    +0.000 H 
ATOM     23  C16 UNL A   1      43.754  60.284  -2.545  1.00  0.00    +0.000 C 
ATOM    120  H21 UNL A   1      43.818  60.470  -1.493  1.00  0.00    +0.000 H 
BRANCH   23   24
ATOM    121  H22 UNL A   1      44.753  60.930  -4.122  1.00  0.00    +0.000 H 
ATOM     24  O3  UNL A   1      44.610  61.215  -3.206  1.00  0.00    +0.000 O 
ENDBRANCH   23   24
ENDBRANCH   22   23
ENDBRANCH   25   22
ENDBRANCH   27   25
ENDBRANCH   28   27
ENDBRANCH   29   28
ENDBRANCH   30   29
ENDBRANCH   31   30
ENDBRANCH   32   31
ENDBRANCH   33   32
ENDBRANCH   34   33
ENDBRANCH   35   34
ENDBRANCH   37   35
ENDBRANCH   41   40
BRANCH   45   46
ATOM     46  C33 UNL A   1      48.069  59.391  -0.192  1.00  0.00    +0.000 C 
ATOM     47  C34 UNL A   1      47.359  58.554  -1.067  1.00  0.00    +0.000 C 
ATOM     48  F1  UNL A   1      46.694  57.490  -0.593  1.00  0.00    +0.000 F 
ATOM     49  C35 UNL A   1      47.361  58.787  -2.440  1.00  0.00    +0.000 C 
ATOM     50  F2  UNL A   1      46.714  57.947  -3.260  1.00  0.00    +0.000 F 
ATOM     51  C36 UNL A   1      48.041  59.877  -2.961  1.00  0.00    +0.000 C 
ATOM     52  F3  UNL A   1      48.037  60.103  -4.281  1.00  0.00    +0.000 F 
ATOM     53  C37 UNL A   1      48.733  60.728  -2.113  1.00  0.00    +0.000 C 
ATOM     54  F4  UNL A   1      49.383  61.789  -2.613  1.00  0.00    +0.000 F 
ATOM     55  C38 UNL A   1      48.757  60.482  -0.742  1.00  0.00    +0.000 C 
ATOM     56  F5  UNL A   1      49.449  61.315   0.051  1.00  0.00    +0.000 F 
ENDBRANCH   45   46
BRANCH   62   63
ATOM     65  F6  UNL A   1      49.778  53.454   3.780  1.00  0.00    +0.000 F 
ATOM     66  C46 UNL A   1      52.006  52.798   4.162  1.00  0.00    +0.000 C 
ATOM     67  F7  UNL A   1      51.701  51.548   3.788  1.00  0.00    +0.000 F 
ATOM     68  C47 UNL A   1      53.298  53.106   4.560  1.00  0.00    +0.000 C 
ATOM     69  F8  UNL A   1      54.247  52.159   4.552  1.00  0.00    +0.000 F 
ATOM     70  C48 UNL A   1      53.607  54.393   4.975  1.00  0.00    +0.000 C 
ATOM     71  F9  UNL A   1      54.857  54.695   5.347  1.00  0.00    +0.000 F 
ATOM     72  C49 UNL A   1      52.618  55.371   5.006  1.00  0.00    +0.000 C 
ATOM     73  F10 UNL A   1      52.941  56.604   5.423  1.00  0.00    +0.000 F 
ATOM     63  C44 UNL A   1      51.305  55.085   4.598  1.00  0.00    +0.000 C 
ATOM     64  C45 UNL A   1      51.021  53.781   4.164  1.00  0.00    +0.000 C 
ENDBRANCH   62   63
BRANCH   77   78
ATOM     78  C53 UNL A   1      47.462  57.919   9.668  1.00  0.00    +0.000 C 
ATOM     79  C54 UNL A   1      46.507  57.027  10.179  1.00  0.00    +0.000 C 
ATOM     80  F11 UNL A   1      45.665  56.400   9.345  1.00  0.00    +0.000 F 
ATOM     81  C55 UNL A   1      46.387  56.808  11.549  1.00  0.00    +0.000 C 
ATOM     82  F12 UNL A   1      45.437  55.985  12.013  1.00  0.00    +0.000 F 
ATOM     83  C56 UNL A   1      47.239  57.453  12.434  1.00  0.00    +0.000 C 
ATOM     84  F13 UNL A   1      47.125  57.239  13.751  1.00  0.00    +0.000 F 
ATOM     85  C57 UNL A   1      48.202  58.325  11.951  1.00  0.00    +0.000 C 
ATOM     86  F14 UNL A   1      49.036  58.940  12.801  1.00  0.00    +0.000 F 
ATOM     87  C58 UNL A   1      48.306  58.565  10.582  1.00  0.00    +0.000 C 
ATOM     88  F15 UNL A   1      49.240  59.422  10.144  1.00  0.00    +0.000 F 
ENDBRANCH   77   78
TORSDOF 28
ENDMDL
MODEL 10
REMARK VINA RESULT:      -5.3     55.295     62.794
ROOT
ATOM    138  H39 UNL A   1      18.419  35.141  47.947  1.00  0.00    +0.000 H 
ATOM    139  H40 UNL A   1      20.440  33.835  46.943  1.00  0.00    +0.000 H 
ATOM    140  H41 UNL A   1      21.695  37.675  47.850  1.00  0.00    +0.000 H 
ATOM    141  H42 UNL A   1      26.228  42.170  47.712  1.00  0.00    +0.000 H 
ATOM    142  H43 UNL A   1      24.256  43.432  48.701  1.00  0.00    +0.000 H 
ATOM    143  H44 UNL A   1      23.015  39.542  47.928  1.00  0.00    +0.000 H 
ATOM    144  H45 UNL A   1      27.010  37.151  46.046  1.00  0.00    +0.000 H 
ATOM    145  H46 UNL A   1      25.477  35.129  45.709  1.00  0.00    +0.000 H 
ATOM    146  H47 UNL A   1      17.851  40.076  49.978  1.00  0.00    +0.000 H 
ATOM    147  H48 UNL A   1      19.194  42.252  49.843  1.00  0.00    +0.000 H 
ATOM     41  C29 UNL A   1      21.869  41.890  48.923  1.00  0.00    +0.000 C 
ATOM     42  C30 UNL A   1      20.776  40.861  49.002  1.00  0.00    +0.000 C 
ATOM     43  N7  UNL A   1      20.806  39.596  48.669  1.00  0.00    +0.000 N 
ATOM     44  C31 UNL A   1      19.550  39.093  48.983  1.00  0.00    +0.000 C 
ATOM     45  C32 UNL A   1      19.061  37.848  48.769  1.00  0.00    +0.000 C 
ATOM     57  C39 UNL A   1      19.802  36.786  48.142  1.00  0.00    +0.000 C 
ATOM     58  C40 UNL A   1      19.371  35.513  47.810  1.00  0.00    +0.000 C 
ATOM     59  C41 UNL A   1      20.453  34.817  47.257  1.00  0.00    +0.000 C 
ATOM     60  C42 UNL A   1      21.543  35.672  47.202  1.00  0.00    +0.000 C 
ATOM     61  N8  UNL A   1      21.130  36.875  47.751  1.00  0.00    +0.000 N 
ATOM     62  C43 UNL A   1      22.862  35.411  46.687  1.00  0.00    +0.000 C 
ATOM     74  C50 UNL A   1      23.877  36.309  46.656  1.00  0.00    +0.000 C 
ATOM     75  N9  UNL A   1      23.892  37.627  47.089  1.00  0.00    +0.000 N 
ATOM     76  C51 UNL A   1      25.105  38.068  46.864  1.00  0.00    +0.000 C 
ATOM     77  C52 UNL A   1      25.680  39.435  47.112  1.00  0.00    +0.000 C 
ATOM     89  C59 UNL A   1      24.887  40.399  47.618  1.00  0.00    +0.000 C 
ATOM     90  C60 UNL A   1      25.291  41.776  47.889  1.00  0.00    +0.000 C 
ATOM     91  C61 UNL A   1      24.246  42.444  48.403  1.00  0.00    +0.000 C 
ATOM     92  C62 UNL A   1      23.091  41.548  48.473  1.00  0.00    +0.000 C 
ATOM     93  N10 UNL A   1      23.567  40.354  47.995  1.00  0.00    +0.000 N 
ATOM     94  C63 UNL A   1      26.009  37.066  46.281  1.00  0.00    +0.000 C 
ATOM     95  C64 UNL A   1      25.200  36.026  46.137  1.00  0.00    +0.000 C 
ATOM     96  C65 UNL A   1      18.799  40.174  49.582  1.00  0.00    +0.000 C 
ATOM     97  C66 UNL A   1      19.487  41.306  49.554  1.00  0.00    +0.000 C 
ENDROOT
BRANCH   41   40
ATOM     98  C67 UNL A   1      21.797  43.605  50.738  1.00  0.00    +0.000 C 
ATOM     99  C68 UNL A   1      21.519  44.892  51.189  1.00  0.00    +0.000 C 
ATOM     37  C25 UNL A   1      21.163  45.890  50.276  1.00  0.00    +0.000 C 
ATOM     38  C26 UNL A   1      20.979  45.574  48.928  1.00  0.00    +0.000 C 
ATOM     39  C27 UNL A   1      21.190  44.267  48.488  1.00  0.00    +0.000 C 
ATOM    136  H37 UNL A   1      20.688  46.306  48.260  1.00  0.00    +0.000 H 
ATOM     40  C28 UNL A   1      21.621  43.277  49.385  1.00  0.00    +0.000 C 
ATOM    137  H38 UNL A   1      21.027  44.027  47.498  1.00  0.00    +0.000 H 
ATOM    148  H49 UNL A   1      22.134  42.890  51.401  1.00  0.00    +0.000 H 
ATOM    149  H50 UNL A   1      21.575  45.110  52.197  1.00  0.00    +0.000 H 
BRANCH   37   35
ATOM     35  C24 UNL A   1      20.947  47.288  50.711  1.00  0.00    +0.000 C 
ATOM     36  O5  UNL A   1      21.645  47.768  51.591  1.00  0.00    +0.000 O 
BRANCH   35   34
ATOM     34  N6  UNL A   1      19.952  48.035  50.133  1.00  0.00    +0.000 N 
ATOM    135  H36 UNL A   1      20.226  48.570  49.353  1.00  0.00    +0.000 H 
BRANCH   34   33
ATOM     33  C23 UNL A   1      18.555  48.149  50.506  1.00  0.00    +0.000 C 
ATOM    133  H34 UNL A   1      18.444  48.974  51.178  1.00  0.00    +0.000 H 
ATOM    134  H35 UNL A   1      17.987  48.296  49.611  1.00  0.00    +0.000 H 
BRANCH   33   32
ATOM    131  H32 UNL A   1      18.835  46.466  51.756  1.00  0.00    +0.000 H 
ATOM    132  H33 UNL A   1      17.202  47.194  51.784  1.00  0.00    +0.000 H 
ATOM     32  C22 UNL A   1      18.035  46.889  51.186  1.00  0.00    +0.000 C 
BRANCH   32   31
ATOM    129  H30 UNL A   1      16.456  45.969  50.111  1.00  0.00    +0.000 H 
ATOM    130  H31 UNL A   1      18.070  45.915  49.332  1.00  0.00    +0.000 H 
ATOM     31  C21 UNL A   1      17.507  45.811  50.237  1.00  0.00    +0.000 C 
BRANCH   31   30
ATOM     30  C20 UNL A   1      17.717  44.367  50.699  1.00  0.00    +0.000 C 
ATOM    127  H28 UNL A   1      17.957  43.776  49.839  1.00  0.00    +0.000 H 
ATOM    128  H29 UNL A   1      18.498  44.400  51.428  1.00  0.00    +0.000 H 
BRANCH   30   29
ATOM    125  H26 UNL A   1      15.743  44.457  51.476  1.00  0.00    +0.000 H 
ATOM     29  C19 UNL A   1      16.516  43.722  51.394  1.00  0.00    +0.000 C 
ATOM    126  H27 UNL A   1      16.237  42.880  50.796  1.00  0.00    +0.000 H 
BRANCH   29   28
ATOM    124  H25 UNL A   1      16.561  43.942  53.498  1.00  0.00    +0.000 H 
ATOM    123  H24 UNL A   1      17.836  42.908  52.851  1.00  0.00    +0.000 H 
ATOM     28  C18 UNL A   1      16.802  43.178  52.790  1.00  0.00    +0.000 C 
BRANCH   28   27
ATOM    122  H23 UNL A   1      15.022  42.145  53.013  1.00  0.00    +0.000 H 
ATOM     27  N5  UNL A   1      15.995  42.014  53.092  1.00  0.00    +0.000 N 
BRANCH   27   25
ATOM     25  C17 UNL A   1      16.386  40.767  53.469  1.00  0.00    +0.000 C 
ATOM     26  O4  UNL A   1      17.285  40.234  52.809  1.00  0.00    +0.000 O 
BRANCH   25   22
ATOM    118  H19 UNL A   1      15.680  40.674  55.441  1.00  0.00    +0.000 H 
ATOM     22  C15 UNL A   1      15.720  39.995  54.615  1.00  0.00    +0.000 C 
BRANCH   22   21
ATOM    117  H18 UNL A   1      13.988  39.681  53.416  1.00  0.00    +0.000 H 
ATOM     21  N4  UNL A   1      14.325  39.638  54.340  1.00  0.00    +0.000 N 
BRANCH   21   19
ATOM     19  C14 UNL A   1      13.490  39.250  55.338  1.00  0.00    +0.000 C 
ATOM     20  O2  UNL A   1      13.210  40.102  56.185  1.00  0.00    +0.000 O 
BRANCH   19   16
ATOM    113  H14 UNL A   1      13.491  37.300  56.136  1.00  0.00    +0.000 H 
ATOM     16  C12 UNL A   1      12.918  37.818  55.396  1.00  0.00    +0.000 C 
BRANCH   16   15
ATOM     15  N3  UNL A   1      11.534  37.882  55.838  1.00  0.00    +0.000 N 
ATOM    112  H13 UNL A   1      11.359  38.022  56.795  1.00  0.00    +0.000 H 
BRANCH   15   13
ATOM     13  C11 UNL A   1      10.458  37.758  54.991  1.00  0.00    +0.000 C 
ATOM     14  O1  UNL A   1       9.939  36.641  54.916  1.00  0.00    +0.000 O 
BRANCH   13    2
ATOM      2  C1  UNL A   1       9.865  38.978  54.229  1.00  0.00    +0.000 C 
ATOM    103  H4  UNL A   1      10.558  39.207  53.446  1.00  0.00    +0.000 H 
BRANCH    2    1
ATOM      1  N1  UNL A   1       8.603  38.612  53.550  1.00  0.00    +0.000 N 
ATOM    100  H1  UNL A   1       8.796  38.386  52.574  1.00  0.00    +0.000 H 
ATOM    101  H2  UNL A   1       7.954  39.398  53.596  1.00  0.00    +0.000 H 
ATOM    102  H3  UNL A   1       8.192  37.802  54.013  1.00  0.00    +0.000 H 
ENDBRANCH    2    1
BRANCH    2    3
ATOM    105  H6  UNL A   1       9.067  40.314  55.581  1.00  0.00    +0.000 H 
ATOM      3  C2  UNL A   1       9.923  40.351  54.940  1.00  0.00    +0.000 C 
ATOM    104  H5  UNL A   1      10.893  40.421  55.385  1.00  0.00    +0.000 H 
BRANCH    3    4
ATOM      4  C3  UNL A   1       9.706  41.644  54.182  1.00  0.00    +0.000 C 
ATOM      5  C4  UNL A   1       8.560  42.143  53.584  1.00  0.00    +0.000 C 
ATOM      6  N2  UNL A   1       8.815  43.416  53.142  1.00  0.00    +0.000 N 
ATOM      7  C5  UNL A   1      10.145  43.713  53.294  1.00  0.00    +0.000 C 
ATOM      8  C6  UNL A   1      10.858  44.866  52.942  1.00  0.00    +0.000 C 
ATOM      9  C7  UNL A   1      12.241  44.856  53.136  1.00  0.00    +0.000 C 
ATOM    106  H7  UNL A   1       7.665  41.639  53.486  1.00  0.00    +0.000 H 
ATOM     11  C9  UNL A   1      12.141  42.621  54.073  1.00  0.00    +0.000 C 
ATOM     12  C10 UNL A   1      10.744  42.600  53.885  1.00  0.00    +0.000 C 
ATOM     10  C8  UNL A   1      12.879  43.743  53.677  1.00  0.00    +0.000 C 
ATOM    107  H8  UNL A   1       8.139  44.028  52.770  1.00  0.00    +0.000 H 
ATOM    111  H12 UNL A   1      12.619  41.813  54.502  1.00  0.00    +0.000 H 
ATOM    108  H9  UNL A   1      10.378  45.693  52.552  1.00  0.00    +0.000 H 
ATOM    110  H11 UNL A   1      13.905  43.746  53.787  1.00  0.00    +0.000 H 
ATOM    109  H10 UNL A   1      12.797  45.685  52.874  1.00  0.00    +0.000 H 
ENDBRANCH    3    4
ENDBRANCH    2    3
ENDBRANCH   13    2
ENDBRANCH   15   13
ENDBRANCH   16   15
BRANCH   16   17
ATOM     17  C13 UNL A   1      13.256  36.826  54.273  1.00  0.00    +0.000 C 
ATOM    114  H15 UNL A   1      13.862  37.346  53.561  1.00  0.00    +0.000 H 
ATOM    115  H16 UNL A   1      12.306  36.492  53.913  1.00  0.00    +0.000 H 
BRANCH   17   18
ATOM     18  S1  UNL A   1      14.139  35.297  54.728  1.00  0.00    +0.000 S 
ATOM    116  H17 UNL A   1      15.137  35.593  55.602  1.00  0.00    +0.000 H 
ENDBRANCH   17   18
ENDBRANCH   16   17
ENDBRANCH   19   16
ENDBRANCH   21   19
ENDBRANCH   22   21
BRANCH   22   23
ATOM    119  H20 UNL A   1      17.507  38.825  54.576  1.00  0.00    +0.000 H 
ATOM     23  C16 UNL A   1      16.562  38.794  55.076  1.00  0.00    +0.000 C 
ATOM    120  H21 UNL A   1      16.020  37.903  54.834  1.00  0.00    +0.000 H 
BRANCH   23   24
ATOM    121  H22 UNL A   1      16.322  38.051  56.890  1.00  0.00    +0.000 H 
ATOM     24  O3  UNL A   1      16.788  38.798  56.485  1.00  0.00    +0.000 O 
ENDBRANCH   23   24
ENDBRANCH   22   23
ENDBRANCH   25   22
ENDBRANCH   27   25
ENDBRANCH   28   27
ENDBRANCH   29   28
ENDBRANCH   30   29
ENDBRANCH   31   30
ENDBRANCH   32   31
ENDBRANCH   33   32
ENDBRANCH   34   33
ENDBRANCH   35   34
ENDBRANCH   37   35
ENDBRANCH   41   40
BRANCH   45   46
ATOM     46  C33 UNL A   1      17.654  37.569  49.210  1.00  0.00    +0.000 C 
ATOM     47  C34 UNL A   1      16.631  37.312  48.284  1.00  0.00    +0.000 C 
ATOM     48  F1  UNL A   1      16.883  37.358  46.968  1.00  0.00    +0.000 F 
ATOM     49  C35 UNL A   1      15.331  37.045  48.709  1.00  0.00    +0.000 C 
ATOM     50  F2  UNL A   1      14.361  36.850  47.806  1.00  0.00    +0.000 F 
ATOM     51  C36 UNL A   1      15.038  36.993  50.063  1.00  0.00    +0.000 C 
ATOM     52  F3  UNL A   1      13.789  36.730  50.470  1.00  0.00    +0.000 F 
ATOM     53  C37 UNL A   1      16.038  37.224  50.995  1.00  0.00    +0.000 C 
ATOM     54  F4  UNL A   1      15.758  37.165  52.305  1.00  0.00    +0.000 F 
ATOM     55  C38 UNL A   1      17.332  37.520  50.574  1.00  0.00    +0.000 C 
ATOM     56  F5  UNL A   1      18.274  37.755  51.501  1.00  0.00    +0.000 F 
ENDBRANCH   45   46
BRANCH   62   63
ATOM     65  F6  UNL A   1      24.377  33.395  48.046  1.00  0.00    +0.000 F 
ATOM     66  C46 UNL A   1      24.097  31.824  46.315  1.00  0.00    +0.000 C 
ATOM     67  F7  UNL A   1      24.835  30.939  47.001  1.00  0.00    +0.000 F 
ATOM     68  C47 UNL A   1      23.583  31.482  45.074  1.00  0.00    +0.000 C 
ATOM     69  F8  UNL A   1      23.805  30.261  44.568  1.00  0.00    +0.000 F 
ATOM     70  C48 UNL A   1      22.844  32.408  44.353  1.00  0.00    +0.000 C 
ATOM     71  F9  UNL A   1      22.335  32.075  43.159  1.00  0.00    +0.000 F 
ATOM     72  C49 UNL A   1      22.632  33.683  44.866  1.00  0.00    +0.000 C 
ATOM     73  F10 UNL A   1      21.924  34.563  44.142  1.00  0.00    +0.000 F 
ATOM     63  C44 UNL A   1      23.135  34.048  46.125  1.00  0.00    +0.000 C 
ATOM     64  C45 UNL A   1      23.862  33.089  46.846  1.00  0.00    +0.000 C 
ENDBRANCH   62   63
BRANCH   77   78
ATOM     78  C53 UNL A   1      27.094  39.741  46.777  1.00  0.00    +0.000 C 
ATOM     79  C54 UNL A   1      27.423  40.438  45.605  1.00  0.00    +0.000 C 
ATOM     80  F11 UNL A   1      26.453  40.819  44.761  1.00  0.00    +0.000 F 
ATOM     81  C55 UNL A   1      28.748  40.708  45.275  1.00  0.00    +0.000 C 
ATOM     82  F12 UNL A   1      29.037  41.336  44.128  1.00  0.00    +0.000 F 
ATOM     83  C56 UNL A   1      29.771  40.314  46.126  1.00  0.00    +0.000 C 
ATOM     84  F13 UNL A   1      31.046  40.577  45.810  1.00  0.00    +0.000 F 
ATOM     85  C57 UNL A   1      29.469  39.640  47.299  1.00  0.00    +0.000 C 
ATOM     86  F14 UNL A   1      30.453  39.269  48.131  1.00  0.00    +0.000 F 
ATOM     87  C58 UNL A   1      28.145  39.345  47.617  1.00  0.00    +0.000 C 
ATOM     88  F15 UNL A   1      27.884  38.683  48.753  1.00  0.00    +0.000 F 
ENDBRANCH   77   78
TORSDOF 28
ENDMDL
