MODEL 1
REMARK VINA RESULT:      -9.3      0.000      0.000
ROOT
ATOM     24  C18 UNL A   1      53.411  19.607  11.607  1.00  0.00    +0.000 C 
ATOM     25  C19 UNL A   1      54.776  18.997  11.458  1.00  0.00    +0.000 C 
ATOM     26  N4  UNL A   1      55.781  19.003  12.296  1.00  0.00    +0.000 N 
ATOM     27  C20 UNL A   1      56.784  18.258  11.689  1.00  0.00    +0.000 C 
ATOM     28  C21 UNL A   1      58.040  18.011  12.134  1.00  0.00    +0.000 C 
ATOM     40  C28 UNL A   1      58.578  18.521  13.368  1.00  0.00    +0.000 C 
ATOM     41  C29 UNL A   1      59.860  18.384  13.871  1.00  0.00    +0.000 C 
ATOM     42  C30 UNL A   1      59.910  19.018  15.117  1.00  0.00    +0.000 C 
ATOM     43  C31 UNL A   1      58.671  19.585  15.370  1.00  0.00    +0.000 C 
ATOM     44  N5  UNL A   1      57.862  19.268  14.291  1.00  0.00    +0.000 N 
ATOM     45  C32 UNL A   1      58.254  20.355  16.512  1.00  0.00    +0.000 C 
ATOM     57  C39 UNL A   1      57.019  20.885  16.685  1.00  0.00    +0.000 C 
ATOM     58  N6  UNL A   1      55.918  20.824  15.841  1.00  0.00    +0.000 N 
ATOM     59  C40 UNL A   1      54.960  21.477  16.452  1.00  0.00    +0.000 C 
ATOM     60  C41 UNL A   1      53.556  21.756  15.989  1.00  0.00    +0.000 C 
ATOM     72  C48 UNL A   1      53.163  21.316  14.779  1.00  0.00    +0.000 C 
ATOM     73  C49 UNL A   1      51.840  21.515  14.194  1.00  0.00    +0.000 C 
ATOM     74  C50 UNL A   1      51.793  20.904  12.999  1.00  0.00    +0.000 C 
ATOM     75  C51 UNL A   1      53.097  20.301  12.718  1.00  0.00    +0.000 C 
ATOM     76  N7  UNL A   1      53.849  20.604  13.826  1.00  0.00    +0.000 N 
ATOM     77  C52 UNL A   1      55.338  22.002  17.772  1.00  0.00    +0.000 C 
ATOM     78  C53 UNL A   1      56.613  21.647  17.848  1.00  0.00    +0.000 C 
ATOM     79  C54 UNL A   1      56.253  17.780  10.431  1.00  0.00    +0.000 C 
ATOM     80  C55 UNL A   1      55.038  18.260  10.212  1.00  0.00    +0.000 C 
ATOM    105  H22 UNL A   1      60.643  17.899  13.407  1.00  0.00    +0.000 H 
ATOM    106  H23 UNL A   1      60.731  19.057  15.742  1.00  0.00    +0.000 H 
ATOM    107  H24 UNL A   1      56.919  19.534  14.193  1.00  0.00    +0.000 H 
ATOM    108  H25 UNL A   1      51.065  22.038  14.629  1.00  0.00    +0.000 H 
ATOM    109  H26 UNL A   1      50.971  20.866  12.377  1.00  0.00    +0.000 H 
ATOM    110  H27 UNL A   1      54.790  20.335  13.928  1.00  0.00    +0.000 H 
ATOM    111  H28 UNL A   1      54.763  22.512  18.459  1.00  0.00    +0.000 H 
ATOM    112  H29 UNL A   1      57.238  21.884  18.635  1.00  0.00    +0.000 H 
ATOM    113  H30 UNL A   1      56.755  17.148   9.788  1.00  0.00    +0.000 H 
ATOM    114  H31 UNL A   1      54.433  18.148   9.383  1.00  0.00    +0.000 H 
ENDROOT
BRANCH   24   23
ATOM    103  H20 UNL A   1      50.164  17.111   9.458  1.00  0.00    +0.000 H 
ATOM    104  H21 UNL A   1      51.772  17.476  11.239  1.00  0.00    +0.000 H 
ATOM     81  C56 UNL A   1      52.139  20.387   9.607  1.00  0.00    +0.000 C 
ATOM     82  C57 UNL A   1      51.164  20.205   8.629  1.00  0.00    +0.000 C 
ATOM    115  H32 UNL A   1      52.688  21.260   9.628  1.00  0.00    +0.000 H 
ATOM     20  C14 UNL A   1      50.482  18.988   8.541  1.00  0.00    +0.000 C 
ATOM     21  C15 UNL A   1      50.696  17.994   9.501  1.00  0.00    +0.000 C 
ATOM    116  H33 UNL A   1      50.944  20.968   7.970  1.00  0.00    +0.000 H 
ATOM     22  C16 UNL A   1      51.631  18.200  10.518  1.00  0.00    +0.000 C 
ATOM     23  C17 UNL A   1      52.378  19.388  10.564  1.00  0.00    +0.000 C 
BRANCH   20   18
ATOM     18  C13 UNL A   1      49.500  18.737   7.461  1.00  0.00    +0.000 C 
ATOM     19  O3  UNL A   1      49.170  17.591   7.193  1.00  0.00    +0.000 O 
BRANCH   18   17
ATOM     17  N3  UNL A   1      48.966  19.793   6.761  1.00  0.00    +0.000 N 
ATOM    102  H19 UNL A   1      48.709  20.573   7.302  1.00  0.00    +0.000 H 
BRANCH   17   16
ATOM    100  H17 UNL A   1      49.222  20.796   4.974  1.00  0.00    +0.000 H 
ATOM    101  H18 UNL A   1      49.114  19.038   4.854  1.00  0.00    +0.000 H 
ATOM     16  C12 UNL A   1      48.729  19.916   5.331  1.00  0.00    +0.000 C 
BRANCH   16   15
ATOM     98  H15 UNL A   1      46.790  20.681   5.715  1.00  0.00    +0.000 H 
ATOM     99  H16 UNL A   1      47.173  20.372   3.999  1.00  0.00    +0.000 H 
ATOM     15  C11 UNL A   1      47.242  20.017   5.007  1.00  0.00    +0.000 C 
BRANCH   15   14
ATOM     97  H14 UNL A   1      45.501  18.890   4.696  1.00  0.00    +0.000 H 
ATOM     14  C10 UNL A   1      46.488  18.685   5.051  1.00  0.00    +0.000 C 
ATOM     96  H13 UNL A   1      46.514  18.323   6.058  1.00  0.00    +0.000 H 
BRANCH   14   13
ATOM     13  C9  UNL A   1      47.050  17.586   4.138  1.00  0.00    +0.000 C 
ATOM     94  H11 UNL A   1      46.440  17.542   3.260  1.00  0.00    +0.000 H 
ATOM     95  H12 UNL A   1      48.066  17.856   3.938  1.00  0.00    +0.000 H 
BRANCH   13   12
ATOM     92  H9  UNL A   1      47.364  16.272   5.790  1.00  0.00    +0.000 H 
ATOM     12  C8  UNL A   1      47.094  16.180   4.759  1.00  0.00    +0.000 C 
ATOM     93  H10 UNL A   1      46.124  15.748   4.632  1.00  0.00    +0.000 H 
BRANCH   12   11
ATOM     90  H7  UNL A   1      47.688  14.264   4.021  1.00  0.00    +0.000 H 
ATOM     11  C7  UNL A   1      48.099  15.250   4.076  1.00  0.00    +0.000 C 
ATOM     91  H8  UNL A   1      48.301  15.613   3.090  1.00  0.00    +0.000 H 
BRANCH   11   10
ATOM     89  H6  UNL A   1      49.198  15.015   5.787  1.00  0.00    +0.000 H 
ATOM     10  N2  UNL A   1      49.335  15.213   4.832  1.00  0.00    +0.000 N 
BRANCH   10    8
ATOM      9  O2  UNL A   1      51.104  14.680   3.603  1.00  0.00    +0.000 O 
ATOM      8  C6  UNL A   1      50.652  15.393   4.505  1.00  0.00    +0.000 C 
BRANCH    8    7
ATOM      2  C1  UNL A   1      52.688  18.475   5.532  1.00  0.00    +0.000 C 
ATOM      3  C2  UNL A   1      53.349  17.968   6.651  1.00  0.00    +0.000 C 
ATOM      4  C3  UNL A   1      53.129  16.656   7.066  1.00  0.00    +0.000 C 
ATOM      5  C4  UNL A   1      52.251  15.845   6.353  1.00  0.00    +0.000 C 
ATOM      7  C5  UNL A   1      51.592  16.317   5.202  1.00  0.00    +0.000 C 
ATOM     83  C58 UNL A   1      51.889  17.614   4.766  1.00  0.00    +0.000 C 
ATOM    117  H34 UNL A   1      51.511  17.944   3.863  1.00  0.00    +0.000 H 
ATOM     86  H3  UNL A   1      54.005  18.568   7.175  1.00  0.00    +0.000 H 
ATOM     87  H4  UNL A   1      53.614  16.289   7.899  1.00  0.00    +0.000 H 
BRANCH    2    1
ATOM      1  N1  UNL A   1      53.000  19.757   5.059  1.00  0.00    +0.000 N 
ATOM     84  H1  UNL A   1      52.411  20.197   4.405  1.00  0.00    +0.000 H 
ATOM     85  H2  UNL A   1      53.808  20.217   5.382  1.00  0.00    +0.000 H 
ENDBRANCH    2    1
BRANCH    5    6
ATOM      6  O1  UNL A   1      52.106  14.569   6.839  1.00  0.00    +0.000 O 
ATOM     88  H5  UNL A   1      51.851  14.434   7.729  1.00  0.00    +0.000 H 
ENDBRANCH    5    6
ENDBRANCH    8    7
ENDBRANCH   10    8
ENDBRANCH   11   10
ENDBRANCH   12   11
ENDBRANCH   13   12
ENDBRANCH   14   13
ENDBRANCH   15   14
ENDBRANCH   16   15
ENDBRANCH   17   16
ENDBRANCH   18   17
ENDBRANCH   20   18
ENDBRANCH   24   23
BRANCH   28   29
ATOM     33  F2  UNL A   1      59.823  13.650  10.789  1.00  0.00    +0.000 F 
ATOM     34  C25 UNL A   1      60.530  15.567   9.604  1.00  0.00    +0.000 C 
ATOM     35  F3  UNL A   1      61.300  14.809   8.811  1.00  0.00    +0.000 F 
ATOM     36  C26 UNL A   1      60.495  16.943   9.432  1.00  0.00    +0.000 C 
ATOM     37  F4  UNL A   1      61.219  17.513   8.458  1.00  0.00    +0.000 F 
ATOM     38  C27 UNL A   1      59.709  17.732  10.267  1.00  0.00    +0.000 C 
ATOM     39  F5  UNL A   1      59.704  19.060  10.081  1.00  0.00    +0.000 F 
ATOM     29  C22 UNL A   1      58.925  17.156  11.277  1.00  0.00    +0.000 C 
ATOM     30  C23 UNL A   1      58.964  15.761  11.424  1.00  0.00    +0.000 C 
ATOM     31  F1  UNL A   1      58.242  15.163  12.383  1.00  0.00    +0.000 F 
ATOM     32  C24 UNL A   1      59.771  14.977  10.605  1.00  0.00    +0.000 C 
ENDBRANCH   28   29
BRANCH   45   46
ATOM     46  C33 UNL A   1      59.268  20.614  17.588  1.00  0.00    +0.000 C 
ATOM     47  C34 UNL A   1      59.462  19.714  18.645  1.00  0.00    +0.000 C 
ATOM     48  F6  UNL A   1      58.698  18.615  18.745  1.00  0.00    +0.000 F 
ATOM     49  C35 UNL A   1      60.421  19.959  19.625  1.00  0.00    +0.000 C 
ATOM     50  F7  UNL A   1      60.561  19.107  20.650  1.00  0.00    +0.000 F 
ATOM     51  C36 UNL A   1      61.219  21.091  19.549  1.00  0.00    +0.000 C 
ATOM     52  F8  UNL A   1      62.145  21.322  20.491  1.00  0.00    +0.000 F 
ATOM     53  C37 UNL A   1      61.055  21.985  18.503  1.00  0.00    +0.000 C 
ATOM     54  F9  UNL A   1      61.834  23.072  18.422  1.00  0.00    +0.000 F 
ATOM     55  C38 UNL A   1      60.080  21.757  17.536  1.00  0.00    +0.000 C 
ATOM     56  F10 UNL A   1      59.936  22.644  16.541  1.00  0.00    +0.000 F 
ENDBRANCH   45   46
BRANCH   60   61
ATOM     65  F12 UNL A   1      51.505  25.978  17.302  1.00  0.00    +0.000 F 
ATOM     66  C45 UNL A   1      50.869  24.022  18.461  1.00  0.00    +0.000 C 
ATOM     67  F13 UNL A   1      50.045  24.734  19.242  1.00  0.00    +0.000 F 
ATOM     68  C46 UNL A   1      50.994  22.653  18.648  1.00  0.00    +0.000 C 
ATOM     69  F14 UNL A   1      50.276  22.038  19.597  1.00  0.00    +0.000 F 
ATOM     70  C47 UNL A   1      51.869  21.916  17.852  1.00  0.00    +0.000 C 
ATOM     71  F15 UNL A   1      51.981  20.597  18.064  1.00  0.00    +0.000 F 
ATOM     61  C42 UNL A   1      52.618  22.531  16.839  1.00  0.00    +0.000 C 
ATOM     62  C43 UNL A   1      52.459  23.912  16.656  1.00  0.00    +0.000 C 
ATOM     63  F11 UNL A   1      53.170  24.548  15.713  1.00  0.00    +0.000 F 
ATOM     64  C44 UNL A   1      51.604  24.652  17.469  1.00  0.00    +0.000 C 
ENDBRANCH   60   61
TORSDOF 17
ENDMDL
MODEL 2
REMARK VINA RESULT:      -9.3     48.161     53.018
ROOT
ATOM     24  C18 UNL A   1      13.937  53.731   5.170  1.00  0.00    +0.000 C 
ATOM     25  C19 UNL A   1      14.881  54.186   4.093  1.00  0.00    +0.000 C 
ATOM     26  N4  UNL A   1      15.369  53.515   3.082  1.00  0.00    +0.000 N 
ATOM     27  C20 UNL A   1      16.147  54.418   2.369  1.00  0.00    +0.000 C 
ATOM     28  C21 UNL A   1      16.903  54.196   1.267  1.00  0.00    +0.000 C 
ATOM     40  C28 UNL A   1      17.046  52.914   0.626  1.00  0.00    +0.000 C 
ATOM     41  C29 UNL A   1      17.843  52.574  -0.453  1.00  0.00    +0.000 C 
ATOM     42  C30 UNL A   1      17.627  51.223  -0.745  1.00  0.00    +0.000 C 
ATOM     43  C31 UNL A   1      16.728  50.713   0.177  1.00  0.00    +0.000 C 
ATOM     44  N5  UNL A   1      16.376  51.762   1.010  1.00  0.00    +0.000 N 
ATOM     45  C32 UNL A   1      16.225  49.369   0.290  1.00  0.00    +0.000 C 
ATOM     57  C39 UNL A   1      15.346  48.943   1.230  1.00  0.00    +0.000 C 
ATOM     58  N6  UNL A   1      14.760  49.660   2.264  1.00  0.00    +0.000 N 
ATOM     59  C40 UNL A   1      13.980  48.814   2.892  1.00  0.00    +0.000 C 
ATOM     60  C41 UNL A   1      13.123  49.035   4.108  1.00  0.00    +0.000 C 
ATOM     72  C48 UNL A   1      13.118  50.245   4.698  1.00  0.00    +0.000 C 
ATOM     73  C49 UNL A   1      12.345  50.607   5.882  1.00  0.00    +0.000 C 
ATOM     74  C50 UNL A   1      12.552  51.904   6.161  1.00  0.00    +0.000 C 
ATOM     75  C51 UNL A   1      13.501  52.456   5.193  1.00  0.00    +0.000 C 
ATOM     76  N7  UNL A   1      13.789  51.397   4.368  1.00  0.00    +0.000 N 
ATOM     77  C52 UNL A   1      13.962  47.466   2.305  1.00  0.00    +0.000 C 
ATOM     78  C53 UNL A   1      14.840  47.589   1.320  1.00  0.00    +0.000 C 
ATOM     79  C54 UNL A   1      16.033  55.695   3.038  1.00  0.00    +0.000 C 
ATOM     80  C55 UNL A   1      15.312  55.592   4.145  1.00  0.00    +0.000 C 
ATOM    105  H22 UNL A   1      18.484  53.207  -0.955  1.00  0.00    +0.000 H 
ATOM    106  H23 UNL A   1      18.064  50.695  -1.518  1.00  0.00    +0.000 H 
ATOM    107  H24 UNL A   1      15.745  51.700   1.763  1.00  0.00    +0.000 H 
ATOM    108  H25 UNL A   1      11.736  49.969   6.419  1.00  0.00    +0.000 H 
ATOM    109  H26 UNL A   1      12.112  52.429   6.933  1.00  0.00    +0.000 H 
ATOM    110  H27 UNL A   1      14.416  51.458   3.613  1.00  0.00    +0.000 H 
ATOM    111  H28 UNL A   1      13.410  46.641   2.586  1.00  0.00    +0.000 H 
ATOM    112  H29 UNL A   1      15.129  46.818   0.697  1.00  0.00    +0.000 H 
ATOM    113  H30 UNL A   1      16.458  56.572   2.699  1.00  0.00    +0.000 H 
ATOM    114  H31 UNL A   1      15.107  56.310   4.858  1.00  0.00    +0.000 H 
ENDROOT
BRANCH   24   23
ATOM    103  H20 UNL A   1      11.068  57.056   6.621  1.00  0.00    +0.000 H 
ATOM    104  H21 UNL A   1      11.815  55.412   4.998  1.00  0.00    +0.000 H 
ATOM     81  C56 UNL A   1      14.059  54.804   7.419  1.00  0.00    +0.000 C 
ATOM     82  C57 UNL A   1      13.584  55.697   8.377  1.00  0.00    +0.000 C 
ATOM    115  H32 UNL A   1      14.882  54.218   7.628  1.00  0.00    +0.000 H 
ATOM     20  C14 UNL A   1      12.527  56.557   8.066  1.00  0.00    +0.000 C 
ATOM     21  C15 UNL A   1      11.873  56.447   6.835  1.00  0.00    +0.000 C 
ATOM    116  H33 UNL A   1      14.011  55.723   9.316  1.00  0.00    +0.000 H 
ATOM     22  C16 UNL A   1      12.312  55.510   5.897  1.00  0.00    +0.000 C 
ATOM     23  C17 UNL A   1      13.425  54.699   6.172  1.00  0.00    +0.000 C 
BRANCH   20   18
ATOM     18  C13 UNL A   1      12.056  57.572   9.036  1.00  0.00    +0.000 C 
ATOM     19  O3  UNL A   1      12.371  58.745   8.891  1.00  0.00    +0.000 O 
BRANCH   18   17
ATOM     17  N3  UNL A   1      11.271  57.193  10.099  1.00  0.00    +0.000 N 
ATOM    102  H19 UNL A   1      11.410  57.700  10.931  1.00  0.00    +0.000 H 
BRANCH   17   16
ATOM    100  H17 UNL A   1       9.437  56.499  10.748  1.00  0.00    +0.000 H 
ATOM    101  H18 UNL A   1       9.959  55.916   9.165  1.00  0.00    +0.000 H 
ATOM     16  C12 UNL A   1      10.263  56.147  10.165  1.00  0.00    +0.000 C 
BRANCH   16   15
ATOM     98  H15 UNL A   1       9.984  54.330  11.221  1.00  0.00    +0.000 H 
ATOM     99  H16 UNL A   1      11.307  54.333  10.023  1.00  0.00    +0.000 H 
ATOM     15  C11 UNL A   1      10.807  54.871  10.801  1.00  0.00    +0.000 C 
BRANCH   15   14
ATOM     97  H14 UNL A   1      11.329  55.611  12.693  1.00  0.00    +0.000 H 
ATOM     14  C10 UNL A   1      11.842  55.102  11.905  1.00  0.00    +0.000 C 
ATOM     96  H13 UNL A   1      12.651  55.665  11.487  1.00  0.00    +0.000 H 
BRANCH   14   13
ATOM     13  C9  UNL A   1      12.425  53.827  12.530  1.00  0.00    +0.000 C 
ATOM     94  H11 UNL A   1      11.908  53.642  13.449  1.00  0.00    +0.000 H 
ATOM     95  H12 UNL A   1      12.294  53.052  11.804  1.00  0.00    +0.000 H 
BRANCH   13   12
ATOM     92  H9  UNL A   1      14.343  54.749  12.369  1.00  0.00    +0.000 H 
ATOM     12  C8  UNL A   1      13.932  53.878  12.834  1.00  0.00    +0.000 C 
ATOM     93  H10 UNL A   1      14.039  53.900  13.898  1.00  0.00    +0.000 H 
BRANCH   12   11
ATOM     90  H7  UNL A   1      15.666  52.630  12.770  1.00  0.00    +0.000 H 
ATOM     11  C7  UNL A   1      14.693  52.651  12.327  1.00  0.00    +0.000 C 
ATOM     91  H8  UNL A   1      14.154  51.767  12.596  1.00  0.00    +0.000 H 
BRANCH   11   10
ATOM     89  H6  UNL A   1      15.413  53.437  10.579  1.00  0.00    +0.000 H 
ATOM     10  N2  UNL A   1      14.823  52.710  10.885  1.00  0.00    +0.000 N 
BRANCH   10    8
ATOM      9  O2  UNL A   1      13.085  52.056   9.670  1.00  0.00    +0.000 O 
ATOM      8  C6  UNL A   1      14.304  51.972   9.855  1.00  0.00    +0.000 C 
BRANCH    8    7
ATOM      2  C1  UNL A   1      16.431  50.448   7.054  1.00  0.00    +0.000 C 
ATOM      3  C2  UNL A   1      16.556  49.141   7.528  1.00  0.00    +0.000 C 
ATOM      4  C3  UNL A   1      15.969  48.769   8.734  1.00  0.00    +0.000 C 
ATOM      5  C4  UNL A   1      15.245  49.705   9.468  1.00  0.00    +0.000 C 
ATOM      7  C5  UNL A   1      15.075  51.023   9.003  1.00  0.00    +0.000 C 
ATOM     83  C58 UNL A   1      15.613  51.348   7.752  1.00  0.00    +0.000 C 
ATOM    117  H34 UNL A   1      15.404  52.269   7.334  1.00  0.00    +0.000 H 
ATOM     86  H3  UNL A   1      17.087  48.446   6.980  1.00  0.00    +0.000 H 
ATOM     87  H4  UNL A   1      16.071  47.804   9.084  1.00  0.00    +0.000 H 
BRANCH    2    1
ATOM      1  N1  UNL A   1      16.930  50.782   5.788  1.00  0.00    +0.000 N 
ATOM     84  H1  UNL A   1      16.623  50.291   4.992  1.00  0.00    +0.000 H 
ATOM     85  H2  UNL A   1      17.589  51.508   5.695  1.00  0.00    +0.000 H 
ENDBRANCH    2    1
BRANCH    5    6
ATOM      6  O1  UNL A   1      14.703  49.240  10.639  1.00  0.00    +0.000 O 
ATOM     88  H5  UNL A   1      15.225  48.734  11.228  1.00  0.00    +0.000 H 
ENDBRANCH    5    6
ENDBRANCH    8    7
ENDBRANCH   10    8
ENDBRANCH   11   10
ENDBRANCH   12   11
ENDBRANCH   13   12
ENDBRANCH   14   13
ENDBRANCH   15   14
ENDBRANCH   16   15
ENDBRANCH   17   16
ENDBRANCH   18   17
ENDBRANCH   20   18
ENDBRANCH   24   23
BRANCH   28   29
ATOM     33  F2  UNL A   1      17.222  57.986  -1.822  1.00  0.00    +0.000 F 
ATOM     34  C25 UNL A   1      19.014  57.595  -0.335  1.00  0.00    +0.000 C 
ATOM     35  F3  UNL A   1      19.670  58.655  -0.825  1.00  0.00    +0.000 F 
ATOM     36  C26 UNL A   1      19.585  56.826   0.669  1.00  0.00    +0.000 C 
ATOM     37  F4  UNL A   1      20.788  57.157   1.161  1.00  0.00    +0.000 F 
ATOM     38  C27 UNL A   1      18.911  55.714   1.167  1.00  0.00    +0.000 C 
ATOM     39  F5  UNL A   1      19.494  54.986   2.130  1.00  0.00    +0.000 F 
ATOM     29  C22 UNL A   1      17.643  55.363   0.683  1.00  0.00    +0.000 C 
ATOM     30  C23 UNL A   1      17.077  56.163  -0.321  1.00  0.00    +0.000 C 
ATOM     31  F1  UNL A   1      15.871  55.861  -0.825  1.00  0.00    +0.000 F 
ATOM     32  C24 UNL A   1      17.764  57.259  -0.835  1.00  0.00    +0.000 C 
ENDBRANCH   28   29
BRANCH   45   46
ATOM     46  C33 UNL A   1      16.724  48.351  -0.693  1.00  0.00    +0.000 C 
ATOM     47  C34 UNL A   1      15.962  47.972  -1.807  1.00  0.00    +0.000 C 
ATOM     48  F6  UNL A   1      14.732  48.478  -1.988  1.00  0.00    +0.000 F 
ATOM     49  C35 UNL A   1      16.448  47.040  -2.721  1.00  0.00    +0.000 C 
ATOM     50  F7  UNL A   1      15.686  46.659  -3.755  1.00  0.00    +0.000 F 
ATOM     51  C36 UNL A   1      17.712  46.496  -2.553  1.00  0.00    +0.000 C 
ATOM     52  F8  UNL A   1      18.181  45.603  -3.438  1.00  0.00    +0.000 F 
ATOM     53  C37 UNL A   1      18.489  46.870  -1.468  1.00  0.00    +0.000 C 
ATOM     54  F9  UNL A   1      19.716  46.354  -1.312  1.00  0.00    +0.000 F 
ATOM     55  C38 UNL A   1      17.997  47.781  -0.538  1.00  0.00    +0.000 C 
ATOM     56  F10 UNL A   1      18.765  48.117   0.508  1.00  0.00    +0.000 F 
ENDBRANCH   45   46
BRANCH   60   61
ATOM     65  F12 UNL A   1       9.057  46.349   4.180  1.00  0.00    +0.000 F 
ATOM     66  C45 UNL A   1      10.746  45.856   5.754  1.00  0.00    +0.000 C 
ATOM     67  F13 UNL A   1       9.995  44.876   6.277  1.00  0.00    +0.000 F 
ATOM     68  C46 UNL A   1      11.996  46.135   6.288  1.00  0.00    +0.000 C 
ATOM     69  F14 UNL A   1      12.461  45.411   7.315  1.00  0.00    +0.000 F 
ATOM     70  C47 UNL A   1      12.766  47.169   5.761  1.00  0.00    +0.000 C 
ATOM     71  F15 UNL A   1      13.965  47.425   6.306  1.00  0.00    +0.000 F 
ATOM     61  C42 UNL A   1      12.312  47.928   4.674  1.00  0.00    +0.000 C 
ATOM     62  C43 UNL A   1      11.055  47.614   4.139  1.00  0.00    +0.000 C 
ATOM     63  F11 UNL A   1      10.568  48.328   3.112  1.00  0.00    +0.000 F 
ATOM     64  C44 UNL A   1      10.274  46.598   4.683  1.00  0.00    +0.000 C 
ENDBRANCH   60   61
TORSDOF 17
ENDMDL
MODEL 3
REMARK VINA RESULT:      -9.3     45.126     51.541
ROOT
ATOM     24  C18 UNL A   1      21.377  38.355  49.406  1.00  0.00    +0.000 C 
ATOM     25  C19 UNL A   1      22.210  39.602  49.498  1.00  0.00    +0.000 C 
ATOM     26  N4  UNL A   1      23.369  39.865  48.953  1.00  0.00    +0.000 N 
ATOM     27  C20 UNL A   1      23.669  41.172  49.315  1.00  0.00    +0.000 C 
ATOM     28  C21 UNL A   1      24.785  41.890  49.040  1.00  0.00    +0.000 C 
ATOM     40  C28 UNL A   1      25.912  41.385  48.300  1.00  0.00    +0.000 C 
ATOM     41  C29 UNL A   1      27.117  42.012  48.029  1.00  0.00    +0.000 C 
ATOM     42  C30 UNL A   1      27.892  41.148  47.248  1.00  0.00    +0.000 C 
ATOM     43  C31 UNL A   1      27.187  39.968  47.069  1.00  0.00    +0.000 C 
ATOM     44  N5  UNL A   1      25.973  40.129  47.715  1.00  0.00    +0.000 N 
ATOM     45  C32 UNL A   1      27.590  38.783  46.358  1.00  0.00    +0.000 C 
ATOM     57  C39 UNL A   1      26.842  37.659  46.231  1.00  0.00    +0.000 C 
ATOM     58  N6  UNL A   1      25.579  37.392  46.739  1.00  0.00    +0.000 N 
ATOM     59  C40 UNL A   1      25.279  36.180  46.339  1.00  0.00    +0.000 C 
ATOM     60  C41 UNL A   1      24.047  35.364  46.619  1.00  0.00    +0.000 C 
ATOM     72  C48 UNL A   1      23.078  35.882  47.397  1.00  0.00    +0.000 C 
ATOM     73  C49 UNL A   1      21.833  35.212  47.759  1.00  0.00    +0.000 C 
ATOM     74  C50 UNL A   1      21.089  36.043  48.507  1.00  0.00    +0.000 C 
ATOM     75  C51 UNL A   1      21.822  37.294  48.706  1.00  0.00    +0.000 C 
ATOM     76  N7  UNL A   1      22.995  37.105  48.018  1.00  0.00    +0.000 N 
ATOM     77  C52 UNL A   1      26.313  35.552  45.502  1.00  0.00    +0.000 C 
ATOM     78  C53 UNL A   1      27.258  36.481  45.501  1.00  0.00    +0.000 C 
ATOM     79  C54 UNL A   1      22.553  41.663  50.092  1.00  0.00    +0.000 C 
ATOM     80  C55 UNL A   1      21.651  40.712  50.287  1.00  0.00    +0.000 C 
ATOM    105  H22 UNL A   1      27.393  42.953  48.347  1.00  0.00    +0.000 H 
ATOM    106  H23 UNL A   1      28.830  41.354  46.870  1.00  0.00    +0.000 H 
ATOM    107  H24 UNL A   1      25.259  39.453  47.754  1.00  0.00    +0.000 H 
ATOM    108  H25 UNL A   1      21.566  34.254  47.485  1.00  0.00    +0.000 H 
ATOM    109  H26 UNL A   1      20.151  35.833  48.883  1.00  0.00    +0.000 H 
ATOM    110  H27 UNL A   1      23.709  37.781  47.973  1.00  0.00    +0.000 H 
ATOM    111  H28 UNL A   1      26.304  34.631  45.038  1.00  0.00    +0.000 H 
ATOM    112  H29 UNL A   1      28.176  36.377  45.039  1.00  0.00    +0.000 H 
ATOM    113  H30 UNL A   1      22.468  42.629  50.448  1.00  0.00    +0.000 H 
ATOM    114  H31 UNL A   1      20.785  40.741  50.847  1.00  0.00    +0.000 H 
ENDROOT
BRANCH   24   23
ATOM    103  H20 UNL A   1      16.842  39.260  49.522  1.00  0.00    +0.000 H 
ATOM    104  H21 UNL A   1      19.012  39.260  48.433  1.00  0.00    +0.000 H 
ATOM     81  C56 UNL A   1      19.867  37.710  51.285  1.00  0.00    +0.000 C 
ATOM     82  C57 UNL A   1      18.607  37.646  51.877  1.00  0.00    +0.000 C 
ATOM    115  H32 UNL A   1      20.684  37.315  51.775  1.00  0.00    +0.000 H 
ATOM     20  C14 UNL A   1      17.514  38.260  51.259  1.00  0.00    +0.000 C 
ATOM     21  C15 UNL A   1      17.658  38.841  49.995  1.00  0.00    +0.000 C 
ATOM    116  H33 UNL A   1      18.481  37.145  52.770  1.00  0.00    +0.000 H 
ATOM     22  C16 UNL A   1      18.910  38.852  49.375  1.00  0.00    +0.000 C 
ATOM     23  C17 UNL A   1      20.029  38.310  50.027  1.00  0.00    +0.000 C 
BRANCH   20   18
ATOM     18  C13 UNL A   1      16.181  38.279  51.905  1.00  0.00    +0.000 C 
ATOM     19  O3  UNL A   1      16.095  38.226  53.123  1.00  0.00    +0.000 O 
BRANCH   18   17
ATOM     17  N3  UNL A   1      15.046  38.350  51.133  1.00  0.00    +0.000 N 
ATOM    102  H19 UNL A   1      14.903  39.205  50.668  1.00  0.00    +0.000 H 
BRANCH   17   16
ATOM    100  H17 UNL A   1      14.287  36.457  51.462  1.00  0.00    +0.000 H 
ATOM    101  H18 UNL A   1      13.088  37.734  51.236  1.00  0.00    +0.000 H 
ATOM     16  C12 UNL A   1      14.026  37.337  50.910  1.00  0.00    +0.000 C 
BRANCH   16   15
ATOM     98  H15 UNL A   1      13.191  36.175  49.346  1.00  0.00    +0.000 H 
ATOM     99  H16 UNL A   1      13.590  37.863  48.926  1.00  0.00    +0.000 H 
ATOM     15  C11 UNL A   1      13.899  36.972  49.434  1.00  0.00    +0.000 C 
BRANCH   15   14
ATOM     97  H14 UNL A   1      15.507  35.635  49.279  1.00  0.00    +0.000 H 
ATOM     14  C10 UNL A   1      15.207  36.527  48.773  1.00  0.00    +0.000 C 
ATOM     96  H13 UNL A   1      15.912  37.327  48.862  1.00  0.00    +0.000 H 
BRANCH   14   13
ATOM     13  C9  UNL A   1      15.095  36.157  47.288  1.00  0.00    +0.000 C 
ATOM     94  H11 UNL A   1      15.149  35.091  47.207  1.00  0.00    +0.000 H 
ATOM     95  H12 UNL A   1      14.164  36.563  46.949  1.00  0.00    +0.000 H 
BRANCH   13   12
ATOM     92  H9  UNL A   1      16.170  36.239  45.446  1.00  0.00    +0.000 H 
ATOM     12  C8  UNL A   1      16.180  36.759  46.380  1.00  0.00    +0.000 C 
ATOM     93  H10 UNL A   1      15.955  37.799  46.266  1.00  0.00    +0.000 H 
BRANCH   12   11
ATOM     90  H7  UNL A   1      18.205  37.425  46.550  1.00  0.00    +0.000 H 
ATOM     11  C7  UNL A   1      17.587  36.662  46.974  1.00  0.00    +0.000 C 
ATOM     91  H8  UNL A   1      17.531  36.791  48.035  1.00  0.00    +0.000 H 
BRANCH   11   10
ATOM     89  H6  UNL A   1      18.027  34.709  47.407  1.00  0.00    +0.000 H 
ATOM     10  N2  UNL A   1      18.160  35.363  46.682  1.00  0.00    +0.000 N 
BRANCH   10    8
ATOM      9  O2  UNL A   1      19.622  35.611  45.032  1.00  0.00    +0.000 O 
ATOM      8  C6  UNL A   1      18.845  34.847  45.615  1.00  0.00    +0.000 C 
BRANCH    8    7
ATOM      2  C1  UNL A   1      19.270  31.119  44.832  1.00  0.00    +0.000 C 
ATOM      3  C2  UNL A   1      18.174  30.921  43.991  1.00  0.00    +0.000 C 
ATOM      4  C3  UNL A   1      17.313  31.975  43.695  1.00  0.00    +0.000 C 
ATOM      5  C4  UNL A   1      17.554  33.236  44.234  1.00  0.00    +0.000 C 
ATOM      7  C5  UNL A   1      18.667  33.475  45.061  1.00  0.00    +0.000 C 
ATOM     83  C58 UNL A   1      19.556  32.416  45.281  1.00  0.00    +0.000 C 
ATOM    117  H34 UNL A   1      20.440  32.593  45.785  1.00  0.00    +0.000 H 
ATOM     86  H3  UNL A   1      18.000  29.988  43.587  1.00  0.00    +0.000 H 
ATOM     87  H4  UNL A   1      16.499  31.821  43.080  1.00  0.00    +0.000 H 
BRANCH    2    1
ATOM      1  N1  UNL A   1      20.190  30.081  45.035  1.00  0.00    +0.000 N 
ATOM     84  H1  UNL A   1      20.070  29.220  44.574  1.00  0.00    +0.000 H 
ATOM     85  H2  UNL A   1      20.957  30.215  45.637  1.00  0.00    +0.000 H 
ENDBRANCH    2    1
BRANCH    5    6
ATOM      6  O1  UNL A   1      16.652  34.207  43.878  1.00  0.00    +0.000 O 
ATOM     88  H5  UNL A   1      15.873  34.330  44.384  1.00  0.00    +0.000 H 
ENDBRANCH    5    6
ENDBRANCH    8    7
ENDBRANCH   10    8
ENDBRANCH   11   10
ENDBRANCH   12   11
ENDBRANCH   13   12
ENDBRANCH   14   13
ENDBRANCH   15   14
ENDBRANCH   16   15
ENDBRANCH   17   16
ENDBRANCH   18   17
ENDBRANCH   20   18
ENDBRANCH   24   23
BRANCH   28   29
ATOM     33  F2  UNL A   1      25.906  45.180  52.493  1.00  0.00    +0.000 F 
ATOM     34  C25 UNL A   1      25.034  45.958  50.441  1.00  0.00    +0.000 C 
ATOM     35  F3  UNL A   1      25.117  47.225  50.870  1.00  0.00    +0.000 F 
ATOM     36  C26 UNL A   1      24.532  45.683  49.178  1.00  0.00    +0.000 C 
ATOM     37  F4  UNL A   1      24.146  46.688  48.379  1.00  0.00    +0.000 F 
ATOM     38  C27 UNL A   1      24.430  44.366  48.738  1.00  0.00    +0.000 C 
ATOM     39  F5  UNL A   1      23.931  44.132  47.515  1.00  0.00    +0.000 F 
ATOM     29  C22 UNL A   1      24.848  43.300  49.547  1.00  0.00    +0.000 C 
ATOM     30  C23 UNL A   1      25.367  43.602  50.815  1.00  0.00    +0.000 C 
ATOM     31  F1  UNL A   1      25.770  42.617  51.632  1.00  0.00    +0.000 F 
ATOM     32  C24 UNL A   1      25.444  44.918  51.263  1.00  0.00    +0.000 C 
ENDBRANCH   28   29
BRANCH   45   46
ATOM     46  C33 UNL A   1      28.950  38.777  45.724  1.00  0.00    +0.000 C 
ATOM     47  C34 UNL A   1      30.024  38.083  46.298  1.00  0.00    +0.000 C 
ATOM     48  F6  UNL A   1      29.869  37.448  47.470  1.00  0.00    +0.000 F 
ATOM     49  C35 UNL A   1      31.275  38.072  45.687  1.00  0.00    +0.000 C 
ATOM     50  F7  UNL A   1      32.300  37.438  46.275  1.00  0.00    +0.000 F 
ATOM     51  C36 UNL A   1      31.465  38.726  44.479  1.00  0.00    +0.000 C 
ATOM     52  F8  UNL A   1      32.669  38.709  43.889  1.00  0.00    +0.000 F 
ATOM     53  C37 UNL A   1      30.412  39.404  43.886  1.00  0.00    +0.000 C 
ATOM     54  F9  UNL A   1      30.591  40.027  42.713  1.00  0.00    +0.000 F 
ATOM     55  C38 UNL A   1      29.167  39.440  44.507  1.00  0.00    +0.000 C 
ATOM     56  F10 UNL A   1      28.168  40.112  43.916  1.00  0.00    +0.000 F 
ENDBRANCH   45   46
BRANCH   60   61
ATOM     65  F12 UNL A   1      25.088  30.605  46.751  1.00  0.00    +0.000 F 
ATOM     66  C45 UNL A   1      23.675  31.390  45.029  1.00  0.00    +0.000 C 
ATOM     67  F13 UNL A   1      23.575  30.151  44.525  1.00  0.00    +0.000 F 
ATOM     68  C46 UNL A   1      23.023  32.447  44.411  1.00  0.00    +0.000 C 
ATOM     69  F14 UNL A   1      22.278  32.227  43.320  1.00  0.00    +0.000 F 
ATOM     70  C47 UNL A   1      23.147  33.737  44.920  1.00  0.00    +0.000 C 
ATOM     71  F15 UNL A   1      22.517  34.743  44.294  1.00  0.00    +0.000 F 
ATOM     61  C42 UNL A   1      23.906  33.992  46.071  1.00  0.00    +0.000 C 
ATOM     62  C43 UNL A   1      24.538  32.904  46.690  1.00  0.00    +0.000 C 
ATOM     63  F11 UNL A   1      25.292  33.102  47.781  1.00  0.00    +0.000 F 
ATOM     64  C44 UNL A   1      24.436  31.619  46.164  1.00  0.00    +0.000 C 
ENDBRANCH   60   61
TORSDOF 17
ENDMDL
MODEL 4
REMARK VINA RESULT:      -9.2      3.248      9.124
ROOT
ATOM     24  C18 UNL A   1      53.003  20.246  11.580  1.00  0.00    +0.000 C 
ATOM     25  C19 UNL A   1      52.806  20.827  12.952  1.00  0.00    +0.000 C 
ATOM     26  N4  UNL A   1      53.660  20.930  13.938  1.00  0.00    +0.000 N 
ATOM     27  C20 UNL A   1      52.983  21.585  14.958  1.00  0.00    +0.000 C 
ATOM     28  C21 UNL A   1      53.420  21.885  16.205  1.00  0.00    +0.000 C 
ATOM     40  C28 UNL A   1      54.723  21.543  16.712  1.00  0.00    +0.000 C 
ATOM     41  C29 UNL A   1      55.233  21.742  17.984  1.00  0.00    +0.000 C 
ATOM     42  C30 UNL A   1      56.553  21.279  18.001  1.00  0.00    +0.000 C 
ATOM     43  C31 UNL A   1      56.850  20.755  16.754  1.00  0.00    +0.000 C 
ATOM     44  N5  UNL A   1      55.720  20.927  15.971  1.00  0.00    +0.000 N 
ATOM     45  C32 UNL A   1      58.075  20.144  16.307  1.00  0.00    +0.000 C 
ATOM     57  C39 UNL A   1      58.288  19.645  15.064  1.00  0.00    +0.000 C 
ATOM     58  N6  UNL A   1      57.418  19.597  13.984  1.00  0.00    +0.000 N 
ATOM     59  C40 UNL A   1      58.088  19.033  13.008  1.00  0.00    +0.000 C 
ATOM     60  C41 UNL A   1      57.633  18.699  11.614  1.00  0.00    +0.000 C 
ATOM     72  C48 UNL A   1      56.367  18.975  11.250  1.00  0.00    +0.000 C 
ATOM     73  C49 UNL A   1      55.783  18.704   9.940  1.00  0.00    +0.000 C 
ATOM     74  C50 UNL A   1      54.517  19.150   9.924  1.00  0.00    +0.000 C 
ATOM     75  C51 UNL A   1      54.188  19.707  11.237  1.00  0.00    +0.000 C 
ATOM     76  N7  UNL A   1      55.344  19.552  11.962  1.00  0.00    +0.000 N 
ATOM     77  C52 UNL A   1      59.475  18.688  13.354  1.00  0.00    +0.000 C 
ATOM     78  C53 UNL A   1      59.532  19.046  14.628  1.00  0.00    +0.000 C 
ATOM     79  C54 UNL A   1      51.661  21.893  14.459  1.00  0.00    +0.000 C 
ATOM     80  C55 UNL A   1      51.479  21.391  13.246  1.00  0.00    +0.000 C 
ATOM    105  H22 UNL A   1      54.727  22.159  18.779  1.00  0.00    +0.000 H 
ATOM    106  H23 UNL A   1      57.197  21.321  18.808  1.00  0.00    +0.000 H 
ATOM    107  H24 UNL A   1      55.637  20.653  15.030  1.00  0.00    +0.000 H 
ATOM    108  H25 UNL A   1      56.266  18.245   9.152  1.00  0.00    +0.000 H 
ATOM    109  H26 UNL A   1      53.876  19.107   9.116  1.00  0.00    +0.000 H 
ATOM    110  H27 UNL A   1      55.432  19.829  12.902  1.00  0.00    +0.000 H 
ATOM    111  H28 UNL A   1      60.210  18.275  12.760  1.00  0.00    +0.000 H 
ATOM    112  H29 UNL A   1      60.357  18.914  15.234  1.00  0.00    +0.000 H 
ATOM    113  H30 UNL A   1      50.951  22.433  14.979  1.00  0.00    +0.000 H 
ATOM    114  H31 UNL A   1      50.629  21.394  12.661  1.00  0.00    +0.000 H 
ENDROOT
BRANCH   24   23
ATOM    103  H20 UNL A   1      49.427  18.528   9.203  1.00  0.00    +0.000 H 
ATOM    104  H21 UNL A   1      51.129  18.396  10.929  1.00  0.00    +0.000 H 
ATOM     81  C56 UNL A   1      51.752  21.505   9.825  1.00  0.00    +0.000 C 
ATOM     82  C57 UNL A   1      50.728  21.605   8.887  1.00  0.00    +0.000 C 
ATOM    115  H32 UNL A   1      52.393  22.299   9.972  1.00  0.00    +0.000 H 
ATOM     20  C14 UNL A   1      49.914  20.500   8.620  1.00  0.00    +0.000 C 
ATOM     21  C15 UNL A   1      50.053  19.330   9.373  1.00  0.00    +0.000 C 
ATOM    116  H33 UNL A   1      50.569  22.494   8.388  1.00  0.00    +0.000 H 
ATOM     22  C16 UNL A   1      51.041  19.250  10.357  1.00  0.00    +0.000 C 
ATOM     23  C17 UNL A   1      51.915  20.328  10.573  1.00  0.00    +0.000 C 
BRANCH   20   18
ATOM     18  C13 UNL A   1      48.873  20.552   7.569  1.00  0.00    +0.000 C 
ATOM     19  O3  UNL A   1      48.274  21.597   7.357  1.00  0.00    +0.000 O 
BRANCH   18   17
ATOM     17  N3  UNL A   1      48.578  19.426   6.838  1.00  0.00    +0.000 N 
ATOM    102  H19 UNL A   1      49.344  18.848   6.623  1.00  0.00    +0.000 H 
BRANCH   17   16
ATOM    100  H17 UNL A   1      47.332  17.911   6.191  1.00  0.00    +0.000 H 
ATOM    101  H18 UNL A   1      46.543  19.232   7.058  1.00  0.00    +0.000 H 
ATOM     16  C12 UNL A   1      47.290  18.971   6.337  1.00  0.00    +0.000 C 
BRANCH   16   15
ATOM     98  H15 UNL A   1      46.030  20.204   5.161  1.00  0.00    +0.000 H 
ATOM     99  H16 UNL A   1      47.764  20.243   4.738  1.00  0.00    +0.000 H 
ATOM     15  C11 UNL A   1      46.926  19.637   5.014  1.00  0.00    +0.000 C 
BRANCH   15   14
ATOM     97  H14 UNL A   1      46.574  17.698   4.296  1.00  0.00    +0.000 H 
ATOM     14  C10 UNL A   1      46.692  18.664   3.854  1.00  0.00    +0.000 C 
ATOM     96  H13 UNL A   1      47.531  18.732   3.192  1.00  0.00    +0.000 H 
BRANCH   14   13
ATOM     13  C9  UNL A   1      45.420  18.918   3.035  1.00  0.00    +0.000 C 
ATOM     94  H11 UNL A   1      45.661  18.789   2.000  1.00  0.00    +0.000 H 
ATOM     95  H12 UNL A   1      44.691  18.220   3.393  1.00  0.00    +0.000 H 
BRANCH   13   12
ATOM     92  H9  UNL A   1      43.844  20.204   3.682  1.00  0.00    +0.000 H 
ATOM     12  C8  UNL A   1      44.798  20.313   3.209  1.00  0.00    +0.000 C 
ATOM     93  H10 UNL A   1      45.477  20.891   3.800  1.00  0.00    +0.000 H 
BRANCH   12   11
ATOM     90  H7  UNL A   1      45.038  22.030   1.959  1.00  0.00    +0.000 H 
ATOM     11  C7  UNL A   1      44.601  21.057   1.886  1.00  0.00    +0.000 C 
ATOM     91  H8  UNL A   1      45.073  20.506   1.100  1.00  0.00    +0.000 H 
BRANCH   11   10
ATOM     89  H6  UNL A   1      42.834  22.086   1.780  1.00  0.00    +0.000 H 
ATOM     10  N2  UNL A   1      43.187  21.185   1.595  1.00  0.00    +0.000 N 
BRANCH   10    8
ATOM      9  O2  UNL A   1      42.467  19.792   0.025  1.00  0.00    +0.000 O 
ATOM      8  C6  UNL A   1      42.236  20.325   1.116  1.00  0.00    +0.000 C 
BRANCH    8    7
ATOM      2  C1  UNL A   1      38.525  20.400   2.075  1.00  0.00    +0.000 C 
ATOM      3  C2  UNL A   1      38.498  19.376   3.023  1.00  0.00    +0.000 C 
ATOM      4  C3  UNL A   1      39.659  18.674   3.335  1.00  0.00    +0.000 C 
ATOM      5  C4  UNL A   1      40.856  19.001   2.703  1.00  0.00    +0.000 C 
ATOM      7  C5  UNL A   1      40.923  20.048   1.764  1.00  0.00    +0.000 C 
ATOM     83  C58 UNL A   1      39.757  20.786   1.526  1.00  0.00    +0.000 C 
ATOM    117  H34 UNL A   1      39.804  21.630   0.933  1.00  0.00    +0.000 H 
ATOM     86  H3  UNL A   1      37.612  19.139   3.495  1.00  0.00    +0.000 H 
ATOM     87  H4  UNL A   1      39.632  17.912   4.030  1.00  0.00    +0.000 H 
BRANCH    2    1
ATOM      1  N1  UNL A   1      37.378  21.173   1.849  1.00  0.00    +0.000 N 
ATOM     84  H1  UNL A   1      36.648  21.175   2.509  1.00  0.00    +0.000 H 
ATOM     85  H2  UNL A   1      37.303  21.714   1.031  1.00  0.00    +0.000 H 
ENDBRANCH    2    1
BRANCH    5    6
ATOM      6  O1  UNL A   1      41.943  18.254   3.082  1.00  0.00    +0.000 O 
ATOM     88  H5  UNL A   1      42.101  17.422   2.682  1.00  0.00    +0.000 H 
ENDBRANCH    5    6
ENDBRANCH    8    7
ENDBRANCH   10    8
ENDBRANCH   11   10
ENDBRANCH   12   11
ENDBRANCH   13   12
ENDBRANCH   14   13
ENDBRANCH   15   14
ENDBRANCH   16   15
ENDBRANCH   17   16
ENDBRANCH   18   17
ENDBRANCH   20   18
ENDBRANCH   24   23
BRANCH   28   29
ATOM     33  F2  UNL A   1      51.343  26.011  17.842  1.00  0.00    +0.000 F 
ATOM     34  C25 UNL A   1      50.645  23.956  18.772  1.00  0.00    +0.000 C 
ATOM     35  F3  UNL A   1      49.776  24.595  19.567  1.00  0.00    +0.000 F 
ATOM     36  C26 UNL A   1      50.761  22.575  18.836  1.00  0.00    +0.000 C 
ATOM     37  F4  UNL A   1      49.989  21.878  19.683  1.00  0.00    +0.000 F 
ATOM     38  C27 UNL A   1      51.676  21.912  18.024  1.00  0.00    +0.000 C 
ATOM     39  F5  UNL A   1      51.771  20.577  18.117  1.00  0.00    +0.000 F 
ATOM     29  C22 UNL A   1      52.478  22.617  17.115  1.00  0.00    +0.000 C 
ATOM     30  C23 UNL A   1      52.333  24.011  17.055  1.00  0.00    +0.000 C 
ATOM     31  F1  UNL A   1      53.086  24.732  16.211  1.00  0.00    +0.000 F 
ATOM     32  C24 UNL A   1      51.436  24.674  17.888  1.00  0.00    +0.000 C 
ENDBRANCH   28   29
BRANCH   45   46
ATOM     46  C33 UNL A   1      59.199  20.028  17.294  1.00  0.00    +0.000 C 
ATOM     47  C34 UNL A   1      60.002  21.128  17.624  1.00  0.00    +0.000 C 
ATOM     48  F6  UNL A   1      59.813  22.309  17.014  1.00  0.00    +0.000 F 
ATOM     49  C35 UNL A   1      61.029  21.008  18.557  1.00  0.00    +0.000 C 
ATOM     50  F7  UNL A   1      61.813  22.062  18.826  1.00  0.00    +0.000 F 
ATOM     51  C36 UNL A   1      61.250  19.798  19.196  1.00  0.00    +0.000 C 
ATOM     52  F8  UNL A   1      62.236  19.686  20.098  1.00  0.00    +0.000 F 
ATOM     53  C37 UNL A   1      60.456  18.701  18.897  1.00  0.00    +0.000 C 
ATOM     54  F9  UNL A   1      60.662  17.535  19.523  1.00  0.00    +0.000 F 
ATOM     55  C38 UNL A   1      59.446  18.810  17.946  1.00  0.00    +0.000 C 
ATOM     56  F10 UNL A   1      58.700  17.731  17.668  1.00  0.00    +0.000 F 
ENDBRANCH   45   46
BRANCH   60   61
ATOM     65  F12 UNL A   1      59.665  14.695   9.718  1.00  0.00    +0.000 F 
ATOM     66  C45 UNL A   1      60.325  16.793   8.858  1.00  0.00    +0.000 C 
ATOM     67  F13 UNL A   1      61.176  16.196   8.012  1.00  0.00    +0.000 F 
ATOM     68  C46 UNL A   1      60.221  18.176   8.881  1.00  0.00    +0.000 C 
ATOM     69  F14 UNL A   1      60.959  18.916   8.043  1.00  0.00    +0.000 F 
ATOM     70  C47 UNL A   1      59.355  18.797   9.778  1.00  0.00    +0.000 C 
ATOM     71  F15 UNL A   1      59.286  20.137   9.788  1.00  0.00    +0.000 F 
ATOM     61  C42 UNL A   1      58.557  18.046  10.652  1.00  0.00    +0.000 C 
ATOM     62  C43 UNL A   1      58.664  16.649  10.596  1.00  0.00    +0.000 C 
ATOM     63  F11 UNL A   1      57.937  15.889  11.428  1.00  0.00    +0.000 F 
ATOM     64  C44 UNL A   1      59.550  16.030   9.718  1.00  0.00    +0.000 C 
ENDBRANCH   60   61
TORSDOF 17
ENDMDL
MODEL 5
REMARK VINA RESULT:      -9.2     48.093     53.028
ROOT
ATOM     24  C18 UNL A   1      14.460  50.008   4.562  1.00  0.00    +0.000 C 
ATOM     25  C19 UNL A   1      14.485  51.481   4.863  1.00  0.00    +0.000 C 
ATOM     26  N4  UNL A   1      14.915  52.470   4.123  1.00  0.00    +0.000 N 
ATOM     27  C20 UNL A   1      14.663  53.625   4.852  1.00  0.00    +0.000 C 
ATOM     28  C21 UNL A   1      14.971  54.906   4.538  1.00  0.00    +0.000 C 
ATOM     40  C28 UNL A   1      15.661  55.304   3.339  1.00  0.00    +0.000 C 
ATOM     41  C29 UNL A   1      16.079  56.569   2.963  1.00  0.00    +0.000 C 
ATOM     42  C30 UNL A   1      16.675  56.474   1.701  1.00  0.00    +0.000 C 
ATOM     43  C31 UNL A   1      16.665  55.145   1.310  1.00  0.00    +0.000 C 
ATOM     44  N5  UNL A   1      16.036  54.438   2.321  1.00  0.00    +0.000 N 
ATOM     45  C32 UNL A   1      17.188  54.563   0.102  1.00  0.00    +0.000 C 
ATOM     57  C39 UNL A   1      17.145  53.244  -0.208  1.00  0.00    +0.000 C 
ATOM     58  N6  UNL A   1      16.625  52.191   0.531  1.00  0.00    +0.000 N 
ATOM     59  C40 UNL A   1      16.812  51.115  -0.193  1.00  0.00    +0.000 C 
ATOM     60  C41 UNL A   1      16.471  49.685   0.125  1.00  0.00    +0.000 C 
ATOM     72  C48 UNL A   1      15.906  49.391   1.311  1.00  0.00    +0.000 C 
ATOM     73  C49 UNL A   1      15.526  48.055   1.760  1.00  0.00    +0.000 C 
ATOM     74  C50 UNL A   1      14.952  48.147   2.971  1.00  0.00    +0.000 C 
ATOM     75  C51 UNL A   1      14.957  49.547   3.398  1.00  0.00    +0.000 C 
ATOM     76  N7  UNL A   1      15.549  50.212   2.352  1.00  0.00    +0.000 N 
ATOM     77  C52 UNL A   1      17.448  51.371  -1.494  1.00  0.00    +0.000 C 
ATOM     78  C53 UNL A   1      17.665  52.677  -1.435  1.00  0.00    +0.000 C 
ATOM     79  C54 UNL A   1      14.005  53.219   6.075  1.00  0.00    +0.000 C 
ATOM     80  C55 UNL A   1      13.927  51.898   6.160  1.00  0.00    +0.000 C 
ATOM    105  H22 UNL A   1      15.970  57.431   3.518  1.00  0.00    +0.000 H 
ATOM    106  H23 UNL A   1      17.058  57.262   1.154  1.00  0.00    +0.000 H 
ATOM    107  H24 UNL A   1      15.879  53.467   2.319  1.00  0.00    +0.000 H 
ATOM    108  H25 UNL A   1      15.673  47.181   1.233  1.00  0.00    +0.000 H 
ATOM    109  H26 UNL A   1      14.570  47.358   3.515  1.00  0.00    +0.000 H 
ATOM    110  H27 UNL A   1      15.704  51.184   2.350  1.00  0.00    +0.000 H 
ATOM    111  H28 UNL A   1      17.667  50.708  -2.253  1.00  0.00    +0.000 H 
ATOM    112  H29 UNL A   1      18.144  53.221  -2.170  1.00  0.00    +0.000 H 
ATOM    113  H30 UNL A   1      13.644  53.871   6.788  1.00  0.00    +0.000 H 
ATOM    114  H31 UNL A   1      13.569  51.316   6.932  1.00  0.00    +0.000 H 
ENDROOT
BRANCH   24   23
ATOM    103  H20 UNL A   1      14.522  47.031   8.101  1.00  0.00    +0.000 H 
ATOM    104  H21 UNL A   1      15.575  48.647   6.627  1.00  0.00    +0.000 H 
ATOM     81  C56 UNL A   1      12.449  48.800   5.412  1.00  0.00    +0.000 C 
ATOM     82  C57 UNL A   1      11.833  47.927   6.306  1.00  0.00    +0.000 C 
ATOM    115  H32 UNL A   1      11.892  49.254   4.672  1.00  0.00    +0.000 H 
ATOM     20  C14 UNL A   1      12.599  47.239   7.251  1.00  0.00    +0.000 C 
ATOM     21  C15 UNL A   1      13.965  47.510   7.377  1.00  0.00    +0.000 C 
ATOM    116  H33 UNL A   1      10.811  47.788   6.270  1.00  0.00    +0.000 H 
ATOM     22  C16 UNL A   1      14.572  48.430   6.520  1.00  0.00    +0.000 C 
ATOM     23  C17 UNL A   1      13.824  49.063   5.513  1.00  0.00    +0.000 C 
BRANCH   20   18
ATOM     18  C13 UNL A   1      11.982  46.244   8.158  1.00  0.00    +0.000 C 
ATOM     19  O3  UNL A   1      11.681  45.138   7.733  1.00  0.00    +0.000 O 
BRANCH   18   17
ATOM     17  N3  UNL A   1      11.746  46.568   9.473  1.00  0.00    +0.000 N 
ATOM    102  H19 UNL A   1      11.047  47.243   9.624  1.00  0.00    +0.000 H 
BRANCH   17   16
ATOM    100  H17 UNL A   1      11.700  45.407  11.181  1.00  0.00    +0.000 H 
ATOM    101  H18 UNL A   1      13.267  45.519  10.374  1.00  0.00    +0.000 H 
ATOM     16  C12 UNL A   1      12.387  46.051  10.672  1.00  0.00    +0.000 C 
BRANCH   16   15
ATOM     98  H15 UNL A   1      11.958  47.451  12.204  1.00  0.00    +0.000 H 
ATOM     99  H16 UNL A   1      13.612  46.780  12.212  1.00  0.00    +0.000 H 
ATOM     15  C11 UNL A   1      12.809  47.170  11.620  1.00  0.00    +0.000 C 
BRANCH   15   14
ATOM     97  H14 UNL A   1      13.514  48.150   9.905  1.00  0.00    +0.000 H 
ATOM     14  C10 UNL A   1      13.349  48.423  10.925  1.00  0.00    +0.000 C 
ATOM     96  H13 UNL A   1      14.240  48.726  11.437  1.00  0.00    +0.000 H 
BRANCH   14   13
ATOM     13  C9  UNL A   1      12.388  49.619  10.897  1.00  0.00    +0.000 C 
ATOM     94  H11 UNL A   1      11.439  49.290  11.267  1.00  0.00    +0.000 H 
ATOM     95  H12 UNL A   1      12.841  50.379  11.500  1.00  0.00    +0.000 H 
BRANCH   13   12
ATOM     92  H9  UNL A   1      13.001  49.997   8.888  1.00  0.00    +0.000 H 
ATOM     12  C8  UNL A   1      12.168  50.247   9.511  1.00  0.00    +0.000 C 
ATOM     93  H10 UNL A   1      11.247  49.858   9.130  1.00  0.00    +0.000 H 
BRANCH   12   11
ATOM     90  H7  UNL A   1      12.346  52.179   8.613  1.00  0.00    +0.000 H 
ATOM     11  C7  UNL A   1      12.035  51.771   9.552  1.00  0.00    +0.000 C 
ATOM     91  H8  UNL A   1      11.013  52.030   9.737  1.00  0.00    +0.000 H 
BRANCH   11   10
ATOM     89  H6  UNL A   1      12.392  52.386  11.472  1.00  0.00    +0.000 H 
ATOM     10  N2  UNL A   1      12.863  52.313  10.610  1.00  0.00    +0.000 N 
BRANCH   10    8
ATOM      9  O2  UNL A   1      14.338  53.943  10.916  1.00  0.00    +0.000 O 
ATOM      8  C6  UNL A   1      14.161  52.745  10.671  1.00  0.00    +0.000 C 
BRANCH    8    7
ATOM      2  C1  UNL A   1      16.958  50.820   8.892  1.00  0.00    +0.000 C 
ATOM      3  C2  UNL A   1      17.681  50.366   9.995  1.00  0.00    +0.000 C 
ATOM      4  C3  UNL A   1      17.271  50.688  11.287  1.00  0.00    +0.000 C 
ATOM      5  C4  UNL A   1      16.128  51.459  11.477  1.00  0.00    +0.000 C 
ATOM      7  C5  UNL A   1      15.360  51.907  10.386  1.00  0.00    +0.000 C 
ATOM     83  C58 UNL A   1      15.753  51.506   9.103  1.00  0.00    +0.000 C 
ATOM    117  H34 UNL A   1      15.145  51.721   8.297  1.00  0.00    +0.000 H 
ATOM     86  H3  UNL A   1      18.524  49.789   9.853  1.00  0.00    +0.000 H 
ATOM     87  H4  UNL A   1      17.814  50.357  12.099  1.00  0.00    +0.000 H 
BRANCH    2    1
ATOM      1  N1  UNL A   1      17.314  50.399   7.603  1.00  0.00    +0.000 N 
ATOM     84  H1  UNL A   1      18.171  50.682   7.212  1.00  0.00    +0.000 H 
ATOM     85  H2  UNL A   1      16.706  49.820   7.089  1.00  0.00    +0.000 H 
ENDBRANCH    2    1
BRANCH    5    6
ATOM      6  O1  UNL A   1      15.806  51.717  12.786  1.00  0.00    +0.000 O 
ATOM     88  H5  UNL A   1      15.750  51.015  13.402  1.00  0.00    +0.000 H 
ENDBRANCH    5    6
ENDBRANCH    8    7
ENDBRANCH   10    8
ENDBRANCH   11   10
ENDBRANCH   12   11
ENDBRANCH   13   12
ENDBRANCH   14   13
ENDBRANCH   15   14
ENDBRANCH   16   15
ENDBRANCH   17   16
ENDBRANCH   18   17
ENDBRANCH   20   18
ENDBRANCH   24   23
BRANCH   28   29
ATOM     33  F2  UNL A   1      16.057  58.281   7.920  1.00  0.00    +0.000 F 
ATOM     34  C25 UNL A   1      13.803  58.037   7.260  1.00  0.00    +0.000 C 
ATOM     35  F3  UNL A   1      13.436  59.015   8.099  1.00  0.00    +0.000 F 
ATOM     36  C26 UNL A   1      12.849  57.386   6.492  1.00  0.00    +0.000 C 
ATOM     37  F4  UNL A   1      11.560  57.748   6.578  1.00  0.00    +0.000 F 
ATOM     38  C27 UNL A   1      13.226  56.358   5.632  1.00  0.00    +0.000 C 
ATOM     39  F5  UNL A   1      12.279  55.740   4.911  1.00  0.00    +0.000 F 
ATOM     29  C22 UNL A   1      14.570  55.977   5.509  1.00  0.00    +0.000 C 
ATOM     30  C23 UNL A   1      15.521  56.660   6.283  1.00  0.00    +0.000 C 
ATOM     31  F1  UNL A   1      16.817  56.324   6.210  1.00  0.00    +0.000 F 
ATOM     32  C24 UNL A   1      15.137  57.669   7.161  1.00  0.00    +0.000 C 
ENDBRANCH   28   29
BRANCH   45   46
ATOM     46  C33 UNL A   1      17.851  55.478  -0.885  1.00  0.00    +0.000 C 
ATOM     47  C34 UNL A   1      17.137  56.059  -1.943  1.00  0.00    +0.000 C 
ATOM     48  F6  UNL A   1      15.841  55.760  -2.127  1.00  0.00    +0.000 F 
ATOM     49  C35 UNL A   1      17.763  56.921  -2.839  1.00  0.00    +0.000 C 
ATOM     50  F7  UNL A   1      17.072  57.431  -3.868  1.00  0.00    +0.000 F 
ATOM     51  C36 UNL A   1      19.103  57.240  -2.676  1.00  0.00    +0.000 C 
ATOM     52  F8  UNL A   1      19.702  58.076  -3.537  1.00  0.00    +0.000 F 
ATOM     53  C37 UNL A   1      19.823  56.690  -1.627  1.00  0.00    +0.000 C 
ATOM     54  F9  UNL A   1      21.114  57.008  -1.462  1.00  0.00    +0.000 F 
ATOM     55  C38 UNL A   1      19.207  55.808  -0.745  1.00  0.00    +0.000 C 
ATOM     56  F10 UNL A   1      19.931  55.282   0.254  1.00  0.00    +0.000 F 
ENDBRANCH   45   46
BRANCH   60   61
ATOM     65  F12 UNL A   1      19.401  46.151  -1.514  1.00  0.00    +0.000 F 
ATOM     66  C45 UNL A   1      17.389  46.562  -2.681  1.00  0.00    +0.000 C 
ATOM     67  F13 UNL A   1      17.687  45.600  -3.565  1.00  0.00    +0.000 F 
ATOM     68  C46 UNL A   1      16.218  47.293  -2.817  1.00  0.00    +0.000 C 
ATOM     69  F14 UNL A   1      15.373  47.023  -3.821  1.00  0.00    +0.000 F 
ATOM     70  C47 UNL A   1      15.920  48.310  -1.912  1.00  0.00    +0.000 C 
ATOM     71  F15 UNL A   1      14.787  49.009  -2.076  1.00  0.00    +0.000 F 
ATOM     61  C42 UNL A   1      16.777  48.600  -0.842  1.00  0.00    +0.000 C 
ATOM     62  C43 UNL A   1      17.945  47.835  -0.714  1.00  0.00    +0.000 C 
ATOM     63  F11 UNL A   1      18.806  48.091   0.282  1.00  0.00    +0.000 F 
ATOM     64  C44 UNL A   1      18.255  46.836  -1.634  1.00  0.00    +0.000 C 
ENDBRANCH   60   61
TORSDOF 17
ENDMDL
MODEL 6
REMARK VINA RESULT:      -9.2      0.312      2.043
ROOT
ATOM     24  C18 UNL A   1      53.490  19.644  11.738  1.00  0.00    +0.000 C 
ATOM     25  C19 UNL A   1      54.856  19.031  11.615  1.00  0.00    +0.000 C 
ATOM     26  N4  UNL A   1      55.843  19.029  12.474  1.00  0.00    +0.000 N 
ATOM     27  C20 UNL A   1      56.856  18.284  11.884  1.00  0.00    +0.000 C 
ATOM     28  C21 UNL A   1      58.101  18.031  12.354  1.00  0.00    +0.000 C 
ATOM     40  C28 UNL A   1      58.615  18.532  13.602  1.00  0.00    +0.000 C 
ATOM     41  C29 UNL A   1      59.886  18.388  14.132  1.00  0.00    +0.000 C 
ATOM     42  C30 UNL A   1      59.910  19.014  15.383  1.00  0.00    +0.000 C 
ATOM     43  C31 UNL A   1      58.668  19.583  15.613  1.00  0.00    +0.000 C 
ATOM     44  N5  UNL A   1      57.881  19.276  14.514  1.00  0.00    +0.000 N 
ATOM     45  C32 UNL A   1      58.229  20.348  16.750  1.00  0.00    +0.000 C 
ATOM     57  C39 UNL A   1      56.992  20.880  16.900  1.00  0.00    +0.000 C 
ATOM     58  N6  UNL A   1      55.910  20.828  16.032  1.00  0.00    +0.000 N 
ATOM     59  C40 UNL A   1      54.940  21.480  16.626  1.00  0.00    +0.000 C 
ATOM     60  C41 UNL A   1      53.548  21.766  16.135  1.00  0.00    +0.000 C 
ATOM     72  C48 UNL A   1      53.179  21.335  14.914  1.00  0.00    +0.000 C 
ATOM     73  C49 UNL A   1      51.869  21.541  14.303  1.00  0.00    +0.000 C 
ATOM     74  C50 UNL A   1      51.846  20.938  13.103  1.00  0.00    +0.000 C 
ATOM     75  C51 UNL A   1      53.154  20.332  12.846  1.00  0.00    +0.000 C 
ATOM     76  N7  UNL A   1      53.883  20.626  13.972  1.00  0.00    +0.000 N 
ATOM     77  C52 UNL A   1      55.292  21.996  17.958  1.00  0.00    +0.000 C 
ATOM     78  C53 UNL A   1      56.563  21.636  18.058  1.00  0.00    +0.000 C 
ATOM     79  C54 UNL A   1      56.351  17.815  10.613  1.00  0.00    +0.000 C 
ATOM     80  C55 UNL A   1      55.142  18.301  10.370  1.00  0.00    +0.000 C 
ATOM    105  H22 UNL A   1      60.677  17.903  13.683  1.00  0.00    +0.000 H 
ATOM    106  H23 UNL A   1      60.718  19.047  16.025  1.00  0.00    +0.000 H 
ATOM    107  H24 UNL A   1      56.942  19.545  14.398  1.00  0.00    +0.000 H 
ATOM    108  H25 UNL A   1      51.086  22.064  14.724  1.00  0.00    +0.000 H 
ATOM    109  H26 UNL A   1      51.037  20.906  12.463  1.00  0.00    +0.000 H 
ATOM    110  H27 UNL A   1      54.821  20.354  14.093  1.00  0.00    +0.000 H 
ATOM    111  H28 UNL A   1      54.703  22.504  18.635  1.00  0.00    +0.000 H 
ATOM    112  H29 UNL A   1      57.172  21.867  18.860  1.00  0.00    +0.000 H 
ATOM    113  H30 UNL A   1      56.865  17.185   9.977  1.00  0.00    +0.000 H 
ATOM    114  H31 UNL A   1      54.556  18.195   9.528  1.00  0.00    +0.000 H 
ENDROOT
BRANCH   24   23
ATOM    103  H20 UNL A   1      50.185  17.227   9.586  1.00  0.00    +0.000 H 
ATOM    104  H21 UNL A   1      51.756  17.585  11.403  1.00  0.00    +0.000 H 
ATOM     81  C56 UNL A   1      52.320  20.404   9.669  1.00  0.00    +0.000 C 
ATOM     82  C57 UNL A   1      51.367  20.231   8.668  1.00  0.00    +0.000 C 
ATOM    115  H32 UNL A   1      52.912  21.248   9.673  1.00  0.00    +0.000 H 
ATOM     20  C14 UNL A   1      50.626  19.047   8.606  1.00  0.00    +0.000 C 
ATOM     21  C15 UNL A   1      50.760  18.084   9.611  1.00  0.00    +0.000 C 
ATOM    116  H33 UNL A   1      51.207  20.976   7.973  1.00  0.00    +0.000 H 
ATOM     22  C16 UNL A   1      51.673  18.284  10.649  1.00  0.00    +0.000 C 
ATOM     23  C17 UNL A   1      52.479  19.434  10.671  1.00  0.00    +0.000 C 
BRANCH   20   18
ATOM     18  C13 UNL A   1      49.666  18.802   7.506  1.00  0.00    +0.000 C 
ATOM     19  O3  UNL A   1      49.188  17.687   7.353  1.00  0.00    +0.000 O 
BRANCH   18   17
ATOM     17  N3  UNL A   1      49.319  19.826   6.658  1.00  0.00    +0.000 N 
ATOM    102  H19 UNL A   1      49.403  20.732   7.031  1.00  0.00    +0.000 H 
BRANCH   17   16
ATOM    100  H17 UNL A   1      49.329  20.517   4.712  1.00  0.00    +0.000 H 
ATOM    101  H18 UNL A   1      49.070  18.781   4.905  1.00  0.00    +0.000 H 
ATOM     16  C12 UNL A   1      48.842  19.755   5.285  1.00  0.00    +0.000 C 
BRANCH   16   15
ATOM     98  H15 UNL A   1      47.025  20.550   6.032  1.00  0.00    +0.000 H 
ATOM     99  H16 UNL A   1      47.146  20.435   4.255  1.00  0.00    +0.000 H 
ATOM     15  C11 UNL A   1      47.333  19.959   5.195  1.00  0.00    +0.000 C 
BRANCH   15   14
ATOM     97  H14 UNL A   1      45.623  18.875   4.646  1.00  0.00    +0.000 H 
ATOM     14  C10 UNL A   1      46.515  18.664   5.196  1.00  0.00    +0.000 C 
ATOM     96  H13 UNL A   1      46.334  18.388   6.215  1.00  0.00    +0.000 H 
BRANCH   14   13
ATOM     13  C9  UNL A   1      47.178  17.472   4.493  1.00  0.00    +0.000 C 
ATOM     94  H11 UNL A   1      46.710  17.350   3.538  1.00  0.00    +0.000 H 
ATOM     95  H12 UNL A   1      48.220  17.706   4.430  1.00  0.00    +0.000 H 
BRANCH   13   12
ATOM     92  H9  UNL A   1      47.176  16.326   6.293  1.00  0.00    +0.000 H 
ATOM     12  C8  UNL A   1      47.083  16.135   5.245  1.00  0.00    +0.000 C 
ATOM     93  H10 UNL A   1      46.139  15.698   4.996  1.00  0.00    +0.000 H 
BRANCH   12   11
ATOM     90  H7  UNL A   1      48.332  14.444   5.638  1.00  0.00    +0.000 H 
ATOM     11  C7  UNL A   1      48.168  15.134   4.837  1.00  0.00    +0.000 C 
ATOM     91  H8  UNL A   1      47.848  14.605   3.963  1.00  0.00    +0.000 H 
BRANCH   11   10
ATOM     89  H6  UNL A   1      49.260  16.720   4.142  1.00  0.00    +0.000 H 
ATOM     10  N2  UNL A   1      49.403  15.833   4.545  1.00  0.00    +0.000 N 
BRANCH   10    8
ATOM      9  O2  UNL A   1      51.102  14.430   4.285  1.00  0.00    +0.000 O 
ATOM      8  C6  UNL A   1      50.727  15.527   4.711  1.00  0.00    +0.000 C 
BRANCH    8    7
ATOM      2  C1  UNL A   1      53.003  18.425   5.769  1.00  0.00    +0.000 C 
ATOM      3  C2  UNL A   1      53.566  17.882   6.925  1.00  0.00    +0.000 C 
ATOM      4  C3  UNL A   1      53.206  16.607   7.353  1.00  0.00    +0.000 C 
ATOM      5  C4  UNL A   1      52.285  15.866   6.617  1.00  0.00    +0.000 C 
ATOM      7  C5  UNL A   1      51.721  16.373   5.431  1.00  0.00    +0.000 C 
ATOM     83  C58 UNL A   1      52.158  17.626   4.985  1.00  0.00    +0.000 C 
ATOM    117  H34 UNL A   1      51.851  17.970   4.061  1.00  0.00    +0.000 H 
ATOM     86  H3  UNL A   1      54.254  18.429   7.465  1.00  0.00    +0.000 H 
ATOM     87  H4  UNL A   1      53.618  16.214   8.213  1.00  0.00    +0.000 H 
BRANCH    2    1
ATOM      1  N1  UNL A   1      53.455  19.661   5.287  1.00  0.00    +0.000 N 
ATOM     84  H1  UNL A   1      54.375  19.956   5.474  1.00  0.00    +0.000 H 
ATOM     85  H2  UNL A   1      52.851  20.234   4.762  1.00  0.00    +0.000 H 
ENDBRANCH    2    1
BRANCH    5    6
ATOM      6  O1  UNL A   1      51.999  14.621   7.119  1.00  0.00    +0.000 O 
ATOM     88  H5  UNL A   1      51.458  14.536   7.878  1.00  0.00    +0.000 H 
ENDBRANCH    5    6
ENDBRANCH    8    7
ENDBRANCH   10    8
ENDBRANCH   11   10
ENDBRANCH   12   11
ENDBRANCH   13   12
ENDBRANCH   14   13
ENDBRANCH   15   14
ENDBRANCH   16   15
ENDBRANCH   17   16
ENDBRANCH   18   17
ENDBRANCH   20   18
ENDBRANCH   24   23
BRANCH   28   29
ATOM     33  F2  UNL A   1      61.525  17.494   8.889  1.00  0.00    +0.000 F 
ATOM     34  C25 UNL A   1      60.743  15.565  10.005  1.00  0.00    +0.000 C 
ATOM     35  F3  UNL A   1      61.568  14.796   9.282  1.00  0.00    +0.000 F 
ATOM     36  C26 UNL A   1      59.899  14.990  10.943  1.00  0.00    +0.000 C 
ATOM     37  F4  UNL A   1      59.922  13.663  11.138  1.00  0.00    +0.000 F 
ATOM     38  C27 UNL A   1      59.029  15.786  11.682  1.00  0.00    +0.000 C 
ATOM     39  F5  UNL A   1      58.217  15.199  12.574  1.00  0.00    +0.000 F 
ATOM     29  C22 UNL A   1      59.003  17.178  11.512  1.00  0.00    +0.000 C 
ATOM     30  C23 UNL A   1      59.877  17.741  10.569  1.00  0.00    +0.000 C 
ATOM     31  F1  UNL A   1      59.882  19.066  10.361  1.00  0.00    +0.000 F 
ATOM     32  C24 UNL A   1      60.727  16.939   9.813  1.00  0.00    +0.000 C 
ENDBRANCH   28   29
BRANCH   45   46
ATOM     46  C33 UNL A   1      59.220  20.597  17.849  1.00  0.00    +0.000 C 
ATOM     47  C34 UNL A   1      59.988  21.769  17.894  1.00  0.00    +0.000 C 
ATOM     48  F6  UNL A   1      59.888  22.679  16.912  1.00  0.00    +0.000 F 
ATOM     49  C35 UNL A   1      60.889  21.993  18.931  1.00  0.00    +0.000 C 
ATOM     50  F7  UNL A   1      61.644  23.101  18.932  1.00  0.00    +0.000 F 
ATOM     51  C36 UNL A   1      61.017  21.066  19.955  1.00  0.00    +0.000 C 
ATOM     52  F8  UNL A   1      61.881  21.287  20.956  1.00  0.00    +0.000 F 
ATOM     53  C37 UNL A   1      60.255  19.908  19.938  1.00  0.00    +0.000 C 
ATOM     54  F9  UNL A   1      60.369  19.017  20.932  1.00  0.00    +0.000 F 
ATOM     55  C38 UNL A   1      59.372  19.668  18.889  1.00  0.00    +0.000 C 
ATOM     56  F10 UNL A   1      58.656  18.534  18.894  1.00  0.00    +0.000 F 
ENDBRANCH   45   46
BRANCH   60   61
ATOM     65  F12 UNL A   1      50.111  21.969  19.585  1.00  0.00    +0.000 F 
ATOM     66  C45 UNL A   1      50.759  23.984  18.538  1.00  0.00    +0.000 C 
ATOM     67  F13 UNL A   1      49.876  24.670  19.276  1.00  0.00    +0.000 F 
ATOM     68  C46 UNL A   1      51.544  24.642  17.602  1.00  0.00    +0.000 C 
ATOM     69  F14 UNL A   1      51.433  25.968  17.450  1.00  0.00    +0.000 F 
ATOM     70  C47 UNL A   1      52.444  23.925  16.817  1.00  0.00    +0.000 C 
ATOM     71  F15 UNL A   1      53.180  24.585  15.911  1.00  0.00    +0.000 F 
ATOM     61  C42 UNL A   1      52.594  22.539  16.969  1.00  0.00    +0.000 C 
ATOM     62  C43 UNL A   1      51.804  21.900  17.935  1.00  0.00    +0.000 C 
ATOM     63  F11 UNL A   1      51.897  20.572  18.102  1.00  0.00    +0.000 F 
ATOM     64  C44 UNL A   1      50.885  22.613  18.701  1.00  0.00    +0.000 C 
ENDBRANCH   60   61
TORSDOF 17
ENDMDL
MODEL 7
REMARK VINA RESULT:      -9.2      3.169      5.103
ROOT
ATOM     24  C18 UNL A   1      53.438  19.723  11.645  1.00  0.00    +0.000 C 
ATOM     25  C19 UNL A   1      54.811  19.130  11.493  1.00  0.00    +0.000 C 
ATOM     26  N4  UNL A   1      55.809  19.125  12.339  1.00  0.00    +0.000 N 
ATOM     27  C20 UNL A   1      56.823  18.404  11.722  1.00  0.00    +0.000 C 
ATOM     28  C21 UNL A   1      58.078  18.158  12.171  1.00  0.00    +0.000 C 
ATOM     40  C28 UNL A   1      58.602  18.643  13.421  1.00  0.00    +0.000 C 
ATOM     41  C29 UNL A   1      59.881  18.506  13.931  1.00  0.00    +0.000 C 
ATOM     42  C30 UNL A   1      59.915  19.110  15.192  1.00  0.00    +0.000 C 
ATOM     43  C31 UNL A   1      58.669  19.659  15.449  1.00  0.00    +0.000 C 
ATOM     44  N5  UNL A   1      57.871  19.361  14.356  1.00  0.00    +0.000 N 
ATOM     45  C32 UNL A   1      58.236  20.398  16.606  1.00  0.00    +0.000 C 
ATOM     57  C39 UNL A   1      56.994  20.912  16.782  1.00  0.00    +0.000 C 
ATOM     58  N6  UNL A   1      55.901  20.861  15.927  1.00  0.00    +0.000 N 
ATOM     59  C40 UNL A   1      54.931  21.490  16.546  1.00  0.00    +0.000 C 
ATOM     60  C41 UNL A   1      53.529  21.767  16.078  1.00  0.00    +0.000 C 
ATOM     72  C48 UNL A   1      53.149  21.353  14.855  1.00  0.00    +0.000 C 
ATOM     73  C49 UNL A   1      51.829  21.553  14.265  1.00  0.00    +0.000 C 
ATOM     74  C50 UNL A   1      51.798  20.971  13.054  1.00  0.00    +0.000 C 
ATOM     75  C51 UNL A   1      53.109  20.387  12.770  1.00  0.00    +0.000 C 
ATOM     76  N7  UNL A   1      53.850  20.670  13.891  1.00  0.00    +0.000 N 
ATOM     77  C52 UNL A   1      55.294  21.986  17.882  1.00  0.00    +0.000 C 
ATOM     78  C53 UNL A   1      56.572  21.641  17.959  1.00  0.00    +0.000 C 
ATOM     79  C54 UNL A   1      56.308  17.951  10.449  1.00  0.00    +0.000 C 
ATOM     80  C55 UNL A   1      55.089  18.426  10.231  1.00  0.00    +0.000 C 
ATOM    105  H22 UNL A   1      60.672  18.039  13.463  1.00  0.00    +0.000 H 
ATOM    106  H23 UNL A   1      60.730  19.142  15.825  1.00  0.00    +0.000 H 
ATOM    107  H24 UNL A   1      56.927  19.621  14.257  1.00  0.00    +0.000 H 
ATOM    108  H25 UNL A   1      51.045  22.058  14.706  1.00  0.00    +0.000 H 
ATOM    109  H26 UNL A   1      50.980  20.940  12.425  1.00  0.00    +0.000 H 
ATOM    110  H27 UNL A   1      54.793  20.408  13.994  1.00  0.00    +0.000 H 
ATOM    111  H28 UNL A   1      54.708  22.474  18.576  1.00  0.00    +0.000 H 
ATOM    112  H29 UNL A   1      57.188  21.865  18.756  1.00  0.00    +0.000 H 
ATOM    113  H30 UNL A   1      56.821  17.339   9.795  1.00  0.00    +0.000 H 
ATOM    114  H31 UNL A   1      54.493  18.328   9.395  1.00  0.00    +0.000 H 
ENDROOT
BRANCH   24   23
ATOM    103  H20 UNL A   1      50.146  17.297   9.485  1.00  0.00    +0.000 H 
ATOM    104  H21 UNL A   1      51.736  17.641  11.287  1.00  0.00    +0.000 H 
ATOM     81  C56 UNL A   1      52.226  20.508   9.611  1.00  0.00    +0.000 C 
ATOM     82  C57 UNL A   1      51.261  20.341   8.620  1.00  0.00    +0.000 C 
ATOM    115  H32 UNL A   1      52.803  21.363   9.626  1.00  0.00    +0.000 H 
ATOM     20  C14 UNL A   1      50.541  19.146   8.541  1.00  0.00    +0.000 C 
ATOM     21  C15 UNL A   1      50.706  18.163   9.521  1.00  0.00    +0.000 C 
ATOM    116  H33 UNL A   1      51.078  21.099   7.944  1.00  0.00    +0.000 H 
ATOM     22  C16 UNL A   1      51.631  18.356  10.550  1.00  0.00    +0.000 C 
ATOM     23  C17 UNL A   1      52.417  19.519  10.588  1.00  0.00    +0.000 C 
BRANCH   20   18
ATOM     18  C13 UNL A   1      49.569  18.909   7.449  1.00  0.00    +0.000 C 
ATOM     19  O3  UNL A   1      49.801  18.058   6.603  1.00  0.00    +0.000 O 
BRANCH   18   17
ATOM     17  N3  UNL A   1      48.412  19.649   7.388  1.00  0.00    +0.000 N 
ATOM    102  H19 UNL A   1      47.667  19.315   7.936  1.00  0.00    +0.000 H 
BRANCH   17   16
ATOM    100  H17 UNL A   1      47.394  21.428   7.138  1.00  0.00    +0.000 H 
ATOM    101  H18 UNL A   1      49.051  21.403   6.529  1.00  0.00    +0.000 H 
ATOM     16  C12 UNL A   1      48.137  20.855   6.623  1.00  0.00    +0.000 C 
BRANCH   16   15
ATOM     98  H15 UNL A   1      47.085  21.385   4.861  1.00  0.00    +0.000 H 
ATOM     99  H16 UNL A   1      48.492  20.312   4.628  1.00  0.00    +0.000 H 
ATOM     15  C11 UNL A   1      47.629  20.536   5.220  1.00  0.00    +0.000 C 
BRANCH   15   14
ATOM     97  H14 UNL A   1      46.169  19.284   6.056  1.00  0.00    +0.000 H 
ATOM     14  C10 UNL A   1      46.714  19.311   5.137  1.00  0.00    +0.000 C 
ATOM     96  H13 UNL A   1      47.329  18.449   4.979  1.00  0.00    +0.000 H 
BRANCH   14   13
ATOM     13  C9  UNL A   1      45.664  19.355   4.019  1.00  0.00    +0.000 C 
ATOM     94  H11 UNL A   1      46.146  19.091   3.101  1.00  0.00    +0.000 H 
ATOM     95  H12 UNL A   1      44.893  18.671   4.308  1.00  0.00    +0.000 H 
BRANCH   13   12
ATOM     92  H9  UNL A   1      44.244  20.842   4.590  1.00  0.00    +0.000 H 
ATOM     12  C8  UNL A   1      44.977  20.716   3.821  1.00  0.00    +0.000 C 
ATOM     93  H10 UNL A   1      45.740  21.465   3.863  1.00  0.00    +0.000 H 
BRANCH   12   11
ATOM     90  H7  UNL A   1      43.591  21.667   2.499  1.00  0.00    +0.000 H 
ATOM     11  C7  UNL A   1      44.282  20.852   2.464  1.00  0.00    +0.000 C 
ATOM     91  H8  UNL A   1      45.019  21.035   1.709  1.00  0.00    +0.000 H 
BRANCH   11   10
ATOM     89  H6  UNL A   1      44.156  18.918   1.802  1.00  0.00    +0.000 H 
ATOM     10  N2  UNL A   1      43.569  19.630   2.147  1.00  0.00    +0.000 N 
BRANCH   10    8
ATOM      9  O2  UNL A   1      41.992  18.312   2.982  1.00  0.00    +0.000 O 
ATOM      8  C6  UNL A   1      42.256  19.252   2.225  1.00  0.00    +0.000 C 
BRANCH    8    7
ATOM      2  C1  UNL A   1      38.957  20.881   1.149  1.00  0.00    +0.000 C 
ATOM      3  C2  UNL A   1      39.159  20.952  -0.229  1.00  0.00    +0.000 C 
ATOM      4  C3  UNL A   1      40.345  20.487  -0.793  1.00  0.00    +0.000 C 
ATOM      5  C4  UNL A   1      41.331  19.941   0.025  1.00  0.00    +0.000 C 
ATOM      7  C5  UNL A   1      41.146  19.829   1.416  1.00  0.00    +0.000 C 
ATOM     83  C58 UNL A   1      39.914  20.235   1.945  1.00  0.00    +0.000 C 
ATOM    117  H34 UNL A   1      39.707  20.056   2.941  1.00  0.00    +0.000 H 
ATOM     86  H3  UNL A   1      38.425  21.350  -0.835  1.00  0.00    +0.000 H 
ATOM     87  H4  UNL A   1      40.493  20.549  -1.812  1.00  0.00    +0.000 H 
BRANCH    2    1
ATOM      1  N1  UNL A   1      37.718  21.248   1.693  1.00  0.00    +0.000 N 
ATOM     84  H1  UNL A   1      37.325  20.719   2.423  1.00  0.00    +0.000 H 
ATOM     85  H2  UNL A   1      37.242  22.036   1.344  1.00  0.00    +0.000 H 
ENDBRANCH    2    1
BRANCH    5    6
ATOM      6  O1  UNL A   1      42.459  19.510  -0.626  1.00  0.00    +0.000 O 
ATOM     88  H5  UNL A   1      42.589  19.722  -1.528  1.00  0.00    +0.000 H 
ENDBRANCH    5    6
ENDBRANCH    8    7
ENDBRANCH   10    8
ENDBRANCH   11   10
ENDBRANCH   12   11
ENDBRANCH   13   12
ENDBRANCH   14   13
ENDBRANCH   15   14
ENDBRANCH   16   15
ENDBRANCH   17   16
ENDBRANCH   18   17
ENDBRANCH   20   18
ENDBRANCH   24   23
BRANCH   28   29
ATOM     33  F2  UNL A   1      61.400  17.721   8.595  1.00  0.00    +0.000 F 
ATOM     34  C25 UNL A   1      60.721  15.772   9.742  1.00  0.00    +0.000 C 
ATOM     35  F3  UNL A   1      61.546  15.027   8.994  1.00  0.00    +0.000 F 
ATOM     36  C26 UNL A   1      59.927  15.172  10.709  1.00  0.00    +0.000 C 
ATOM     37  F4  UNL A   1      60.000  13.848  10.907  1.00  0.00    +0.000 F 
ATOM     38  C27 UNL A   1      59.056  15.943  11.475  1.00  0.00    +0.000 C 
ATOM     39  F5  UNL A   1      58.295  15.332  12.395  1.00  0.00    +0.000 F 
ATOM     29  C22 UNL A   1      58.979  17.332  11.301  1.00  0.00    +0.000 C 
ATOM     30  C23 UNL A   1      59.802  17.920  10.328  1.00  0.00    +0.000 C 
ATOM     31  F1  UNL A   1      59.756  19.243  10.116  1.00  0.00    +0.000 F 
ATOM     32  C24 UNL A   1      60.652  17.143   9.546  1.00  0.00    +0.000 C 
ENDBRANCH   28   29
BRANCH   45   46
ATOM     46  C33 UNL A   1      59.238  20.640  17.696  1.00  0.00    +0.000 C 
ATOM     47  C34 UNL A   1      59.440  19.712  18.727  1.00  0.00    +0.000 C 
ATOM     48  F6  UNL A   1      58.692  18.600  18.789  1.00  0.00    +0.000 F 
ATOM     49  C35 UNL A   1      60.388  19.943  19.720  1.00  0.00    +0.000 C 
ATOM     50  F7  UNL A   1      60.535  19.063  20.721  1.00  0.00    +0.000 F 
ATOM     51  C36 UNL A   1      61.169  21.088  19.683  1.00  0.00    +0.000 C 
ATOM     52  F8  UNL A   1      62.086  21.305  20.638  1.00  0.00    +0.000 F 
ATOM     53  C37 UNL A   1      60.997  22.011  18.663  1.00  0.00    +0.000 C 
ATOM     54  F9  UNL A   1      61.760  23.112  18.620  1.00  0.00    +0.000 F 
ATOM     55  C38 UNL A   1      60.033  21.796  17.683  1.00  0.00    +0.000 C 
ATOM     56  F10 UNL A   1      59.881  22.711  16.714  1.00  0.00    +0.000 F 
ENDBRANCH   45   46
BRANCH   60   61
ATOM     65  F12 UNL A   1      50.172  21.870  19.611  1.00  0.00    +0.000 F 
ATOM     66  C45 UNL A   1      50.745  23.905  18.558  1.00  0.00    +0.000 C 
ATOM     67  F13 UNL A   1      49.863  24.566  19.321  1.00  0.00    +0.000 F 
ATOM     68  C46 UNL A   1      51.491  24.586  17.607  1.00  0.00    +0.000 C 
ATOM     69  F14 UNL A   1      51.345  25.910  17.464  1.00  0.00    +0.000 F 
ATOM     70  C47 UNL A   1      52.390  23.895  16.798  1.00  0.00    +0.000 C 
ATOM     71  F15 UNL A   1      53.088  24.577  15.877  1.00  0.00    +0.000 F 
ATOM     61  C42 UNL A   1      52.577  22.513  16.939  1.00  0.00    +0.000 C 
ATOM     62  C43 UNL A   1      51.826  21.850  17.920  1.00  0.00    +0.000 C 
ATOM     63  F11 UNL A   1      51.955  20.524  18.078  1.00  0.00    +0.000 F 
ATOM     64  C44 UNL A   1      50.909  22.537  18.711  1.00  0.00    +0.000 C 
ENDBRANCH   60   61
TORSDOF 17
ENDMDL
MODEL 8
REMARK VINA RESULT:      -9.1      3.468      9.000
ROOT
ATOM     24  C18 UNL A   1      53.146  19.861  11.458  1.00  0.00    +0.000 C 
ATOM     25  C19 UNL A   1      52.923  20.490  12.804  1.00  0.00    +0.000 C 
ATOM     26  N4  UNL A   1      53.757  20.626  13.803  1.00  0.00    +0.000 N 
ATOM     27  C20 UNL A   1      53.061  21.318  14.785  1.00  0.00    +0.000 C 
ATOM     28  C21 UNL A   1      53.473  21.661  16.029  1.00  0.00    +0.000 C 
ATOM     40  C28 UNL A   1      54.764  21.334  16.575  1.00  0.00    +0.000 C 
ATOM     41  C29 UNL A   1      55.249  21.577  17.849  1.00  0.00    +0.000 C 
ATOM     42  C30 UNL A   1      56.567  21.112  17.910  1.00  0.00    +0.000 C 
ATOM     43  C31 UNL A   1      56.888  20.543  16.688  1.00  0.00    +0.000 C 
ATOM     44  N5  UNL A   1      55.775  20.690  15.877  1.00  0.00    +0.000 N 
ATOM     45  C32 UNL A   1      58.120  19.913  16.289  1.00  0.00    +0.000 C 
ATOM     57  C39 UNL A   1      58.357  19.371  15.069  1.00  0.00    +0.000 C 
ATOM     58  N6  UNL A   1      57.509  19.286  13.974  1.00  0.00    +0.000 N 
ATOM     59  C40 UNL A   1      58.197  18.686  13.032  1.00  0.00    +0.000 C 
ATOM     60  C41 UNL A   1      57.770  18.304  11.642  1.00  0.00    +0.000 C 
ATOM     72  C48 UNL A   1      56.512  18.570  11.243  1.00  0.00    +0.000 C 
ATOM     73  C49 UNL A   1      55.955  18.255   9.931  1.00  0.00    +0.000 C 
ATOM     74  C50 UNL A   1      54.690  18.703   9.873  1.00  0.00    +0.000 C 
ATOM     75  C51 UNL A   1      54.337  19.306  11.158  1.00  0.00    +0.000 C 
ATOM     76  N7  UNL A   1      55.477  19.175  11.912  1.00  0.00    +0.000 N 
ATOM     77  C52 UNL A   1      59.575  18.350  13.418  1.00  0.00    +0.000 C 
ATOM     78  C53 UNL A   1      59.607  18.754  14.680  1.00  0.00    +0.000 C 
ATOM     79  C54 UNL A   1      51.750  21.611  14.248  1.00  0.00    +0.000 C 
ATOM     80  C55 UNL A   1      51.592  21.067  13.050  1.00  0.00    +0.000 C 
ATOM    105  H22 UNL A   1      54.728  22.023  18.619  1.00  0.00    +0.000 H 
ATOM    106  H23 UNL A   1      57.194  21.181  18.728  1.00  0.00    +0.000 H 
ATOM    107  H24 UNL A   1      55.710  20.382  14.944  1.00  0.00    +0.000 H 
ATOM    108  H25 UNL A   1      56.452  17.767   9.170  1.00  0.00    +0.000 H 
ATOM    109  H26 UNL A   1      54.066  18.633   9.054  1.00  0.00    +0.000 H 
ATOM    110  H27 UNL A   1      55.546  19.485  12.844  1.00  0.00    +0.000 H 
ATOM    111  H28 UNL A   1      60.321  17.915  12.855  1.00  0.00    +0.000 H 
ATOM    112  H29 UNL A   1      60.420  18.641  15.307  1.00  0.00    +0.000 H 
ATOM    113  H30 UNL A   1      51.032  22.171  14.734  1.00  0.00    +0.000 H 
ATOM    114  H31 UNL A   1      50.754  21.051  12.448  1.00  0.00    +0.000 H 
ENDROOT
BRANCH   24   23
ATOM    103  H20 UNL A   1      49.701  18.024   8.978  1.00  0.00    +0.000 H 
ATOM    104  H21 UNL A   1      51.367  17.942  10.742  1.00  0.00    +0.000 H 
ATOM     81  C56 UNL A   1      51.885  21.087   9.688  1.00  0.00    +0.000 C 
ATOM     82  C57 UNL A   1      50.879  21.155   8.726  1.00  0.00    +0.000 C 
ATOM    115  H32 UNL A   1      52.489  21.906   9.858  1.00  0.00    +0.000 H 
ATOM     20  C14 UNL A   1      50.119  20.021   8.428  1.00  0.00    +0.000 C 
ATOM     21  C15 UNL A   1      50.289  18.849   9.172  1.00  0.00    +0.000 C 
ATOM    116  H33 UNL A   1      50.696  22.043   8.234  1.00  0.00    +0.000 H 
ATOM     22  C16 UNL A   1      51.257  18.798  10.178  1.00  0.00    +0.000 C 
ATOM     23  C17 UNL A   1      52.080  19.909  10.426  1.00  0.00    +0.000 C 
BRANCH   20   18
ATOM     18  C13 UNL A   1      49.101  20.043   7.354  1.00  0.00    +0.000 C 
ATOM     19  O3  UNL A   1      48.323  20.983   7.271  1.00  0.00    +0.000 O 
BRANCH   18   17
ATOM     17  N3  UNL A   1      49.029  19.005   6.455  1.00  0.00    +0.000 N 
ATOM    102  H19 UNL A   1      49.584  18.221   6.668  1.00  0.00    +0.000 H 
BRANCH   17   16
ATOM    100  H17 UNL A   1      48.118  19.886   4.825  1.00  0.00    +0.000 H 
ATOM    101  H18 UNL A   1      48.775  18.270   4.553  1.00  0.00    +0.000 H 
ATOM     16  C12 UNL A   1      48.247  18.905   5.233  1.00  0.00    +0.000 C 
BRANCH   16   15
ATOM     98  H15 UNL A   1      46.987  17.228   5.539  1.00  0.00    +0.000 H 
ATOM     99  H16 UNL A   1      46.510  18.720   6.395  1.00  0.00    +0.000 H 
ATOM     15  C11 UNL A   1      46.873  18.291   5.484  1.00  0.00    +0.000 C 
BRANCH   15   14
ATOM     97  H14 UNL A   1      44.899  18.229   4.779  1.00  0.00    +0.000 H 
ATOM     14  C10 UNL A   1      45.828  18.606   4.409  1.00  0.00    +0.000 C 
ATOM     96  H13 UNL A   1      46.144  18.144   3.497  1.00  0.00    +0.000 H 
BRANCH   14   13
ATOM     13  C9  UNL A   1      45.605  20.099   4.134  1.00  0.00    +0.000 C 
ATOM     94  H11 UNL A   1      45.496  20.597   5.075  1.00  0.00    +0.000 H 
ATOM     95  H12 UNL A   1      46.455  20.429   3.574  1.00  0.00    +0.000 H 
BRANCH   13   12
ATOM     92  H9  UNL A   1      43.499  20.085   3.789  1.00  0.00    +0.000 H 
ATOM     12  C8  UNL A   1      44.373  20.427   3.275  1.00  0.00    +0.000 C 
ATOM     93  H10 UNL A   1      44.365  21.486   3.126  1.00  0.00    +0.000 H 
BRANCH   12   11
ATOM     90  H7  UNL A   1      45.402  19.830   1.499  1.00  0.00    +0.000 H 
ATOM     11  C7  UNL A   1      44.408  19.774   1.891  1.00  0.00    +0.000 C 
ATOM     91  H8  UNL A   1      44.110  18.750   1.978  1.00  0.00    +0.000 H 
BRANCH   11   10
ATOM     89  H6  UNL A   1      43.730  21.408   0.861  1.00  0.00    +0.000 H 
ATOM     10  N2  UNL A   1      43.499  20.460   0.995  1.00  0.00    +0.000 N 
BRANCH   10    8
ATOM      9  O2  UNL A   1      42.571  19.314  -0.662  1.00  0.00    +0.000 O 
ATOM      8  C6  UNL A   1      42.388  20.074   0.294  1.00  0.00    +0.000 C 
BRANCH    8    7
ATOM      2  C1  UNL A   1      39.014  21.868  -0.013  1.00  0.00    +0.000 C 
ATOM      3  C2  UNL A   1      38.359  21.346   1.102  1.00  0.00    +0.000 C 
ATOM      4  C3  UNL A   1      38.998  20.425   1.929  1.00  0.00    +0.000 C 
ATOM      5  C4  UNL A   1      40.303  20.031   1.644  1.00  0.00    +0.000 C 
ATOM      7  C5  UNL A   1      41.002  20.561   0.544  1.00  0.00    +0.000 C 
ATOM     83  C58 UNL A   1      40.361  21.541  -0.226  1.00  0.00    +0.000 C 
ATOM    117  H34 UNL A   1      40.891  22.031  -0.965  1.00  0.00    +0.000 H 
ATOM     86  H3  UNL A   1      37.395  21.644   1.316  1.00  0.00    +0.000 H 
ATOM     87  H4  UNL A   1      38.506  20.035   2.747  1.00  0.00    +0.000 H 
BRANCH    2    1
ATOM      1  N1  UNL A   1      38.404  22.875  -0.774  1.00  0.00    +0.000 N 
ATOM     84  H1  UNL A   1      37.926  23.608  -0.325  1.00  0.00    +0.000 H 
ATOM     85  H2  UNL A   1      38.454  22.848  -1.756  1.00  0.00    +0.000 H 
ENDBRANCH    2    1
BRANCH    5    6
ATOM      6  O1  UNL A   1      40.845  19.124   2.520  1.00  0.00    +0.000 O 
ATOM     88  H5  UNL A   1      40.890  18.218   2.288  1.00  0.00    +0.000 H 
ENDBRANCH    5    6
ENDBRANCH    8    7
ENDBRANCH   10    8
ENDBRANCH   11   10
ENDBRANCH   12   11
ENDBRANCH   13   12
ENDBRANCH   14   13
ENDBRANCH   15   14
ENDBRANCH   16   15
ENDBRANCH   17   16
ENDBRANCH   18   17
ENDBRANCH   20   18
ENDBRANCH   24   23
BRANCH   28   29
ATOM     33  F2  UNL A   1      50.176  21.895  19.646  1.00  0.00    +0.000 F 
ATOM     34  C25 UNL A   1      50.790  23.897  18.555  1.00  0.00    +0.000 C 
ATOM     35  F3  UNL A   1      49.962  24.597  19.343  1.00  0.00    +0.000 F 
ATOM     36  C26 UNL A   1      51.528  24.542  17.573  1.00  0.00    +0.000 C 
ATOM     37  F4  UNL A   1      51.424  25.871  17.425  1.00  0.00    +0.000 F 
ATOM     38  C27 UNL A   1      52.374  23.814  16.742  1.00  0.00    +0.000 C 
ATOM     39  F5  UNL A   1      53.066  24.465  15.796  1.00  0.00    +0.000 F 
ATOM     29  C22 UNL A   1      52.515  22.427  16.893  1.00  0.00    +0.000 C 
ATOM     30  C23 UNL A   1      51.772  21.796  17.903  1.00  0.00    +0.000 C 
ATOM     31  F1  UNL A   1      51.863  20.470  18.079  1.00  0.00    +0.000 F 
ATOM     32  C24 UNL A   1      50.906  22.524  18.715  1.00  0.00    +0.000 C 
ENDBRANCH   28   29
BRANCH   45   46
ATOM     46  C33 UNL A   1      59.223  19.830  17.302  1.00  0.00    +0.000 C 
ATOM     47  C34 UNL A   1      59.534  18.627  17.951  1.00  0.00    +0.000 C 
ATOM     48  F6  UNL A   1      58.807  17.525  17.715  1.00  0.00    +0.000 F 
ATOM     49  C35 UNL A   1      60.574  18.563  18.876  1.00  0.00    +0.000 C 
ATOM     50  F7  UNL A   1      60.827  17.413  19.516  1.00  0.00    +0.000 F 
ATOM     51  C36 UNL A   1      61.337  19.690  19.144  1.00  0.00    +0.000 C 
ATOM     52  F8  UNL A   1      62.341  19.623  20.030  1.00  0.00    +0.000 F 
ATOM     53  C37 UNL A   1      61.056  20.885  18.501  1.00  0.00    +0.000 C 
ATOM     54  F9  UNL A   1      61.800  21.971  18.751  1.00  0.00    +0.000 F 
ATOM     55  C38 UNL A   1      60.001  20.960  17.596  1.00  0.00    +0.000 C 
ATOM     56  F10 UNL A   1      59.746  22.132  16.997  1.00  0.00    +0.000 F 
ENDBRANCH   45   46
BRANCH   60   61
ATOM     65  F12 UNL A   1      61.139  18.435   8.122  1.00  0.00    +0.000 F 
ATOM     66  C45 UNL A   1      60.478  16.326   8.954  1.00  0.00    +0.000 C 
ATOM     67  F13 UNL A   1      61.310  15.711   8.102  1.00  0.00    +0.000 F 
ATOM     68  C46 UNL A   1      59.689  15.579   9.816  1.00  0.00    +0.000 C 
ATOM     69  F14 UNL A   1      59.772  14.242   9.811  1.00  0.00    +0.000 F 
ATOM     70  C47 UNL A   1      58.805  16.217  10.684  1.00  0.00    +0.000 C 
ATOM     71  F15 UNL A   1      58.044  15.469  11.497  1.00  0.00    +0.000 F 
ATOM     61  C42 UNL A   1      58.711  17.615  10.723  1.00  0.00    +0.000 C 
ATOM     62  C43 UNL A   1      59.534  18.349   9.857  1.00  0.00    +0.000 C 
ATOM     63  F11 UNL A   1      59.464  19.688   9.843  1.00  0.00    +0.000 F 
ATOM     64  C44 UNL A   1      60.397  17.710   8.971  1.00  0.00    +0.000 C 
ENDBRANCH   60   61
TORSDOF 17
ENDMDL
MODEL 9
REMARK VINA RESULT:      -9.1      2.821      4.476
ROOT
ATOM     24  C18 UNL A   1      53.101  19.808  11.483  1.00  0.00    +0.000 C 
ATOM     25  C19 UNL A   1      54.439  19.148  11.300  1.00  0.00    +0.000 C 
ATOM     26  N4  UNL A   1      55.446  19.074  12.132  1.00  0.00    +0.000 N 
ATOM     27  C20 UNL A   1      56.414  18.314  11.488  1.00  0.00    +0.000 C 
ATOM     28  C21 UNL A   1      57.659  17.995  11.914  1.00  0.00    +0.000 C 
ATOM     40  C28 UNL A   1      58.224  18.427  13.166  1.00  0.00    +0.000 C 
ATOM     41  C29 UNL A   1      59.501  18.214  13.656  1.00  0.00    +0.000 C 
ATOM     42  C30 UNL A   1      59.582  18.790  14.928  1.00  0.00    +0.000 C 
ATOM     43  C31 UNL A   1      58.369  19.397  15.212  1.00  0.00    +0.000 C 
ATOM     44  N5  UNL A   1      57.544  19.163  14.125  1.00  0.00    +0.000 N 
ATOM     45  C32 UNL A   1      57.990  20.135  16.389  1.00  0.00    +0.000 C 
ATOM     57  C39 UNL A   1      56.779  20.708  16.591  1.00  0.00    +0.000 C 
ATOM     58  N6  UNL A   1      55.674  20.731  15.752  1.00  0.00    +0.000 N 
ATOM     59  C40 UNL A   1      54.746  21.398  16.395  1.00  0.00    +0.000 C 
ATOM     60  C41 UNL A   1      53.354  21.756  15.952  1.00  0.00    +0.000 C 
ATOM     72  C48 UNL A   1      52.938  21.387  14.727  1.00  0.00    +0.000 C 
ATOM     73  C49 UNL A   1      51.623  21.666  14.159  1.00  0.00    +0.000 C 
ATOM     74  C50 UNL A   1      51.546  21.111  12.938  1.00  0.00    +0.000 C 
ATOM     75  C51 UNL A   1      52.821  20.466  12.624  1.00  0.00    +0.000 C 
ATOM     76  N7  UNL A   1      53.590  20.687  13.741  1.00  0.00    +0.000 N 
ATOM     77  C52 UNL A   1      55.152  21.847  17.735  1.00  0.00    +0.000 C 
ATOM     78  C53 UNL A   1      56.410  21.435  17.788  1.00  0.00    +0.000 C 
ATOM     79  C54 UNL A   1      55.859  17.914  10.213  1.00  0.00    +0.000 C 
ATOM     80  C55 UNL A   1      54.664  18.455  10.021  1.00  0.00    +0.000 C 
ATOM    105  H22 UNL A   1      60.260  17.716  13.168  1.00  0.00    +0.000 H 
ATOM    106  H23 UNL A   1      60.406  18.767  15.550  1.00  0.00    +0.000 H 
ATOM    107  H24 UNL A   1      56.613  19.473  14.044  1.00  0.00    +0.000 H 
ATOM    108  H25 UNL A   1      50.872  22.203  14.620  1.00  0.00    +0.000 H 
ATOM    109  H26 UNL A   1      50.720  21.135  12.320  1.00  0.00    +0.000 H 
ATOM    110  H27 UNL A   1      54.519  20.375  13.826  1.00  0.00    +0.000 H 
ATOM    111  H28 UNL A   1      54.601  22.351  18.447  1.00  0.00    +0.000 H 
ATOM    112  H29 UNL A   1      57.048  21.611  18.581  1.00  0.00    +0.000 H 
ATOM    113  H30 UNL A   1      56.331  17.290   9.541  1.00  0.00    +0.000 H 
ATOM    114  H31 UNL A   1      54.052  18.405   9.192  1.00  0.00    +0.000 H 
ENDROOT
BRANCH   24   23
ATOM    103  H20 UNL A   1      49.757  17.540   9.232  1.00  0.00    +0.000 H 
ATOM    104  H21 UNL A   1      51.386  17.758  11.019  1.00  0.00    +0.000 H 
ATOM     81  C56 UNL A   1      51.848  20.732   9.533  1.00  0.00    +0.000 C 
ATOM     82  C57 UNL A   1      50.862  20.635   8.554  1.00  0.00    +0.000 C 
ATOM    115  H32 UNL A   1      52.428  21.584   9.594  1.00  0.00    +0.000 H 
ATOM     20  C14 UNL A   1      50.137  19.449   8.408  1.00  0.00    +0.000 C 
ATOM     21  C15 UNL A   1      50.320  18.400   9.316  1.00  0.00    +0.000 C 
ATOM    116  H33 UNL A   1      50.667  21.438   7.935  1.00  0.00    +0.000 H 
ATOM     22  C16 UNL A   1      51.267  18.521  10.336  1.00  0.00    +0.000 C 
ATOM     23  C17 UNL A   1      52.057  19.678  10.436  1.00  0.00    +0.000 C 
BRANCH   20   18
ATOM     18  C13 UNL A   1      49.142  19.288   7.324  1.00  0.00    +0.000 C 
ATOM     19  O3  UNL A   1      48.055  19.841   7.409  1.00  0.00    +0.000 O 
BRANCH   18   17
ATOM     17  N3  UNL A   1      49.441  18.515   6.227  1.00  0.00    +0.000 N 
ATOM    102  H19 UNL A   1      49.793  19.003   5.449  1.00  0.00    +0.000 H 
BRANCH   17   16
ATOM    100  H17 UNL A   1      49.982  16.756   5.291  1.00  0.00    +0.000 H 
ATOM    101  H18 UNL A   1      49.535  16.610   6.993  1.00  0.00    +0.000 H 
ATOM     16  C12 UNL A   1      49.307  17.077   6.058  1.00  0.00    +0.000 C 
BRANCH   16   15
ATOM     98  H15 UNL A   1      47.893  15.642   5.399  1.00  0.00    +0.000 H 
ATOM     99  H16 UNL A   1      47.267  16.891   6.509  1.00  0.00    +0.000 H 
ATOM     15  C11 UNL A   1      47.888  16.679   5.664  1.00  0.00    +0.000 C 
BRANCH   15   14
ATOM     97  H14 UNL A   1      46.874  16.750   3.829  1.00  0.00    +0.000 H 
ATOM     14  C10 UNL A   1      47.307  17.471   4.488  1.00  0.00    +0.000 C 
ATOM     96  H13 UNL A   1      48.103  18.034   4.044  1.00  0.00    +0.000 H 
BRANCH   14   13
ATOM     13  C9  UNL A   1      46.181  18.448   4.852  1.00  0.00    +0.000 C 
ATOM     94  H11 UNL A   1      45.251  18.004   4.563  1.00  0.00    +0.000 H 
ATOM     95  H12 UNL A   1      46.263  18.618   5.906  1.00  0.00    +0.000 H 
BRANCH   13   12
ATOM     92  H9  UNL A   1      46.943  20.439   4.760  1.00  0.00    +0.000 H 
ATOM     12  C8  UNL A   1      46.276  19.831   4.187  1.00  0.00    +0.000 C 
ATOM     93  H10 UNL A   1      46.625  19.678   3.188  1.00  0.00    +0.000 H 
BRANCH   12   11
ATOM     90  H7  UNL A   1      44.249  20.125   4.801  1.00  0.00    +0.000 H 
ATOM     11  C7  UNL A   1      44.927  20.549   4.091  1.00  0.00    +0.000 C 
ATOM     91  H8  UNL A   1      45.067  21.589   4.300  1.00  0.00    +0.000 H 
BRANCH   11   10
ATOM     89  H6  UNL A   1      44.721  21.071   2.122  1.00  0.00    +0.000 H 
ATOM     10  N2  UNL A   1      44.380  20.401   2.757  1.00  0.00    +0.000 N 
BRANCH   10    8
ATOM      9  O2  UNL A   1      43.914  18.395   1.930  1.00  0.00    +0.000 O 
ATOM      8  C6  UNL A   1      43.492  19.528   2.189  1.00  0.00    +0.000 C 
BRANCH    8    7
ATOM      2  C1  UNL A   1      40.434  20.958   0.372  1.00  0.00    +0.000 C 
ATOM      3  C2  UNL A   1      39.412  20.352   1.103  1.00  0.00    +0.000 C 
ATOM      4  C3  UNL A   1      39.713  19.491   2.156  1.00  0.00    +0.000 C 
ATOM      5  C4  UNL A   1      41.042  19.242   2.487  1.00  0.00    +0.000 C 
ATOM      7  C5  UNL A   1      42.096  19.861   1.788  1.00  0.00    +0.000 C 
ATOM     83  C58 UNL A   1      41.763  20.779   0.784  1.00  0.00    +0.000 C 
ATOM    117  H34 UNL A   1      42.510  21.333   0.337  1.00  0.00    +0.000 H 
ATOM     86  H3  UNL A   1      38.427  20.542   0.862  1.00  0.00    +0.000 H 
ATOM     87  H4  UNL A   1      38.953  19.038   2.688  1.00  0.00    +0.000 H 
BRANCH    2    1
ATOM      1  N1  UNL A   1      40.121  21.906  -0.611  1.00  0.00    +0.000 N 
ATOM     84  H1  UNL A   1      40.797  22.563  -0.894  1.00  0.00    +0.000 H 
ATOM     85  H2  UNL A   1      39.225  21.915  -1.019  1.00  0.00    +0.000 H 
ENDBRANCH    2    1
BRANCH    5    6
ATOM      6  O1  UNL A   1      41.233  18.384   3.540  1.00  0.00    +0.000 O 
ATOM     88  H5  UNL A   1      40.773  18.520   4.344  1.00  0.00    +0.000 H 
ENDBRANCH    5    6
ENDBRANCH    8    7
ENDBRANCH   10    8
ENDBRANCH   11   10
ENDBRANCH   12   11
ENDBRANCH   13   12
ENDBRANCH   14   13
ENDBRANCH   15   14
ENDBRANCH   16   15
ENDBRANCH   17   16
ENDBRANCH   18   17
ENDBRANCH   20   18
ENDBRANCH   24   23
BRANCH   28   29
ATOM     33  F2  UNL A   1      59.314  13.629  10.428  1.00  0.00    +0.000 F 
ATOM     34  C25 UNL A   1      60.032  15.556   9.268  1.00  0.00    +0.000 C 
ATOM     35  F3  UNL A   1      60.765  14.801   8.439  1.00  0.00    +0.000 F 
ATOM     36  C26 UNL A   1      60.022  16.936   9.127  1.00  0.00    +0.000 C 
ATOM     37  F4  UNL A   1      60.734  17.513   8.148  1.00  0.00    +0.000 F 
ATOM     38  C27 UNL A   1      59.274  17.723   9.999  1.00  0.00    +0.000 C 
ATOM     39  F5  UNL A   1      59.294  19.055   9.843  1.00  0.00    +0.000 F 
ATOM     29  C22 UNL A   1      58.505  17.141  11.017  1.00  0.00    +0.000 C 
ATOM     30  C23 UNL A   1      58.517  15.742  11.132  1.00  0.00    +0.000 C 
ATOM     31  F1  UNL A   1      57.807  15.138  12.096  1.00  0.00    +0.000 F 
ATOM     32  C24 UNL A   1      59.286  14.960  10.274  1.00  0.00    +0.000 C 
ENDBRANCH   28   29
BRANCH   45   46
ATOM     46  C33 UNL A   1      59.017  20.303  17.469  1.00  0.00    +0.000 C 
ATOM     47  C34 UNL A   1      59.273  19.289  18.403  1.00  0.00    +0.000 C 
ATOM     48  F6  UNL A   1      58.557  18.154  18.381  1.00  0.00    +0.000 F 
ATOM     49  C35 UNL A   1      60.244  19.453  19.388  1.00  0.00    +0.000 C 
ATOM     50  F7  UNL A   1      60.443  18.489  20.297  1.00  0.00    +0.000 F 
ATOM     51  C36 UNL A   1      60.994  20.619  19.438  1.00  0.00    +0.000 C 
ATOM     52  F8  UNL A   1      61.932  20.772  20.383  1.00  0.00    +0.000 F 
ATOM     53  C37 UNL A   1      60.768  21.627  18.514  1.00  0.00    +0.000 C 
ATOM     54  F9  UNL A   1      61.501  22.749  18.554  1.00  0.00    +0.000 F 
ATOM     55  C38 UNL A   1      59.781  21.477  17.544  1.00  0.00    +0.000 C 
ATOM     56  F10 UNL A   1      59.577  22.473  16.669  1.00  0.00    +0.000 F 
ENDBRANCH   45   46
BRANCH   60   61
ATOM     65  F12 UNL A   1      51.427  25.992  17.401  1.00  0.00    +0.000 F 
ATOM     66  C45 UNL A   1      50.775  24.025  18.534  1.00  0.00    +0.000 C 
ATOM     67  F13 UNL A   1      49.985  24.738  19.350  1.00  0.00    +0.000 F 
ATOM     68  C46 UNL A   1      50.875  22.650  18.690  1.00  0.00    +0.000 C 
ATOM     69  F14 UNL A   1      50.166  22.031  19.643  1.00  0.00    +0.000 F 
ATOM     70  C47 UNL A   1      51.715  21.912  17.859  1.00  0.00    +0.000 C 
ATOM     71  F15 UNL A   1      51.803  20.586  18.040  1.00  0.00    +0.000 F 
ATOM     61  C42 UNL A   1      52.453  22.533  16.841  1.00  0.00    +0.000 C 
ATOM     62  C43 UNL A   1      52.320  23.920  16.690  1.00  0.00    +0.000 C 
ATOM     63  F11 UNL A   1      53.022  24.560  15.744  1.00  0.00    +0.000 F 
ATOM     64  C44 UNL A   1      51.500  24.660  17.539  1.00  0.00    +0.000 C 
ENDBRANCH   60   61
TORSDOF 17
ENDMDL
MODEL 10
REMARK VINA RESULT:      -9.0     43.137     50.188
ROOT
ATOM     24  C18 UNL A   1      26.428  35.452  45.601  1.00  0.00    +0.000 C 
ATOM     25  C19 UNL A   1      26.581  36.544  46.622  1.00  0.00    +0.000 C 
ATOM     26  N4  UNL A   1      25.689  37.048  47.435  1.00  0.00    +0.000 N 
ATOM     27  C20 UNL A   1      26.364  37.991  48.199  1.00  0.00    +0.000 C 
ATOM     28  C21 UNL A   1      25.869  38.821  49.149  1.00  0.00    +0.000 C 
ATOM     40  C28 UNL A   1      24.483  38.876  49.534  1.00  0.00    +0.000 C 
ATOM     41  C29 UNL A   1      23.872  39.730  50.436  1.00  0.00    +0.000 C 
ATOM     42  C30 UNL A   1      22.517  39.389  50.511  1.00  0.00    +0.000 C 
ATOM     43  C31 UNL A   1      22.277  38.351  49.625  1.00  0.00    +0.000 C 
ATOM     44  N5  UNL A   1      23.492  38.043  49.036  1.00  0.00    +0.000 N 
ATOM     45  C32 UNL A   1      21.032  37.687  49.339  1.00  0.00    +0.000 C 
ATOM     57  C39 UNL A   1      20.876  36.677  48.448  1.00  0.00    +0.000 C 
ATOM     58  N6  UNL A   1      21.826  36.079  47.633  1.00  0.00    +0.000 N 
ATOM     59  C40 UNL A   1      21.191  35.149  46.962  1.00  0.00    +0.000 C 
ATOM     60  C41 UNL A   1      21.717  34.208  45.913  1.00  0.00    +0.000 C 
ATOM     72  C48 UNL A   1      23.010  34.285  45.548  1.00  0.00    +0.000 C 
ATOM     73  C49 UNL A   1      23.659  33.447  44.545  1.00  0.00    +0.000 C 
ATOM     74  C50 UNL A   1      24.960  33.774  44.475  1.00  0.00    +0.000 C 
ATOM     75  C51 UNL A   1      25.228  34.871  45.406  1.00  0.00    +0.000 C 
ATOM     76  N7  UNL A   1      24.011  35.114  45.993  1.00  0.00    +0.000 N 
ATOM     77  C52 UNL A   1      19.765  35.032  47.302  1.00  0.00    +0.000 C 
ATOM     78  C53 UNL A   1      19.618  36.011  48.183  1.00  0.00    +0.000 C 
ATOM     79  C54 UNL A   1      27.749  37.961  47.782  1.00  0.00    +0.000 C 
ATOM     80  C55 UNL A   1      27.925  37.127  46.766  1.00  0.00    +0.000 C 
ATOM    105  H22 UNL A   1      24.335  40.486  50.962  1.00  0.00    +0.000 H 
ATOM    106  H23 UNL A   1      21.815  39.836  51.122  1.00  0.00    +0.000 H 
ATOM    107  H24 UNL A   1      23.632  37.338  48.363  1.00  0.00    +0.000 H 
ATOM    108  H25 UNL A   1      23.195  32.719  43.980  1.00  0.00    +0.000 H 
ATOM    109  H26 UNL A   1      25.659  33.325  43.863  1.00  0.00    +0.000 H 
ATOM    110  H27 UNL A   1      23.869  35.815  46.669  1.00  0.00    +0.000 H 
ATOM    111  H28 UNL A   1      19.064  34.363  46.948  1.00  0.00    +0.000 H 
ATOM    112  H29 UNL A   1      18.720  36.268  48.623  1.00  0.00    +0.000 H 
ATOM    113  H30 UNL A   1      28.502  38.516  48.218  1.00  0.00    +0.000 H 
ATOM    114  H31 UNL A   1      28.779  36.938  46.220  1.00  0.00    +0.000 H 
ENDROOT
BRANCH   24   23
ATOM    103  H20 UNL A   1      30.159  32.775  45.053  1.00  0.00    +0.000 H 
ATOM    104  H21 UNL A   1      28.176  33.484  46.259  1.00  0.00    +0.000 H 
ATOM     81  C56 UNL A   1      27.924  35.525  43.605  1.00  0.00    +0.000 C 
ATOM     82  C57 UNL A   1      29.022  35.066  42.881  1.00  0.00    +0.000 C 
ATOM    115  H32 UNL A   1      27.339  36.285  43.224  1.00  0.00    +0.000 H 
ATOM     20  C14 UNL A   1      29.869  34.102  43.434  1.00  0.00    +0.000 C 
ATOM     21  C15 UNL A   1      29.555  33.515  44.663  1.00  0.00    +0.000 C 
ATOM    116  H33 UNL A   1      29.210  35.438  41.937  1.00  0.00    +0.000 H 
ATOM     22  C16 UNL A   1      28.420  33.933  45.363  1.00  0.00    +0.000 C 
ATOM     23  C17 UNL A   1      27.611  34.960  44.851  1.00  0.00    +0.000 C 
BRANCH   20   18
ATOM     18  C13 UNL A   1      31.088  33.656  42.721  1.00  0.00    +0.000 C 
ATOM     19  O3  UNL A   1      31.072  33.532  41.505  1.00  0.00    +0.000 O 
BRANCH   18   17
ATOM     17  N3  UNL A   1      32.234  33.378  43.429  1.00  0.00    +0.000 N 
ATOM    102  H19 UNL A   1      32.353  32.436  43.688  1.00  0.00    +0.000 H 
BRANCH   17   16
ATOM    100  H17 UNL A   1      34.227  33.761  43.812  1.00  0.00    +0.000 H 
ATOM    101  H18 UNL A   1      33.293  35.122  43.185  1.00  0.00    +0.000 H 
ATOM     16  C12 UNL A   1      33.293  34.282  43.848  1.00  0.00    +0.000 C 
BRANCH   16   15
ATOM     98  H15 UNL A   1      32.526  34.058  45.811  1.00  0.00    +0.000 H 
ATOM     99  H16 UNL A   1      34.043  34.988  45.676  1.00  0.00    +0.000 H 
ATOM     15  C11 UNL A   1      33.072  34.799  45.267  1.00  0.00    +0.000 C 
BRANCH   15   14
ATOM     97  H14 UNL A   1      31.696  36.167  44.470  1.00  0.00    +0.000 H 
ATOM     14  C10 UNL A   1      32.301  36.120  45.350  1.00  0.00    +0.000 C 
ATOM     96  H13 UNL A   1      33.014  36.915  45.422  1.00  0.00    +0.000 H 
BRANCH   14   13
ATOM     13  C9  UNL A   1      31.336  36.239  46.537  1.00  0.00    +0.000 C 
ATOM     94  H11 UNL A   1      30.341  36.311  46.149  1.00  0.00    +0.000 H 
ATOM     95  H12 UNL A   1      31.497  35.369  47.140  1.00  0.00    +0.000 H 
BRANCH   13   12
ATOM     92  H9  UNL A   1      30.731  38.097  47.395  1.00  0.00    +0.000 H 
ATOM     12  C8  UNL A   1      31.578  37.447  47.457  1.00  0.00    +0.000 C 
ATOM     93  H10 UNL A   1      31.723  37.067  48.446  1.00  0.00    +0.000 H 
BRANCH   12   11
ATOM     90  H7  UNL A   1      33.495  38.268  47.928  1.00  0.00    +0.000 H 
ATOM     11  C7  UNL A   1      32.830  38.246  47.090  1.00  0.00    +0.000 C 
ATOM     91  H8  UNL A   1      33.314  37.779  46.257  1.00  0.00    +0.000 H 
BRANCH   11   10
ATOM     89  H6  UNL A   1      32.664  40.257  47.437  1.00  0.00    +0.000 H 
ATOM     10  N2  UNL A   1      32.466  39.602  46.729  1.00  0.00    +0.000 N 
BRANCH   10    8
ATOM      9  O2  UNL A   1      32.660  40.380  44.661  1.00  0.00    +0.000 O 
ATOM      8  C6  UNL A   1      31.906  40.168  45.616  1.00  0.00    +0.000 C 
BRANCH    8    7
ATOM      2  C1  UNL A   1      28.682  42.233  45.806  1.00  0.00    +0.000 C 
ATOM      3  C2  UNL A   1      27.800  41.368  45.157  1.00  0.00    +0.000 C 
ATOM      4  C3  UNL A   1      28.248  40.146  44.662  1.00  0.00    +0.000 C 
ATOM      5  C4  UNL A   1      29.582  39.782  44.824  1.00  0.00    +0.000 C 
ATOM      7  C5  UNL A   1      30.490  40.619  45.501  1.00  0.00    +0.000 C 
ATOM     83  C58 UNL A   1      29.995  41.807  46.053  1.00  0.00    +0.000 C 
ATOM    117  H34 UNL A   1      30.609  42.381  46.653  1.00  0.00    +0.000 H 
ATOM     86  H3  UNL A   1      26.811  41.636  45.043  1.00  0.00    +0.000 H 
ATOM     87  H4  UNL A   1      27.595  39.514  44.175  1.00  0.00    +0.000 H 
BRANCH    2    1
ATOM      1  N1  UNL A   1      28.198  43.409  46.397  1.00  0.00    +0.000 N 
ATOM     84  H1  UNL A   1      27.969  43.420  47.354  1.00  0.00    +0.000 H 
ATOM     85  H2  UNL A   1      28.087  44.223  45.854  1.00  0.00    +0.000 H 
ENDBRANCH    2    1
BRANCH    5    6
ATOM      6  O1  UNL A   1      29.924  38.558  44.306  1.00  0.00    +0.000 O 
ATOM     88  H5  UNL A   1      29.648  38.323  43.443  1.00  0.00    +0.000 H 
ENDBRANCH    5    6
ENDBRANCH    8    7
ENDBRANCH   10    8
ENDBRANCH   11   10
ENDBRANCH   12   11
ENDBRANCH   13   12
ENDBRANCH   14   13
ENDBRANCH   15   14
ENDBRANCH   16   15
ENDBRANCH   17   16
ENDBRANCH   18   17
ENDBRANCH   20   18
ENDBRANCH   24   23
BRANCH   28   29
ATOM     33  F2  UNL A   1      28.201  43.114  49.520  1.00  0.00    +0.000 F 
ATOM     34  C25 UNL A   1      28.571  41.486  51.191  1.00  0.00    +0.000 C 
ATOM     35  F3  UNL A   1      29.406  42.315  51.832  1.00  0.00    +0.000 F 
ATOM     36  C26 UNL A   1      28.330  40.216  51.692  1.00  0.00    +0.000 C 
ATOM     37  F4  UNL A   1      28.920  39.823  52.830  1.00  0.00    +0.000 F 
ATOM     38  C27 UNL A   1      27.476  39.348  51.016  1.00  0.00    +0.000 C 
ATOM     39  F5  UNL A   1      27.271  38.122  51.521  1.00  0.00    +0.000 F 
ATOM     29  C22 UNL A   1      26.830  39.744  49.837  1.00  0.00    +0.000 C 
ATOM     30  C23 UNL A   1      27.076  41.040  49.356  1.00  0.00    +0.000 C 
ATOM     31  F1  UNL A   1      26.491  41.462  48.225  1.00  0.00    +0.000 F 
ATOM     32  C24 UNL A   1      27.950  41.895  50.019  1.00  0.00    +0.000 C 
ENDBRANCH   28   29
BRANCH   45   46
ATOM     46  C33 UNL A   1      19.806  38.158  50.063  1.00  0.00    +0.000 C 
ATOM     47  C34 UNL A   1      19.326  37.497  51.202  1.00  0.00    +0.000 C 
ATOM     48  F6  UNL A   1      19.931  36.382  51.640  1.00  0.00    +0.000 F 
ATOM     49  C35 UNL A   1      18.198  37.959  51.874  1.00  0.00    +0.000 C 
ATOM     50  F7  UNL A   1      17.730  37.287  52.935  1.00  0.00    +0.000 F 
ATOM     51  C36 UNL A   1      17.549  39.104  51.438  1.00  0.00    +0.000 C 
ATOM     52  F8  UNL A   1      16.466  39.551  52.091  1.00  0.00    +0.000 F 
ATOM     53  C37 UNL A   1      18.017  39.784  50.324  1.00  0.00    +0.000 C 
ATOM     54  F9  UNL A   1      17.398  40.897  49.909  1.00  0.00    +0.000 F 
ATOM     55  C38 UNL A   1      19.129  39.310  49.634  1.00  0.00    +0.000 C 
ATOM     56  F10 UNL A   1      19.553  39.981  48.553  1.00  0.00    +0.000 F 
ENDBRANCH   45   46
BRANCH   60   61
ATOM     65  F12 UNL A   1      18.223  33.114  42.695  1.00  0.00    +0.000 F 
ATOM     66  C45 UNL A   1      19.087  31.373  44.037  1.00  0.00    +0.000 C 
ATOM     67  F13 UNL A   1      18.253  30.495  43.462  1.00  0.00    +0.000 F 
ATOM     68  C46 UNL A   1      19.956  30.957  45.035  1.00  0.00    +0.000 C 
ATOM     69  F14 UNL A   1      19.976  29.672  45.411  1.00  0.00    +0.000 F 
ATOM     70  C47 UNL A   1      20.805  31.875  45.649  1.00  0.00    +0.000 C 
ATOM     71  F15 UNL A   1      21.625  31.447  46.621  1.00  0.00    +0.000 F 
ATOM     61  C42 UNL A   1      20.818  33.222  45.261  1.00  0.00    +0.000 C 
ATOM     62  C43 UNL A   1      19.946  33.614  44.237  1.00  0.00    +0.000 C 
ATOM     63  F11 UNL A   1      19.907  34.897  43.846  1.00  0.00    +0.000 F 
ATOM     64  C44 UNL A   1      19.078  32.702  43.641  1.00  0.00    +0.000 C 
ENDBRANCH   60   61
TORSDOF 17
ENDMDL
