MODEL 1
REMARK VINA RESULT:      -9.2      0.000      0.000
ROOT
ATOM    135  H36 UNL A   1      12.119  -3.012  25.943  1.00  0.00    +0.000 H 
ATOM    136  H37 UNL A   1       9.482  -3.043  26.310  1.00  0.00    +0.000 H 
ATOM    137  H38 UNL A   1      11.034   0.309  27.951  1.00  0.00    +0.000 H 
ATOM    138  H39 UNL A   1       6.083   3.412  22.198  1.00  0.00    +0.000 H 
ATOM    139  H40 UNL A   1       7.428   1.704  20.868  1.00  0.00    +0.000 H 
ATOM    140  H41 UNL A   1       8.977   1.732  24.718  1.00  0.00    +0.000 H 
ATOM    141  H42 UNL A   1       9.160   4.271  26.683  1.00  0.00    +0.000 H 
ATOM    142  H43 UNL A   1      10.239   2.047  27.430  1.00  0.00    +0.000 H 
ATOM    143  H44 UNL A   1      14.200   1.231  23.544  1.00  0.00    +0.000 H 
ATOM    144  H45 UNL A   1      12.434   2.146  21.904  1.00  0.00    +0.000 H 
ATOM     39  C34 UNL A   1       9.872   0.888  22.226  1.00  0.00    +0.000 C 
ATOM     40  C35 UNL A   1      11.085   0.745  23.076  1.00  0.00    +0.000 C 
ATOM     41  N3  UNL A   1      11.260  -0.043  24.085  1.00  0.00    +0.000 N 
ATOM     42  C36 UNL A   1      12.534   0.236  24.575  1.00  0.00    +0.000 C 
ATOM     43  C37 UNL A   1      12.858  -0.015  25.875  1.00  0.00    +0.000 C 
ATOM     55  C44 UNL A   1      11.909  -0.919  26.475  1.00  0.00    +0.000 C 
ATOM     56  C45 UNL A   1      11.520  -2.222  26.228  1.00  0.00    +0.000 C 
ATOM     57  C46 UNL A   1      10.112  -2.237  26.451  1.00  0.00    +0.000 C 
ATOM     58  C47 UNL A   1       9.734  -0.969  26.893  1.00  0.00    +0.000 C 
ATOM     59  N4  UNL A   1      10.917  -0.378  27.256  1.00  0.00    +0.000 N 
ATOM     60  C48 UNL A   1       8.465  -0.288  26.923  1.00  0.00    +0.000 C 
ATOM     72  C55 UNL A   1       8.309   1.065  26.997  1.00  0.00    +0.000 C 
ATOM     73  N5  UNL A   1       7.119   1.657  26.604  1.00  0.00    +0.000 N 
ATOM     74  C56 UNL A   1       7.466   2.848  26.207  1.00  0.00    +0.000 C 
ATOM     75  C57 UNL A   1       6.886   3.497  25.010  1.00  0.00    +0.000 C 
ATOM     87  C64 UNL A   1       7.338   2.823  23.924  1.00  0.00    +0.000 C 
ATOM     88  C65 UNL A   1       6.864   2.842  22.560  1.00  0.00    +0.000 C 
ATOM     89  C66 UNL A   1       7.618   1.986  21.842  1.00  0.00    +0.000 C 
ATOM     90  C67 UNL A   1       8.751   1.514  22.651  1.00  0.00    +0.000 C 
ATOM     91  N6  UNL A   1       8.461   1.970  23.915  1.00  0.00    +0.000 N 
ATOM     92  C68 UNL A   1       8.759   3.321  26.673  1.00  0.00    +0.000 C 
ATOM     93  C69 UNL A   1       9.273   2.159  27.087  1.00  0.00    +0.000 C 
ATOM     94  C70 UNL A   1      13.188   1.031  23.570  1.00  0.00    +0.000 C 
ATOM     95  C71 UNL A   1      12.302   1.472  22.675  1.00  0.00    +0.000 C 
ENDROOT
BRANCH   39   38
ATOM     97  C73 UNL A   1       9.896   1.251  18.558  1.00  0.00    +0.000 C 
ATOM     35  C30 UNL A   1      10.512   0.073  18.152  1.00  0.00    +0.000 C 
ATOM     36  C31 UNL A   1      10.815  -0.934  19.074  1.00  0.00    +0.000 C 
ATOM    133  H34 UNL A   1      11.224  -1.828  18.761  1.00  0.00    +0.000 H 
ATOM     37  C32 UNL A   1      10.553  -0.706  20.423  1.00  0.00    +0.000 C 
ATOM     38  C33 UNL A   1      10.066   0.547  20.822  1.00  0.00    +0.000 C 
ATOM    134  H35 UNL A   1      10.716  -1.450  21.120  1.00  0.00    +0.000 H 
ATOM    145  H46 UNL A   1       9.580   2.502  20.201  1.00  0.00    +0.000 H 
ATOM    146  H47 UNL A   1       9.500   1.898  17.859  1.00  0.00    +0.000 H 
ATOM     96  C72 UNL A   1       9.818   1.548  19.891  1.00  0.00    +0.000 C 
BRANCH   35   33
ATOM     33  C29 UNL A   1      10.868  -0.055  16.724  1.00  0.00    +0.000 C 
ATOM     34  O2  UNL A   1      12.011  -0.258  16.386  1.00  0.00    +0.000 O 
BRANCH   33   32
ATOM    132  H33 UNL A   1       9.289   0.873  15.849  1.00  0.00    +0.000 H 
ATOM     32  N2  UNL A   1       9.847   0.065  15.790  1.00  0.00    +0.000 N 
BRANCH   32   31
ATOM    130  H31 UNL A   1       8.695  -0.491  14.160  1.00  0.00    +0.000 H 
ATOM    131  H32 UNL A   1      10.385  -1.008  14.116  1.00  0.00    +0.000 H 
ATOM     31  C28 UNL A   1       9.515  -0.882  14.725  1.00  0.00    +0.000 C 
BRANCH   31   30
ATOM    129  H30 UNL A   1       9.899  -2.540  15.949  1.00  0.00    +0.000 H 
ATOM     30  C27 UNL A   1       9.127  -2.247  15.269  1.00  0.00    +0.000 C 
ATOM    128  H29 UNL A   1       9.027  -2.921  14.445  1.00  0.00    +0.000 H 
BRANCH   30   29
ATOM     29  C26 UNL A   1       7.810  -2.252  16.061  1.00  0.00    +0.000 C 
ATOM    126  H27 UNL A   1       7.347  -1.296  15.927  1.00  0.00    +0.000 H 
ATOM    127  H28 UNL A   1       7.252  -3.078  15.673  1.00  0.00    +0.000 H 
BRANCH   29   28
ATOM    124  H25 UNL A   1       8.359  -1.648  18.024  1.00  0.00    +0.000 H 
ATOM     28  C25 UNL A   1       7.913  -2.510  17.572  1.00  0.00    +0.000 C 
ATOM    125  H26 UNL A   1       6.914  -2.704  17.905  1.00  0.00    +0.000 H 
BRANCH   28   27
ATOM    122  H23 UNL A   1       9.542  -3.840  17.284  1.00  0.00    +0.000 H 
ATOM     27  C24 UNL A   1       8.736  -3.733  17.979  1.00  0.00    +0.000 C 
ATOM    123  H24 UNL A   1       9.067  -3.557  18.981  1.00  0.00    +0.000 H 
BRANCH   27   26
ATOM    121  H22 UNL A   1       8.630  -5.829  17.741  1.00  0.00    +0.000 H 
ATOM     26  C23 UNL A   1       7.954  -5.044  18.005  1.00  0.00    +0.000 C 
ATOM    120  H21 UNL A   1       7.142  -4.973  17.313  1.00  0.00    +0.000 H 
BRANCH   26   25
ATOM     25  N1  UNL A   1       7.421  -5.348  19.312  1.00  0.00    +0.000 N 
ATOM    119  H20 UNL A   1       7.901  -6.047  19.814  1.00  0.00    +0.000 H 
BRANCH   25   23
ATOM     23  C22 UNL A   1       6.343  -4.799  19.946  1.00  0.00    +0.000 C 
ATOM     24  O1  UNL A   1       5.262  -4.821  19.352  1.00  0.00    +0.000 O 
BRANCH   23   22
ATOM    118  H19 UNL A   1       5.512  -4.075  21.735  1.00  0.00    +0.000 H 
ATOM    117  H18 UNL A   1       6.917  -3.153  21.152  1.00  0.00    +0.000 H 
ATOM     22  C21 UNL A   1       6.489  -4.122  21.303  1.00  0.00    +0.000 C 
BRANCH   22   21
ATOM      2  C2  UNL A   1      10.959  -4.066  22.463  1.00  0.00    +0.000 C 
ATOM     99  C74 UNL A   1       9.568  -3.498  22.053  1.00  0.00    +0.000 C 
ATOM      4  C4  UNL A   1      10.645  -4.980  23.695  1.00  0.00    +0.000 C 
ATOM      5  C5  UNL A   1       9.231  -5.351  23.452  1.00  0.00    +0.000 C 
ATOM     98  N7  UNL A   1       8.649  -4.522  22.533  1.00  0.00    +0.000 N 
ATOM      6  C6  UNL A   1       8.293  -6.269  23.836  1.00  0.00    +0.000 C 
ATOM    106  H7  UNL A   1      10.754  -4.443  24.614  1.00  0.00    +0.000 H 
ATOM    107  H8  UNL A   1      11.302  -5.819  23.787  1.00  0.00    +0.000 H 
ATOM     13  C13 UNL A   1       7.093  -5.964  23.099  1.00  0.00    +0.000 C 
ATOM    147  H48 UNL A   1       9.497  -3.382  20.991  1.00  0.00    +0.000 H 
ATOM    148  H49 UNL A   1       9.371  -2.528  22.456  1.00  0.00    +0.000 H 
ATOM     21  C20 UNL A   1       7.357  -4.876  22.266  1.00  0.00    +0.000 C 
BRANCH    2    1
ATOM      1  C1  UNL A   1      11.936  -2.943  22.810  1.00  0.00    +0.000 C 
ATOM    100  H1  UNL A   1      12.113  -2.343  21.942  1.00  0.00    +0.000 H 
ATOM    101  H2  UNL A   1      12.859  -3.365  23.147  1.00  0.00    +0.000 H 
ATOM    102  H3  UNL A   1      11.519  -2.334  23.585  1.00  0.00    +0.000 H 
ENDBRANCH    2    1
BRANCH    2    3
ATOM    105  H6  UNL A   1      12.293  -5.586  21.734  1.00  0.00    +0.000 H 
ATOM      3  C3  UNL A   1      11.567  -4.913  21.328  1.00  0.00    +0.000 C 
ATOM    103  H4  UNL A   1      12.037  -4.269  20.614  1.00  0.00    +0.000 H 
ATOM    104  H5  UNL A   1      10.792  -5.473  20.847  1.00  0.00    +0.000 H 
ENDBRANCH    2    3
BRANCH    6    7
ATOM      7  C7  UNL A   1       8.462  -7.310  24.826  1.00  0.00    +0.000 C 
ATOM      8  C8  UNL A   1       8.186  -7.051  26.170  1.00  0.00    +0.000 C 
ATOM      9  C9  UNL A   1       8.064  -8.112  27.066  1.00  0.00    +0.000 C 
ATOM     10  C10 UNL A   1       8.231  -9.427  26.624  1.00  0.00    +0.000 C 
ATOM     11  C11 UNL A   1       8.569  -9.685  25.297  1.00  0.00    +0.000 C 
ATOM     12  C12 UNL A   1       8.683  -8.627  24.399  1.00  0.00    +0.000 C 
ATOM    108  H9  UNL A   1       8.076  -6.078  26.499  1.00  0.00    +0.000 H 
ATOM    109  H10 UNL A   1       7.848  -7.926  28.058  1.00  0.00    +0.000 H 
ATOM    111  H12 UNL A   1       8.734 -10.654  24.983  1.00  0.00    +0.000 H 
ATOM    112  H13 UNL A   1       8.932  -8.813  23.415  1.00  0.00    +0.000 H 
ATOM    110  H11 UNL A   1       8.102 -10.212  27.283  1.00  0.00    +0.000 H 
ENDBRANCH    6    7
BRANCH   13   14
ATOM     14  C14 UNL A   1       5.815  -6.655  23.233  1.00  0.00    +0.000 C 
ATOM     15  C15 UNL A   1       5.444  -7.611  22.275  1.00  0.00    +0.000 C 
ATOM     16  C16 UNL A   1       4.162  -8.164  22.284  1.00  0.00    +0.000 C 
ATOM    113  H14 UNL A   1       6.126  -7.908  21.559  1.00  0.00    +0.000 H 
ATOM     17  C17 UNL A   1       3.248  -7.773  23.260  1.00  0.00    +0.000 C 
ATOM     19  C18 UNL A   1       3.605  -6.828  24.221  1.00  0.00    +0.000 C 
ATOM     20  C19 UNL A   1       4.881  -6.259  24.195  1.00  0.00    +0.000 C 
ATOM    116  H17 UNL A   1       5.135  -5.542  24.892  1.00  0.00    +0.000 H 
ATOM    114  H15 UNL A   1       3.892  -8.860  21.571  1.00  0.00    +0.000 H 
ATOM    115  H16 UNL A   1       2.928  -6.551  24.949  1.00  0.00    +0.000 H 
ATOM     18 Cl1  UNL A   1       1.660  -8.435  23.261  1.00  0.00    +0.000 Cl
ENDBRANCH   13   14
ENDBRANCH   22   21
ENDBRANCH   23   22
ENDBRANCH   25   23
ENDBRANCH   26   25
ENDBRANCH   27   26
ENDBRANCH   28   27
ENDBRANCH   29   28
ENDBRANCH   30   29
ENDBRANCH   31   30
ENDBRANCH   32   31
ENDBRANCH   33   32
ENDBRANCH   35   33
ENDBRANCH   39   38
BRANCH   43   44
ATOM     44  C38 UNL A   1      13.804   0.821  26.708  1.00  0.00    +0.000 C 
ATOM     45  C39 UNL A   1      13.411   2.121  27.093  1.00  0.00    +0.000 C 
ATOM     46  F1  UNL A   1      12.138   2.520  26.954  1.00  0.00    +0.000 F 
ATOM     47  C40 UNL A   1      14.331   3.072  27.544  1.00  0.00    +0.000 C 
ATOM     48  F2  UNL A   1      13.930   4.329  27.774  1.00  0.00    +0.000 F 
ATOM     49  C41 UNL A   1      15.665   2.743  27.688  1.00  0.00    +0.000 C 
ATOM     50  F3  UNL A   1      16.559   3.669  28.061  1.00  0.00    +0.000 F 
ATOM     51  C42 UNL A   1      16.078   1.462  27.396  1.00  0.00    +0.000 C 
ATOM     52  F4  UNL A   1      17.371   1.127  27.514  1.00  0.00    +0.000 F 
ATOM     53  C43 UNL A   1      15.173   0.528  26.893  1.00  0.00    +0.000 C 
ATOM     54  F5  UNL A   1      15.717  -0.629  26.502  1.00  0.00    +0.000 F 
ENDBRANCH   43   44
BRANCH   60   61
ATOM     65  F7  UNL A   1       5.313  -2.536  23.853  1.00  0.00    +0.000 F 
ATOM     66  C52 UNL A   1       5.045  -2.820  26.180  1.00  0.00    +0.000 C 
ATOM     67  F8  UNL A   1       4.013  -3.650  25.976  1.00  0.00    +0.000 F 
ATOM     68  C53 UNL A   1       5.469  -2.541  27.470  1.00  0.00    +0.000 C 
ATOM     69  F9  UNL A   1       4.860  -3.121  28.514  1.00  0.00    +0.000 F 
ATOM     70  C54 UNL A   1       6.544  -1.684  27.689  1.00  0.00    +0.000 C 
ATOM     71  F10 UNL A   1       6.940  -1.452  28.950  1.00  0.00    +0.000 F 
ATOM     61  C49 UNL A   1       7.238  -1.105  26.622  1.00  0.00    +0.000 C 
ATOM     62  C50 UNL A   1       6.809  -1.428  25.322  1.00  0.00    +0.000 C 
ATOM     63  F6  UNL A   1       7.478  -0.989  24.248  1.00  0.00    +0.000 F 
ATOM     64  C51 UNL A   1       5.709  -2.257  25.104  1.00  0.00    +0.000 C 
ENDBRANCH   60   61
BRANCH   75   76
ATOM     76  C58 UNL A   1       6.399   4.887  25.060  1.00  0.00    +0.000 C 
ATOM     77  C59 UNL A   1       5.245   5.237  25.778  1.00  0.00    +0.000 C 
ATOM     78  F11 UNL A   1       4.412   4.281  26.215  1.00  0.00    +0.000 F 
ATOM     79  C60 UNL A   1       4.984   6.563  26.137  1.00  0.00    +0.000 C 
ATOM     80  F12 UNL A   1       3.900   6.863  26.866  1.00  0.00    +0.000 F 
ATOM     81  C61 UNL A   1       5.891   7.560  25.824  1.00  0.00    +0.000 C 
ATOM     82  F13 UNL A   1       5.694   8.819  26.239  1.00  0.00    +0.000 F 
ATOM     83  C62 UNL A   1       7.044   7.232  25.135  1.00  0.00    +0.000 C 
ATOM     84  F14 UNL A   1       8.005   8.145  24.985  1.00  0.00    +0.000 F 
ATOM     85  C63 UNL A   1       7.277   5.927  24.719  1.00  0.00    +0.000 C 
ATOM     86  F15 UNL A   1       8.438   5.667  24.099  1.00  0.00    +0.000 F 
ENDBRANCH   75   76
TORSDOF 20
ENDMDL
MODEL 2
REMARK VINA RESULT:      -9.0     35.967     41.910
ROOT
ATOM    135  H36 UNL A   1      23.530  27.875   1.215  1.00  0.00    +0.000 H 
ATOM    136  H37 UNL A   1      23.277  25.384   2.122  1.00  0.00    +0.000 H 
ATOM    137  H38 UNL A   1      19.616  26.936   1.401  1.00  0.00    +0.000 H 
ATOM    138  H39 UNL A   1      19.819  20.646  -3.856  1.00  0.00    +0.000 H 
ATOM    139  H40 UNL A   1      22.014  21.834  -4.373  1.00  0.00    +0.000 H 
ATOM    140  H41 UNL A   1      20.027  24.137  -1.548  1.00  0.00    +0.000 H 
ATOM    141  H42 UNL A   1      16.843  24.495  -1.276  1.00  0.00    +0.000 H 
ATOM    142  H43 UNL A   1      18.382  25.898   0.250  1.00  0.00    +0.000 H 
ATOM    143  H44 UNL A   1      21.240  29.028  -3.423  1.00  0.00    +0.000 H 
ATOM    144  H45 UNL A   1      21.261  26.887  -4.859  1.00  0.00    +0.000 H 
ATOM     39  C34 UNL A   1      22.079  24.569  -3.372  1.00  0.00    +0.000 C 
ATOM     40  C35 UNL A   1      21.796  25.939  -2.865  1.00  0.00    +0.000 C 
ATOM     41  N3  UNL A   1      21.945  26.389  -1.663  1.00  0.00    +0.000 N 
ATOM     42  C36 UNL A   1      21.493  27.707  -1.686  1.00  0.00    +0.000 C 
ATOM     43  C37 UNL A   1      21.038  28.313  -0.554  1.00  0.00    +0.000 C 
ATOM     55  C44 UNL A   1      21.462  27.593   0.621  1.00  0.00    +0.000 C 
ATOM     56  C45 UNL A   1      22.688  27.279   1.176  1.00  0.00    +0.000 C 
ATOM     57  C46 UNL A   1      22.538  25.954   1.682  1.00  0.00    +0.000 C 
ATOM     58  C47 UNL A   1      21.215  25.565   1.476  1.00  0.00    +0.000 C 
ATOM     59  N4  UNL A   1      20.561  26.740   1.208  1.00  0.00    +0.000 N 
ATOM     60  C48 UNL A   1      20.577  24.274   1.432  1.00  0.00    +0.000 C 
ATOM     72  C55 UNL A   1      19.381  24.016   0.829  1.00  0.00    +0.000 C 
ATOM     73  N5  UNL A   1      19.043  22.723   0.463  1.00  0.00    +0.000 N 
ATOM     74  C56 UNL A   1      18.248  22.872  -0.558  1.00  0.00    +0.000 C 
ATOM     75  C57 UNL A   1      18.303  22.002  -1.753  1.00  0.00    +0.000 C 
ATOM     87  C64 UNL A   1      19.459  22.278  -2.404  1.00  0.00    +0.000 C 
ATOM     88  C65 UNL A   1      20.141  21.533  -3.435  1.00  0.00    +0.000 C 
ATOM     89  C66 UNL A   1      21.271  22.196  -3.755  1.00  0.00    +0.000 C 
ATOM     90  C67 UNL A   1      21.286  23.508  -3.094  1.00  0.00    +0.000 C 
ATOM     91  N6  UNL A   1      20.227  23.447  -2.221  1.00  0.00    +0.000 N 
ATOM     92  C68 UNL A   1      17.644  24.186  -0.704  1.00  0.00    +0.000 C 
ATOM     93  C69 UNL A   1      18.434  24.876   0.123  1.00  0.00    +0.000 C 
ATOM     94  C70 UNL A   1      21.364  28.065  -3.074  1.00  0.00    +0.000 C 
ATOM     95  C71 UNL A   1      21.427  26.977  -3.844  1.00  0.00    +0.000 C 
ENDROOT
BRANCH   39   38
ATOM     97  C73 UNL A   1      23.674  24.835  -6.684  1.00  0.00    +0.000 C 
ATOM     35  C30 UNL A   1      25.000  24.536  -6.396  1.00  0.00    +0.000 C 
ATOM     36  C31 UNL A   1      25.377  24.106  -5.119  1.00  0.00    +0.000 C 
ATOM    133  H34 UNL A   1      26.353  23.835  -4.922  1.00  0.00    +0.000 H 
ATOM     37  C32 UNL A   1      24.410  24.052  -4.118  1.00  0.00    +0.000 C 
ATOM     38  C33 UNL A   1      23.110  24.498  -4.400  1.00  0.00    +0.000 C 
ATOM    134  H35 UNL A   1      24.646  23.689  -3.181  1.00  0.00    +0.000 H 
ATOM    145  H46 UNL A   1      21.855  25.406  -5.831  1.00  0.00    +0.000 H 
ATOM    146  H47 UNL A   1      23.372  24.959  -7.663  1.00  0.00    +0.000 H 
ATOM     96  C72 UNL A   1      22.773  24.966  -5.665  1.00  0.00    +0.000 C 
BRANCH   35   33
ATOM     33  C29 UNL A   1      25.994  24.727  -7.471  1.00  0.00    +0.000 C 
ATOM     34  O2  UNL A   1      25.672  25.201  -8.536  1.00  0.00    +0.000 O 
BRANCH   33   32
ATOM    132  H33 UNL A   1      27.500  23.382  -7.263  1.00  0.00    +0.000 H 
ATOM     32  N2  UNL A   1      27.305  24.345  -7.215  1.00  0.00    +0.000 N 
BRANCH   32   31
ATOM    130  H31 UNL A   1      28.138  26.236  -7.064  1.00  0.00    +0.000 H 
ATOM    131  H32 UNL A   1      28.673  25.065  -5.853  1.00  0.00    +0.000 H 
ATOM     31  C28 UNL A   1      28.428  25.223  -6.882  1.00  0.00    +0.000 C 
BRANCH   31   30
ATOM    129  H30 UNL A   1      30.110  25.851  -7.963  1.00  0.00    +0.000 H 
ATOM     30  C27 UNL A   1      29.664  24.913  -7.708  1.00  0.00    +0.000 C 
ATOM    128  H29 UNL A   1      29.363  24.352  -8.567  1.00  0.00    +0.000 H 
BRANCH   30   29
ATOM     29  C26 UNL A   1      30.732  24.104  -6.953  1.00  0.00    +0.000 C 
ATOM    126  H27 UNL A   1      31.203  24.763  -6.252  1.00  0.00    +0.000 H 
ATOM    127  H28 UNL A   1      30.204  23.285  -6.512  1.00  0.00    +0.000 H 
BRANCH   29   28
ATOM    124  H25 UNL A   1      31.755  23.840  -8.798  1.00  0.00    +0.000 H 
ATOM     28  C25 UNL A   1      31.840  23.460  -7.801  1.00  0.00    +0.000 C 
ATOM    125  H26 UNL A   1      32.762  23.712  -7.319  1.00  0.00    +0.000 H 
BRANCH   28   27
ATOM    122  H23 UNL A   1      32.443  21.625  -8.682  1.00  0.00    +0.000 H 
ATOM     27  C24 UNL A   1      31.810  21.933  -7.876  1.00  0.00    +0.000 C 
ATOM    123  H24 UNL A   1      32.142  21.576  -6.923  1.00  0.00    +0.000 H 
BRANCH   27   26
ATOM    121  H22 UNL A   1      29.808  22.099  -8.530  1.00  0.00    +0.000 H 
ATOM     26  C23 UNL A   1      30.424  21.335  -8.105  1.00  0.00    +0.000 C 
ATOM    120  H21 UNL A   1      30.039  20.994  -7.167  1.00  0.00    +0.000 H 
BRANCH   26   25
ATOM     25  N1  UNL A   1      30.442  20.226  -9.028  1.00  0.00    +0.000 N 
ATOM    119  H20 UNL A   1      31.068  19.498  -8.806  1.00  0.00    +0.000 H 
BRANCH   25   23
ATOM     23  C22 UNL A   1      29.710  20.048 -10.167  1.00  0.00    +0.000 C 
ATOM     24  O1  UNL A   1      28.621  19.477 -10.060  1.00  0.00    +0.000 O 
BRANCH   23   22
ATOM    118  H19 UNL A   1      29.409  20.619 -12.167  1.00  0.00    +0.000 H 
ATOM    117  H18 UNL A   1      30.910  19.708 -11.881  1.00  0.00    +0.000 H 
ATOM     22  C21 UNL A   1      30.252  20.474 -11.526  1.00  0.00    +0.000 C 
BRANCH   22   21
ATOM      2  C2  UNL A   1      29.133  24.953 -11.637  1.00  0.00    +0.000 C 
ATOM     99  C74 UNL A   1      29.016  23.446 -11.263  1.00  0.00    +0.000 C 
ATOM      4  C4  UNL A   1      30.604  25.324 -11.250  1.00  0.00    +0.000 C 
ATOM      5  C5  UNL A   1      31.291  24.014 -11.351  1.00  0.00    +0.000 C 
ATOM     98  N7  UNL A   1      30.394  22.982 -11.363  1.00  0.00    +0.000 N 
ATOM      6  C6  UNL A   1      32.544  23.477 -11.449  1.00  0.00    +0.000 C 
ATOM    106  H7  UNL A   1      30.657  25.715 -10.255  1.00  0.00    +0.000 H 
ATOM    107  H8  UNL A   1      31.033  26.085 -11.867  1.00  0.00    +0.000 H 
ATOM     13  C13 UNL A   1      32.375  22.049 -11.526  1.00  0.00    +0.000 C 
ATOM    147  H48 UNL A   1      28.383  22.926 -11.951  1.00  0.00    +0.000 H 
ATOM    148  H49 UNL A   1      28.581  23.281 -10.300  1.00  0.00    +0.000 H 
ATOM     21  C20 UNL A   1      31.007  21.769 -11.497  1.00  0.00    +0.000 C 
BRANCH    2    1
ATOM      1  C1  UNL A   1      28.106  25.794 -10.879  1.00  0.00    +0.000 C 
ATOM    100  H1  UNL A   1      28.329  26.832 -11.010  1.00  0.00    +0.000 H 
ATOM    101  H2  UNL A   1      28.142  25.550  -9.839  1.00  0.00    +0.000 H 
ATOM    102  H3  UNL A   1      27.127  25.589 -11.260  1.00  0.00    +0.000 H 
ENDBRANCH    2    1
BRANCH    2    3
ATOM    105  H6  UNL A   1      28.418  24.317 -13.562  1.00  0.00    +0.000 H 
ATOM      3  C3  UNL A   1      28.924  25.165 -13.149  1.00  0.00    +0.000 C 
ATOM    103  H4  UNL A   1      29.874  25.281 -13.628  1.00  0.00    +0.000 H 
ATOM    104  H5  UNL A   1      28.335  26.044 -13.307  1.00  0.00    +0.000 H 
ENDBRANCH    2    3
BRANCH    6    7
ATOM      7  C7  UNL A   1      33.796  24.202 -11.429  1.00  0.00    +0.000 C 
ATOM      8  C8  UNL A   1      34.646  24.103 -10.325  1.00  0.00    +0.000 C 
ATOM      9  C9  UNL A   1      35.961  24.553 -10.427  1.00  0.00    +0.000 C 
ATOM     10  C10 UNL A   1      36.423  25.114 -11.620  1.00  0.00    +0.000 C 
ATOM     11  C11 UNL A   1      35.558  25.273 -12.701  1.00  0.00    +0.000 C 
ATOM     12  C12 UNL A   1      34.247  24.816 -12.606  1.00  0.00    +0.000 C 
ATOM    108  H9  UNL A   1      34.301  23.700  -9.440  1.00  0.00    +0.000 H 
ATOM    109  H10 UNL A   1      36.597  24.471  -9.617  1.00  0.00    +0.000 H 
ATOM    111  H12 UNL A   1      35.889  25.726 -13.568  1.00  0.00    +0.000 H 
ATOM    112  H13 UNL A   1      33.604  24.930 -13.405  1.00  0.00    +0.000 H 
ATOM    110  H11 UNL A   1      37.407  25.412 -11.703  1.00  0.00    +0.000 H 
ENDBRANCH    6    7
BRANCH   13   14
ATOM     14  C14 UNL A   1      33.452  21.067 -11.586  1.00  0.00    +0.000 C 
ATOM     15  C15 UNL A   1      34.094  20.821 -12.810  1.00  0.00    +0.000 C 
ATOM     16  C16 UNL A   1      35.010  19.774 -12.933  1.00  0.00    +0.000 C 
ATOM    113  H14 UNL A   1      33.888  21.421 -13.624  1.00  0.00    +0.000 H 
ATOM     17  C17 UNL A   1      35.298  18.975 -11.829  1.00  0.00    +0.000 C 
ATOM     19  C18 UNL A   1      34.672  19.212 -10.606  1.00  0.00    +0.000 C 
ATOM     20  C19 UNL A   1      33.738  20.245 -10.492  1.00  0.00    +0.000 C 
ATOM    116  H17 UNL A   1      33.257  20.403  -9.593  1.00  0.00    +0.000 H 
ATOM    114  H15 UNL A   1      35.471  19.592 -13.839  1.00  0.00    +0.000 H 
ATOM    115  H16 UNL A   1      34.898  18.625  -9.788  1.00  0.00    +0.000 H 
ATOM     18 Cl1  UNL A   1      36.408  17.669 -11.982  1.00  0.00    +0.000 Cl
ENDBRANCH   13   14
ENDBRANCH   22   21
ENDBRANCH   23   22
ENDBRANCH   25   23
ENDBRANCH   26   25
ENDBRANCH   27   26
ENDBRANCH   28   27
ENDBRANCH   29   28
ENDBRANCH   30   29
ENDBRANCH   31   30
ENDBRANCH   32   31
ENDBRANCH   33   32
ENDBRANCH   35   33
ENDBRANCH   39   38
BRANCH   43   44
ATOM     44  C38 UNL A   1      19.921  29.332  -0.508  1.00  0.00    +0.000 C 
ATOM     45  C39 UNL A   1      20.023  30.420   0.385  1.00  0.00    +0.000 C 
ATOM     46  F1  UNL A   1      21.185  30.699   0.994  1.00  0.00    +0.000 F 
ATOM     47  C40 UNL A   1      18.914  31.192   0.745  1.00  0.00    +0.000 C 
ATOM     48  F2  UNL A   1      19.036  32.131   1.693  1.00  0.00    +0.000 F 
ATOM     49  C41 UNL A   1      17.677  30.947   0.180  1.00  0.00    +0.000 C 
ATOM     50  F3  UNL A   1      16.600  31.644   0.568  1.00  0.00    +0.000 F 
ATOM     51  C42 UNL A   1      17.550  29.943  -0.753  1.00  0.00    +0.000 C 
ATOM     52  F4  UNL A   1      16.355  29.680  -1.302  1.00  0.00    +0.000 F 
ATOM     53  C43 UNL A   1      18.641  29.137  -1.073  1.00  0.00    +0.000 C 
ATOM     54  F5  UNL A   1      18.362  28.101  -1.872  1.00  0.00    +0.000 F 
ENDBRANCH   43   44
BRANCH   60   61
ATOM     65  F7  UNL A   1      22.029  20.931   4.768  1.00  0.00    +0.000 F 
ATOM     66  C52 UNL A   1      22.792  20.736   2.544  1.00  0.00    +0.000 C 
ATOM     67  F8  UNL A   1      23.446  19.607   2.851  1.00  0.00    +0.000 F 
ATOM     68  C53 UNL A   1      22.816  21.223   1.246  1.00  0.00    +0.000 C 
ATOM     69  F9  UNL A   1      23.476  20.551   0.292  1.00  0.00    +0.000 F 
ATOM     70  C54 UNL A   1      22.134  22.392   0.919  1.00  0.00    +0.000 C 
ATOM     71  F10 UNL A   1      22.162  22.824  -0.350  1.00  0.00    +0.000 F 
ATOM     61  C49 UNL A   1      21.390  23.088   1.878  1.00  0.00    +0.000 C 
ATOM     62  C50 UNL A   1      21.354  22.556   3.179  1.00  0.00    +0.000 C 
ATOM     63  F6  UNL A   1      20.590  23.112   4.128  1.00  0.00    +0.000 F 
ATOM     64  C51 UNL A   1      22.068  21.406   3.515  1.00  0.00    +0.000 C 
ENDBRANCH   60   61
BRANCH   75   76
ATOM     76  C58 UNL A   1      17.076  21.414  -2.321  1.00  0.00    +0.000 C 
ATOM     77  C59 UNL A   1      16.336  20.443  -1.628  1.00  0.00    +0.000 C 
ATOM     78  F11 UNL A   1      16.866  19.836  -0.557  1.00  0.00    +0.000 F 
ATOM     79  C60 UNL A   1      15.012  20.155  -1.971  1.00  0.00    +0.000 C 
ATOM     80  F12 UNL A   1      14.312  19.260  -1.260  1.00  0.00    +0.000 F 
ATOM     81  C61 UNL A   1      14.386  20.860  -2.984  1.00  0.00    +0.000 C 
ATOM     82  F13 UNL A   1      13.091  20.653  -3.262  1.00  0.00    +0.000 F 
ATOM     83  C62 UNL A   1      15.091  21.835  -3.664  1.00  0.00    +0.000 C 
ATOM     84  F14 UNL A   1      14.451  22.639  -4.514  1.00  0.00    +0.000 F 
ATOM     85  C63 UNL A   1      16.427  22.080  -3.372  1.00  0.00    +0.000 C 
ATOM     86  F15 UNL A   1      17.040  23.073  -4.035  1.00  0.00    +0.000 F 
ENDBRANCH   75   76
TORSDOF 20
ENDMDL
MODEL 3
REMARK VINA RESULT:      -8.9     42.017     48.286
ROOT
ATOM    135  H36 UNL A   1      47.123  18.543  44.444  1.00  0.00    +0.000 H 
ATOM    136  H37 UNL A   1      46.597  19.702  46.782  1.00  0.00    +0.000 H 
ATOM    137  H38 UNL A   1      43.391  17.548  45.593  1.00  0.00    +0.000 H 
ATOM    138  H39 UNL A   1      45.443  13.761  52.570  1.00  0.00    +0.000 H 
ATOM    139  H40 UNL A   1      47.671  13.829  51.335  1.00  0.00    +0.000 H 
ATOM    140  H41 UNL A   1      44.815  15.405  48.769  1.00  0.00    +0.000 H 
ATOM    141  H42 UNL A   1      41.728  14.526  48.578  1.00  0.00    +0.000 H 
ATOM    142  H43 UNL A   1      42.637  16.232  46.867  1.00  0.00    +0.000 H 
ATOM    143  H44 UNL A   1      46.553  13.283  44.145  1.00  0.00    +0.000 H 
ATOM    144  H45 UNL A   1      47.085  12.305  46.470  1.00  0.00    +0.000 H 
ATOM     39  C34 UNL A   1      47.364  14.336  48.483  1.00  0.00    +0.000 C 
ATOM     40  C35 UNL A   1      46.912  14.488  47.073  1.00  0.00    +0.000 C 
ATOM     41  N3  UNL A   1      46.636  15.580  46.441  1.00  0.00    +0.000 N 
ATOM     42  C36 UNL A   1      46.207  15.193  45.173  1.00  0.00    +0.000 C 
ATOM     43  C37 UNL A   1      45.386  15.991  44.434  1.00  0.00    +0.000 C 
ATOM     55  C44 UNL A   1      45.388  17.340  44.943  1.00  0.00    +0.000 C 
ATOM     56  C45 UNL A   1      46.352  18.319  45.091  1.00  0.00    +0.000 C 
ATOM     57  C46 UNL A   1      46.048  18.952  46.332  1.00  0.00    +0.000 C 
ATOM     58  C47 UNL A   1      44.880  18.379  46.832  1.00  0.00    +0.000 C 
ATOM     59  N4  UNL A   1      44.347  17.719  45.755  1.00  0.00    +0.000 N 
ATOM     60  C48 UNL A   1      44.307  18.332  48.154  1.00  0.00    +0.000 C 
ATOM     72  C55 UNL A   1      43.394  17.411  48.574  1.00  0.00    +0.000 C 
ATOM     73  N5  UNL A   1      43.213  17.168  49.926  1.00  0.00    +0.000 N 
ATOM     74  C56 UNL A   1      42.815  15.929  49.982  1.00  0.00    +0.000 C 
ATOM     75  C57 UNL A   1      43.285  14.979  51.015  1.00  0.00    +0.000 C 
ATOM     87  C64 UNL A   1      44.592  14.721  50.767  1.00  0.00    +0.000 C 
ATOM     88  C65 UNL A   1      45.593  14.116  51.612  1.00  0.00    +0.000 C 
ATOM     89  C66 UNL A   1      46.758  14.093  50.933  1.00  0.00    +0.000 C 
ATOM     90  C67 UNL A   1      46.534  14.498  49.539  1.00  0.00    +0.000 C 
ATOM     91  N6  UNL A   1      45.240  14.961  49.537  1.00  0.00    +0.000 N 
ATOM     92  C68 UNL A   1      42.286  15.376  48.746  1.00  0.00    +0.000 C 
ATOM     93  C69 UNL A   1      42.738  16.298  47.891  1.00  0.00    +0.000 C 
ATOM     94  C70 UNL A   1      46.559  13.805  45.035  1.00  0.00    +0.000 C 
ATOM     95  C71 UNL A   1      46.892  13.288  46.219  1.00  0.00    +0.000 C 
ENDROOT
BRANCH   39   38
ATOM     97  C73 UNL A   1      51.006  14.109  49.003  1.00  0.00    +0.000 C 
ATOM     35  C30 UNL A   1      51.205  12.736  49.085  1.00  0.00    +0.000 C 
ATOM     36  C31 UNL A   1      50.157  11.842  48.836  1.00  0.00    +0.000 C 
ATOM    133  H34 UNL A   1      50.321  10.824  48.846  1.00  0.00    +0.000 H 
ATOM     37  C32 UNL A   1      48.889  12.355  48.574  1.00  0.00    +0.000 C 
ATOM     38  C33 UNL A   1      48.686  13.742  48.640  1.00  0.00    +0.000 C 
ATOM    134  H35 UNL A   1      48.109  11.724  48.334  1.00  0.00    +0.000 H 
ATOM    145  H46 UNL A   1      49.554  15.606  49.107  1.00  0.00    +0.000 H 
ATOM    146  H47 UNL A   1      51.814  14.750  48.993  1.00  0.00    +0.000 H 
ATOM     96  C72 UNL A   1      49.734  14.605  48.937  1.00  0.00    +0.000 C 
BRANCH   35   33
ATOM     33  C29 UNL A   1      52.546  12.261  49.482  1.00  0.00    +0.000 C 
ATOM     34  O2  UNL A   1      53.532  12.919  49.244  1.00  0.00    +0.000 O 
BRANCH   33   32
ATOM    132  H33 UNL A   1      52.760  10.245  49.572  1.00  0.00    +0.000 H 
ATOM     32  N2  UNL A   1      52.632  11.040  50.138  1.00  0.00    +0.000 N 
BRANCH   32   31
ATOM    130  H31 UNL A   1      53.541  10.845  51.989  1.00  0.00    +0.000 H 
ATOM    131  H32 UNL A   1      51.928  11.569  52.000  1.00  0.00    +0.000 H 
ATOM     31  C28 UNL A   1      52.553  10.809  51.581  1.00  0.00    +0.000 C 
BRANCH   31   30
ATOM    129  H30 UNL A   1      51.221   9.633  52.693  1.00  0.00    +0.000 H 
ATOM     30  C27 UNL A   1      51.934   9.462  51.915  1.00  0.00    +0.000 C 
ATOM    128  H29 UNL A   1      52.718   8.796  52.211  1.00  0.00    +0.000 H 
BRANCH   30   29
ATOM     29  C26 UNL A   1      51.171   8.819  50.746  1.00  0.00    +0.000 C 
ATOM    126  H27 UNL A   1      50.436   9.522  50.413  1.00  0.00    +0.000 H 
ATOM    127  H28 UNL A   1      51.919   8.576  50.021  1.00  0.00    +0.000 H 
BRANCH   29   28
ATOM    124  H25 UNL A   1      49.763   7.663  51.843  1.00  0.00    +0.000 H 
ATOM     28  C25 UNL A   1      50.447   7.495  51.038  1.00  0.00    +0.000 C 
ATOM    125  H26 UNL A   1      49.974   7.211  50.120  1.00  0.00    +0.000 H 
BRANCH   28   27
ATOM    122  H23 UNL A   1      50.957   5.436  50.970  1.00  0.00    +0.000 H 
ATOM     27  C24 UNL A   1      51.349   6.322  51.424  1.00  0.00    +0.000 C 
ATOM    123  H24 UNL A   1      52.332   6.568  51.082  1.00  0.00    +0.000 H 
BRANCH   27   26
ATOM    121  H22 UNL A   1      52.174   6.773  53.316  1.00  0.00    +0.000 H 
ATOM     26  C23 UNL A   1      51.462   6.076  52.927  1.00  0.00    +0.000 C 
ATOM    120  H21 UNL A   1      51.772   5.064  53.086  1.00  0.00    +0.000 H 
BRANCH   26   25
ATOM     25  N1  UNL A   1      50.215   6.293  53.622  1.00  0.00    +0.000 N 
ATOM    119  H20 UNL A   1      49.429   5.843  53.235  1.00  0.00    +0.000 H 
BRANCH   25   23
ATOM     23  C22 UNL A   1      49.978   7.037  54.742  1.00  0.00    +0.000 C 
ATOM     24  O1  UNL A   1      50.856   7.056  55.609  1.00  0.00    +0.000 O 
BRANCH   23   22
ATOM    118  H19 UNL A   1      48.771   8.406  55.783  1.00  0.00    +0.000 H 
ATOM    117  H18 UNL A   1      47.888   7.021  55.099  1.00  0.00    +0.000 H 
ATOM     22  C21 UNL A   1      48.650   7.756  54.942  1.00  0.00    +0.000 C 
BRANCH   22   21
ATOM      2  C2  UNL A   1      49.394  12.126  53.646  1.00  0.00    +0.000 C 
ATOM     99  C74 UNL A   1      49.714  10.725  54.248  1.00  0.00    +0.000 C 
ATOM      4  C4  UNL A   1      48.799  11.803  52.235  1.00  0.00    +0.000 C 
ATOM      5  C5  UNL A   1      48.254  10.438  52.434  1.00  0.00    +0.000 C 
ATOM     98  N7  UNL A   1      48.767   9.857  53.559  1.00  0.00    +0.000 N 
ATOM      6  C6  UNL A   1      47.384   9.549  51.866  1.00  0.00    +0.000 C 
ATOM    106  H7  UNL A   1      49.558  11.812  51.482  1.00  0.00    +0.000 H 
ATOM    107  H8  UNL A   1      48.072  12.513  51.901  1.00  0.00    +0.000 H 
ATOM     13  C13 UNL A   1      47.384   8.380  52.707  1.00  0.00    +0.000 C 
ATOM    147  H48 UNL A   1      49.550  10.714  55.305  1.00  0.00    +0.000 H 
ATOM    148  H49 UNL A   1      50.734  10.431  54.117  1.00  0.00    +0.000 H 
ATOM     21  C20 UNL A   1      48.245   8.615  53.781  1.00  0.00    +0.000 C 
BRANCH    2    1
ATOM      1  C1  UNL A   1      50.650  12.992  53.559  1.00  0.00    +0.000 C 
ATOM    100  H1  UNL A   1      50.469  13.819  52.906  1.00  0.00    +0.000 H 
ATOM    101  H2  UNL A   1      51.461  12.408  53.179  1.00  0.00    +0.000 H 
ATOM    102  H3  UNL A   1      50.901  13.356  54.534  1.00  0.00    +0.000 H 
ENDBRANCH    2    1
BRANCH    2    3
ATOM    105  H6  UNL A   1      47.398  12.375  54.403  1.00  0.00    +0.000 H 
ATOM      3  C3  UNL A   1      48.344  12.867  54.497  1.00  0.00    +0.000 C 
ATOM    103  H4  UNL A   1      48.257  13.877  54.155  1.00  0.00    +0.000 H 
ATOM    104  H5  UNL A   1      48.649  12.862  55.522  1.00  0.00    +0.000 H 
ENDBRANCH    2    3
BRANCH    6    7
ATOM      7  C7  UNL A   1      46.647   9.732  50.635  1.00  0.00    +0.000 C 
ATOM      8  C8  UNL A   1      45.605  10.660  50.573  1.00  0.00    +0.000 C 
ATOM      9  C9  UNL A   1      45.099  11.045  49.333  1.00  0.00    +0.000 C 
ATOM     10  C10 UNL A   1      45.619  10.495  48.159  1.00  0.00    +0.000 C 
ATOM     11  C11 UNL A   1      46.615   9.522  48.221  1.00  0.00    +0.000 C 
ATOM     12  C12 UNL A   1      47.129   9.142  49.458  1.00  0.00    +0.000 C 
ATOM    108  H9  UNL A   1      45.211  11.056  51.441  1.00  0.00    +0.000 H 
ATOM    109  H10 UNL A   1      44.336  11.739  49.281  1.00  0.00    +0.000 H 
ATOM    111  H12 UNL A   1      46.969   9.086  47.355  1.00  0.00    +0.000 H 
ATOM    112  H13 UNL A   1      47.867   8.423  49.508  1.00  0.00    +0.000 H 
ATOM    110  H11 UNL A   1      45.267  10.811  47.242  1.00  0.00    +0.000 H 
ENDBRANCH    6    7
BRANCH   13   14
ATOM     14  C14 UNL A   1      46.639   7.151  52.455  1.00  0.00    +0.000 C 
ATOM     15  C15 UNL A   1      47.274   6.081  51.805  1.00  0.00    +0.000 C 
ATOM     16  C16 UNL A   1      46.543   4.961  51.402  1.00  0.00    +0.000 C 
ATOM    113  H14 UNL A   1      48.290   6.122  51.625  1.00  0.00    +0.000 H 
ATOM     17  C17 UNL A   1      45.175   4.901  51.658  1.00  0.00    +0.000 C 
ATOM     19  C18 UNL A   1      44.533   5.954  52.307  1.00  0.00    +0.000 C 
ATOM     20  C19 UNL A   1      45.263   7.084  52.688  1.00  0.00    +0.000 C 
ATOM    116  H17 UNL A   1      44.781   7.873  53.146  1.00  0.00    +0.000 H 
ATOM    114  H15 UNL A   1      47.014   4.182  50.916  1.00  0.00    +0.000 H 
ATOM    115  H16 UNL A   1      43.522   5.899  52.505  1.00  0.00    +0.000 H 
ATOM     18 Cl1  UNL A   1      44.266   3.534  51.143  1.00  0.00    +0.000 Cl
ENDBRANCH   13   14
ENDBRANCH   22   21
ENDBRANCH   23   22
ENDBRANCH   25   23
ENDBRANCH   26   25
ENDBRANCH   27   26
ENDBRANCH   28   27
ENDBRANCH   29   28
ENDBRANCH   30   29
ENDBRANCH   31   30
ENDBRANCH   32   31
ENDBRANCH   33   32
ENDBRANCH   35   33
ENDBRANCH   39   38
BRANCH   43   44
ATOM     44  C38 UNL A   1      44.311  15.492  43.493  1.00  0.00    +0.000 C 
ATOM     45  C39 UNL A   1      44.296  15.960  42.162  1.00  0.00    +0.000 C 
ATOM     46  F1  UNL A   1      45.346  16.626  41.658  1.00  0.00    +0.000 F 
ATOM     47  C40 UNL A   1      43.168  15.837  41.345  1.00  0.00    +0.000 C 
ATOM     48  F2  UNL A   1      43.157  16.410  40.135  1.00  0.00    +0.000 F 
ATOM     49  C41 UNL A   1      42.037  15.188  41.804  1.00  0.00    +0.000 C 
ATOM     50  F3  UNL A   1      40.934  15.121  41.047  1.00  0.00    +0.000 F 
ATOM     51  C42 UNL A   1      42.039  14.649  43.071  1.00  0.00    +0.000 C 
ATOM     52  F4  UNL A   1      40.947  14.027  43.540  1.00  0.00    +0.000 F 
ATOM     53  C43 UNL A   1      43.142  14.818  43.907  1.00  0.00    +0.000 C 
ATOM     54  F5  UNL A   1      42.969  14.388  45.162  1.00  0.00    +0.000 F 
ENDBRANCH   43   44
BRANCH   60   61
ATOM     65  F7  UNL A   1      47.847  19.490  51.401  1.00  0.00    +0.000 F 
ATOM     66  C52 UNL A   1      46.109  21.035  51.001  1.00  0.00    +0.000 C 
ATOM     67  F8  UNL A   1      46.675  21.913  51.840  1.00  0.00    +0.000 F 
ATOM     68  C53 UNL A   1      44.937  21.363  50.337  1.00  0.00    +0.000 C 
ATOM     69  F9  UNL A   1      44.382  22.570  50.518  1.00  0.00    +0.000 F 
ATOM     70  C54 UNL A   1      44.347  20.458  49.459  1.00  0.00    +0.000 C 
ATOM     71  F10 UNL A   1      43.224  20.816  48.819  1.00  0.00    +0.000 F 
ATOM     61  C49 UNL A   1      44.929  19.212  49.205  1.00  0.00    +0.000 C 
ATOM     62  C50 UNL A   1      46.134  18.915  49.865  1.00  0.00    +0.000 C 
ATOM     63  F6  UNL A   1      46.800  17.783  49.604  1.00  0.00    +0.000 F 
ATOM     64  C51 UNL A   1      46.705  19.807  50.773  1.00  0.00    +0.000 C 
ENDBRANCH   60   61
BRANCH   75   76
ATOM     76  C58 UNL A   1      42.333  14.134  51.759  1.00  0.00    +0.000 C 
ATOM     77  C59 UNL A   1      42.048  12.820  51.360  1.00  0.00    +0.000 C 
ATOM     78  F11 UNL A   1      42.428  12.390  50.148  1.00  0.00    +0.000 F 
ATOM     79  C60 UNL A   1      41.454  11.905  52.235  1.00  0.00    +0.000 C 
ATOM     80  F12 UNL A   1      41.240  10.641  51.844  1.00  0.00    +0.000 F 
ATOM     81  C61 UNL A   1      41.173  12.271  53.539  1.00  0.00    +0.000 C 
ATOM     82  F13 UNL A   1      40.686  11.378  54.411  1.00  0.00    +0.000 F 
ATOM     83  C62 UNL A   1      41.466  13.556  53.958  1.00  0.00    +0.000 C 
ATOM     84  F14 UNL A   1      41.368  13.866  55.252  1.00  0.00    +0.000 F 
ATOM     85  C63 UNL A   1      41.995  14.489  53.075  1.00  0.00    +0.000 C 
ATOM     86  F15 UNL A   1      42.303  15.702  53.557  1.00  0.00    +0.000 F 
ENDBRANCH   75   76
TORSDOF 20
ENDMDL
MODEL 4
REMARK VINA RESULT:      -8.7     41.925     47.527
ROOT
ATOM    135  H36 UNL A   1      46.977  18.725  44.328  1.00  0.00    +0.000 H 
ATOM    136  H37 UNL A   1      46.389  19.816  46.684  1.00  0.00    +0.000 H 
ATOM    137  H38 UNL A   1      43.340  17.444  45.496  1.00  0.00    +0.000 H 
ATOM    138  H39 UNL A   1      45.731  13.742  52.412  1.00  0.00    +0.000 H 
ATOM    139  H40 UNL A   1      47.936  13.989  51.158  1.00  0.00    +0.000 H 
ATOM    140  H41 UNL A   1      44.948  15.377  48.635  1.00  0.00    +0.000 H 
ATOM    141  H42 UNL A   1      41.932  14.274  48.460  1.00  0.00    +0.000 H 
ATOM    142  H43 UNL A   1      42.697  16.061  46.762  1.00  0.00    +0.000 H 
ATOM    143  H44 UNL A   1      46.795  13.441  43.972  1.00  0.00    +0.000 H 
ATOM    144  H45 UNL A   1      47.419  12.480  46.281  1.00  0.00    +0.000 H 
ATOM     39  C34 UNL A   1      47.566  14.503  48.315  1.00  0.00    +0.000 C 
ATOM     40  C35 UNL A   1      47.091  14.637  46.911  1.00  0.00    +0.000 C 
ATOM     41  N3  UNL A   1      46.729  15.712  46.294  1.00  0.00    +0.000 N 
ATOM     42  C36 UNL A   1      46.318  15.309  45.025  1.00  0.00    +0.000 C 
ATOM     43  C37 UNL A   1      45.433  16.052  44.303  1.00  0.00    +0.000 C 
ATOM     55  C44 UNL A   1      45.340  17.391  44.828  1.00  0.00    +0.000 C 
ATOM     56  C45 UNL A   1      46.230  18.437  44.979  1.00  0.00    +0.000 C 
ATOM     57  C46 UNL A   1      45.893  19.033  46.230  1.00  0.00    +0.000 C 
ATOM     58  C47 UNL A   1      44.775  18.369  46.733  1.00  0.00    +0.000 C 
ATOM     59  N4  UNL A   1      44.282  17.683  45.652  1.00  0.00    +0.000 N 
ATOM     60  C48 UNL A   1      44.219  18.265  48.058  1.00  0.00    +0.000 C 
ATOM     72  C55 UNL A   1      43.380  17.275  48.476  1.00  0.00    +0.000 C 
ATOM     73  N5  UNL A   1      43.231  17.003  49.827  1.00  0.00    +0.000 N 
ATOM     74  C56 UNL A   1      42.926  15.738  49.871  1.00  0.00    +0.000 C 
ATOM     75  C57 UNL A   1      43.474  14.814  50.890  1.00  0.00    +0.000 C 
ATOM     87  C64 UNL A   1      44.795  14.657  50.626  1.00  0.00    +0.000 C 
ATOM     88  C65 UNL A   1      45.845  14.118  51.457  1.00  0.00    +0.000 C 
ATOM     89  C66 UNL A   1      47.002  14.189  50.768  1.00  0.00    +0.000 C 
ATOM     90  C67 UNL A   1      46.736  14.591  49.380  1.00  0.00    +0.000 C 
ATOM     91  N6  UNL A   1      45.412  14.957  49.394  1.00  0.00    +0.000 N 
ATOM     92  C68 UNL A   1      42.428  15.161  48.634  1.00  0.00    +0.000 C 
ATOM     93  C69 UNL A   1      42.803  16.124  47.786  1.00  0.00    +0.000 C 
ATOM     94  C70 UNL A   1      46.770  13.952  44.868  1.00  0.00    +0.000 C 
ATOM     95  C71 UNL A   1      47.151  13.448  46.043  1.00  0.00    +0.000 C 
ENDROOT
BRANCH   39   38
ATOM     97  C73 UNL A   1      51.223  14.542  48.779  1.00  0.00    +0.000 C 
ATOM     35  C30 UNL A   1      51.521  13.187  48.863  1.00  0.00    +0.000 C 
ATOM     36  C31 UNL A   1      50.537  12.219  48.635  1.00  0.00    +0.000 C 
ATOM    133  H34 UNL A   1      50.774  11.215  48.648  1.00  0.00    +0.000 H 
ATOM     37  C32 UNL A   1      49.231  12.638  48.391  1.00  0.00    +0.000 C 
ATOM     38  C33 UNL A   1      48.930  14.006  48.454  1.00  0.00    +0.000 C 
ATOM    134  H35 UNL A   1      48.495  11.950  48.166  1.00  0.00    +0.000 H 
ATOM    145  H46 UNL A   1      49.668  15.931  48.898  1.00  0.00    +0.000 H 
ATOM    146  H47 UNL A   1      51.982  15.240  48.752  1.00  0.00    +0.000 H 
ATOM     96  C72 UNL A   1      49.917  14.944  48.731  1.00  0.00    +0.000 C 
BRANCH   35   33
ATOM     33  C29 UNL A   1      52.899  12.813  49.242  1.00  0.00    +0.000 C 
ATOM     34  O2  UNL A   1      53.851  13.388  48.766  1.00  0.00    +0.000 O 
BRANCH   33   32
ATOM    132  H33 UNL A   1      53.544  10.986  49.846  1.00  0.00    +0.000 H 
ATOM     32  N2  UNL A   1      53.060  11.783  50.160  1.00  0.00    +0.000 N 
BRANCH   32   31
ATOM    130  H31 UNL A   1      53.415  11.953  52.194  1.00  0.00    +0.000 H 
ATOM    131  H32 UNL A   1      51.828  12.504  51.645  1.00  0.00    +0.000 H 
ATOM     31  C28 UNL A   1      52.588  11.758  51.545  1.00  0.00    +0.000 C 
BRANCH   31   30
ATOM    129  H30 UNL A   1      51.144  10.626  52.557  1.00  0.00    +0.000 H 
ATOM     30  C27 UNL A   1      51.977  10.419  51.920  1.00  0.00    +0.000 C 
ATOM    128  H29 UNL A   1      52.728   9.829  52.402  1.00  0.00    +0.000 H 
BRANCH   30   29
ATOM     29  C26 UNL A   1      51.433   9.624  50.722  1.00  0.00    +0.000 C 
ATOM    126  H27 UNL A   1      50.727  10.247  50.213  1.00  0.00    +0.000 H 
ATOM    127  H28 UNL A   1      52.294   9.360  50.145  1.00  0.00    +0.000 H 
BRANCH   29   28
ATOM    124  H25 UNL A   1      50.106   8.441  51.889  1.00  0.00    +0.000 H 
ATOM     28  C25 UNL A   1      50.735   8.292  51.036  1.00  0.00    +0.000 C 
ATOM    125  H26 UNL A   1      50.201   8.024  50.147  1.00  0.00    +0.000 H 
BRANCH   28   27
ATOM    122  H23 UNL A   1      51.748   6.520  50.451  1.00  0.00    +0.000 H 
ATOM     27  C24 UNL A   1      51.664   7.115  51.337  1.00  0.00    +0.000 C 
ATOM    123  H24 UNL A   1      52.596   7.536  51.649  1.00  0.00    +0.000 H 
BRANCH   27   26
ATOM    121  H22 UNL A   1      50.931   6.838  53.299  1.00  0.00    +0.000 H 
ATOM     26  C23 UNL A   1      51.195   6.211  52.474  1.00  0.00    +0.000 C 
ATOM    120  H21 UNL A   1      51.989   5.539  52.728  1.00  0.00    +0.000 H 
BRANCH   26   25
ATOM     25  N1  UNL A   1      50.028   5.436  52.125  1.00  0.00    +0.000 N 
ATOM    119  H20 UNL A   1      50.201   4.618  51.605  1.00  0.00    +0.000 H 
BRANCH   25   23
ATOM     23  C22 UNL A   1      48.717   5.684  52.416  1.00  0.00    +0.000 C 
ATOM     24  O1  UNL A   1      48.457   6.115  53.542  1.00  0.00    +0.000 O 
BRANCH   23   22
ATOM    118  H19 UNL A   1      47.231   4.404  51.663  1.00  0.00    +0.000 H 
ATOM    117  H18 UNL A   1      48.035   5.402  50.429  1.00  0.00    +0.000 H 
ATOM     22  C21 UNL A   1      47.615   5.370  51.413  1.00  0.00    +0.000 C 
BRANCH   22   21
ATOM      2  C2  UNL A   1      46.705   9.549  49.667  1.00  0.00    +0.000 C 
ATOM     99  C74 UNL A   1      47.263   8.095  49.715  1.00  0.00    +0.000 C 
ATOM      4  C4  UNL A   1      45.205   9.391  50.086  1.00  0.00    +0.000 C 
ATOM      5  C5  UNL A   1      45.240   8.153  50.902  1.00  0.00    +0.000 C 
ATOM     98  N7  UNL A   1      46.392   7.449  50.688  1.00  0.00    +0.000 N 
ATOM      6  C6  UNL A   1      44.498   7.468  51.824  1.00  0.00    +0.000 C 
ATOM    106  H7  UNL A   1      44.573   9.274  49.230  1.00  0.00    +0.000 H 
ATOM    107  H8  UNL A   1      44.810  10.238  50.605  1.00  0.00    +0.000 H 
ATOM     13  C13 UNL A   1      45.259   6.296  52.175  1.00  0.00    +0.000 C 
ATOM    147  H48 UNL A   1      48.282   8.084  50.041  1.00  0.00    +0.000 H 
ATOM    148  H49 UNL A   1      47.266   7.612  48.761  1.00  0.00    +0.000 H 
ATOM     21  C20 UNL A   1      46.460   6.326  51.463  1.00  0.00    +0.000 C 
BRANCH    2    1
ATOM      1  C1  UNL A   1      46.855  10.155  48.273  1.00  0.00    +0.000 C 
ATOM    100  H1  UNL A   1      46.643   9.411  47.535  1.00  0.00    +0.000 H 
ATOM    101  H2  UNL A   1      47.855  10.511  48.145  1.00  0.00    +0.000 H 
ATOM    102  H3  UNL A   1      46.171  10.971  48.163  1.00  0.00    +0.000 H 
ENDBRANCH    2    1
BRANCH    2    3
ATOM    105  H6  UNL A   1      47.275  11.480  50.421  1.00  0.00    +0.000 H 
ATOM      3  C3  UNL A   1      47.435  10.454  50.679  1.00  0.00    +0.000 C 
ATOM    103  H4  UNL A   1      48.484  10.240  50.657  1.00  0.00    +0.000 H 
ATOM    104  H5  UNL A   1      47.054  10.269  51.662  1.00  0.00    +0.000 H 
ENDBRANCH    2    3
BRANCH    6    7
ATOM      7  C7  UNL A   1      43.185   7.828  52.312  1.00  0.00    +0.000 C 
ATOM      8  C8  UNL A   1      42.056   7.142  51.859  1.00  0.00    +0.000 C 
ATOM      9  C9  UNL A   1      40.846   7.283  52.537  1.00  0.00    +0.000 C 
ATOM     10  C10 UNL A   1      40.759   8.117  53.654  1.00  0.00    +0.000 C 
ATOM     11  C11 UNL A   1      41.868   8.852  54.069  1.00  0.00    +0.000 C 
ATOM     12  C12 UNL A   1      43.079   8.707  53.400  1.00  0.00    +0.000 C 
ATOM    108  H9  UNL A   1      42.117   6.535  51.026  1.00  0.00    +0.000 H 
ATOM    109  H10 UNL A   1      40.012   6.768  52.213  1.00  0.00    +0.000 H 
ATOM    111  H12 UNL A   1      41.790   9.501  54.869  1.00  0.00    +0.000 H 
ATOM    112  H13 UNL A   1      43.903   9.248  53.705  1.00  0.00    +0.000 H 
ATOM    110  H11 UNL A   1      39.871   8.190  54.175  1.00  0.00    +0.000 H 
ENDBRANCH    6    7
BRANCH   13   14
ATOM     14  C14 UNL A   1      44.826   5.244  53.088  1.00  0.00    +0.000 C 
ATOM     15  C15 UNL A   1      44.830   5.487  54.471  1.00  0.00    +0.000 C 
ATOM     16  C16 UNL A   1      44.583   4.451  55.374  1.00  0.00    +0.000 C 
ATOM    113  H14 UNL A   1      45.016   6.440  54.822  1.00  0.00    +0.000 H 
ATOM     17  C17 UNL A   1      44.317   3.169  54.898  1.00  0.00    +0.000 C 
ATOM     19  C18 UNL A   1      44.305   2.915  53.528  1.00  0.00    +0.000 C 
ATOM     20  C19 UNL A   1      44.577   3.948  52.627  1.00  0.00    +0.000 C 
ATOM    116  H17 UNL A   1      44.592   3.754  51.614  1.00  0.00    +0.000 H 
ATOM    114  H15 UNL A   1      44.596   4.634  56.390  1.00  0.00    +0.000 H 
ATOM    115  H16 UNL A   1      44.096   1.966  53.180  1.00  0.00    +0.000 H 
ATOM     18 Cl1  UNL A   1      44.035   1.885  56.007  1.00  0.00    +0.000 Cl
ENDBRANCH   13   14
ENDBRANCH   22   21
ENDBRANCH   23   22
ENDBRANCH   25   23
ENDBRANCH   26   25
ENDBRANCH   27   26
ENDBRANCH   28   27
ENDBRANCH   29   28
ENDBRANCH   30   29
ENDBRANCH   31   30
ENDBRANCH   32   31
ENDBRANCH   33   32
ENDBRANCH   35   33
ENDBRANCH   39   38
BRANCH   43   44
ATOM     44  C38 UNL A   1      44.390  15.485  43.366  1.00  0.00    +0.000 C 
ATOM     45  C39 UNL A   1      44.300  15.995  42.053  1.00  0.00    +0.000 C 
ATOM     46  F1  UNL A   1      45.271  16.774  41.553  1.00  0.00    +0.000 F 
ATOM     47  C40 UNL A   1      43.171  15.792  41.253  1.00  0.00    +0.000 C 
ATOM     48  F2  UNL A   1      43.078  16.403  40.065  1.00  0.00    +0.000 F 
ATOM     49  C41 UNL A   1      42.117  15.023  41.710  1.00  0.00    +0.000 C 
ATOM     50  F3  UNL A   1      41.009  14.878  40.972  1.00  0.00    +0.000 F 
ATOM     51  C42 UNL A   1      42.198  14.444  42.957  1.00  0.00    +0.000 C 
ATOM     52  F4  UNL A   1      41.181  13.706  43.424  1.00  0.00    +0.000 F 
ATOM     53  C43 UNL A   1      43.299  14.688  43.777  1.00  0.00    +0.000 C 
ATOM     54  F5  UNL A   1      43.195  14.202  45.018  1.00  0.00    +0.000 F 
ENDBRANCH   43   44
BRANCH   60   61
ATOM     65  F7  UNL A   1      43.975  22.119  51.141  1.00  0.00    +0.000 F 
ATOM     66  C52 UNL A   1      45.848  20.689  51.241  1.00  0.00    +0.000 C 
ATOM     67  F8  UNL A   1      46.351  21.394  52.265  1.00  0.00    +0.000 F 
ATOM     68  C53 UNL A   1      46.524  19.576  50.765  1.00  0.00    +0.000 C 
ATOM     69  F9  UNL A   1      47.671  19.192  51.343  1.00  0.00    +0.000 F 
ATOM     70  C54 UNL A   1      46.005  18.836  49.706  1.00  0.00    +0.000 C 
ATOM     71  F10 UNL A   1      46.676  17.754  49.282  1.00  0.00    +0.000 F 
ATOM     61  C49 UNL A   1      44.784  19.177  49.114  1.00  0.00    +0.000 C 
ATOM     62  C50 UNL A   1      44.101  20.290  49.637  1.00  0.00    +0.000 C 
ATOM     63  F6  UNL A   1      42.885  20.623  49.188  1.00  0.00    +0.000 F 
ATOM     64  C51 UNL A   1      44.640  21.053  50.673  1.00  0.00    +0.000 C 
ENDBRANCH   60   61
BRANCH   75   76
ATOM     76  C58 UNL A   1      42.595  13.893  51.632  1.00  0.00    +0.000 C 
ATOM     77  C59 UNL A   1      41.531  14.364  52.417  1.00  0.00    +0.000 C 
ATOM     78  F11 UNL A   1      41.451  15.666  52.726  1.00  0.00    +0.000 F 
ATOM     79  C60 UNL A   1      40.490  13.520  52.815  1.00  0.00    +0.000 C 
ATOM     80  F12 UNL A   1      39.461  14.007  53.523  1.00  0.00    +0.000 F 
ATOM     81  C61 UNL A   1      40.467  12.200  52.400  1.00  0.00    +0.000 C 
ATOM     82  F13 UNL A   1      39.431  11.406  52.702  1.00  0.00    +0.000 F 
ATOM     83  C62 UNL A   1      41.495  11.723  51.608  1.00  0.00    +0.000 C 
ATOM     84  F14 UNL A   1      41.395  10.512  51.057  1.00  0.00    +0.000 F 
ATOM     85  C63 UNL A   1      42.565  12.539  51.264  1.00  0.00    +0.000 C 
ATOM     86  F15 UNL A   1      43.504  12.030  50.452  1.00  0.00    +0.000 F 
ENDBRANCH   75   76
TORSDOF 20
ENDMDL
MODEL 5
REMARK VINA RESULT:      -8.6     34.625     40.594
ROOT
ATOM    135  H36 UNL A   1      23.635  27.485   1.582  1.00  0.00    +0.000 H 
ATOM    136  H37 UNL A   1      23.331  24.931   2.268  1.00  0.00    +0.000 H 
ATOM    137  H38 UNL A   1      19.701  26.630   1.748  1.00  0.00    +0.000 H 
ATOM    138  H39 UNL A   1      19.668  20.831  -4.050  1.00  0.00    +0.000 H 
ATOM    139  H40 UNL A   1      21.886  22.006  -4.495  1.00  0.00    +0.000 H 
ATOM    140  H41 UNL A   1      19.999  24.095  -1.445  1.00  0.00    +0.000 H 
ATOM    141  H42 UNL A   1      16.829  24.506  -1.091  1.00  0.00    +0.000 H 
ATOM    142  H43 UNL A   1      18.425  25.729   0.528  1.00  0.00    +0.000 H 
ATOM    143  H44 UNL A   1      21.311  29.103  -2.898  1.00  0.00    +0.000 H 
ATOM    144  H45 UNL A   1      21.256  27.099  -4.518  1.00  0.00    +0.000 H 
ATOM     39  C34 UNL A   1      22.035  24.639  -3.257  1.00  0.00    +0.000 C 
ATOM     40  C35 UNL A   1      21.795  25.964  -2.626  1.00  0.00    +0.000 C 
ATOM     41  N3  UNL A   1      21.972  26.301  -1.391  1.00  0.00    +0.000 N 
ATOM     42  C36 UNL A   1      21.554  27.627  -1.289  1.00  0.00    +0.000 C 
ATOM     43  C37 UNL A   1      21.131  28.141  -0.100  1.00  0.00    +0.000 C 
ATOM     55  C44 UNL A   1      21.553  27.308   0.998  1.00  0.00    +0.000 C 
ATOM     56  C45 UNL A   1      22.778  26.917   1.503  1.00  0.00    +0.000 C 
ATOM     57  C46 UNL A   1      22.600  25.556   1.892  1.00  0.00    +0.000 C 
ATOM     58  C47 UNL A   1      21.265  25.219   1.674  1.00  0.00    +0.000 C 
ATOM     59  N4  UNL A   1      20.638  26.429   1.522  1.00  0.00    +0.000 N 
ATOM     60  C48 UNL A   1      20.593  23.953   1.526  1.00  0.00    +0.000 C 
ATOM     72  C55 UNL A   1      19.383  23.779   0.922  1.00  0.00    +0.000 C 
ATOM     73  N5  UNL A   1      19.007  22.532   0.448  1.00  0.00    +0.000 N 
ATOM     74  C56 UNL A   1      18.201  22.792  -0.542  1.00  0.00    +0.000 C 
ATOM     75  C57 UNL A   1      18.217  22.031  -1.811  1.00  0.00    +0.000 C 
ATOM     87  C64 UNL A   1      19.371  22.335  -2.454  1.00  0.00    +0.000 C 
ATOM     88  C65 UNL A   1      20.019  21.668  -3.558  1.00  0.00    +0.000 C 
ATOM     89  C66 UNL A   1      21.161  22.329  -3.835  1.00  0.00    +0.000 C 
ATOM     90  C67 UNL A   1      21.220  23.577  -3.061  1.00  0.00    +0.000 C 
ATOM     91  N6  UNL A   1      20.172  23.464  -2.180  1.00  0.00    +0.000 N 
ATOM     92  C68 UNL A   1      17.629  24.128  -0.561  1.00  0.00    +0.000 C 
ATOM     93  C69 UNL A   1      18.449  24.722   0.311  1.00  0.00    +0.000 C 
ATOM     94  C70 UNL A   1      21.415  28.110  -2.637  1.00  0.00    +0.000 C 
ATOM     95  C71 UNL A   1      21.439  27.095  -3.502  1.00  0.00    +0.000 C 
ENDROOT
BRANCH   39   38
ATOM     97  C73 UNL A   1      25.238  23.975  -4.956  1.00  0.00    +0.000 C 
ATOM     35  C30 UNL A   1      24.990  24.444  -6.241  1.00  0.00    +0.000 C 
ATOM     36  C31 UNL A   1      23.800  25.115  -6.543  1.00  0.00    +0.000 C 
ATOM    133  H34 UNL A   1      23.642  25.506  -7.485  1.00  0.00    +0.000 H 
ATOM     37  C32 UNL A   1      22.833  25.243  -5.549  1.00  0.00    +0.000 C 
ATOM     38  C33 UNL A   1      23.050  24.634  -4.304  1.00  0.00    +0.000 C 
ATOM    134  H35 UNL A   1      21.969  25.779  -5.726  1.00  0.00    +0.000 H 
ATOM    145  H46 UNL A   1      24.319  23.385  -3.176  1.00  0.00    +0.000 H 
ATOM    146  H47 UNL A   1      26.185  23.662  -4.692  1.00  0.00    +0.000 H 
ATOM     96  C72 UNL A   1      24.220  23.932  -4.044  1.00  0.00    +0.000 C 
BRANCH   35   33
ATOM     33  C29 UNL A   1      26.007  24.171  -7.276  1.00  0.00    +0.000 C 
ATOM     34  O2  UNL A   1      25.744  23.487  -8.239  1.00  0.00    +0.000 O 
BRANCH   33   32
ATOM    132  H33 UNL A   1      27.872  24.265  -6.482  1.00  0.00    +0.000 H 
ATOM     32  N2  UNL A   1      27.269  24.727  -7.106  1.00  0.00    +0.000 N 
BRANCH   32   31
ATOM    130  H31 UNL A   1      28.517  26.380  -7.112  1.00  0.00    +0.000 H 
ATOM    131  H32 UNL A   1      28.236  25.627  -8.686  1.00  0.00    +0.000 H 
ATOM     31  C28 UNL A   1      27.796  25.926  -7.758  1.00  0.00    +0.000 C 
BRANCH   31   30
ATOM    129  H30 UNL A   1      27.137  27.909  -7.927  1.00  0.00    +0.000 H 
ATOM     30  C27 UNL A   1      26.707  26.940  -8.066  1.00  0.00    +0.000 C 
ATOM    128  H29 UNL A   1      25.882  26.757  -7.410  1.00  0.00    +0.000 H 
BRANCH   30   29
ATOM     29  C26 UNL A   1      26.194  26.885  -9.514  1.00  0.00    +0.000 C 
ATOM    126  H27 UNL A   1      26.681  27.667 -10.060  1.00  0.00    +0.000 H 
ATOM    127  H28 UNL A   1      26.418  25.895  -9.855  1.00  0.00    +0.000 H 
BRANCH   29   28
ATOM    124  H25 UNL A   1      24.188  26.262  -9.186  1.00  0.00    +0.000 H 
ATOM     28  C25 UNL A   1      24.680  27.049  -9.718  1.00  0.00    +0.000 C 
ATOM    125  H26 UNL A   1      24.441  28.029  -9.360  1.00  0.00    +0.000 H 
BRANCH   28   27
ATOM    122  H23 UNL A   1      23.967  28.003 -11.475  1.00  0.00    +0.000 H 
ATOM     27  C24 UNL A   1      24.202  27.005 -11.171  1.00  0.00    +0.000 C 
ATOM    123  H24 UNL A   1      24.997  26.570 -11.739  1.00  0.00    +0.000 H 
BRANCH   27   26
ATOM    121  H22 UNL A   1      22.877  25.988 -12.463  1.00  0.00    +0.000 H 
ATOM     26  C23 UNL A   1      22.972  26.133 -11.408  1.00  0.00    +0.000 C 
ATOM    120  H21 UNL A   1      22.116  26.628 -10.999  1.00  0.00    +0.000 H 
BRANCH   26   25
ATOM     25  N1  UNL A   1      23.087  24.830 -10.797  1.00  0.00    +0.000 N 
ATOM    119  H20 UNL A   1      22.742  24.759  -9.878  1.00  0.00    +0.000 H 
BRANCH   25   23
ATOM     23  C22 UNL A   1      23.610  23.682 -11.322  1.00  0.00    +0.000 C 
ATOM     24  O1  UNL A   1      24.141  23.755 -12.433  1.00  0.00    +0.000 O 
BRANCH   23   22
ATOM    118  H19 UNL A   1      22.431  22.140 -10.517  1.00  0.00    +0.000 H 
ATOM    117  H18 UNL A   1      23.947  22.442  -9.636  1.00  0.00    +0.000 H 
ATOM     22  C21 UNL A   1      23.477  22.351 -10.593  1.00  0.00    +0.000 C 
BRANCH   22   21
ATOM      2  C2  UNL A   1      21.951  18.899 -13.254  1.00  0.00    +0.000 C 
ATOM     99  C74 UNL A   1      22.039  20.340 -12.671  1.00  0.00    +0.000 C 
ATOM      4  C4  UNL A   1      23.426  18.565 -13.657  1.00  0.00    +0.000 C 
ATOM      5  C5  UNL A   1      24.202  19.435 -12.740  1.00  0.00    +0.000 C 
ATOM     98  N7  UNL A   1      23.415  20.412 -12.197  1.00  0.00    +0.000 N 
ATOM      6  C6  UNL A   1      25.464  19.588 -12.236  1.00  0.00    +0.000 C 
ATOM    106  H7  UNL A   1      23.615  18.813 -14.681  1.00  0.00    +0.000 H 
ATOM    107  H8  UNL A   1      23.671  17.527 -13.576  1.00  0.00    +0.000 H 
ATOM     13  C13 UNL A   1      25.414  20.717 -11.342  1.00  0.00    +0.000 C 
ATOM    147  H48 UNL A   1      21.346  20.473 -11.866  1.00  0.00    +0.000 H 
ATOM    148  H49 UNL A   1      21.794  21.100 -13.382  1.00  0.00    +0.000 H 
ATOM     21  C20 UNL A   1      24.104  21.197 -11.318  1.00  0.00    +0.000 C 
BRANCH    2    1
ATOM      1  C1  UNL A   1      20.999  18.840 -14.448  1.00  0.00    +0.000 C 
ATOM    100  H1  UNL A   1      20.604  19.816 -14.638  1.00  0.00    +0.000 H 
ATOM    101  H2  UNL A   1      20.197  18.167 -14.232  1.00  0.00    +0.000 H 
ATOM    102  H3  UNL A   1      21.530  18.497 -15.311  1.00  0.00    +0.000 H 
ENDBRANCH    2    1
BRANCH    2    3
ATOM    105  H6  UNL A   1      20.431  17.677 -12.351  1.00  0.00    +0.000 H 
ATOM      3  C3  UNL A   1      21.464  17.899 -12.187  1.00  0.00    +0.000 C 
ATOM    103  H4  UNL A   1      21.586  18.329 -11.214  1.00  0.00    +0.000 H 
ATOM    104  H5  UNL A   1      22.039  16.999 -12.253  1.00  0.00    +0.000 H 
ENDBRANCH    2    3
BRANCH    6    7
ATOM      7  C7  UNL A   1      26.628  18.799 -12.573  1.00  0.00    +0.000 C 
ATOM      8  C8  UNL A   1      27.450  19.181 -13.636  1.00  0.00    +0.000 C 
ATOM      9  C9  UNL A   1      28.711  18.604 -13.773  1.00  0.00    +0.000 C 
ATOM     10  C10 UNL A   1      29.145  17.638 -12.862  1.00  0.00    +0.000 C 
ATOM     11  C11 UNL A   1      28.302  17.208 -11.839  1.00  0.00    +0.000 C 
ATOM     12  C12 UNL A   1      27.045  17.789 -11.694  1.00  0.00    +0.000 C 
ATOM    108  H9  UNL A   1      27.124  19.886 -14.316  1.00  0.00    +0.000 H 
ATOM    109  H10 UNL A   1      29.327  18.892 -14.550  1.00  0.00    +0.000 H 
ATOM    111  H12 UNL A   1      28.608  16.464 -11.193  1.00  0.00    +0.000 H 
ATOM    112  H13 UNL A   1      26.418  17.476 -10.938  1.00  0.00    +0.000 H 
ATOM    110  H11 UNL A   1      30.094  17.240 -12.946  1.00  0.00    +0.000 H 
ENDBRANCH    6    7
BRANCH   13   14
ATOM     14  C14 UNL A   1      26.550  21.279 -10.620  1.00  0.00    +0.000 C 
ATOM     15  C15 UNL A   1      27.247  22.367 -11.168  1.00  0.00    +0.000 C 
ATOM     16  C16 UNL A   1      28.434  22.816 -10.585  1.00  0.00    +0.000 C 
ATOM    113  H14 UNL A   1      26.878  22.839 -12.008  1.00  0.00    +0.000 H 
ATOM     17  C17 UNL A   1      28.923  22.187  -9.442  1.00  0.00    +0.000 C 
ATOM     19  C18 UNL A   1      28.239  21.109  -8.884  1.00  0.00    +0.000 C 
ATOM     20  C19 UNL A   1      27.064  20.646  -9.484  1.00  0.00    +0.000 C 
ATOM    116  H17 UNL A   1      26.572  19.832  -9.084  1.00  0.00    +0.000 H 
ATOM    114  H15 UNL A   1      28.947  23.611 -10.999  1.00  0.00    +0.000 H 
ATOM    115  H16 UNL A   1      28.599  20.654  -8.031  1.00  0.00    +0.000 H 
ATOM     18 Cl1  UNL A   1      30.397  22.723  -8.734  1.00  0.00    +0.000 Cl
ENDBRANCH   13   14
ENDBRANCH   22   21
ENDBRANCH   23   22
ENDBRANCH   25   23
ENDBRANCH   26   25
ENDBRANCH   27   26
ENDBRANCH   28   27
ENDBRANCH   29   28
ENDBRANCH   30   29
ENDBRANCH   31   30
ENDBRANCH   32   31
ENDBRANCH   33   32
ENDBRANCH   35   33
ENDBRANCH   39   38
BRANCH   43   44
ATOM     44  C38 UNL A   1      20.041  29.179   0.054  1.00  0.00    +0.000 C 
ATOM     45  C39 UNL A   1      20.024  29.986   1.211  1.00  0.00    +0.000 C 
ATOM     46  F1  UNL A   1      21.082  30.025   2.035  1.00  0.00    +0.000 F 
ATOM     47  C40 UNL A   1      18.888  30.704   1.599  1.00  0.00    +0.000 C 
ATOM     48  F2  UNL A   1      18.879  31.352   2.771  1.00  0.00    +0.000 F 
ATOM     49  C41 UNL A   1      17.750  30.692   0.816  1.00  0.00    +0.000 C 
ATOM     50  F3  UNL A   1      16.640  31.327   1.216  1.00  0.00    +0.000 F 
ATOM     51  C42 UNL A   1      17.751  29.977  -0.361  1.00  0.00    +0.000 C 
ATOM     52  F4  UNL A   1      16.651  29.940  -1.128  1.00  0.00    +0.000 F 
ATOM     53  C43 UNL A   1      18.862  29.217  -0.723  1.00  0.00    +0.000 C 
ATOM     54  F5  UNL A   1      18.691  28.446  -1.802  1.00  0.00    +0.000 F 
ENDBRANCH   43   44
BRANCH   60   61
ATOM     65  F7  UNL A   1      23.739  20.310   0.406  1.00  0.00    +0.000 F 
ATOM     66  C52 UNL A   1      22.979  20.524   2.629  1.00  0.00    +0.000 C 
ATOM     67  F8  UNL A   1      23.750  19.496   3.008  1.00  0.00    +0.000 F 
ATOM     68  C53 UNL A   1      22.200  21.192   3.563  1.00  0.00    +0.000 C 
ATOM     69  F9  UNL A   1      22.236  20.821   4.850  1.00  0.00    +0.000 F 
ATOM     70  C54 UNL A   1      21.402  22.265   3.176  1.00  0.00    +0.000 C 
ATOM     71  F10 UNL A   1      20.676  22.900   4.109  1.00  0.00    +0.000 F 
ATOM     61  C49 UNL A   1      21.382  22.713   1.851  1.00  0.00    +0.000 C 
ATOM     62  C50 UNL A   1      22.205  22.041   0.930  1.00  0.00    +0.000 C 
ATOM     63  F6  UNL A   1      22.312  22.467  -0.334  1.00  0.00    +0.000 F 
ATOM     64  C51 UNL A   1      22.976  20.942   1.310  1.00  0.00    +0.000 C 
ENDBRANCH   60   61
BRANCH   75   76
ATOM     76  C58 UNL A   1      16.968  21.525  -2.409  1.00  0.00    +0.000 C 
ATOM     77  C59 UNL A   1      16.192  20.544  -1.773  1.00  0.00    +0.000 C 
ATOM     78  F11 UNL A   1      16.699  19.853  -0.742  1.00  0.00    +0.000 F 
ATOM     79  C60 UNL A   1      14.857  20.328  -2.128  1.00  0.00    +0.000 C 
ATOM     80  F12 UNL A   1      14.124  19.420  -1.470  1.00  0.00    +0.000 F 
ATOM     81  C61 UNL A   1      14.257  21.117  -3.094  1.00  0.00    +0.000 C 
ATOM     82  F13 UNL A   1      12.955  20.978  -3.379  1.00  0.00    +0.000 F 
ATOM     83  C62 UNL A   1      14.999  22.103  -3.717  1.00  0.00    +0.000 C 
ATOM     84  F14 UNL A   1      14.390  22.982  -4.515  1.00  0.00    +0.000 F 
ATOM     85  C63 UNL A   1      16.344  22.279  -3.416  1.00  0.00    +0.000 C 
ATOM     86  F15 UNL A   1      16.994  23.286  -4.020  1.00  0.00    +0.000 F 
ENDBRANCH   75   76
TORSDOF 20
ENDMDL
MODEL 6
REMARK VINA RESULT:      -8.6     35.245     41.189
ROOT
ATOM    135  H36 UNL A   1      23.865  27.295   1.558  1.00  0.00    +0.000 H 
ATOM    136  H37 UNL A   1      23.557  24.740   2.242  1.00  0.00    +0.000 H 
ATOM    137  H38 UNL A   1      19.929  26.470   1.817  1.00  0.00    +0.000 H 
ATOM    138  H39 UNL A   1      19.709  20.692  -3.998  1.00  0.00    +0.000 H 
ATOM    139  H40 UNL A   1      21.924  21.851  -4.493  1.00  0.00    +0.000 H 
ATOM    140  H41 UNL A   1      20.129  23.944  -1.391  1.00  0.00    +0.000 H 
ATOM    141  H42 UNL A   1      16.972  24.379  -0.958  1.00  0.00    +0.000 H 
ATOM    142  H43 UNL A   1      18.616  25.584   0.626  1.00  0.00    +0.000 H 
ATOM    143  H44 UNL A   1      21.445  28.947  -2.858  1.00  0.00    +0.000 H 
ATOM    144  H45 UNL A   1      21.335  26.949  -4.483  1.00  0.00    +0.000 H 
ATOM     39  C34 UNL A   1      22.125  24.478  -3.250  1.00  0.00    +0.000 C 
ATOM     40  C35 UNL A   1      21.911  25.803  -2.609  1.00  0.00    +0.000 C 
ATOM     41  N3  UNL A   1      22.121  26.135  -1.378  1.00  0.00    +0.000 N 
ATOM     42  C36 UNL A   1      21.716  27.463  -1.261  1.00  0.00    +0.000 C 
ATOM     43  C37 UNL A   1      21.326  27.976  -0.061  1.00  0.00    +0.000 C 
ATOM     55  C44 UNL A   1      21.767  27.136   1.025  1.00  0.00    +0.000 C 
ATOM     56  C45 UNL A   1      23.001  26.733   1.498  1.00  0.00    +0.000 C 
ATOM     57  C46 UNL A   1      22.822  25.373   1.887  1.00  0.00    +0.000 C 
ATOM     58  C47 UNL A   1      21.480  25.047   1.700  1.00  0.00    +0.000 C 
ATOM     59  N4  UNL A   1      20.858  26.262   1.568  1.00  0.00    +0.000 N 
ATOM     60  C48 UNL A   1      20.794  23.786   1.564  1.00  0.00    +0.000 C 
ATOM     72  C55 UNL A   1      19.568  23.624   0.989  1.00  0.00    +0.000 C 
ATOM     73  N5  UNL A   1      19.171  22.383   0.520  1.00  0.00    +0.000 N 
ATOM     74  C56 UNL A   1      18.344  22.652  -0.449  1.00  0.00    +0.000 C 
ATOM     75  C57 UNL A   1      18.322  21.895  -1.721  1.00  0.00    +0.000 C 
ATOM     87  C64 UNL A   1      19.463  22.193  -2.390  1.00  0.00    +0.000 C 
ATOM     88  C65 UNL A   1      20.078  21.525  -3.512  1.00  0.00    +0.000 C 
ATOM     89  C66 UNL A   1      21.218  22.178  -3.815  1.00  0.00    +0.000 C 
ATOM     90  C67 UNL A   1      21.306  23.422  -3.038  1.00  0.00    +0.000 C 
ATOM     91  N6  UNL A   1      20.279  23.314  -2.132  1.00  0.00    +0.000 N 
ATOM     92  C68 UNL A   1      17.782  23.992  -0.450  1.00  0.00    +0.000 C 
ATOM     93  C69 UNL A   1      18.627  24.577   0.404  1.00  0.00    +0.000 C 
ATOM     94  C70 UNL A   1      21.547  27.952  -2.604  1.00  0.00    +0.000 C 
ATOM     95  C71 UNL A   1      21.542  26.939  -3.472  1.00  0.00    +0.000 C 
ENDROOT
BRANCH   39   38
ATOM     97  C73 UNL A   1      23.580  24.925  -6.607  1.00  0.00    +0.000 C 
ATOM     35  C30 UNL A   1      24.919  24.627  -6.387  1.00  0.00    +0.000 C 
ATOM     36  C31 UNL A   1      25.353  24.140  -5.150  1.00  0.00    +0.000 C 
ATOM    133  H34 UNL A   1      26.339  23.871  -5.007  1.00  0.00    +0.000 H 
ATOM     37  C32 UNL A   1      24.428  24.026  -4.114  1.00  0.00    +0.000 C 
ATOM     38  C33 UNL A   1      23.113  24.470  -4.321  1.00  0.00    +0.000 C 
ATOM    134  H35 UNL A   1      24.706  23.619  -3.207  1.00  0.00    +0.000 H 
ATOM    145  H46 UNL A   1      21.792  25.432  -5.653  1.00  0.00    +0.000 H 
ATOM    146  H47 UNL A   1      23.236  25.093  -7.565  1.00  0.00    +0.000 H 
ATOM     96  C72 UNL A   1      22.720  24.995  -5.546  1.00  0.00    +0.000 C 
BRANCH   35   33
ATOM     33  C29 UNL A   1      25.866  24.882  -7.491  1.00  0.00    +0.000 C 
ATOM     34  O2  UNL A   1      25.642  24.474  -8.608  1.00  0.00    +0.000 O 
BRANCH   33   32
ATOM    132  H33 UNL A   1      26.907  26.394  -6.626  1.00  0.00    +0.000 H 
ATOM     32  N2  UNL A   1      27.017  25.605  -7.202  1.00  0.00    +0.000 N 
BRANCH   32   31
ATOM    130  H31 UNL A   1      28.347  24.462  -8.304  1.00  0.00    +0.000 H 
ATOM    131  H32 UNL A   1      28.736  26.182  -8.180  1.00  0.00    +0.000 H 
ATOM     31  C28 UNL A   1      28.375  25.317  -7.663  1.00  0.00    +0.000 C 
BRANCH   31   30
ATOM    129  H30 UNL A   1      29.359  25.920  -5.913  1.00  0.00    +0.000 H 
ATOM     30  C27 UNL A   1      29.325  25.034  -6.512  1.00  0.00    +0.000 C 
ATOM    128  H29 UNL A   1      30.280  24.777  -6.920  1.00  0.00    +0.000 H 
BRANCH   30   29
ATOM     29  C26 UNL A   1      28.869  23.891  -5.592  1.00  0.00    +0.000 C 
ATOM    126  H27 UNL A   1      29.454  23.943  -4.696  1.00  0.00    +0.000 H 
ATOM    127  H28 UNL A   1      27.820  24.046  -5.450  1.00  0.00    +0.000 H 
BRANCH   29   28
ATOM    124  H25 UNL A   1      29.550  22.513  -7.060  1.00  0.00    +0.000 H 
ATOM     28  C25 UNL A   1      28.995  22.464  -6.146  1.00  0.00    +0.000 C 
ATOM    125  H26 UNL A   1      29.475  21.893  -5.379  1.00  0.00    +0.000 H 
BRANCH   28   27
ATOM    122  H23 UNL A   1      27.465  21.090  -5.620  1.00  0.00    +0.000 H 
ATOM     27  C24 UNL A   1      27.673  21.750  -6.436  1.00  0.00    +0.000 C 
ATOM    123  H24 UNL A   1      26.935  22.515  -6.555  1.00  0.00    +0.000 H 
BRANCH   27   26
ATOM    121  H22 UNL A   1      27.032  21.439  -8.424  1.00  0.00    +0.000 H 
ATOM     26  C23 UNL A   1      27.663  20.932  -7.725  1.00  0.00    +0.000 C 
ATOM    120  H21 UNL A   1      27.300  19.950  -7.505  1.00  0.00    +0.000 H 
BRANCH   26   25
ATOM     25  N1  UNL A   1      28.972  20.818  -8.322  1.00  0.00    +0.000 N 
ATOM    119  H20 UNL A   1      29.634  21.484  -8.026  1.00  0.00    +0.000 H 
BRANCH   25   23
ATOM     23  C22 UNL A   1      29.417  19.912  -9.243  1.00  0.00    +0.000 C 
ATOM     24  O1  UNL A   1      29.848  18.836  -8.820  1.00  0.00    +0.000 O 
BRANCH   23   22
ATOM    118  H19 UNL A   1      28.566  19.827 -11.162  1.00  0.00    +0.000 H 
ATOM    117  H18 UNL A   1      30.345  19.846 -11.148  1.00  0.00    +0.000 H 
ATOM     22  C21 UNL A   1      29.447  20.250 -10.728  1.00  0.00    +0.000 C 
BRANCH   22   21
ATOM      2  C2  UNL A   1      32.351  23.796 -10.159  1.00  0.00    +0.000 C 
ATOM     99  C74 UNL A   1      31.895  22.342 -10.483  1.00  0.00    +0.000 C 
ATOM      4  C4  UNL A   1      31.427  24.689 -11.054  1.00  0.00    +0.000 C 
ATOM      5  C5  UNL A   1      30.235  23.824 -11.227  1.00  0.00    +0.000 C 
ATOM     98  N7  UNL A   1      30.510  22.525 -10.901  1.00  0.00    +0.000 N 
ATOM      6  C6  UNL A   1      28.922  23.889 -11.602  1.00  0.00    +0.000 C 
ATOM    106  H7  UNL A   1      31.889  24.907 -11.993  1.00  0.00    +0.000 H 
ATOM    107  H8  UNL A   1      31.207  25.645 -10.627  1.00  0.00    +0.000 H 
ATOM     13  C13 UNL A   1      28.395  22.553 -11.486  1.00  0.00    +0.000 C 
ATOM    147  H48 UNL A   1      31.958  21.717  -9.617  1.00  0.00    +0.000 H 
ATOM    148  H49 UNL A   1      32.502  21.863 -11.222  1.00  0.00    +0.000 H 
ATOM     21  C20 UNL A   1      29.412  21.722 -11.015  1.00  0.00    +0.000 C 
BRANCH    2    1
ATOM      1  C1  UNL A   1      33.832  23.997 -10.478  1.00  0.00    +0.000 C 
ATOM    100  H1  UNL A   1      34.184  23.179 -11.071  1.00  0.00    +0.000 H 
ATOM    101  H2  UNL A   1      34.389  24.043  -9.567  1.00  0.00    +0.000 H 
ATOM    102  H3  UNL A   1      33.959  24.911 -11.020  1.00  0.00    +0.000 H 
ENDBRANCH    2    1
BRANCH    2    3
ATOM    105  H6  UNL A   1      32.904  23.708  -8.084  1.00  0.00    +0.000 H 
ATOM      3  C3  UNL A   1      32.117  24.130  -8.673  1.00  0.00    +0.000 C 
ATOM    103  H4  UNL A   1      31.178  23.722  -8.360  1.00  0.00    +0.000 H 
ATOM    104  H5  UNL A   1      32.105  25.192  -8.544  1.00  0.00    +0.000 H 
ENDBRANCH    2    3
BRANCH    6    7
ATOM      7  C7  UNL A   1      28.216  25.062 -12.070  1.00  0.00    +0.000 C 
ATOM      8  C8  UNL A   1      28.211  25.381 -13.429  1.00  0.00    +0.000 C 
ATOM      9  C9  UNL A   1      27.304  26.322 -13.913  1.00  0.00    +0.000 C 
ATOM     10  C10 UNL A   1      26.416  26.955 -13.040  1.00  0.00    +0.000 C 
ATOM     11  C11 UNL A   1      26.462  26.685 -11.673  1.00  0.00    +0.000 C 
ATOM     12  C12 UNL A   1      27.360  25.739 -11.189  1.00  0.00    +0.000 C 
ATOM    108  H9  UNL A   1      28.877  24.923 -14.072  1.00  0.00    +0.000 H 
ATOM    109  H10 UNL A   1      27.289  26.553 -14.919  1.00  0.00    +0.000 H 
ATOM    111  H12 UNL A   1      25.833  27.185 -11.025  1.00  0.00    +0.000 H 
ATOM    112  H13 UNL A   1      27.397  25.535 -10.179  1.00  0.00    +0.000 H 
ATOM    110  H11 UNL A   1      25.721  27.624 -13.407  1.00  0.00    +0.000 H 
ENDBRANCH    6    7
BRANCH   13   14
ATOM     14  C14 UNL A   1      27.040  22.140 -11.837  1.00  0.00    +0.000 C 
ATOM     15  C15 UNL A   1      26.671  22.064 -13.188  1.00  0.00    +0.000 C 
ATOM     16  C16 UNL A   1      25.341  21.836 -13.549  1.00  0.00    +0.000 C 
ATOM    113  H14 UNL A   1      27.389  22.176 -13.922  1.00  0.00    +0.000 H 
ATOM     17  C17 UNL A   1      24.376  21.670 -12.558  1.00  0.00    +0.000 C 
ATOM     19  C18 UNL A   1      24.730  21.738 -11.212  1.00  0.00    +0.000 C 
ATOM     20  C19 UNL A   1      26.056  21.990 -10.855  1.00  0.00    +0.000 C 
ATOM    116  H17 UNL A   1      26.313  22.065  -9.857  1.00  0.00    +0.000 H 
ATOM    114  H15 UNL A   1      25.074  21.790 -14.545  1.00  0.00    +0.000 H 
ATOM    115  H16 UNL A   1      24.013  21.602 -10.482  1.00  0.00    +0.000 H 
ATOM     18 Cl1  UNL A   1      22.732  21.412 -12.998  1.00  0.00    +0.000 Cl
ENDBRANCH   13   14
ENDBRANCH   22   21
ENDBRANCH   23   22
ENDBRANCH   25   23
ENDBRANCH   26   25
ENDBRANCH   27   26
ENDBRANCH   28   27
ENDBRANCH   29   28
ENDBRANCH   30   29
ENDBRANCH   31   30
ENDBRANCH   32   31
ENDBRANCH   33   32
ENDBRANCH   35   33
ENDBRANCH   39   38
BRANCH   43   44
ATOM     44  C38 UNL A   1      20.248  29.022   0.124  1.00  0.00    +0.000 C 
ATOM     45  C39 UNL A   1      18.951  28.762  -0.367  1.00  0.00    +0.000 C 
ATOM     46  F1  UNL A   1      18.600  27.527  -0.755  1.00  0.00    +0.000 F 
ATOM     47  C40 UNL A   1      18.011  29.780  -0.555  1.00  0.00    +0.000 C 
ATOM     48  F2  UNL A   1      16.840  29.504  -1.143  1.00  0.00    +0.000 F 
ATOM     49  C41 UNL A   1      18.308  31.083  -0.204  1.00  0.00    +0.000 C 
ATOM     50  F3  UNL A   1      17.434  32.070  -0.441  1.00  0.00    +0.000 F 
ATOM     51  C42 UNL A   1      19.537  31.366   0.349  1.00  0.00    +0.000 C 
ATOM     52  F4  UNL A   1      19.851  32.627   0.683  1.00  0.00    +0.000 F 
ATOM     53  C43 UNL A   1      20.496  30.364   0.488  1.00  0.00    +0.000 C 
ATOM     54  F5  UNL A   1      21.699  30.786   0.892  1.00  0.00    +0.000 F 
ENDBRANCH   43   44
BRANCH   60   61
ATOM     65  F7  UNL A   1      23.780  20.050   0.321  1.00  0.00    +0.000 F 
ATOM     66  C52 UNL A   1      23.188  20.339   2.587  1.00  0.00    +0.000 C 
ATOM     67  F8  UNL A   1      23.965  19.305   2.938  1.00  0.00    +0.000 F 
ATOM     68  C53 UNL A   1      22.492  21.047   3.555  1.00  0.00    +0.000 C 
ATOM     69  F9  UNL A   1      22.614  20.709   4.846  1.00  0.00    +0.000 F 
ATOM     70  C54 UNL A   1      21.688  22.126   3.198  1.00  0.00    +0.000 C 
ATOM     71  F10 UNL A   1      21.044  22.800   4.163  1.00  0.00    +0.000 F 
ATOM     61  C49 UNL A   1      21.580  22.539   1.866  1.00  0.00    +0.000 C 
ATOM     62  C50 UNL A   1      22.322  21.826   0.907  1.00  0.00    +0.000 C 
ATOM     63  F6  UNL A   1      22.345  22.217  -0.373  1.00  0.00    +0.000 F 
ATOM     64  C51 UNL A   1      23.097  20.722   1.260  1.00  0.00    +0.000 C 
ENDBRANCH   60   61
BRANCH   75   76
ATOM     76  C58 UNL A   1      17.055  21.402  -2.290  1.00  0.00    +0.000 C 
ATOM     77  C59 UNL A   1      16.261  20.463  -1.613  1.00  0.00    +0.000 C 
ATOM     78  F11 UNL A   1      16.760  19.795  -0.563  1.00  0.00    +0.000 F 
ATOM     79  C60 UNL A   1      14.917  20.269  -1.948  1.00  0.00    +0.000 C 
ATOM     80  F12 UNL A   1      14.168  19.403  -1.253  1.00  0.00    +0.000 F 
ATOM     81  C61 UNL A   1      14.328  21.040  -2.936  1.00  0.00    +0.000 C 
ATOM     82  F13 UNL A   1      13.020  20.924  -3.204  1.00  0.00    +0.000 F 
ATOM     83  C62 UNL A   1      15.088  21.985  -3.599  1.00  0.00    +0.000 C 
ATOM     84  F14 UNL A   1      14.494  22.851  -4.421  1.00  0.00    +0.000 F 
ATOM     85  C63 UNL A   1      16.441  22.136  -3.316  1.00  0.00    +0.000 C 
ATOM     86  F15 UNL A   1      17.110  23.105  -3.960  1.00  0.00    +0.000 F 
ENDBRANCH   75   76
TORSDOF 20
ENDMDL
MODEL 7
REMARK VINA RESULT:      -8.5     16.929     23.967
ROOT
ATOM    135  H36 UNL A   1       1.324   5.532  36.914  1.00  0.00    +0.000 H 
ATOM    136  H37 UNL A   1       3.963   5.660  37.242  1.00  0.00    +0.000 H 
ATOM    137  H38 UNL A   1       2.679   8.976  35.321  1.00  0.00    +0.000 H 
ATOM    138  H39 UNL A   1       5.778  12.146  42.220  1.00  0.00    +0.000 H 
ATOM    139  H40 UNL A   1       4.246  10.320  43.122  1.00  0.00    +0.000 H 
ATOM    140  H41 UNL A   1       3.742  10.397  39.003  1.00  0.00    +0.000 H 
ATOM    141  H42 UNL A   1       3.911  12.989  37.108  1.00  0.00    +0.000 H 
ATOM    142  H43 UNL A   1       3.203  10.736  36.064  1.00  0.00    +0.000 H 
ATOM    143  H44 UNL A   1      -1.566   9.566  38.774  1.00  0.00    +0.000 H 
ATOM    144  H45 UNL A   1      -0.343  10.520  40.833  1.00  0.00    +0.000 H 
ATOM     39  C34 UNL A   1       2.290   9.417  41.161  1.00  0.00    +0.000 C 
ATOM     40  C35 UNL A   1       1.348   9.237  40.024  1.00  0.00    +0.000 C 
ATOM     41  N3  UNL A   1       1.488   8.477  38.989  1.00  0.00    +0.000 N 
ATOM     42  C36 UNL A   1       0.368   8.702  38.191  1.00  0.00    +0.000 C 
ATOM     43  C37 UNL A   1       0.406   8.479  36.847  1.00  0.00    +0.000 C 
ATOM     55  C44 UNL A   1       1.533   7.651  36.496  1.00  0.00    +0.000 C 
ATOM     56  C45 UNL A   1       1.925   6.363  36.810  1.00  0.00    +0.000 C 
ATOM     57  C46 UNL A   1       3.342   6.435  36.959  1.00  0.00    +0.000 C 
ATOM     58  C47 UNL A   1       3.740   7.735  36.655  1.00  0.00    +0.000 C 
ATOM     59  N4  UNL A   1       2.656   8.272  36.009  1.00  0.00    +0.000 N 
ATOM     60  C48 UNL A   1       4.929   8.487  36.968  1.00  0.00    +0.000 C 
ATOM     72  C55 UNL A   1       5.014   9.848  36.963  1.00  0.00    +0.000 C 
ATOM     73  N5  UNL A   1       6.023  10.491  37.662  1.00  0.00    +0.000 N 
ATOM     74  C56 UNL A   1       5.512  11.646  37.979  1.00  0.00    +0.000 C 
ATOM     75  C57 UNL A   1       5.722  12.284  39.298  1.00  0.00    +0.000 C 
ATOM     87  C64 UNL A   1       5.049  11.549  40.217  1.00  0.00    +0.000 C 
ATOM     88  C65 UNL A   1       5.154  11.546  41.656  1.00  0.00    +0.000 C 
ATOM     89  C66 UNL A   1       4.296  10.624  42.138  1.00  0.00    +0.000 C 
ATOM     90  C67 UNL A   1       3.441  10.119  41.054  1.00  0.00    +0.000 C 
ATOM     91  N6  UNL A   1       4.017  10.635  39.917  1.00  0.00    +0.000 N 
ATOM     92  C68 UNL A   1       4.356  12.063  37.203  1.00  0.00    +0.000 C 
ATOM     93  C69 UNL A   1       4.039  10.890  36.648  1.00  0.00    +0.000 C 
ATOM     94  C70 UNL A   1      -0.571   9.423  39.008  1.00  0.00    +0.000 C 
ATOM     95  C71 UNL A   1       0.026   9.881  40.110  1.00  0.00    +0.000 C 
ENDROOT
BRANCH   39   38
ATOM     97  C73 UNL A   1       1.100   9.700  44.639  1.00  0.00    +0.000 C 
ATOM     35  C30 UNL A   1       0.652   8.411  44.900  1.00  0.00    +0.000 C 
ATOM     36  C31 UNL A   1       0.855   7.379  43.977  1.00  0.00    +0.000 C 
ATOM    133  H34 UNL A   1       0.567   6.413  44.197  1.00  0.00    +0.000 H 
ATOM     37  C32 UNL A   1       1.452   7.682  42.756  1.00  0.00    +0.000 C 
ATOM     38  C33 UNL A   1       1.763   9.017  42.461  1.00  0.00    +0.000 C 
ATOM    134  H35 UNL A   1       1.663   6.934  42.077  1.00  0.00    +0.000 H 
ATOM    145  H46 UNL A   1       1.621  11.020  43.106  1.00  0.00    +0.000 H 
ATOM    146  H47 UNL A   1       1.126  10.403  45.393  1.00  0.00    +0.000 H 
ATOM     96  C72 UNL A   1       1.507  10.031  43.376  1.00  0.00    +0.000 C 
BRANCH   35   33
ATOM     33  C29 UNL A   1      -0.078   8.183  46.164  1.00  0.00    +0.000 C 
ATOM     34  O2  UNL A   1       0.404   8.508  47.225  1.00  0.00    +0.000 O 
BRANCH   33   32
ATOM    132  H33 UNL A   1      -1.406   6.791  45.518  1.00  0.00    +0.000 H 
ATOM     32  N2  UNL A   1      -1.331   7.589  46.089  1.00  0.00    +0.000 N 
BRANCH   32   31
ATOM    130  H31 UNL A   1      -3.223   7.192  46.834  1.00  0.00    +0.000 H 
ATOM    131  H32 UNL A   1      -2.276   8.376  47.742  1.00  0.00    +0.000 H 
ATOM     31  C28 UNL A   1      -2.551   8.021  46.771  1.00  0.00    +0.000 C 
BRANCH   31   30
ATOM    129  H30 UNL A   1      -3.215   8.922  44.998  1.00  0.00    +0.000 H 
ATOM     30  C27 UNL A   1      -3.245   9.158  46.041  1.00  0.00    +0.000 C 
ATOM    128  H29 UNL A   1      -2.733  10.069  46.272  1.00  0.00    +0.000 H 
BRANCH   30   29
ATOM     29  C26 UNL A   1      -4.727   9.329  46.415  1.00  0.00    +0.000 C 
ATOM    126  H27 UNL A   1      -5.221   8.400  46.214  1.00  0.00    +0.000 H 
ATOM    127  H28 UNL A   1      -4.725   9.620  47.445  1.00  0.00    +0.000 H 
BRANCH   29   28
ATOM    124  H25 UNL A   1      -5.859  10.033  44.759  1.00  0.00    +0.000 H 
ATOM     28  C25 UNL A   1      -5.502  10.435  45.684  1.00  0.00    +0.000 C 
ATOM    125  H26 UNL A   1      -6.281  10.738  46.353  1.00  0.00    +0.000 H 
BRANCH   28   27
ATOM    122  H23 UNL A   1      -5.029  12.475  46.033  1.00  0.00    +0.000 H 
ATOM     27  C24 UNL A   1      -4.705  11.702  45.369  1.00  0.00    +0.000 C 
ATOM    123  H24 UNL A   1      -3.672  11.450  45.493  1.00  0.00    +0.000 H 
BRANCH   27   26
ATOM    121  H22 UNL A   1      -5.851  12.594  43.835  1.00  0.00    +0.000 H 
ATOM     26  C23 UNL A   1      -4.858  12.209  43.937  1.00  0.00    +0.000 C 
ATOM    120  H21 UNL A   1      -4.678  11.397  43.265  1.00  0.00    +0.000 H 
BRANCH   26   25
ATOM     25  N1  UNL A   1      -3.941  13.280  43.625  1.00  0.00    +0.000 N 
ATOM    119  H20 UNL A   1      -4.007  14.077  44.200  1.00  0.00    +0.000 H 
BRANCH   25   23
ATOM     23  C22 UNL A   1      -2.996  13.337  42.641  1.00  0.00    +0.000 C 
ATOM     24  O1  UNL A   1      -3.189  14.126  41.712  1.00  0.00    +0.000 O 
BRANCH   23   22
ATOM    118  H19 UNL A   1      -1.520  12.231  41.635  1.00  0.00    +0.000 H 
ATOM    117  H18 UNL A   1      -2.058  11.511  43.170  1.00  0.00    +0.000 H 
ATOM     22  C21 UNL A   1      -1.788  12.409  42.654  1.00  0.00    +0.000 C 
BRANCH   22   21
ATOM      2  C2  UNL A   1      -0.419  13.036  47.021  1.00  0.00    +0.000 C 
ATOM     99  C74 UNL A   1      -1.076  12.320  45.804  1.00  0.00    +0.000 C 
ATOM      4  C4  UNL A   1       1.015  13.403  46.513  1.00  0.00    +0.000 C 
ATOM      5  C5  UNL A   1       0.811  13.489  45.046  1.00  0.00    +0.000 C 
ATOM     98  N7  UNL A   1      -0.357  12.888  44.670  1.00  0.00    +0.000 N 
ATOM      6  C6  UNL A   1       1.405  13.986  43.919  1.00  0.00    +0.000 C 
ATOM    106  H7  UNL A   1       1.723  12.640  46.762  1.00  0.00    +0.000 H 
ATOM    107  H8  UNL A   1       1.411  14.297  46.946  1.00  0.00    +0.000 H 
ATOM     13  C13 UNL A   1       0.534  13.661  42.819  1.00  0.00    +0.000 C 
ATOM    147  H48 UNL A   1      -2.122  12.539  45.746  1.00  0.00    +0.000 H 
ATOM    148  H49 UNL A   1      -1.014  11.254  45.855  1.00  0.00    +0.000 H 
ATOM     21  C20 UNL A   1      -0.582  12.994  43.327  1.00  0.00    +0.000 C 
BRANCH    2    1
ATOM      1  C1  UNL A   1      -0.382  12.125  48.247  1.00  0.00    +0.000 C 
ATOM    100  H1  UNL A   1       0.613  12.094  48.639  1.00  0.00    +0.000 H 
ATOM    101  H2  UNL A   1      -0.687  11.139  47.968  1.00  0.00    +0.000 H 
ATOM    102  H3  UNL A   1      -1.048  12.505  48.994  1.00  0.00    +0.000 H 
ENDBRANCH    2    1
BRANCH    2    3
ATOM    105  H6  UNL A   1      -0.676  14.829  48.178  1.00  0.00    +0.000 H 
ATOM      3  C3  UNL A   1      -1.186  14.322  47.386  1.00  0.00    +0.000 C 
ATOM    103  H4  UNL A   1      -2.176  14.068  47.705  1.00  0.00    +0.000 H 
ATOM    104  H5  UNL A   1      -1.240  14.960  46.529  1.00  0.00    +0.000 H 
ENDBRANCH    2    3
BRANCH    6    7
ATOM      7  C7  UNL A   1       2.682  14.661  43.845  1.00  0.00    +0.000 C 
ATOM      8  C8  UNL A   1       2.756  16.043  44.037  1.00  0.00    +0.000 C 
ATOM      9  C9  UNL A   1       3.995  16.642  44.258  1.00  0.00    +0.000 C 
ATOM     10  C10 UNL A   1       5.158  15.868  44.270  1.00  0.00    +0.000 C 
ATOM     11  C11 UNL A   1       5.094  14.500  44.015  1.00  0.00    +0.000 C 
ATOM     12  C12 UNL A   1       3.857  13.897  43.804  1.00  0.00    +0.000 C 
ATOM    108  H9  UNL A   1       1.898  16.617  44.014  1.00  0.00    +0.000 H 
ATOM    109  H10 UNL A   1       4.054  17.661  44.412  1.00  0.00    +0.000 H 
ATOM    111  H12 UNL A   1       5.958  13.937  43.983  1.00  0.00    +0.000 H 
ATOM    112  H13 UNL A   1       3.804  12.884  43.616  1.00  0.00    +0.000 H 
ATOM    110  H11 UNL A   1       6.069  16.310  44.471  1.00  0.00    +0.000 H 
ENDBRANCH    6    7
BRANCH   13   14
ATOM     14  C14 UNL A   1       0.796  13.951  41.413  1.00  0.00    +0.000 C 
ATOM     15  C15 UNL A   1       0.404  15.188  40.879  1.00  0.00    +0.000 C 
ATOM     16  C16 UNL A   1       0.491  15.427  39.505  1.00  0.00    +0.000 C 
ATOM    113  H14 UNL A   1       0.050  15.927  41.507  1.00  0.00    +0.000 H 
ATOM     17  C17 UNL A   1       0.983  14.434  38.661  1.00  0.00    +0.000 C 
ATOM     19  C18 UNL A   1       1.380  13.203  39.179  1.00  0.00    +0.000 C 
ATOM     20  C19 UNL A   1       1.270  12.958  40.551  1.00  0.00    +0.000 C 
ATOM    116  H17 UNL A   1       1.542  12.037  40.930  1.00  0.00    +0.000 H 
ATOM    114  H15 UNL A   1       0.191  16.336  39.117  1.00  0.00    +0.000 H 
ATOM    115  H16 UNL A   1       1.755  12.475  38.551  1.00  0.00    +0.000 H 
ATOM     18 Cl1  UNL A   1       1.069  14.716  36.966  1.00  0.00    +0.000 Cl
ENDBRANCH   13   14
ENDBRANCH   22   21
ENDBRANCH   23   22
ENDBRANCH   25   23
ENDBRANCH   26   25
ENDBRANCH   27   26
ENDBRANCH   28   27
ENDBRANCH   29   28
ENDBRANCH   30   29
ENDBRANCH   31   30
ENDBRANCH   32   31
ENDBRANCH   33   32
ENDBRANCH   35   33
ENDBRANCH   39   38
BRANCH   43   44
ATOM     44  C38 UNL A   1      -0.344   9.290  35.814  1.00  0.00    +0.000 C 
ATOM     45  C39 UNL A   1      -0.220  10.696  35.825  1.00  0.00    +0.000 C 
ATOM     46  F1  UNL A   1       0.733  11.293  36.557  1.00  0.00    +0.000 F 
ATOM     47  C40 UNL A   1      -1.125  11.527  35.159  1.00  0.00    +0.000 C 
ATOM     48  F2  UNL A   1      -1.042  12.855  35.305  1.00  0.00    +0.000 F 
ATOM     49  C41 UNL A   1      -2.151  10.986  34.407  1.00  0.00    +0.000 C 
ATOM     50  F3  UNL A   1      -3.056  11.778  33.818  1.00  0.00    +0.000 F 
ATOM     51  C42 UNL A   1      -2.262   9.617  34.307  1.00  0.00    +0.000 C 
ATOM     52  F4  UNL A   1      -3.258   9.072  33.594  1.00  0.00    +0.000 F 
ATOM     53  C43 UNL A   1      -1.393   8.786  35.014  1.00  0.00    +0.000 C 
ATOM     54  F5  UNL A   1      -1.693   7.484  34.964  1.00  0.00    +0.000 F 
ENDBRANCH   43   44
BRANCH   60   61
ATOM     65  F7  UNL A   1       7.049   5.703  40.457  1.00  0.00    +0.000 F 
ATOM     66  C52 UNL A   1       8.243   6.162  38.475  1.00  0.00    +0.000 C 
ATOM     67  F8  UNL A   1       9.264   5.404  38.896  1.00  0.00    +0.000 F 
ATOM     68  C53 UNL A   1       8.301   6.780  37.234  1.00  0.00    +0.000 C 
ATOM     69  F9  UNL A   1       9.370   6.600  36.447  1.00  0.00    +0.000 F 
ATOM     70  C54 UNL A   1       7.241   7.564  36.788  1.00  0.00    +0.000 C 
ATOM     71  F10 UNL A   1       7.322   8.131  35.575  1.00  0.00    +0.000 F 
ATOM     61  C49 UNL A   1       6.086   7.729  37.561  1.00  0.00    +0.000 C 
ATOM     62  C50 UNL A   1       6.038   7.066  38.800  1.00  0.00    +0.000 C 
ATOM     63  F6  UNL A   1       4.933   7.099  39.554  1.00  0.00    +0.000 F 
ATOM     64  C51 UNL A   1       7.115   6.311  39.263  1.00  0.00    +0.000 C 
ENDBRANCH   60   61
BRANCH   75   76
ATOM     76  C58 UNL A   1       6.118  13.700  39.403  1.00  0.00    +0.000 C 
ATOM     77  C59 UNL A   1       5.327  14.637  40.085  1.00  0.00    +0.000 C 
ATOM     78  F11 UNL A   1       4.068  14.328  40.428  1.00  0.00    +0.000 F 
ATOM     79  C60 UNL A   1       5.849  15.864  40.503  1.00  0.00    +0.000 C 
ATOM     80  F12 UNL A   1       5.085  16.720  41.197  1.00  0.00    +0.000 F 
ATOM     81  C61 UNL A   1       7.183  16.163  40.289  1.00  0.00    +0.000 C 
ATOM     82  F13 UNL A   1       7.715  17.297  40.763  1.00  0.00    +0.000 F 
ATOM     83  C62 UNL A   1       7.984  15.244  39.637  1.00  0.00    +0.000 C 
ATOM     84  F14 UNL A   1       9.303  15.440  39.583  1.00  0.00    +0.000 F 
ATOM     85  C63 UNL A   1       7.455  14.050  39.161  1.00  0.00    +0.000 C 
ATOM     86  F15 UNL A   1       8.297  13.180  38.582  1.00  0.00    +0.000 F 
ENDBRANCH   75   76
TORSDOF 20
ENDMDL
MODEL 8
REMARK VINA RESULT:      -8.5      4.907     11.800
ROOT
ATOM    135  H36 UNL A   1      12.535  -4.214  22.738  1.00  0.00    +0.000 H 
ATOM    136  H37 UNL A   1      12.167  -2.472  20.759  1.00  0.00    +0.000 H 
ATOM    137  H38 UNL A   1       8.582  -3.609  22.239  1.00  0.00    +0.000 H 
ATOM    138  H39 UNL A   1       8.568   4.433  23.841  1.00  0.00    +0.000 H 
ATOM    139  H40 UNL A   1      10.816   3.711  24.799  1.00  0.00    +0.000 H 
ATOM    140  H41 UNL A   1       8.902   0.273  23.478  1.00  0.00    +0.000 H 
ATOM    141  H42 UNL A   1       5.734  -0.276  23.503  1.00  0.00    +0.000 H 
ATOM    142  H43 UNL A   1       7.316  -2.187  22.790  1.00  0.00    +0.000 H 
ATOM    143  H44 UNL A   1      10.341  -3.080  27.427  1.00  0.00    +0.000 H 
ATOM    144  H45 UNL A   1      10.284  -0.514  27.663  1.00  0.00    +0.000 H 
ATOM     39  C34 UNL A   1      10.988   0.834  25.226  1.00  0.00    +0.000 C 
ATOM     40  C35 UNL A   1      10.760  -0.619  25.445  1.00  0.00    +0.000 C 
ATOM     41  N3  UNL A   1      10.916  -1.585  24.600  1.00  0.00    +0.000 N 
ATOM     42  C36 UNL A   1      10.521  -2.745  25.263  1.00  0.00    +0.000 C 
ATOM     43  C37 UNL A   1      10.081  -3.834  24.573  1.00  0.00    +0.000 C 
ATOM     55  C44 UNL A   1      10.463  -3.750  23.185  1.00  0.00    +0.000 C 
ATOM     56  C45 UNL A   1      11.669  -3.701  22.513  1.00  0.00    +0.000 C 
ATOM     57  C46 UNL A   1      11.457  -2.786  21.439  1.00  0.00    +0.000 C 
ATOM     58  C47 UNL A   1      10.121  -2.389  21.472  1.00  0.00    +0.000 C 
ATOM     59  N4  UNL A   1       9.520  -3.313  22.288  1.00  0.00    +0.000 N 
ATOM     60  C48 UNL A   1       9.428  -1.256  20.912  1.00  0.00    +0.000 C 
ATOM     72  C55 UNL A   1       8.229  -0.781  21.353  1.00  0.00    +0.000 C 
ATOM     73  N5  UNL A   1       7.839   0.518  21.065  1.00  0.00    +0.000 N 
ATOM     74  C56 UNL A   1       7.061   0.849  22.056  1.00  0.00    +0.000 C 
ATOM     75  C57 UNL A   1       7.090   2.187  22.688  1.00  0.00    +0.000 C 
ATOM     87  C64 UNL A   1       8.264   2.295  23.357  1.00  0.00    +0.000 C 
ATOM     88  C65 UNL A   1       8.923   3.465  23.886  1.00  0.00    +0.000 C 
ATOM     89  C66 UNL A   1      10.083   3.073  24.451  1.00  0.00    +0.000 C 
ATOM     90  C67 UNL A   1      10.149   1.606  24.498  1.00  0.00    +0.000 C 
ATOM     91  N6  UNL A   1       9.079   1.207  23.733  1.00  0.00    +0.000 N 
ATOM     92  C68 UNL A   1       6.515  -0.253  22.830  1.00  0.00    +0.000 C 
ATOM     93  C69 UNL A   1       7.326  -1.229  22.411  1.00  0.00    +0.000 C 
ATOM     94  C70 UNL A   1      10.421  -2.398  26.656  1.00  0.00    +0.000 C 
ATOM     95  C71 UNL A   1      10.444  -1.074  26.811  1.00  0.00    +0.000 C 
ENDROOT
BRANCH   39   38
ATOM     97  C73 UNL A   1      12.535   2.792  27.940  1.00  0.00    +0.000 C 
ATOM     35  C30 UNL A   1      13.881   2.479  27.797  1.00  0.00    +0.000 C 
ATOM     36  C31 UNL A   1      14.329   1.716  26.713  1.00  0.00    +0.000 C 
ATOM    133  H34 UNL A   1      15.335   1.529  26.582  1.00  0.00    +0.000 H 
ATOM     37  C32 UNL A   1      13.390   1.212  25.815  1.00  0.00    +0.000 C 
ATOM     38  C33 UNL A   1      12.026   1.423  26.065  1.00  0.00    +0.000 C 
ATOM    134  H35 UNL A   1      13.694   0.692  24.978  1.00  0.00    +0.000 H 
ATOM    145  H46 UNL A   1      10.604   2.189  27.420  1.00  0.00    +0.000 H 
ATOM    146  H47 UNL A   1      12.238   3.510  28.620  1.00  0.00    +0.000 H 
ATOM     96  C72 UNL A   1      11.604   2.144  27.176  1.00  0.00    +0.000 C 
BRANCH   35   33
ATOM     33  C29 UNL A   1      14.807   2.946  28.848  1.00  0.00    +0.000 C 
ATOM     34  O2  UNL A   1      15.825   2.339  29.091  1.00  0.00    +0.000 O 
BRANCH   33   32
ATOM    132  H33 UNL A   1      14.100   3.979  30.445  1.00  0.00    +0.000 H 
ATOM     32  N2  UNL A   1      14.470   4.101  29.541  1.00  0.00    +0.000 N 
BRANCH   32   31
ATOM    130  H31 UNL A   1      15.602   5.624  28.711  1.00  0.00    +0.000 H 
ATOM    131  H32 UNL A   1      13.883   5.635  28.299  1.00  0.00    +0.000 H 
ATOM     31  C28 UNL A   1      14.606   5.480  29.072  1.00  0.00    +0.000 C 
BRANCH   31   30
ATOM    129  H30 UNL A   1      15.149   6.428  30.861  1.00  0.00    +0.000 H 
ATOM     30  C27 UNL A   1      14.333   6.492  30.172  1.00  0.00    +0.000 C 
ATOM    128  H29 UNL A   1      13.393   6.252  30.623  1.00  0.00    +0.000 H 
BRANCH   30   29
ATOM     29  C26 UNL A   1      14.277   7.947  29.682  1.00  0.00    +0.000 C 
ATOM    126  H27 UNL A   1      15.019   8.500  30.221  1.00  0.00    +0.000 H 
ATOM    127  H28 UNL A   1      14.439   7.895  28.625  1.00  0.00    +0.000 H 
BRANCH   29   28
ATOM    124  H25 UNL A   1      12.259   8.303  29.115  1.00  0.00    +0.000 H 
ATOM     28  C25 UNL A   1      12.939   8.683  29.849  1.00  0.00    +0.000 C 
ATOM    125  H26 UNL A   1      12.630   8.503  30.858  1.00  0.00    +0.000 H 
BRANCH   28   27
ATOM    122  H23 UNL A   1      12.527  10.645  30.547  1.00  0.00    +0.000 H 
ATOM     27  C24 UNL A   1      12.998  10.203  29.694  1.00  0.00    +0.000 C 
ATOM    123  H24 UNL A   1      14.033  10.460  29.607  1.00  0.00    +0.000 H 
BRANCH   27   26
ATOM    121  H22 UNL A   1      13.046  10.787  27.664  1.00  0.00    +0.000 H 
ATOM     26  C23 UNL A   1      12.312  10.741  28.440  1.00  0.00    +0.000 C 
ATOM    120  H21 UNL A   1      11.907  11.707  28.659  1.00  0.00    +0.000 H 
BRANCH   26   25
ATOM     25  N1  UNL A   1      11.244   9.885  27.980  1.00  0.00    +0.000 N 
ATOM    119  H20 UNL A   1      11.527   9.071  27.503  1.00  0.00    +0.000 H 
BRANCH   25   23
ATOM     23  C22 UNL A   1       9.895  10.051  28.116  1.00  0.00    +0.000 C 
ATOM     24  O1  UNL A   1       9.368   9.607  29.139  1.00  0.00    +0.000 O 
BRANCH   23   22
ATOM    118  H19 UNL A   1       9.673  11.455  26.569  1.00  0.00    +0.000 H 
ATOM    117  H18 UNL A   1       8.170  11.086  27.447  1.00  0.00    +0.000 H 
ATOM     22  C21 UNL A   1       9.066  10.694  27.012  1.00  0.00    +0.000 C 
BRANCH   22   21
ATOM      2  C2  UNL A   1       6.128   7.157  26.576  1.00  0.00    +0.000 C 
ATOM     99  C74 UNL A   1       6.653   8.547  27.043  1.00  0.00    +0.000 C 
ATOM      4  C4  UNL A   1       6.348   7.173  25.026  1.00  0.00    +0.000 C 
ATOM      5  C5  UNL A   1       7.468   8.134  24.882  1.00  0.00    +0.000 C 
ATOM     98  N7  UNL A   1       7.628   8.885  26.013  1.00  0.00    +0.000 N 
ATOM      6  C6  UNL A   1       8.422   8.525  23.985  1.00  0.00    +0.000 C 
ATOM    106  H7  UNL A   1       5.474   7.515  24.513  1.00  0.00    +0.000 H 
ATOM    107  H8  UNL A   1       6.551   6.209  24.609  1.00  0.00    +0.000 H 
ATOM     13  C13 UNL A   1       9.189   9.563  24.626  1.00  0.00    +0.000 C 
ATOM    147  H48 UNL A   1       7.116   8.480  28.006  1.00  0.00    +0.000 H 
ATOM    148  H49 UNL A   1       5.880   9.277  27.152  1.00  0.00    +0.000 H 
ATOM     21  C20 UNL A   1       8.682   9.747  25.913  1.00  0.00    +0.000 C 
BRANCH    2    1
ATOM      1  C1  UNL A   1       4.659   6.966  26.949  1.00  0.00    +0.000 C 
ATOM    100  H1  UNL A   1       4.372   7.708  27.664  1.00  0.00    +0.000 H 
ATOM    101  H2  UNL A   1       4.521   5.993  27.370  1.00  0.00    +0.000 H 
ATOM    102  H3  UNL A   1       4.052   7.064  26.072  1.00  0.00    +0.000 H 
ENDBRANCH    2    1
BRANCH    2    3
ATOM    105  H6  UNL A   1       7.630   6.421  27.925  1.00  0.00    +0.000 H 
ATOM      3  C3  UNL A   1       6.949   6.015  27.206  1.00  0.00    +0.000 C 
ATOM    103  H4  UNL A   1       7.498   5.507  26.441  1.00  0.00    +0.000 H 
ATOM    104  H5  UNL A   1       6.288   5.326  27.689  1.00  0.00    +0.000 H 
ENDBRANCH    2    3
BRANCH    6    7
ATOM      7  C7  UNL A   1       8.595   8.026  22.638  1.00  0.00    +0.000 C 
ATOM      8  C8  UNL A   1       9.136   8.851  21.649  1.00  0.00    +0.000 C 
ATOM      9  C9  UNL A   1       9.572   8.292  20.449  1.00  0.00    +0.000 C 
ATOM     10  C10 UNL A   1       9.453   6.917  20.229  1.00  0.00    +0.000 C 
ATOM     11  C11 UNL A   1       8.855   6.102  21.188  1.00  0.00    +0.000 C 
ATOM     12  C12 UNL A   1       8.427   6.656  22.391  1.00  0.00    +0.000 C 
ATOM    108  H9  UNL A   1       9.212   9.868  21.806  1.00  0.00    +0.000 H 
ATOM    109  H10 UNL A   1       9.984   8.895  19.719  1.00  0.00    +0.000 H 
ATOM    111  H12 UNL A   1       8.729   5.094  21.007  1.00  0.00    +0.000 H 
ATOM    112  H13 UNL A   1       7.985   6.056  23.105  1.00  0.00    +0.000 H 
ATOM    110  H11 UNL A   1       9.811   6.502  19.355  1.00  0.00    +0.000 H 
ENDBRANCH    6    7
BRANCH   13   14
ATOM     14  C14 UNL A   1      10.282  10.312  24.016  1.00  0.00    +0.000 C 
ATOM     15  C15 UNL A   1       9.995  11.461  23.263  1.00  0.00    +0.000 C 
ATOM     16  C16 UNL A   1      10.999  12.100  22.532  1.00  0.00    +0.000 C 
ATOM    113  H14 UNL A   1       9.034  11.837  23.251  1.00  0.00    +0.000 H 
ATOM     17  C17 UNL A   1      12.299  11.600  22.562  1.00  0.00    +0.000 C 
ATOM     19  C18 UNL A   1      12.599  10.463  23.310  1.00  0.00    +0.000 C 
ATOM     20  C19 UNL A   1      11.588   9.812  24.021  1.00  0.00    +0.000 C 
ATOM    116  H17 UNL A   1      11.807   8.956  24.554  1.00  0.00    +0.000 H 
ATOM    114  H15 UNL A   1      10.779  12.939  21.973  1.00  0.00    +0.000 H 
ATOM    115  H16 UNL A   1      13.566  10.104  23.338  1.00  0.00    +0.000 H 
ATOM     18 Cl1  UNL A   1      13.534  12.370  21.645  1.00  0.00    +0.000 Cl
ENDBRANCH   13   14
ENDBRANCH   22   21
ENDBRANCH   23   22
ENDBRANCH   25   23
ENDBRANCH   26   25
ENDBRANCH   27   26
ENDBRANCH   28   27
ENDBRANCH   29   28
ENDBRANCH   30   29
ENDBRANCH   31   30
ENDBRANCH   32   31
ENDBRANCH   33   32
ENDBRANCH   35   33
ENDBRANCH   39   38
BRANCH   43   44
ATOM     44  C38 UNL A   1       9.008  -4.787  25.052  1.00  0.00    +0.000 C 
ATOM     45  C39 UNL A   1       9.270  -6.173  25.042  1.00  0.00    +0.000 C 
ATOM     46  F1  UNL A   1      10.516  -6.633  24.862  1.00  0.00    +0.000 F 
ATOM     47  C40 UNL A   1       8.246  -7.122  25.125  1.00  0.00    +0.000 C 
ATOM     48  F2  UNL A   1       8.531  -8.423  24.981  1.00  0.00    +0.000 F 
ATOM     49  C41 UNL A   1       6.932  -6.725  25.284  1.00  0.00    +0.000 C 
ATOM     50  F3  UNL A   1       5.943  -7.628  25.302  1.00  0.00    +0.000 F 
ATOM     51  C42 UNL A   1       6.643  -5.381  25.375  1.00  0.00    +0.000 C 
ATOM     52  F4  UNL A   1       5.372  -4.974  25.515  1.00  0.00    +0.000 F 
ATOM     53  C43 UNL A   1       7.654  -4.431  25.238  1.00  0.00    +0.000 C 
ATOM     54  F5  UNL A   1       7.233  -3.163  25.190  1.00  0.00    +0.000 F 
ENDBRANCH   43   44
BRANCH   60   61
ATOM     65  F7  UNL A   1      10.304   0.538  16.392  1.00  0.00    +0.000 F 
ATOM     66  C52 UNL A   1      11.528   1.390  18.220  1.00  0.00    +0.000 C 
ATOM     67  F8  UNL A   1      12.157   2.257  17.414  1.00  0.00    +0.000 F 
ATOM     68  C53 UNL A   1      11.802   1.379  19.579  1.00  0.00    +0.000 C 
ATOM     69  F9  UNL A   1      12.681   2.252  20.091  1.00  0.00    +0.000 F 
ATOM     70  C54 UNL A   1      11.148   0.485  20.422  1.00  0.00    +0.000 C 
ATOM     71  F10 UNL A   1      11.423   0.514  21.735  1.00  0.00    +0.000 F 
ATOM     61  C49 UNL A   1      10.185  -0.403  19.930  1.00  0.00    +0.000 C 
ATOM     62  C50 UNL A   1       9.901  -0.350  18.554  1.00  0.00    +0.000 C 
ATOM     63  F6  UNL A   1       8.928  -1.100  18.023  1.00  0.00    +0.000 F 
ATOM     64  C51 UNL A   1      10.584   0.520  17.704  1.00  0.00    +0.000 C 
ENDBRANCH   60   61
BRANCH   75   76
ATOM     76  C58 UNL A   1       5.845   2.935  22.941  1.00  0.00    +0.000 C 
ATOM     77  C59 UNL A   1       5.214   2.912  24.194  1.00  0.00    +0.000 C 
ATOM     78  F11 UNL A   1       5.578   2.003  25.111  1.00  0.00    +0.000 F 
ATOM     79  C60 UNL A   1       4.271   3.879  24.553  1.00  0.00    +0.000 C 
ATOM     80  F12 UNL A   1       3.721   3.863  25.774  1.00  0.00    +0.000 F 
ATOM     81  C61 UNL A   1       3.971   4.914  23.684  1.00  0.00    +0.000 C 
ATOM     82  F13 UNL A   1       3.135   5.895  24.052  1.00  0.00    +0.000 F 
ATOM     83  C62 UNL A   1       4.597   4.966  22.453  1.00  0.00    +0.000 C 
ATOM     84  F14 UNL A   1       4.453   6.047  21.685  1.00  0.00    +0.000 F 
ATOM     85  C63 UNL A   1       5.487   3.971  22.065  1.00  0.00    +0.000 C 
ATOM     86  F15 UNL A   1       6.098   4.108  20.878  1.00  0.00    +0.000 F 
ENDBRANCH   75   76
TORSDOF 20
ENDMDL
MODEL 9
REMARK VINA RESULT:      -8.4     36.964     42.281
ROOT
ATOM    135  H36 UNL A   1       7.582  26.448  -4.339  1.00  0.00    +0.000 H 
ATOM    136  H37 UNL A   1       7.472  28.514  -2.663  1.00  0.00    +0.000 H 
ATOM    137  H38 UNL A   1      10.420  25.999  -1.515  1.00  0.00    +0.000 H 
ATOM    138  H39 UNL A   1      14.626  32.835  -3.193  1.00  0.00    +0.000 H 
ATOM    139  H40 UNL A   1      13.228  32.547  -5.305  1.00  0.00    +0.000 H 
ATOM    140  H41 UNL A   1      12.470  29.256  -2.892  1.00  0.00    +0.000 H 
ATOM    141  H42 UNL A   1      14.555  27.828  -0.902  1.00  0.00    +0.000 H 
ATOM    142  H43 UNL A   1      12.227  26.761  -1.231  1.00  0.00    +0.000 H 
ATOM    143  H44 UNL A   1      12.229  25.451  -6.684  1.00  0.00    +0.000 H 
ATOM    144  H45 UNL A   1      13.457  27.699  -6.973  1.00  0.00    +0.000 H 
ATOM     39  C34 UNL A   1      12.155  29.854  -5.588  1.00  0.00    +0.000 C 
ATOM     40  C35 UNL A   1      11.843  28.400  -5.536  1.00  0.00    +0.000 C 
ATOM     41  N3  UNL A   1      10.866  27.818  -4.923  1.00  0.00    +0.000 N 
ATOM     42  C36 UNL A   1      11.041  26.451  -5.129  1.00  0.00    +0.000 C 
ATOM     43  C37 UNL A   1      10.530  25.537  -4.257  1.00  0.00    +0.000 C 
ATOM     55  C44 UNL A   1       9.522  26.136  -3.419  1.00  0.00    +0.000 C 
ATOM     56  C45 UNL A   1       8.296  26.731  -3.651  1.00  0.00    +0.000 C 
ATOM     57  C46 UNL A   1       8.234  27.820  -2.733  1.00  0.00    +0.000 C 
ATOM     58  C47 UNL A   1       9.383  27.783  -1.945  1.00  0.00    +0.000 C 
ATOM     59  N4  UNL A   1       9.889  26.526  -2.155  1.00  0.00    +0.000 N 
ATOM     60  C48 UNL A   1      10.042  28.779  -1.138  1.00  0.00    +0.000 C 
ATOM     72  C55 UNL A   1      11.351  28.732  -0.758  1.00  0.00    +0.000 C 
ATOM     73  N5  UNL A   1      12.009  29.885  -0.362  1.00  0.00    +0.000 N 
ATOM     74  C56 UNL A   1      13.256  29.667  -0.665  1.00  0.00    +0.000 C 
ATOM     75  C57 UNL A   1      14.135  30.705  -1.249  1.00  0.00    +0.000 C 
ATOM     87  C64 UNL A   1      13.699  30.945  -2.510  1.00  0.00    +0.000 C 
ATOM     88  C65 UNL A   1      13.995  32.044  -3.398  1.00  0.00    +0.000 C 
ATOM     89  C66 UNL A   1      13.304  31.857  -4.541  1.00  0.00    +0.000 C 
ATOM     90  C67 UNL A   1      12.679  30.527  -4.538  1.00  0.00    +0.000 C 
ATOM     91  N6  UNL A   1      12.867  30.081  -3.253  1.00  0.00    +0.000 N 
ATOM     92  C68 UNL A   1      13.626  28.276  -0.867  1.00  0.00    +0.000 C 
ATOM     93  C69 UNL A   1      12.405  27.749  -0.994  1.00  0.00    +0.000 C 
ATOM     94  C70 UNL A   1      12.026  26.323  -6.170  1.00  0.00    +0.000 C 
ATOM     95  C71 UNL A   1      12.639  27.489  -6.378  1.00  0.00    +0.000 C 
ENDROOT
BRANCH   39   38
ATOM     97  C73 UNL A   1      10.762  31.379  -8.641  1.00  0.00    +0.000 C 
ATOM     35  C30 UNL A   1      11.908  31.683  -9.365  1.00  0.00    +0.000 C 
ATOM     36  C31 UNL A   1      13.169  31.270  -8.921  1.00  0.00    +0.000 C 
ATOM    133  H34 UNL A   1      14.012  31.453  -9.487  1.00  0.00    +0.000 H 
ATOM     37  C32 UNL A   1      13.264  30.607  -7.699  1.00  0.00    +0.000 C 
ATOM     38  C33 UNL A   1      12.109  30.441  -6.921  1.00  0.00    +0.000 C 
ATOM    134  H35 UNL A   1      14.172  30.243  -7.371  1.00  0.00    +0.000 H 
ATOM    145  H46 UNL A   1      10.057  30.891  -6.737  1.00  0.00    +0.000 H 
ATOM    146  H47 UNL A   1       9.831  31.510  -9.065  1.00  0.00    +0.000 H 
ATOM     96  C72 UNL A   1      10.876  30.904  -7.364  1.00  0.00    +0.000 C 
BRANCH   35   33
ATOM     33  C29 UNL A   1      11.749  32.490 -10.592  1.00  0.00    +0.000 C 
ATOM     34  O2  UNL A   1      12.700  32.747 -11.293  1.00  0.00    +0.000 O 
BRANCH   33   32
ATOM    132  H33 UNL A   1       9.762  32.257 -10.938  1.00  0.00    +0.000 H 
ATOM     32  N2  UNL A   1      10.472  32.937 -10.910  1.00  0.00    +0.000 N 
BRANCH   32   31
ATOM    130  H31 UNL A   1      10.501  34.603 -12.141  1.00  0.00    +0.000 H 
ATOM    131  H32 UNL A   1       9.003  34.341 -11.241  1.00  0.00    +0.000 H 
ATOM     31  C28 UNL A   1      10.071  34.313 -11.206  1.00  0.00    +0.000 C 
BRANCH   31   30
ATOM    129  H30 UNL A   1      10.586  36.251 -10.596  1.00  0.00    +0.000 H 
ATOM     30  C27 UNL A   1      10.527  35.288 -10.134  1.00  0.00    +0.000 C 
ATOM    128  H29 UNL A   1      11.470  34.954  -9.755  1.00  0.00    +0.000 H 
BRANCH   30   29
ATOM     29  C26 UNL A   1       9.551  35.420  -8.954  1.00  0.00    +0.000 C 
ATOM    126  H27 UNL A   1       9.859  36.264  -8.371  1.00  0.00    +0.000 H 
ATOM    127  H28 UNL A   1       8.582  35.513  -9.399  1.00  0.00    +0.000 H 
BRANCH   29   28
ATOM    124  H25 UNL A   1       8.704  33.551  -8.399  1.00  0.00    +0.000 H 
ATOM     28  C25 UNL A   1       9.445  34.215  -8.006  1.00  0.00    +0.000 C 
ATOM    125  H26 UNL A   1      10.426  33.791  -7.961  1.00  0.00    +0.000 H 
BRANCH   28   27
ATOM    122  H23 UNL A   1       9.913  34.989  -6.086  1.00  0.00    +0.000 H 
ATOM     27  C24 UNL A   1       9.064  34.544  -6.562  1.00  0.00    +0.000 C 
ATOM    123  H24 UNL A   1       8.221  35.200  -6.612  1.00  0.00    +0.000 H 
BRANCH   27   26
ATOM    121  H22 UNL A   1       7.984  33.699  -4.955  1.00  0.00    +0.000 H 
ATOM     26  C23 UNL A   1       8.629  33.341  -5.730  1.00  0.00    +0.000 C 
ATOM    120  H21 UNL A   1       9.501  32.867  -5.330  1.00  0.00    +0.000 H 
BRANCH   26   25
ATOM     25  N1  UNL A   1       7.887  32.371  -6.501  1.00  0.00    +0.000 N 
ATOM    119  H20 UNL A   1       7.876  32.520  -7.474  1.00  0.00    +0.000 H 
BRANCH   25   23
ATOM     23  C22 UNL A   1       7.200  31.275  -6.063  1.00  0.00    +0.000 C 
ATOM     24  O1  UNL A   1       7.858  30.329  -5.621  1.00  0.00    +0.000 O 
BRANCH   23   22
ATOM    118  H19 UNL A   1       5.455  30.256  -6.640  1.00  0.00    +0.000 H 
ATOM    117  H18 UNL A   1       5.349  32.027  -6.771  1.00  0.00    +0.000 H 
ATOM     22  C21 UNL A   1       5.683  31.197  -6.185  1.00  0.00    +0.000 C 
BRANCH   22   21
ATOM      2  C2  UNL A   1       3.948  28.047  -3.287  1.00  0.00    +0.000 C 
ATOM     99  C74 UNL A   1       4.946  28.678  -4.302  1.00  0.00    +0.000 C 
ATOM      4  C4  UNL A   1       3.761  29.158  -2.200  1.00  0.00    +0.000 C 
ATOM      5  C5  UNL A   1       4.064  30.392  -2.964  1.00  0.00    +0.000 C 
ATOM     98  N7  UNL A   1       4.717  30.108  -4.131  1.00  0.00    +0.000 N 
ATOM      6  C6  UNL A   1       3.898  31.748  -2.900  1.00  0.00    +0.000 C 
ATOM    106  H7  UNL A   1       4.446  29.025  -1.389  1.00  0.00    +0.000 H 
ATOM    107  H8  UNL A   1       2.793  29.159  -1.746  1.00  0.00    +0.000 H 
ATOM     13  C13 UNL A   1       4.484  32.291  -4.099  1.00  0.00    +0.000 C 
ATOM    147  H48 UNL A   1       4.727  28.369  -5.302  1.00  0.00    +0.000 H 
ATOM    148  H49 UNL A   1       5.962  28.388  -4.133  1.00  0.00    +0.000 H 
ATOM     21  C20 UNL A   1       4.967  31.230  -4.868  1.00  0.00    +0.000 C 
BRANCH    2    1
ATOM      1  C1  UNL A   1       4.500  26.749  -2.699  1.00  0.00    +0.000 C 
ATOM    100  H1  UNL A   1       3.746  25.992  -2.734  1.00  0.00    +0.000 H 
ATOM    101  H2  UNL A   1       4.794  26.914  -1.685  1.00  0.00    +0.000 H 
ATOM    102  H3  UNL A   1       5.349  26.433  -3.269  1.00  0.00    +0.000 H 
ENDBRANCH    2    1
BRANCH    2    3
ATOM    105  H6  UNL A   1       2.437  28.428  -4.769  1.00  0.00    +0.000 H 
ATOM      3  C3  UNL A   1       2.594  27.745  -3.960  1.00  0.00    +0.000 C 
ATOM    103  H4  UNL A   1       1.807  27.855  -3.242  1.00  0.00    +0.000 H 
ATOM    104  H5  UNL A   1       2.598  26.743  -4.334  1.00  0.00    +0.000 H 
ENDBRANCH    2    3
BRANCH    6    7
ATOM      7  C7  UNL A   1       3.296  32.492  -1.816  1.00  0.00    +0.000 C 
ATOM      8  C8  UNL A   1       2.006  33.009  -1.953  1.00  0.00    +0.000 C 
ATOM      9  C9  UNL A   1       1.321  33.460  -0.826  1.00  0.00    +0.000 C 
ATOM     10  C10 UNL A   1       1.927  33.409   0.432  1.00  0.00    +0.000 C 
ATOM     11  C11 UNL A   1       3.237  32.953   0.562  1.00  0.00    +0.000 C 
ATOM     12  C12 UNL A   1       3.920  32.493  -0.560  1.00  0.00    +0.000 C 
ATOM    108  H9  UNL A   1       1.563  33.059  -2.884  1.00  0.00    +0.000 H 
ATOM    109  H10 UNL A   1       0.363  33.833  -0.920  1.00  0.00    +0.000 H 
ATOM    111  H12 UNL A   1       3.698  32.956   1.486  1.00  0.00    +0.000 H 
ATOM    112  H13 UNL A   1       4.890  32.153  -0.468  1.00  0.00    +0.000 H 
ATOM    110  H11 UNL A   1       1.403  33.709   1.269  1.00  0.00    +0.000 H 
ENDBRANCH    6    7
BRANCH   13   14
ATOM     14  C14 UNL A   1       4.585  33.708  -4.429  1.00  0.00    +0.000 C 
ATOM     15  C15 UNL A   1       3.479  34.366  -4.988  1.00  0.00    +0.000 C 
ATOM     16  C16 UNL A   1       3.598  35.673  -5.467  1.00  0.00    +0.000 C 
ATOM    113  H14 UNL A   1       2.570  33.881  -5.045  1.00  0.00    +0.000 H 
ATOM     17  C17 UNL A   1       4.822  36.333  -5.376  1.00  0.00    +0.000 C 
ATOM     19  C18 UNL A   1       5.927  35.692  -4.818  1.00  0.00    +0.000 C 
ATOM     20  C19 UNL A   1       5.811  34.377  -4.362  1.00  0.00    +0.000 C 
ATOM    116  H17 UNL A   1       6.636  33.895  -3.971  1.00  0.00    +0.000 H 
ATOM    114  H15 UNL A   1       2.784  36.149  -5.886  1.00  0.00    +0.000 H 
ATOM    115  H16 UNL A   1       6.828  36.190  -4.742  1.00  0.00    +0.000 H 
ATOM     18 Cl1  UNL A   1       4.980  37.934  -5.985  1.00  0.00    +0.000 Cl
ENDBRANCH   13   14
ENDBRANCH   22   21
ENDBRANCH   23   22
ENDBRANCH   25   23
ENDBRANCH   26   25
ENDBRANCH   27   26
ENDBRANCH   28   27
ENDBRANCH   29   28
ENDBRANCH   30   29
ENDBRANCH   31   30
ENDBRANCH   32   31
ENDBRANCH   33   32
ENDBRANCH   35   33
ENDBRANCH   39   38
BRANCH   43   44
ATOM     44  C38 UNL A   1      11.181  24.216  -3.908  1.00  0.00    +0.000 C 
ATOM     45  C39 UNL A   1      12.489  24.216  -3.380  1.00  0.00    +0.000 C 
ATOM     46  F1  UNL A   1      13.055  25.354  -2.952  1.00  0.00    +0.000 F 
ATOM     47  C40 UNL A   1      13.282  23.065  -3.363  1.00  0.00    +0.000 C 
ATOM     48  F2  UNL A   1      14.561  23.143  -2.972  1.00  0.00    +0.000 F 
ATOM     49  C41 UNL A   1      12.779  21.859  -3.813  1.00  0.00    +0.000 C 
ATOM     50  F3  UNL A   1      13.555  20.769  -3.856  1.00  0.00    +0.000 F 
ATOM     51  C42 UNL A   1      11.479  21.801  -4.266  1.00  0.00    +0.000 C 
ATOM     52  F4  UNL A   1      10.976  20.644  -4.720  1.00  0.00    +0.000 F 
ATOM     53  C43 UNL A   1      10.704  22.957  -4.335  1.00  0.00    +0.000 C 
ATOM     54  F5  UNL A   1       9.518  22.806  -4.933  1.00  0.00    +0.000 F 
ENDBRANCH   43   44
BRANCH   60   61
ATOM     65  F7  UNL A   1       8.467  33.275  -2.451  1.00  0.00    +0.000 F 
ATOM     66  C52 UNL A   1       7.710  32.343  -0.420  1.00  0.00    +0.000 C 
ATOM     67  F8  UNL A   1       6.937  33.415  -0.198  1.00  0.00    +0.000 F 
ATOM     68  C53 UNL A   1       7.718  31.292   0.485  1.00  0.00    +0.000 C 
ATOM     69  F9  UNL A   1       6.934  31.339   1.571  1.00  0.00    +0.000 F 
ATOM     70  C54 UNL A   1       8.514  30.173   0.257  1.00  0.00    +0.000 C 
ATOM     71  F10 UNL A   1       8.483  29.166   1.144  1.00  0.00    +0.000 F 
ATOM     61  C49 UNL A   1       9.302  30.066  -0.893  1.00  0.00    +0.000 C 
ATOM     62  C50 UNL A   1       9.252  31.130  -1.811  1.00  0.00    +0.000 C 
ATOM     63  F6  UNL A   1       9.903  31.062  -2.979  1.00  0.00    +0.000 F 
ATOM     64  C51 UNL A   1       8.483  32.268  -1.565  1.00  0.00    +0.000 C 
ENDBRANCH   60   61
BRANCH   75   76
ATOM     76  C58 UNL A   1      15.485  30.949  -0.709  1.00  0.00    +0.000 C 
ATOM     77  C59 UNL A   1      15.683  31.670   0.478  1.00  0.00    +0.000 C 
ATOM     78  F11 UNL A   1      14.676  32.380   1.007  1.00  0.00    +0.000 F 
ATOM     79  C60 UNL A   1      16.888  31.595   1.183  1.00  0.00    +0.000 C 
ATOM     80  F12 UNL A   1      17.033  32.255   2.341  1.00  0.00    +0.000 F 
ATOM     81  C61 UNL A   1      17.903  30.764   0.741  1.00  0.00    +0.000 C 
ATOM     82  F13 UNL A   1      19.027  30.617   1.456  1.00  0.00    +0.000 F 
ATOM     83  C62 UNL A   1      17.718  30.029  -0.415  1.00  0.00    +0.000 C 
ATOM     84  F14 UNL A   1      18.610  29.096  -0.752  1.00  0.00    +0.000 F 
ATOM     85  C63 UNL A   1      16.549  30.150  -1.156  1.00  0.00    +0.000 C 
ATOM     86  F15 UNL A   1      16.413  29.371  -2.240  1.00  0.00    +0.000 F 
ENDBRANCH   75   76
TORSDOF 20
ENDMDL
MODEL 10
REMARK VINA RESULT:      -8.3     35.935     41.736
ROOT
ATOM    135  H36 UNL A   1      24.215  27.866   0.997  1.00  0.00    +0.000 H 
ATOM    136  H37 UNL A   1      23.813  25.397   1.910  1.00  0.00    +0.000 H 
ATOM    137  H38 UNL A   1      20.262  27.291   1.529  1.00  0.00    +0.000 H 
ATOM    138  H39 UNL A   1      19.410  21.079  -3.756  1.00  0.00    +0.000 H 
ATOM    139  H40 UNL A   1      21.651  22.066  -4.462  1.00  0.00    +0.000 H 
ATOM    140  H41 UNL A   1      20.147  24.504  -1.459  1.00  0.00    +0.000 H 
ATOM    141  H42 UNL A   1      17.047  25.152  -0.901  1.00  0.00    +0.000 H 
ATOM    142  H43 UNL A   1      18.840  26.387   0.488  1.00  0.00    +0.000 H 
ATOM    143  H44 UNL A   1      21.639  29.286  -3.411  1.00  0.00    +0.000 H 
ATOM    144  H45 UNL A   1      21.332  27.172  -4.853  1.00  0.00    +0.000 H 
ATOM     39  C34 UNL A   1      22.060  24.769  -3.457  1.00  0.00    +0.000 C 
ATOM     40  C35 UNL A   1      21.952  26.153  -2.921  1.00  0.00    +0.000 C 
ATOM     41  N3  UNL A   1      22.249  26.571  -1.735  1.00  0.00    +0.000 N 
ATOM     42  C36 UNL A   1      21.922  27.925  -1.710  1.00  0.00    +0.000 C 
ATOM     43  C37 UNL A   1      21.628  28.556  -0.539  1.00  0.00    +0.000 C 
ATOM     55  C44 UNL A   1      22.085  27.784   0.589  1.00  0.00    +0.000 C 
ATOM     56  C45 UNL A   1      23.321  27.351   1.030  1.00  0.00    +0.000 C 
ATOM     57  C46 UNL A   1      23.093  26.040   1.541  1.00  0.00    +0.000 C 
ATOM     58  C47 UNL A   1      21.727  25.777   1.454  1.00  0.00    +0.000 C 
ATOM     59  N4  UNL A   1      21.164  27.010   1.251  1.00  0.00    +0.000 N 
ATOM     60  C48 UNL A   1      20.970  24.551   1.460  1.00  0.00    +0.000 C 
ATOM     72  C55 UNL A   1      19.706  24.412   0.966  1.00  0.00    +0.000 C 
ATOM     73  N5  UNL A   1      19.218  23.161   0.625  1.00  0.00    +0.000 N 
ATOM     74  C56 UNL A   1      18.353  23.397  -0.319  1.00  0.00    +0.000 C 
ATOM     75  C57 UNL A   1      18.220  22.542  -1.519  1.00  0.00    +0.000 C 
ATOM     87  C64 UNL A   1      19.334  22.718  -2.269  1.00  0.00    +0.000 C 
ATOM     88  C65 UNL A   1      19.849  21.926  -3.361  1.00  0.00    +0.000 C 
ATOM     89  C66 UNL A   1      21.003  22.486  -3.778  1.00  0.00    +0.000 C 
ATOM     90  C67 UNL A   1      21.200  23.783  -3.115  1.00  0.00    +0.000 C 
ATOM     91  N6  UNL A   1      20.221  23.808  -2.150  1.00  0.00    +0.000 N 
ATOM     92  C68 UNL A   1      17.863  24.763  -0.404  1.00  0.00    +0.000 C 
ATOM     93  C69 UNL A   1      18.785  25.366   0.352  1.00  0.00    +0.000 C 
ATOM     94  C70 UNL A   1      21.703  28.312  -3.079  1.00  0.00    +0.000 C 
ATOM     95  C71 UNL A   1      21.596  27.233  -3.857  1.00  0.00    +0.000 C 
ENDROOT
BRANCH   39   38
ATOM     97  C73 UNL A   1      23.262  24.517  -6.933  1.00  0.00    +0.000 C 
ATOM     35  C30 UNL A   1      24.641  24.474  -6.763  1.00  0.00    +0.000 C 
ATOM     36  C31 UNL A   1      25.205  24.394  -5.485  1.00  0.00    +0.000 C 
ATOM    133  H34 UNL A   1      26.227  24.311  -5.366  1.00  0.00    +0.000 H 
ATOM     37  C32 UNL A   1      24.361  24.429  -4.378  1.00  0.00    +0.000 C 
ATOM     38  C33 UNL A   1      22.985  24.617  -4.574  1.00  0.00    +0.000 C 
ATOM    134  H35 UNL A   1      24.742  24.317  -3.426  1.00  0.00    +0.000 H 
ATOM    145  H46 UNL A   1      21.466  25.004  -5.985  1.00  0.00    +0.000 H 
ATOM    146  H47 UNL A   1      22.850  24.378  -7.869  1.00  0.00    +0.000 H 
ATOM     96  C72 UNL A   1      22.455  24.743  -5.853  1.00  0.00    +0.000 C 
BRANCH   35   33
ATOM     33  C29 UNL A   1      25.482  24.559  -7.974  1.00  0.00    +0.000 C 
ATOM     34  O2  UNL A   1      24.981  24.625  -9.073  1.00  0.00    +0.000 O 
BRANCH   33   32
ATOM    132  H33 UNL A   1      27.260  23.746  -7.430  1.00  0.00    +0.000 H 
ATOM     32  N2  UNL A   1      26.861  24.563  -7.805  1.00  0.00    +0.000 N 
BRANCH   32   31
ATOM    130  H31 UNL A   1      27.216  26.538  -8.321  1.00  0.00    +0.000 H 
ATOM    131  H32 UNL A   1      28.438  25.784  -7.291  1.00  0.00    +0.000 H 
ATOM     31  C28 UNL A   1      27.783  25.653  -8.126  1.00  0.00    +0.000 C 
BRANCH   31   30
ATOM    129  H30 UNL A   1      29.243  24.497  -9.089  1.00  0.00    +0.000 H 
ATOM     30  C27 UNL A   1      28.639  25.342  -9.342  1.00  0.00    +0.000 C 
ATOM    128  H29 UNL A   1      29.220  26.210  -9.575  1.00  0.00    +0.000 H 
BRANCH   30   29
ATOM     29  C26 UNL A   1      27.831  24.953 -10.591  1.00  0.00    +0.000 C 
ATOM    126  H27 UNL A   1      28.009  23.915 -10.782  1.00  0.00    +0.000 H 
ATOM    127  H28 UNL A   1      26.816  25.197 -10.357  1.00  0.00    +0.000 H 
BRANCH   29   28
ATOM    124  H25 UNL A   1      27.245  26.205 -12.206  1.00  0.00    +0.000 H 
ATOM     28  C25 UNL A   1      28.143  25.722 -11.884  1.00  0.00    +0.000 C 
ATOM    125  H26 UNL A   1      28.934  26.400 -11.638  1.00  0.00    +0.000 H 
BRANCH   28   27
ATOM    122  H23 UNL A   1      28.035  24.015 -13.141  1.00  0.00    +0.000 H 
ATOM     27  C24 UNL A   1      28.664  24.875 -13.046  1.00  0.00    +0.000 C 
ATOM    123  H24 UNL A   1      28.647  25.503 -13.912  1.00  0.00    +0.000 H 
BRANCH   27   26
ATOM    121  H22 UNL A   1      30.357  24.469 -11.850  1.00  0.00    +0.000 H 
ATOM     26  C23 UNL A   1      30.105  24.395 -12.886  1.00  0.00    +0.000 C 
ATOM    120  H21 UNL A   1      30.739  25.008 -13.492  1.00  0.00    +0.000 H 
BRANCH   26   25
ATOM     25  N1  UNL A   1      30.279  23.017 -13.281  1.00  0.00    +0.000 N 
ATOM    119  H20 UNL A   1      29.477  22.451 -13.213  1.00  0.00    +0.000 H 
BRANCH   25   23
ATOM     23  C22 UNL A   1      31.407  22.393 -13.735  1.00  0.00    +0.000 C 
ATOM     24  O1  UNL A   1      31.692  22.531 -14.927  1.00  0.00    +0.000 O 
BRANCH   23   22
ATOM    118  H19 UNL A   1      33.171  21.336 -13.309  1.00  0.00    +0.000 H 
ATOM    117  H18 UNL A   1      31.694  20.596 -12.648  1.00  0.00    +0.000 H 
ATOM     22  C21 UNL A   1      32.236  21.503 -12.818  1.00  0.00    +0.000 C 
BRANCH   22   21
ATOM      2  C2  UNL A   1      35.661  24.072 -11.087  1.00  0.00    +0.000 C 
ATOM     99  C74 UNL A   1      34.629  23.561 -12.135  1.00  0.00    +0.000 C 
ATOM      4  C4  UNL A   1      34.795  24.360  -9.815  1.00  0.00    +0.000 C 
ATOM      5  C5  UNL A   1      33.647  23.441 -10.008  1.00  0.00    +0.000 C 
ATOM     98  N7  UNL A   1      33.573  23.003 -11.301  1.00  0.00    +0.000 N 
ATOM      6  C6  UNL A   1      32.620  22.864  -9.314  1.00  0.00    +0.000 C 
ATOM    106  H7  UNL A   1      34.476  25.380  -9.785  1.00  0.00    +0.000 H 
ATOM    107  H8  UNL A   1      35.318  24.208  -8.894  1.00  0.00    +0.000 H 
ATOM     13  C13 UNL A   1      31.904  22.037 -10.251  1.00  0.00    +0.000 C 
ATOM    147  H48 UNL A   1      35.060  22.812 -12.767  1.00  0.00    +0.000 H 
ATOM    148  H49 UNL A   1      34.287  24.326 -12.800  1.00  0.00    +0.000 H 
ATOM     21  C20 UNL A   1      32.545  22.123 -11.488  1.00  0.00    +0.000 C 
BRANCH    2    1
ATOM      1  C1  UNL A   1      36.388  25.320 -11.586  1.00  0.00    +0.000 C 
ATOM    100  H1  UNL A   1      35.951  25.643 -12.508  1.00  0.00    +0.000 H 
ATOM    101  H2  UNL A   1      37.421  25.094 -11.740  1.00  0.00    +0.000 H 
ATOM    102  H3  UNL A   1      36.298  26.100 -10.858  1.00  0.00    +0.000 H 
ENDBRANCH    2    1
BRANCH    2    3
ATOM    105  H6  UNL A   1      36.400  22.435  -9.906  1.00  0.00    +0.000 H 
ATOM      3  C3  UNL A   1      36.709  22.987 -10.769  1.00  0.00    +0.000 C 
ATOM    103  H4  UNL A   1      37.654  23.451 -10.576  1.00  0.00    +0.000 H 
ATOM    104  H5  UNL A   1      36.801  22.325 -11.604  1.00  0.00    +0.000 H 
ENDBRANCH    2    3
BRANCH    6    7
ATOM      7  C7  UNL A   1      32.292  23.083  -7.922  1.00  0.00    +0.000 C 
ATOM      8  C8  UNL A   1      31.450  24.135  -7.558  1.00  0.00    +0.000 C 
ATOM      9  C9  UNL A   1      30.903  24.167  -6.276  1.00  0.00    +0.000 C 
ATOM     10  C10 UNL A   1      31.208  23.162  -5.356  1.00  0.00    +0.000 C 
ATOM     11  C11 UNL A   1      32.098  22.145  -5.696  1.00  0.00    +0.000 C 
ATOM     12  C12 UNL A   1      32.639  22.105  -6.978  1.00  0.00    +0.000 C 
ATOM    108  H9  UNL A   1      31.234  24.886  -8.233  1.00  0.00    +0.000 H 
ATOM    109  H10 UNL A   1      30.270  24.937  -6.005  1.00  0.00    +0.000 H 
ATOM    111  H12 UNL A   1      32.355  21.427  -5.001  1.00  0.00    +0.000 H 
ATOM    112  H13 UNL A   1      33.297  21.354  -7.235  1.00  0.00    +0.000 H 
ATOM    110  H11 UNL A   1      30.771  23.169  -4.420  1.00  0.00    +0.000 H 
ENDBRANCH    6    7
BRANCH   13   14
ATOM     14  C14 UNL A   1      30.697  21.272  -9.959  1.00  0.00    +0.000 C 
ATOM     15  C15 UNL A   1      30.810  19.940  -9.532  1.00  0.00    +0.000 C 
ATOM     16  C16 UNL A   1      29.675  19.136  -9.407  1.00  0.00    +0.000 C 
ATOM    113  H14 UNL A   1      31.740  19.553  -9.308  1.00  0.00    +0.000 H 
ATOM     17  C17 UNL A   1      28.419  19.665  -9.695  1.00  0.00    +0.000 C 
ATOM     19  C18 UNL A   1      28.292  20.987 -10.116  1.00  0.00    +0.000 C 
ATOM     20  C19 UNL A   1      29.431  21.782 -10.263  1.00  0.00    +0.000 C 
ATOM    116  H17 UNL A   1      29.338  22.754 -10.598  1.00  0.00    +0.000 H 
ATOM    114  H15 UNL A   1      29.766  18.154  -9.102  1.00  0.00    +0.000 H 
ATOM    115  H16 UNL A   1      27.358  21.378 -10.317  1.00  0.00    +0.000 H 
ATOM     18 Cl1  UNL A   1      27.021  18.671  -9.565  1.00  0.00    +0.000 Cl
ENDBRANCH   13   14
ENDBRANCH   22   21
ENDBRANCH   23   22
ENDBRANCH   25   23
ENDBRANCH   26   25
ENDBRANCH   27   26
ENDBRANCH   28   27
ENDBRANCH   29   28
ENDBRANCH   30   29
ENDBRANCH   31   30
ENDBRANCH   32   31
ENDBRANCH   33   32
ENDBRANCH   35   33
ENDBRANCH   39   38
BRANCH   43   44
ATOM     44  C38 UNL A   1      20.619  29.673  -0.388  1.00  0.00    +0.000 C 
ATOM     45  C39 UNL A   1      20.945  30.960  -0.868  1.00  0.00    +0.000 C 
ATOM     46  F1  UNL A   1      22.005  31.143  -1.668  1.00  0.00    +0.000 F 
ATOM     47  C40 UNL A   1      20.245  32.101  -0.465  1.00  0.00    +0.000 C 
ATOM     48  F2  UNL A   1      20.673  33.312  -0.846  1.00  0.00    +0.000 F 
ATOM     49  C41 UNL A   1      19.158  31.996   0.380  1.00  0.00    +0.000 C 
ATOM     50  F3  UNL A   1      18.523  33.092   0.817  1.00  0.00    +0.000 F 
ATOM     51  C42 UNL A   1      18.759  30.750   0.811  1.00  0.00    +0.000 C 
ATOM     52  F4  UNL A   1      17.715  30.627   1.643  1.00  0.00    +0.000 F 
ATOM     53  C43 UNL A   1      19.487  29.615   0.455  1.00  0.00    +0.000 C 
ATOM     54  F5  UNL A   1      19.099  28.485   1.056  1.00  0.00    +0.000 F 
ENDBRANCH   43   44
BRANCH   60   61
ATOM     65  F7  UNL A   1      22.448  21.079   4.651  1.00  0.00    +0.000 F 
ATOM     66  C52 UNL A   1      22.931  20.808   2.357  1.00  0.00    +0.000 C 
ATOM     67  F8  UNL A   1      23.499  19.619   2.602  1.00  0.00    +0.000 F 
ATOM     68  C53 UNL A   1      22.856  21.289   1.059  1.00  0.00    +0.000 C 
ATOM     69  F9  UNL A   1      23.333  20.554   0.045  1.00  0.00    +0.000 F 
ATOM     70  C54 UNL A   1      22.262  22.521   0.798  1.00  0.00    +0.000 C 
ATOM     71  F10 UNL A   1      22.190  22.948  -0.472  1.00  0.00    +0.000 F 
ATOM     61  C49 UNL A   1      21.705  23.290   1.826  1.00  0.00    +0.000 C 
ATOM     62  C50 UNL A   1      21.764  22.764   3.129  1.00  0.00    +0.000 C 
ATOM     63  F6  UNL A   1      21.172  23.394   4.151  1.00  0.00    +0.000 F 
ATOM     64  C51 UNL A   1      22.392  21.548   3.395  1.00  0.00    +0.000 C 
ENDBRANCH   60   61
BRANCH   75   76
ATOM     76  C58 UNL A   1      16.898  22.076  -1.977  1.00  0.00    +0.000 C 
ATOM     77  C59 UNL A   1      16.232  22.693  -3.048  1.00  0.00    +0.000 C 
ATOM     78  F11 UNL A   1      16.655  23.879  -3.507  1.00  0.00    +0.000 F 
ATOM     79  C60 UNL A   1      15.184  22.054  -3.718  1.00  0.00    +0.000 C 
ATOM     80  F12 UNL A   1      14.599  22.644  -4.770  1.00  0.00    +0.000 F 
ATOM     81  C61 UNL A   1      14.810  20.770  -3.362  1.00  0.00    +0.000 C 
ATOM     82  F13 UNL A   1      13.868  20.115  -4.054  1.00  0.00    +0.000 F 
ATOM     83  C62 UNL A   1      15.468  20.138  -2.324  1.00  0.00    +0.000 C 
ATOM     84  F14 UNL A   1      15.242  18.845  -2.089  1.00  0.00    +0.000 F 
ATOM     85  C63 UNL A   1      16.466  20.793  -1.611  1.00  0.00    +0.000 C 
ATOM     86  F15 UNL A   1      17.099  20.106  -0.648  1.00  0.00    +0.000 F 
ENDBRANCH   75   76
TORSDOF 20
ENDMDL
