MODEL 1
REMARK VINA RESULT:      -9.1      0.000      0.000
ROOT
ATOM     28  C20 UNL A   1      14.459  49.931   4.497  1.00  0.00    +0.000 C 
ATOM     29  C21 UNL A   1      15.011  49.539   3.152  1.00  0.00    +0.000 C 
ATOM     30  N4  UNL A   1      15.556  50.294   2.231  1.00  0.00    +0.000 N 
ATOM     31  C22 UNL A   1      15.907  49.438   1.195  1.00  0.00    +0.000 C 
ATOM     32  C23 UNL A   1      16.472  49.741   0.003  1.00  0.00    +0.000 C 
ATOM     44  C30 UNL A   1      16.816  51.073  -0.422  1.00  0.00    +0.000 C 
ATOM     45  C31 UNL A   1      17.375  51.477  -1.624  1.00  0.00    +0.000 C 
ATOM     46  C32 UNL A   1      17.554  52.864  -1.578  1.00  0.00    +0.000 C 
ATOM     47  C33 UNL A   1      17.074  53.326  -0.364  1.00  0.00    +0.000 C 
ATOM     48  N5  UNL A   1      16.628  52.217   0.337  1.00  0.00    +0.000 N 
ATOM     49  C34 UNL A   1      17.031  54.680   0.126  1.00  0.00    +0.000 C 
ATOM     61  C41 UNL A   1      16.505  55.060   1.315  1.00  0.00    +0.000 C 
ATOM     62  N6  UNL A   1      15.926  54.273   2.300  1.00  0.00    +0.000 N 
ATOM     63  C42 UNL A   1      15.599  55.092   3.268  1.00  0.00    +0.000 C 
ATOM     64  C43 UNL A   1      14.937  54.789   4.582  1.00  0.00    +0.000 C 
ATOM     76  C50 UNL A   1      14.673  53.510   4.909  1.00  0.00    +0.000 C 
ATOM     77  C51 UNL A   1      14.043  53.070   6.151  1.00  0.00    +0.000 C 
ATOM     78  C52 UNL A   1      13.952  51.731   6.146  1.00  0.00    +0.000 C 
ATOM     79  C53 UNL A   1      14.471  51.223   4.876  1.00  0.00    +0.000 C 
ATOM     80  N7  UNL A   1      14.910  52.346   4.220  1.00  0.00    +0.000 N 
ATOM     81  C54 UNL A   1      15.937  56.499   3.007  1.00  0.00    +0.000 C 
ATOM     82  C55 UNL A   1      16.462  56.426   1.791  1.00  0.00    +0.000 C 
ATOM     83  C56 UNL A   1      15.537  48.102   1.607  1.00  0.00    +0.000 C 
ATOM     84  C57 UNL A   1      14.940  48.114   2.792  1.00  0.00    +0.000 C 
ATOM    109  H23 UNL A   1      17.617  50.862  -2.415  1.00  0.00    +0.000 H 
ATOM    110  H24 UNL A   1      17.973  53.443  -2.322  1.00  0.00    +0.000 H 
ATOM    111  H25 UNL A   1      16.236  52.238   1.239  1.00  0.00    +0.000 H 
ATOM    112  H26 UNL A   1      13.720  53.689   6.911  1.00  0.00    +0.000 H 
ATOM    113  H27 UNL A   1      13.577  51.153   6.914  1.00  0.00    +0.000 H 
ATOM    114  H28 UNL A   1      15.351  52.320   3.340  1.00  0.00    +0.000 H 
ATOM    115  H29 UNL A   1      15.801  57.325   3.610  1.00  0.00    +0.000 H 
ATOM    116  H30 UNL A   1      16.799  57.241   1.253  1.00  0.00    +0.000 H 
ATOM    117  H31 UNL A   1      15.715  47.250   1.052  1.00  0.00    +0.000 H 
ATOM    118  H32 UNL A   1      14.533  47.328   3.322  1.00  0.00    +0.000 H 
ENDROOT
BRANCH   28   27
ATOM     27  C19 UNL A   1      13.832  48.915   5.383  1.00  0.00    +0.000 C 
ATOM    107  H21 UNL A   1      10.846  47.490   5.973  1.00  0.00    +0.000 H 
ATOM    108  H22 UNL A   1      11.892  49.173   4.579  1.00  0.00    +0.000 H 
ATOM     85  C58 UNL A   1      14.587  48.203   6.329  1.00  0.00    +0.000 C 
ATOM     86  C59 UNL A   1      14.005  47.155   7.047  1.00  0.00    +0.000 C 
ATOM    120  H34 UNL A   1      14.570  46.611   7.718  1.00  0.00    +0.000 H 
ATOM     24  C16 UNL A   1      12.655  46.845   6.852  1.00  0.00    +0.000 C 
ATOM     25  C17 UNL A   1      11.866  47.640   6.019  1.00  0.00    +0.000 C 
ATOM     26  C18 UNL A   1      12.462  48.636   5.252  1.00  0.00    +0.000 C 
ATOM    119  H33 UNL A   1      15.573  48.455   6.494  1.00  0.00    +0.000 H 
BRANCH   24   22
ATOM     22  C15 UNL A   1      12.094  45.641   7.504  1.00  0.00    +0.000 C 
ATOM     23  O3  UNL A   1      11.802  44.659   6.828  1.00  0.00    +0.000 O 
BRANCH   22   21
ATOM    106  H20 UNL A   1      12.534  45.192   9.411  1.00  0.00    +0.000 H 
ATOM     21  N3  UNL A   1      11.859  45.649   8.860  1.00  0.00    +0.000 N 
BRANCH   21   20
ATOM    105  H19 UNL A   1      10.728  45.785  10.559  1.00  0.00    +0.000 H 
ATOM     20  C14 UNL A   1      10.749  46.241   9.592  1.00  0.00    +0.000 C 
ATOM    104  H18 UNL A   1       9.848  46.065   9.042  1.00  0.00    +0.000 H 
BRANCH   20   19
ATOM     19  C13 UNL A   1      10.900  47.744   9.806  1.00  0.00    +0.000 C 
ATOM    102  H16 UNL A   1      10.846  48.220   8.850  1.00  0.00    +0.000 H 
ATOM    103  H17 UNL A   1      10.113  48.026  10.473  1.00  0.00    +0.000 H 
BRANCH   19   18
ATOM     18  C12 UNL A   1      12.200  48.184  10.479  1.00  0.00    +0.000 C 
ATOM    100  H14 UNL A   1      11.973  48.459  11.487  1.00  0.00    +0.000 H 
ATOM    101  H15 UNL A   1      12.868  47.351  10.399  1.00  0.00    +0.000 H 
BRANCH   18   17
ATOM     17  C11 UNL A   1      12.920  49.362   9.818  1.00  0.00    +0.000 C 
ATOM     98  H12 UNL A   1      13.164  50.070  10.583  1.00  0.00    +0.000 H 
ATOM     99  H13 UNL A   1      13.772  48.943   9.325  1.00  0.00    +0.000 H 
BRANCH   17   16
ATOM     97  H11 UNL A   1      11.321  49.457   8.457  1.00  0.00    +0.000 H 
ATOM     96  H10 UNL A   1      12.799  50.313   7.920  1.00  0.00    +0.000 H 
ATOM     16  C10 UNL A   1      12.131  50.102   8.729  1.00  0.00    +0.000 C 
BRANCH   16   15
ATOM     95  H9  UNL A   1      10.431  51.292   9.186  1.00  0.00    +0.000 H 
ATOM     94  H8  UNL A   1      11.772  52.189   8.483  1.00  0.00    +0.000 H 
ATOM     15  C9  UNL A   1      11.494  51.419   9.170  1.00  0.00    +0.000 C 
BRANCH   15   14
ATOM     93  H7  UNL A   1      11.881  51.119  11.216  1.00  0.00    +0.000 H 
ATOM     14  N2  UNL A   1      11.929  51.793  10.500  1.00  0.00    +0.000 N 
BRANCH   14    2
ATOM      1  O1  UNL A   1      11.861  53.813  11.597  1.00  0.00    +0.000 O 
ATOM      2  C1  UNL A   1      12.407  53.048  10.808  1.00  0.00    +0.000 C 
BRANCH    2    3
ATOM      3  C2  UNL A   1      13.674  53.435  10.053  1.00  0.00    +0.000 C 
ATOM     87  H1  UNL A   1      13.956  54.429  10.330  1.00  0.00    +0.000 H 
ATOM     88  H2  UNL A   1      13.475  53.379   9.004  1.00  0.00    +0.000 H 
BRANCH    3    4
ATOM      4  C3  UNL A   1      14.804  52.495  10.377  1.00  0.00    +0.000 C 
ATOM      5  C4  UNL A   1      15.106  52.226  11.769  1.00  0.00    +0.000 C 
ATOM      6  C5  UNL A   1      16.129  51.431  12.107  1.00  0.00    +0.000 C 
ATOM      7  C6  UNL A   1      16.969  50.792  11.057  1.00  0.00    +0.000 C 
ATOM      8  O2  UNL A   1      17.915  50.096  11.408  1.00  0.00    +0.000 O 
ATOM      9  N1  UNL A   1      16.589  51.050   9.748  1.00  0.00    +0.000 N 
ATOM     13  C8  UNL A   1      15.537  51.890   9.426  1.00  0.00    +0.000 C 
ATOM     89  H3  UNL A   1      14.525  52.651  12.508  1.00  0.00    +0.000 H 
ATOM     90  H4  UNL A   1      16.337  51.259  13.102  1.00  0.00    +0.000 H 
ATOM     92  H6  UNL A   1      15.310  52.057   8.433  1.00  0.00    +0.000 H 
BRANCH    9   10
ATOM     10  C7  UNL A   1      17.381  50.443   8.710  1.00  0.00    +0.000 C 
ATOM     11  F1  UNL A   1      16.690  50.387   7.545  1.00  0.00    +0.000 F 
ATOM     12  F2  UNL A   1      18.520  51.143   8.490  1.00  0.00    +0.000 F 
ATOM     91  H5  UNL A   1      17.624  49.454   9.041  1.00  0.00    +0.000 H 
ENDBRANCH    9   10
ENDBRANCH    3    4
ENDBRANCH    2    3
ENDBRANCH   14    2
ENDBRANCH   15   14
ENDBRANCH   16   15
ENDBRANCH   17   16
ENDBRANCH   18   17
ENDBRANCH   19   18
ENDBRANCH   20   19
ENDBRANCH   21   20
ENDBRANCH   22   21
ENDBRANCH   24   22
ENDBRANCH   28   27
BRANCH   32   33
ATOM     33  C24 UNL A   1      16.762  48.613  -0.942  1.00  0.00    +0.000 C 
ATOM     34  C25 UNL A   1      15.904  48.316  -2.011  1.00  0.00    +0.000 C 
ATOM     35  F3  UNL A   1      14.757  48.994  -2.164  1.00  0.00    +0.000 F 
ATOM     36  C26 UNL A   1      16.214  47.304  -2.917  1.00  0.00    +0.000 C 
ATOM     37  F4  UNL A   1      15.367  47.020  -3.917  1.00  0.00    +0.000 F 
ATOM     38  C27 UNL A   1      17.395  46.589  -2.785  1.00  0.00    +0.000 C 
ATOM     39  F5  UNL A   1      17.698  45.625  -3.666  1.00  0.00    +0.000 F 
ATOM     40  C28 UNL A   1      18.260  46.870  -1.739  1.00  0.00    +0.000 C 
ATOM     41  F6  UNL A   1      19.406  46.187  -1.616  1.00  0.00    +0.000 F 
ATOM     42  C29 UNL A   1      17.943  47.866  -0.819  1.00  0.00    +0.000 C 
ATOM     43  F7  UNL A   1      18.799  48.116   0.184  1.00  0.00    +0.000 F 
ENDBRANCH   32   33
BRANCH   49   50
ATOM     50  C35 UNL A   1      17.602  55.754  -0.749  1.00  0.00    +0.000 C 
ATOM     51  C36 UNL A   1      18.963  56.090  -0.691  1.00  0.00    +0.000 C 
ATOM     52  F8  UNL A   1      19.766  55.501   0.208  1.00  0.00    +0.000 F 
ATOM     53  C37 UNL A   1      19.497  57.053  -1.542  1.00  0.00    +0.000 C 
ATOM     54  F9  UNL A   1      20.793  57.381  -1.452  1.00  0.00    +0.000 F 
ATOM     55  C38 UNL A   1      18.688  57.677  -2.481  1.00  0.00    +0.000 C 
ATOM     56  F10 UNL A   1      19.207  58.596  -3.308  1.00  0.00    +0.000 F 
ATOM     57  C39 UNL A   1      17.342  57.354  -2.560  1.00  0.00    +0.000 C 
ATOM     58  F11 UNL A   1      16.563  57.950  -3.473  1.00  0.00    +0.000 F 
ATOM     59  C40 UNL A   1      16.800  56.407  -1.696  1.00  0.00    +0.000 C 
ATOM     60  F12 UNL A   1      15.494  56.114  -1.793  1.00  0.00    +0.000 F 
ENDBRANCH   49   50
BRANCH   64   65
ATOM     65  C44 UNL A   1      14.566  55.876   5.521  1.00  0.00    +0.000 C 
ATOM     66  C45 UNL A   1      15.542  56.525   6.287  1.00  0.00    +0.000 C 
ATOM     67  F13 UNL A   1      16.822  56.131   6.216  1.00  0.00    +0.000 F 
ATOM     68  C46 UNL A   1      15.202  57.567   7.148  1.00  0.00    +0.000 C 
ATOM     69  F14 UNL A   1      16.150  58.157   7.890  1.00  0.00    +0.000 F 
ATOM     70  C47 UNL A   1      13.886  57.992   7.241  1.00  0.00    +0.000 C 
ATOM     71  F15 UNL A   1      13.562  59.004   8.057  1.00  0.00    +0.000 F 
ATOM     72  C48 UNL A   1      12.903  57.366   6.488  1.00  0.00    +0.000 C 
ATOM     73  F16 UNL A   1      11.632  57.781   6.565  1.00  0.00    +0.000 F 
ATOM     74  C49 UNL A   1      13.238  56.308   5.646  1.00  0.00    +0.000 C 
ATOM     75  F17 UNL A   1      12.270  55.717   4.931  1.00  0.00    +0.000 F 
ENDBRANCH   64   65
TORSDOF 17
ENDMDL
MODEL 2
REMARK VINA RESULT:      -9.1      2.904      7.500
ROOT
ATOM     28  C20 UNL A   1      13.282  53.278   6.070  1.00  0.00    +0.000 C 
ATOM     29  C21 UNL A   1      12.859  51.842   5.906  1.00  0.00    +0.000 C 
ATOM     30  N4  UNL A   1      13.231  50.969   5.002  1.00  0.00    +0.000 N 
ATOM     31  C22 UNL A   1      12.559  49.794   5.309  1.00  0.00    +0.000 C 
ATOM     32  C23 UNL A   1      12.583  48.610   4.651  1.00  0.00    +0.000 C 
ATOM     44  C30 UNL A   1      13.340  48.357   3.454  1.00  0.00    +0.000 C 
ATOM     45  C31 UNL A   1      13.409  47.193   2.706  1.00  0.00    +0.000 C 
ATOM     46  C32 UNL A   1      14.291  47.407   1.643  1.00  0.00    +0.000 C 
ATOM     47  C33 UNL A   1      14.744  48.715   1.707  1.00  0.00    +0.000 C 
ATOM     48  N5  UNL A   1      14.156  49.285   2.824  1.00  0.00    +0.000 N 
ATOM     49  C34 UNL A   1      15.651  49.394   0.819  1.00  0.00    +0.000 C 
ATOM     61  C41 UNL A   1      16.015  50.694   0.925  1.00  0.00    +0.000 C 
ATOM     62  N6  UNL A   1      15.631  51.629   1.876  1.00  0.00    +0.000 N 
ATOM     63  C42 UNL A   1      16.270  52.732   1.573  1.00  0.00    +0.000 C 
ATOM     64  C43 UNL A   1      16.232  54.067   2.261  1.00  0.00    +0.000 C 
ATOM     76  C50 UNL A   1      15.515  54.207   3.392  1.00  0.00    +0.000 C 
ATOM     77  C51 UNL A   1      15.396  55.439   4.166  1.00  0.00    +0.000 C 
ATOM     78  C52 UNL A   1      14.620  55.210   5.237  1.00  0.00    +0.000 C 
ATOM     79  C53 UNL A   1      14.146  53.826   5.195  1.00  0.00    +0.000 C 
ATOM     80  N7  UNL A   1      14.756  53.297   4.085  1.00  0.00    +0.000 N 
ATOM     81  C54 UNL A   1      17.138  52.620   0.391  1.00  0.00    +0.000 C 
ATOM     82  C55 UNL A   1      16.924  51.366   0.020  1.00  0.00    +0.000 C 
ATOM     83  C56 UNL A   1      11.774  50.052   6.496  1.00  0.00    +0.000 C 
ATOM     84  C57 UNL A   1      11.891  51.316   6.881  1.00  0.00    +0.000 C 
ATOM    109  H23 UNL A   1      12.897  46.319   2.901  1.00  0.00    +0.000 H 
ATOM    110  H24 UNL A   1      14.560  46.709   0.932  1.00  0.00    +0.000 H 
ATOM    111  H25 UNL A   1      14.296  50.211   3.127  1.00  0.00    +0.000 H 
ATOM    112  H26 UNL A   1      15.836  56.342   3.929  1.00  0.00    +0.000 H 
ATOM    113  H27 UNL A   1      14.394  55.898   5.972  1.00  0.00    +0.000 H 
ATOM    114  H28 UNL A   1      14.659  52.356   3.813  1.00  0.00    +0.000 H 
ATOM    115  H29 UNL A   1      17.751  53.332  -0.036  1.00  0.00    +0.000 H 
ATOM    116  H30 UNL A   1      17.351  50.924  -0.809  1.00  0.00    +0.000 H 
ATOM    117  H31 UNL A   1      11.199  49.346   6.980  1.00  0.00    +0.000 H 
ATOM    118  H32 UNL A   1      11.424  51.803   7.662  1.00  0.00    +0.000 H 
ENDROOT
BRANCH   28   27
ATOM     27  C19 UNL A   1      12.698  54.120   7.146  1.00  0.00    +0.000 C 
ATOM    107  H21 UNL A   1      13.447  55.291  10.207  1.00  0.00    +0.000 H 
ATOM    108  H22 UNL A   1      14.346  53.885   8.451  1.00  0.00    +0.000 H 
ATOM     85  C58 UNL A   1      11.439  54.724   7.001  1.00  0.00    +0.000 C 
ATOM     86  C59 UNL A   1      10.977  55.626   7.964  1.00  0.00    +0.000 C 
ATOM    120  H34 UNL A   1      10.065  56.094   7.840  1.00  0.00    +0.000 H 
ATOM     24  C16 UNL A   1      11.754  55.892   9.096  1.00  0.00    +0.000 C 
ATOM     25  C17 UNL A   1      12.939  55.188   9.314  1.00  0.00    +0.000 C 
ATOM     26  C18 UNL A   1      13.432  54.346   8.322  1.00  0.00    +0.000 C 
ATOM    119  H33 UNL A   1      10.854  54.502   6.181  1.00  0.00    +0.000 H 
BRANCH   24   22
ATOM     22  C15 UNL A   1      11.323  56.957  10.028  1.00  0.00    +0.000 C 
ATOM     23  O3  UNL A   1      11.633  58.125   9.807  1.00  0.00    +0.000 O 
BRANCH   22   21
ATOM    106  H20 UNL A   1       9.637  56.657  11.077  1.00  0.00    +0.000 H 
ATOM     21  N3  UNL A   1      10.617  56.626  11.162  1.00  0.00    +0.000 N 
BRANCH   21   20
ATOM    105  H19 UNL A   1      10.321  56.363  13.168  1.00  0.00    +0.000 H 
ATOM     20  C14 UNL A   1      11.121  56.234  12.470  1.00  0.00    +0.000 C 
ATOM    104  H18 UNL A   1      11.966  56.847  12.705  1.00  0.00    +0.000 H 
BRANCH   20   19
ATOM     19  C13 UNL A   1      11.549  54.772  12.540  1.00  0.00    +0.000 C 
ATOM    102  H16 UNL A   1      10.749  54.216  12.982  1.00  0.00    +0.000 H 
ATOM    103  H17 UNL A   1      11.772  54.482  11.535  1.00  0.00    +0.000 H 
BRANCH   19   18
ATOM     18  C12 UNL A   1      12.817  54.497  13.349  1.00  0.00    +0.000 C 
ATOM    100  H14 UNL A   1      13.196  55.435  13.696  1.00  0.00    +0.000 H 
ATOM    101  H15 UNL A   1      12.525  53.831  14.135  1.00  0.00    +0.000 H 
BRANCH   18   17
ATOM     17  C11 UNL A   1      13.941  53.784  12.593  1.00  0.00    +0.000 C 
ATOM     98  H12 UNL A   1      14.365  54.479  11.899  1.00  0.00    +0.000 H 
ATOM     99  H13 UNL A   1      14.626  53.445  13.342  1.00  0.00    +0.000 H 
BRANCH   17   16
ATOM     97  H11 UNL A   1      13.780  52.721  10.786  1.00  0.00    +0.000 H 
ATOM     96  H10 UNL A   1      12.483  52.368  11.967  1.00  0.00    +0.000 H 
ATOM     16  C10 UNL A   1      13.529  52.530  11.808  1.00  0.00    +0.000 C 
BRANCH   16   15
ATOM     95  H9  UNL A   1      13.910  50.927  13.150  1.00  0.00    +0.000 H 
ATOM     94  H8  UNL A   1      15.319  51.453  12.235  1.00  0.00    +0.000 H 
ATOM     15  C9  UNL A   1      14.270  51.250  12.196  1.00  0.00    +0.000 C 
BRANCH   15   14
ATOM     93  H7  UNL A   1      13.100  49.908  11.075  1.00  0.00    +0.000 H 
ATOM     14  N2  UNL A   1      14.029  50.193  11.236  1.00  0.00    +0.000 N 
BRANCH   14    2
ATOM      1  O1  UNL A   1      16.210  49.548  10.901  1.00  0.00    +0.000 O 
ATOM      2  C1  UNL A   1      15.039  49.570  10.536  1.00  0.00    +0.000 C 
BRANCH    2    3
ATOM      3  C2  UNL A   1      14.587  48.924   9.231  1.00  0.00    +0.000 C 
ATOM     87  H1  UNL A   1      13.545  49.119   9.087  1.00  0.00    +0.000 H 
ATOM     88  H2  UNL A   1      14.767  47.871   9.292  1.00  0.00    +0.000 H 
BRANCH    3    4
ATOM      4  C3  UNL A   1      15.359  49.474   8.061  1.00  0.00    +0.000 C 
ATOM      5  C4  UNL A   1      15.628  50.898   8.016  1.00  0.00    +0.000 C 
ATOM      6  C5  UNL A   1      16.272  51.440   6.974  1.00  0.00    +0.000 C 
ATOM      7  C6  UNL A   1      16.741  50.586   5.848  1.00  0.00    +0.000 C 
ATOM      8  O2  UNL A   1      17.300  51.126   4.900  1.00  0.00    +0.000 O 
ATOM      9  N1  UNL A   1      16.497  49.228   5.985  1.00  0.00    +0.000 N 
ATOM     13  C8  UNL A   1      15.813  48.696   7.065  1.00  0.00    +0.000 C 
ATOM     89  H3  UNL A   1      15.320  51.500   8.794  1.00  0.00    +0.000 H 
ATOM     90  H4  UNL A   1      16.445  52.456   6.953  1.00  0.00    +0.000 H 
ATOM     92  H6  UNL A   1      15.648  47.678   7.104  1.00  0.00    +0.000 H 
BRANCH    9   10
ATOM     10  C7  UNL A   1      16.943  48.377   4.912  1.00  0.00    +0.000 C 
ATOM     11  F1  UNL A   1      16.061  47.370   4.696  1.00  0.00    +0.000 F 
ATOM     12  F2  UNL A   1      17.076  49.073   3.757  1.00  0.00    +0.000 F 
ATOM     91  H5  UNL A   1      17.892  47.977   5.205  1.00  0.00    +0.000 H 
ENDBRANCH    9   10
ENDBRANCH    3    4
ENDBRANCH    2    3
ENDBRANCH   14    2
ENDBRANCH   15   14
ENDBRANCH   16   15
ENDBRANCH   17   16
ENDBRANCH   18   17
ENDBRANCH   19   18
ENDBRANCH   20   19
ENDBRANCH   21   20
ENDBRANCH   22   21
ENDBRANCH   24   22
ENDBRANCH   28   27
BRANCH   32   33
ATOM     33  C24 UNL A   1      11.764  47.483   5.208  1.00  0.00    +0.000 C 
ATOM     34  C25 UNL A   1      12.305  46.568   6.123  1.00  0.00    +0.000 C 
ATOM     35  F3  UNL A   1      13.600  46.640   6.462  1.00  0.00    +0.000 F 
ATOM     36  C26 UNL A   1      11.517  45.562   6.678  1.00  0.00    +0.000 C 
ATOM     37  F4  UNL A   1      12.061  44.683   7.531  1.00  0.00    +0.000 F 
ATOM     38  C27 UNL A   1      10.174  45.467   6.348  1.00  0.00    +0.000 C 
ATOM     39  F5  UNL A   1       9.415  44.507   6.894  1.00  0.00    +0.000 F 
ATOM     40  C28 UNL A   1       9.617  46.365   5.450  1.00  0.00    +0.000 C 
ATOM     41  F6  UNL A   1       8.317  46.281   5.138  1.00  0.00    +0.000 F 
ATOM     42  C29 UNL A   1      10.406  47.358   4.876  1.00  0.00    +0.000 C 
ATOM     43  F7  UNL A   1       9.841  48.213   4.010  1.00  0.00    +0.000 F 
ENDBRANCH   32   33
BRANCH   49   50
ATOM     50  C35 UNL A   1      16.231  48.607  -0.317  1.00  0.00    +0.000 C 
ATOM     51  C36 UNL A   1      17.537  48.099  -0.256  1.00  0.00    +0.000 C 
ATOM     52  F8  UNL A   1      18.319  48.374   0.799  1.00  0.00    +0.000 F 
ATOM     53  C37 UNL A   1      18.051  47.326  -1.292  1.00  0.00    +0.000 C 
ATOM     54  F9  UNL A   1      19.311  46.874  -1.228  1.00  0.00    +0.000 F 
ATOM     55  C38 UNL A   1      17.263  47.026  -2.395  1.00  0.00    +0.000 C 
ATOM     56  F10 UNL A   1      17.756  46.272  -3.387  1.00  0.00    +0.000 F 
ATOM     57  C39 UNL A   1      15.967  47.512  -2.471  1.00  0.00    +0.000 C 
ATOM     58  F11 UNL A   1      15.202  47.216  -3.531  1.00  0.00    +0.000 F 
ATOM     59  C40 UNL A   1      15.457  48.304  -1.446  1.00  0.00    +0.000 C 
ATOM     60  F12 UNL A   1      14.199  48.763  -1.547  1.00  0.00    +0.000 F 
ENDBRANCH   49   50
BRANCH   64   65
ATOM     65  C44 UNL A   1      16.968  55.232   1.711  1.00  0.00    +0.000 C 
ATOM     66  C45 UNL A   1      16.320  56.171   0.900  1.00  0.00    +0.000 C 
ATOM     67  F13 UNL A   1      15.032  55.996   0.570  1.00  0.00    +0.000 F 
ATOM     68  C46 UNL A   1      16.999  57.282   0.406  1.00  0.00    +0.000 C 
ATOM     69  F14 UNL A   1      16.364  58.156  -0.389  1.00  0.00    +0.000 F 
ATOM     70  C47 UNL A   1      18.332  57.486   0.732  1.00  0.00    +0.000 C 
ATOM     71  F15 UNL A   1      18.981  58.563   0.269  1.00  0.00    +0.000 F 
ATOM     72  C48 UNL A   1      18.993  56.570   1.538  1.00  0.00    +0.000 C 
ATOM     73  F16 UNL A   1      20.277  56.768   1.865  1.00  0.00    +0.000 F 
ATOM     74  C49 UNL A   1      18.322  55.445   2.011  1.00  0.00    +0.000 C 
ATOM     75  F17 UNL A   1      18.983  54.573   2.785  1.00  0.00    +0.000 F 
ENDBRANCH   64   65
TORSDOF 17
ENDMDL
MODEL 3
REMARK VINA RESULT:      -9.0     37.634     44.001
ROOT
ATOM     28  C20 UNL A   1      38.344  30.062  29.660  1.00  0.00    +0.000 C 
ATOM     29  C21 UNL A   1      38.589  30.575  31.056  1.00  0.00    +0.000 C 
ATOM     30  N4  UNL A   1      39.596  30.336  31.858  1.00  0.00    +0.000 N 
ATOM     31  C22 UNL A   1      39.342  31.061  33.015  1.00  0.00    +0.000 C 
ATOM     32  C23 UNL A   1      40.072  31.119  34.154  1.00  0.00    +0.000 C 
ATOM     44  C30 UNL A   1      41.295  30.393  34.377  1.00  0.00    +0.000 C 
ATOM     45  C31 UNL A   1      42.092  30.374  35.510  1.00  0.00    +0.000 C 
ATOM     46  C32 UNL A   1      43.191  29.546  35.258  1.00  0.00    +0.000 C 
ATOM     47  C33 UNL A   1      43.059  29.022  33.983  1.00  0.00    +0.000 C 
ATOM     48  N5  UNL A   1      41.894  29.552  33.453  1.00  0.00    +0.000 N 
ATOM     49  C34 UNL A   1      43.934  28.109  33.294  1.00  0.00    +0.000 C 
ATOM     61  C41 UNL A   1      43.714  27.606  32.056  1.00  0.00    +0.000 C 
ATOM     62  N6  UNL A   1      42.654  27.850  31.195  1.00  0.00    +0.000 N 
ATOM     63  C42 UNL A   1      42.906  27.159  30.111  1.00  0.00    +0.000 C 
ATOM     64  C43 UNL A   1      42.097  27.047  28.851  1.00  0.00    +0.000 C 
ATOM     76  C50 UNL A   1      40.977  27.782  28.717  1.00  0.00    +0.000 C 
ATOM     77  C51 UNL A   1      40.101  27.779  27.549  1.00  0.00    +0.000 C 
ATOM     78  C52 UNL A   1      39.093  28.641  27.754  1.00  0.00    +0.000 C 
ATOM     79  C53 UNL A   1      39.226  29.219  29.092  1.00  0.00    +0.000 C 
ATOM     80  N7  UNL A   1      40.391  28.678  29.576  1.00  0.00    +0.000 N 
ATOM     81  C54 UNL A   1      44.162  26.395  30.161  1.00  0.00    +0.000 C 
ATOM     82  C55 UNL A   1      44.601  26.682  31.380  1.00  0.00    +0.000 C 
ATOM     83  C56 UNL A   1      38.099  31.770  32.805  1.00  0.00    +0.000 C 
ATOM     84  C57 UNL A   1      37.570  31.471  31.625  1.00  0.00    +0.000 C 
ATOM    109  H23 UNL A   1      41.907  30.883  36.388  1.00  0.00    +0.000 H 
ATOM    110  H24 UNL A   1      43.968  29.360  35.911  1.00  0.00    +0.000 H 
ATOM    111  H25 UNL A   1      41.543  29.360  32.553  1.00  0.00    +0.000 H 
ATOM    112  H26 UNL A   1      40.234  27.205  26.701  1.00  0.00    +0.000 H 
ATOM    113  H27 UNL A   1      38.345  28.861  27.078  1.00  0.00    +0.000 H 
ATOM    114  H28 UNL A   1      40.771  28.911  30.454  1.00  0.00    +0.000 H 
ATOM    115  H29 UNL A   1      44.589  25.794  29.439  1.00  0.00    +0.000 H 
ATOM    116  H30 UNL A   1      45.465  26.297  31.792  1.00  0.00    +0.000 H 
ATOM    117  H31 UNL A   1      37.679  32.424  33.483  1.00  0.00    +0.000 H 
ATOM    118  H32 UNL A   1      36.677  31.785  31.215  1.00  0.00    +0.000 H 
ENDROOT
BRANCH   28   27
ATOM     27  C19 UNL A   1      37.099  30.420  28.931  1.00  0.00    +0.000 C 
ATOM    107  H21 UNL A   1      34.250  29.013  27.835  1.00  0.00    +0.000 H 
ATOM    108  H22 UNL A   1      36.312  28.457  28.979  1.00  0.00    +0.000 H 
ATOM     85  C58 UNL A   1      36.854  31.734  28.502  1.00  0.00    +0.000 C 
ATOM     86  C59 UNL A   1      35.617  32.073  27.948  1.00  0.00    +0.000 C 
ATOM    120  H34 UNL A   1      35.426  33.047  27.663  1.00  0.00    +0.000 H 
ATOM     24  C16 UNL A   1      34.637  31.089  27.782  1.00  0.00    +0.000 C 
ATOM     25  C17 UNL A   1      34.926  29.755  28.075  1.00  0.00    +0.000 C 
ATOM     26  C18 UNL A   1      36.130  29.431  28.693  1.00  0.00    +0.000 C 
ATOM    119  H33 UNL A   1      37.590  32.451  28.596  1.00  0.00    +0.000 H 
BRANCH   24   22
ATOM     22  C15 UNL A   1      33.285  31.491  27.337  1.00  0.00    +0.000 C 
ATOM     23  O3  UNL A   1      32.973  32.679  27.323  1.00  0.00    +0.000 O 
BRANCH   22   21
ATOM    106  H20 UNL A   1      31.761  30.236  27.705  1.00  0.00    +0.000 H 
ATOM     21  N3  UNL A   1      32.368  30.525  26.987  1.00  0.00    +0.000 N 
BRANCH   21   20
ATOM    105  H19 UNL A   1      32.948  30.221  25.049  1.00  0.00    +0.000 H 
ATOM     20  C14 UNL A   1      32.173  29.874  25.700  1.00  0.00    +0.000 C 
ATOM    104  H18 UNL A   1      31.198  30.125  25.337  1.00  0.00    +0.000 H 
BRANCH   20   19
ATOM     19  C13 UNL A   1      32.289  28.355  25.768  1.00  0.00    +0.000 C 
ATOM    102  H16 UNL A   1      32.421  28.080  26.793  1.00  0.00    +0.000 H 
ATOM    103  H17 UNL A   1      31.391  27.972  25.331  1.00  0.00    +0.000 H 
BRANCH   19   18
ATOM     18  C12 UNL A   1      33.440  27.747  24.966  1.00  0.00    +0.000 C 
ATOM    100  H14 UNL A   1      33.057  27.453  24.012  1.00  0.00    +0.000 H 
ATOM    101  H15 UNL A   1      34.193  28.506  24.913  1.00  0.00    +0.000 H 
BRANCH   18   17
ATOM     17  C11 UNL A   1      34.116  26.529  25.599  1.00  0.00    +0.000 C 
ATOM     98  H12 UNL A   1      34.792  26.116  24.880  1.00  0.00    +0.000 H 
ATOM     99  H13 UNL A   1      34.592  26.889  26.488  1.00  0.00    +0.000 H 
BRANCH   17   16
ATOM     97  H11 UNL A   1      32.426  25.315  25.300  1.00  0.00    +0.000 H 
ATOM     96  H10 UNL A   1      32.782  25.673  27.017  1.00  0.00    +0.000 H 
ATOM     16  C10 UNL A   1      33.175  25.406  26.058  1.00  0.00    +0.000 C 
BRANCH   16   15
ATOM     95  H9  UNL A   1      33.789  23.728  27.208  1.00  0.00    +0.000 H 
ATOM     94  H8  UNL A   1      34.834  24.085  25.837  1.00  0.00    +0.000 H 
ATOM     15  C9  UNL A   1      33.823  24.027  26.181  1.00  0.00    +0.000 C 
BRANCH   15   14
ATOM     93  H7  UNL A   1      32.333  22.594  25.795  1.00  0.00    +0.000 H 
ATOM     14  N2  UNL A   1      33.113  23.041  25.394  1.00  0.00    +0.000 N 
BRANCH   14    2
ATOM      1  O1  UNL A   1      34.622  22.401  23.781  1.00  0.00    +0.000 O 
ATOM      2  C1  UNL A   1      33.478  22.700  24.110  1.00  0.00    +0.000 C 
BRANCH    2    3
ATOM      3  C2  UNL A   1      32.336  22.757  23.101  1.00  0.00    +0.000 C 
ATOM     87  H1  UNL A   1      31.517  22.173  23.467  1.00  0.00    +0.000 H 
ATOM     88  H2  UNL A   1      32.687  22.368  22.168  1.00  0.00    +0.000 H 
BRANCH    3    4
ATOM      4  C3  UNL A   1      31.874  24.173  22.887  1.00  0.00    +0.000 C 
ATOM      5  C4  UNL A   1      32.588  24.999  21.932  1.00  0.00    +0.000 C 
ATOM      6  C5  UNL A   1      32.241  26.278  21.740  1.00  0.00    +0.000 C 
ATOM      7  C6  UNL A   1      31.103  26.874  22.491  1.00  0.00    +0.000 C 
ATOM      8  O2  UNL A   1      30.838  28.057  22.308  1.00  0.00    +0.000 O 
ATOM      9  N1  UNL A   1      30.433  26.012  23.346  1.00  0.00    +0.000 N 
ATOM     13  C8  UNL A   1      30.823  24.697  23.540  1.00  0.00    +0.000 C 
ATOM     89  H3  UNL A   1      33.371  24.596  21.395  1.00  0.00    +0.000 H 
ATOM     90  H4  UNL A   1      32.767  26.854  21.065  1.00  0.00    +0.000 H 
ATOM     92  H6  UNL A   1      30.295  24.107  24.201  1.00  0.00    +0.000 H 
BRANCH    9   10
ATOM     10  C7  UNL A   1      29.325  26.560  24.085  1.00  0.00    +0.000 C 
ATOM     11  F1  UNL A   1      28.147  26.083  23.613  1.00  0.00    +0.000 F 
ATOM     12  F2  UNL A   1      29.409  26.244  25.400  1.00  0.00    +0.000 F 
ATOM     91  H5  UNL A   1      29.366  27.623  23.965  1.00  0.00    +0.000 H 
ENDBRANCH    9   10
ENDBRANCH    3    4
ENDBRANCH    2    3
ENDBRANCH   14    2
ENDBRANCH   15   14
ENDBRANCH   16   15
ENDBRANCH   17   16
ENDBRANCH   18   17
ENDBRANCH   19   18
ENDBRANCH   20   19
ENDBRANCH   21   20
ENDBRANCH   22   21
ENDBRANCH   24   22
ENDBRANCH   28   27
BRANCH   32   33
ATOM     33  C24 UNL A   1      39.573  32.000  35.261  1.00  0.00    +0.000 C 
ATOM     34  C25 UNL A   1      39.925  33.356  35.331  1.00  0.00    +0.000 C 
ATOM     35  F3  UNL A   1      40.784  33.877  34.443  1.00  0.00    +0.000 F 
ATOM     36  C26 UNL A   1      39.407  34.177  36.330  1.00  0.00    +0.000 C 
ATOM     37  F4  UNL A   1      39.776  35.464  36.394  1.00  0.00    +0.000 F 
ATOM     38  C27 UNL A   1      38.514  33.666  37.259  1.00  0.00    +0.000 C 
ATOM     39  F5  UNL A   1      38.006  34.462  38.211  1.00  0.00    +0.000 F 
ATOM     40  C28 UNL A   1      38.148  32.330  37.204  1.00  0.00    +0.000 C 
ATOM     41  F6  UNL A   1      37.277  31.837  38.095  1.00  0.00    +0.000 F 
ATOM     42  C29 UNL A   1      38.681  31.500  36.221  1.00  0.00    +0.000 C 
ATOM     43  F7  UNL A   1      38.309  30.211  36.192  1.00  0.00    +0.000 F 
ENDBRANCH   32   33
BRANCH   49   50
ATOM     50  C35 UNL A   1      45.180  27.673  34.004  1.00  0.00    +0.000 C 
ATOM     51  C36 UNL A   1      46.368  28.411  33.905  1.00  0.00    +0.000 C 
ATOM     52  F8  UNL A   1      46.429  29.489  33.108  1.00  0.00    +0.000 F 
ATOM     53  C37 UNL A   1      47.507  28.028  34.607  1.00  0.00    +0.000 C 
ATOM     54  F9  UNL A   1      48.641  28.730  34.477  1.00  0.00    +0.000 F 
ATOM     55  C38 UNL A   1      47.472  26.918  35.439  1.00  0.00    +0.000 C 
ATOM     56  F10 UNL A   1      48.567  26.557  36.122  1.00  0.00    +0.000 F 
ATOM     57  C39 UNL A   1      46.305  26.178  35.556  1.00  0.00    +0.000 C 
ATOM     58  F11 UNL A   1      46.268  25.111  36.366  1.00  0.00    +0.000 F 
ATOM     59  C40 UNL A   1      45.170  26.546  34.839  1.00  0.00    +0.000 C 
ATOM     60  F12 UNL A   1      44.055  25.811  34.970  1.00  0.00    +0.000 F 
ENDBRANCH   49   50
BRANCH   64   65
ATOM     65  C44 UNL A   1      42.510  26.136  27.755  1.00  0.00    +0.000 C 
ATOM     66  C45 UNL A   1      41.946  24.859  27.633  1.00  0.00    +0.000 C 
ATOM     67  F13 UNL A   1      41.060  24.428  28.543  1.00  0.00    +0.000 F 
ATOM     68  C46 UNL A   1      42.309  24.012  26.589  1.00  0.00    +0.000 C 
ATOM     69  F14 UNL A   1      41.775  22.785  26.507  1.00  0.00    +0.000 F 
ATOM     70  C47 UNL A   1      43.224  24.433  25.636  1.00  0.00    +0.000 C 
ATOM     71  F15 UNL A   1      43.561  23.624  24.623  1.00  0.00    +0.000 F 
ATOM     72  C48 UNL A   1      43.792  25.695  25.734  1.00  0.00    +0.000 C 
ATOM     73  F16 UNL A   1      44.666  26.112  24.809  1.00  0.00    +0.000 F 
ATOM     74  C49 UNL A   1      43.449  26.534  26.792  1.00  0.00    +0.000 C 
ATOM     75  F17 UNL A   1      44.013  27.748  26.867  1.00  0.00    +0.000 F 
ENDBRANCH   64   65
TORSDOF 17
ENDMDL
MODEL 4
REMARK VINA RESULT:      -9.0     43.475     46.765
ROOT
ATOM     28  C20 UNL A   1      23.104  35.889  46.733  1.00  0.00    +0.000 C 
ATOM     29  C21 UNL A   1      21.747  36.271  47.263  1.00  0.00    +0.000 C 
ATOM     30  N4  UNL A   1      21.331  37.430  47.711  1.00  0.00    +0.000 N 
ATOM     31  C22 UNL A   1      20.000  37.248  48.062  1.00  0.00    +0.000 C 
ATOM     32  C23 UNL A   1      19.140  38.141  48.606  1.00  0.00    +0.000 C 
ATOM     44  C30 UNL A   1      19.477  39.501  48.939  1.00  0.00    +0.000 C 
ATOM     45  C31 UNL A   1      18.674  40.472  49.513  1.00  0.00    +0.000 C 
ATOM     46  C32 UNL A   1      19.423  41.648  49.626  1.00  0.00    +0.000 C 
ATOM     47  C33 UNL A   1      20.702  41.399  49.156  1.00  0.00    +0.000 C 
ATOM     48  N5  UNL A   1      20.720  40.079  48.735  1.00  0.00    +0.000 N 
ATOM     49  C34 UNL A   1      21.825  42.298  49.090  1.00  0.00    +0.000 C 
ATOM     61  C41 UNL A   1      23.062  41.965  48.653  1.00  0.00    +0.000 C 
ATOM     62  N6  UNL A   1      23.517  40.744  48.176  1.00  0.00    +0.000 N 
ATOM     63  C42 UNL A   1      24.772  40.930  47.851  1.00  0.00    +0.000 C 
ATOM     64  C43 UNL A   1      25.758  39.949  47.283  1.00  0.00    +0.000 C 
ATOM     76  C50 UNL A   1      25.349  38.703  46.978  1.00  0.00    +0.000 C 
ATOM     77  C51 UNL A   1      26.194  37.653  46.415  1.00  0.00    +0.000 C 
ATOM     78  C52 UNL A   1      25.453  36.551  46.223  1.00  0.00    +0.000 C 
ATOM     79  C53 UNL A   1      24.092  36.803  46.698  1.00  0.00    +0.000 C 
ATOM     80  N7  UNL A   1      24.113  38.116  47.096  1.00  0.00    +0.000 N 
ATOM     81  C54 UNL A   1      25.258  42.298  48.084  1.00  0.00    +0.000 C 
ATOM     82  C55 UNL A   1      24.184  42.880  48.599  1.00  0.00    +0.000 C 
ATOM     83  C56 UNL A   1      19.666  35.875  47.755  1.00  0.00    +0.000 C 
ATOM     84  C57 UNL A   1      20.722  35.215  47.298  1.00  0.00    +0.000 C 
ATOM    109  H23 UNL A   1      17.693  40.350  49.806  1.00  0.00    +0.000 H 
ATOM    110  H24 UNL A   1      19.081  42.549  49.995  1.00  0.00    +0.000 H 
ATOM    111  H25 UNL A   1      21.500  39.620  48.347  1.00  0.00    +0.000 H 
ATOM    112  H26 UNL A   1      27.198  37.743  46.200  1.00  0.00    +0.000 H 
ATOM    113  H27 UNL A   1      25.788  35.668  45.808  1.00  0.00    +0.000 H 
ATOM    114  H28 UNL A   1      23.320  38.592  47.433  1.00  0.00    +0.000 H 
ATOM    115  H29 UNL A   1      26.191  42.699  47.897  1.00  0.00    +0.000 H 
ATOM    116  H30 UNL A   1      24.151  43.860  48.920  1.00  0.00    +0.000 H 
ATOM    117  H31 UNL A   1      18.728  35.463  47.874  1.00  0.00    +0.000 H 
ATOM    118  H32 UNL A   1      20.804  34.221  47.035  1.00  0.00    +0.000 H 
ENDROOT
BRANCH   28   27
ATOM     27  C19 UNL A   1      23.386  34.490  46.316  1.00  0.00    +0.000 C 
ATOM    107  H21 UNL A   1      24.210  31.513  47.641  1.00  0.00    +0.000 H 
ATOM    108  H22 UNL A   1      23.790  33.812  48.278  1.00  0.00    +0.000 H 
ATOM     85  C58 UNL A   1      23.310  34.099  44.970  1.00  0.00    +0.000 C 
ATOM     86  C59 UNL A   1      23.438  32.751  44.622  1.00  0.00    +0.000 C 
ATOM    120  H34 UNL A   1      23.349  32.461  43.635  1.00  0.00    +0.000 H 
ATOM     24  C16 UNL A   1      23.685  31.798  45.615  1.00  0.00    +0.000 C 
ATOM     25  C17 UNL A   1      23.903  32.199  46.933  1.00  0.00    +0.000 C 
ATOM     26  C18 UNL A   1      23.704  33.530  47.290  1.00  0.00    +0.000 C 
ATOM    119  H33 UNL A   1      23.159  34.808  44.236  1.00  0.00    +0.000 H 
BRANCH   24   22
ATOM     22  C15 UNL A   1      23.667  30.364  45.252  1.00  0.00    +0.000 C 
ATOM     23  O3  UNL A   1      24.695  29.697  45.343  1.00  0.00    +0.000 O 
BRANCH   22   21
ATOM    106  H20 UNL A   1      22.497  29.617  43.801  1.00  0.00    +0.000 H 
ATOM     21  N3  UNL A   1      22.509  29.798  44.768  1.00  0.00    +0.000 N 
BRANCH   21   20
ATOM    105  H19 UNL A   1      21.413  29.782  46.495  1.00  0.00    +0.000 H 
ATOM     20  C14 UNL A   1      21.301  29.431  45.491  1.00  0.00    +0.000 C 
ATOM    104  H18 UNL A   1      21.188  28.368  45.445  1.00  0.00    +0.000 H 
BRANCH   20   19
ATOM     19  C13 UNL A   1      20.040  30.077  44.926  1.00  0.00    +0.000 C 
ATOM    102  H16 UNL A   1      20.061  29.966  43.862  1.00  0.00    +0.000 H 
ATOM    103  H17 UNL A   1      19.218  29.578  45.396  1.00  0.00    +0.000 H 
BRANCH   19   18
ATOM     18  C12 UNL A   1      19.865  31.563  45.241  1.00  0.00    +0.000 C 
ATOM    100  H14 UNL A   1      18.869  31.708  45.601  1.00  0.00    +0.000 H 
ATOM    101  H15 UNL A   1      20.623  31.801  45.959  1.00  0.00    +0.000 H 
BRANCH   18   17
ATOM     17  C11 UNL A   1      20.087  32.518  44.065  1.00  0.00    +0.000 C 
ATOM     98  H12 UNL A   1      21.119  32.798  44.059  1.00  0.00    +0.000 H 
ATOM     99  H13 UNL A   1      19.776  31.982  43.192  1.00  0.00    +0.000 H 
BRANCH   17   16
ATOM     97  H11 UNL A   1      19.046  34.042  43.059  1.00  0.00    +0.000 H 
ATOM     96  H10 UNL A   1      19.813  34.560  44.591  1.00  0.00    +0.000 H 
ATOM     16  C10 UNL A   1      19.250  33.805  44.083  1.00  0.00    +0.000 C 
BRANCH   16   15
ATOM     95  H9  UNL A   1      17.889  34.325  45.629  1.00  0.00    +0.000 H 
ATOM     94  H8  UNL A   1      17.733  32.667  45.057  1.00  0.00    +0.000 H 
ATOM     15  C9  UNL A   1      17.891  33.685  44.771  1.00  0.00    +0.000 C 
BRANCH   15   14
ATOM     93  H7  UNL A   1      16.686  35.062  43.733  1.00  0.00    +0.000 H 
ATOM     14  N2  UNL A   1      16.818  34.100  43.891  1.00  0.00    +0.000 N 
BRANCH   14    2
ATOM      1  O1  UNL A   1      14.773  33.128  43.493  1.00  0.00    +0.000 O 
ATOM      2  C1  UNL A   1      15.976  33.209  43.263  1.00  0.00    +0.000 C 
BRANCH    2    3
ATOM      3  C2  UNL A   1      16.671  32.288  42.267  1.00  0.00    +0.000 C 
ATOM     87  H1  UNL A   1      17.723  32.481  42.288  1.00  0.00    +0.000 H 
ATOM     88  H2  UNL A   1      16.274  32.480  41.292  1.00  0.00    +0.000 H 
BRANCH    3    4
ATOM      4  C3  UNL A   1      16.428  30.842  42.606  1.00  0.00    +0.000 C 
ATOM      5  C4  UNL A   1      16.533  30.428  43.991  1.00  0.00    +0.000 C 
ATOM      6  C5  UNL A   1      16.368  29.144  44.336  1.00  0.00    +0.000 C 
ATOM      7  C6  UNL A   1      16.056  28.118  43.304  1.00  0.00    +0.000 C 
ATOM      8  O2  UNL A   1      15.944  26.949  43.658  1.00  0.00    +0.000 O 
ATOM      9  N1  UNL A   1      15.917  28.595  42.009  1.00  0.00    +0.000 N 
ATOM     13  C8  UNL A   1      16.110  29.925  41.677  1.00  0.00    +0.000 C 
ATOM     89  H3  UNL A   1      16.736  31.129  44.720  1.00  0.00    +0.000 H 
ATOM     90  H4  UNL A   1      16.458  28.865  45.325  1.00  0.00    +0.000 H 
ATOM     92  H6  UNL A   1      16.008  30.218  40.693  1.00  0.00    +0.000 H 
BRANCH    9   10
ATOM     10  C7  UNL A   1      15.612  27.625  40.989  1.00  0.00    +0.000 C 
ATOM     11  F1  UNL A   1      14.348  27.156  41.131  1.00  0.00    +0.000 F 
ATOM     12  F2  UNL A   1      15.723  28.165  39.751  1.00  0.00    +0.000 F 
ATOM     91  H5  UNL A   1      16.315  26.825  41.099  1.00  0.00    +0.000 H 
ENDBRANCH    9   10
ENDBRANCH    3    4
ENDBRANCH    2    3
ENDBRANCH   14    2
ENDBRANCH   15   14
ENDBRANCH   16   15
ENDBRANCH   17   16
ENDBRANCH   18   17
ENDBRANCH   19   18
ENDBRANCH   20   19
ENDBRANCH   21   20
ENDBRANCH   22   21
ENDBRANCH   24   22
ENDBRANCH   28   27
BRANCH   32   33
ATOM     33  C24 UNL A   1      17.738  37.685  48.880  1.00  0.00    +0.000 C 
ATOM     34  C25 UNL A   1      16.871  37.320  47.840  1.00  0.00    +0.000 C 
ATOM     35  F3  UNL A   1      17.259  37.447  46.562  1.00  0.00    +0.000 F 
ATOM     36  C26 UNL A   1      15.591  36.841  48.111  1.00  0.00    +0.000 C 
ATOM     37  F4  UNL A   1      14.770  36.521  47.101  1.00  0.00    +0.000 F 
ATOM     38  C27 UNL A   1      15.165  36.696  49.423  1.00  0.00    +0.000 C 
ATOM     39  F5  UNL A   1      13.938  36.221  49.681  1.00  0.00    +0.000 F 
ATOM     40  C28 UNL A   1      16.008  37.045  50.466  1.00  0.00    +0.000 C 
ATOM     41  F6  UNL A   1      15.602  36.895  51.734  1.00  0.00    +0.000 F 
ATOM     42  C29 UNL A   1      17.280  37.545  50.199  1.00  0.00    +0.000 C 
ATOM     43  F7  UNL A   1      18.074  37.875  51.228  1.00  0.00    +0.000 F 
ENDBRANCH   32   33
BRANCH   49   50
ATOM     50  C35 UNL A   1      21.611  43.709  49.548  1.00  0.00    +0.000 C 
ATOM     51  C36 UNL A   1      21.852  44.085  50.877  1.00  0.00    +0.000 C 
ATOM     52  F8  UNL A   1      22.211  43.165  51.785  1.00  0.00    +0.000 F 
ATOM     53  C37 UNL A   1      21.701  45.408  51.283  1.00  0.00    +0.000 C 
ATOM     54  F9  UNL A   1      21.908  45.742  52.564  1.00  0.00    +0.000 F 
ATOM     55  C38 UNL A   1      21.331  46.380  50.364  1.00  0.00    +0.000 C 
ATOM     56  F10 UNL A   1      21.197  47.655  50.755  1.00  0.00    +0.000 F 
ATOM     57  C39 UNL A   1      21.096  46.030  49.044  1.00  0.00    +0.000 C 
ATOM     58  F11 UNL A   1      20.748  46.970  48.154  1.00  0.00    +0.000 F 
ATOM     59  C40 UNL A   1      21.225  44.705  48.639  1.00  0.00    +0.000 C 
ATOM     60  F12 UNL A   1      20.989  44.394  47.355  1.00  0.00    +0.000 F 
ENDBRANCH   49   50
BRANCH   64   65
ATOM     65  C44 UNL A   1      27.174  40.330  47.060  1.00  0.00    +0.000 C 
ATOM     66  C45 UNL A   1      27.600  40.804  45.812  1.00  0.00    +0.000 C 
ATOM     67  F13 UNL A   1      26.737  40.867  44.788  1.00  0.00    +0.000 F 
ATOM     68  C46 UNL A   1      28.923  41.190  45.606  1.00  0.00    +0.000 C 
ATOM     69  F14 UNL A   1      29.314  41.617  44.397  1.00  0.00    +0.000 F 
ATOM     70  C47 UNL A   1      29.836  41.133  46.649  1.00  0.00    +0.000 C 
ATOM     71  F15 UNL A   1      31.103  41.520  46.454  1.00  0.00    +0.000 F 
ATOM     72  C48 UNL A   1      29.434  40.672  47.894  1.00  0.00    +0.000 C 
ATOM     73  F16 UNL A   1      30.309  40.626  48.907  1.00  0.00    +0.000 F 
ATOM     74  C49 UNL A   1      28.119  40.260  48.094  1.00  0.00    +0.000 C 
ATOM     75  F17 UNL A   1      27.756  39.815  49.306  1.00  0.00    +0.000 F 
ENDBRANCH   64   65
TORSDOF 17
ENDMDL
MODEL 5
REMARK VINA RESULT:      -9.0     39.635     46.294
ROOT
ATOM     28  C20 UNL A   1      23.330  35.730  46.610  1.00  0.00    +0.000 C 
ATOM     29  C21 UNL A   1      21.987  36.161  47.139  1.00  0.00    +0.000 C 
ATOM     30  N4  UNL A   1      21.605  37.342  47.559  1.00  0.00    +0.000 N 
ATOM     31  C22 UNL A   1      20.273  37.203  47.923  1.00  0.00    +0.000 C 
ATOM     32  C23 UNL A   1      19.439  38.133  48.449  1.00  0.00    +0.000 C 
ATOM     44  C30 UNL A   1      19.814  39.491  48.744  1.00  0.00    +0.000 C 
ATOM     45  C31 UNL A   1      19.040  40.498  49.298  1.00  0.00    +0.000 C 
ATOM     46  C32 UNL A   1      19.820  41.656  49.375  1.00  0.00    +0.000 C 
ATOM     47  C33 UNL A   1      21.089  41.361  48.903  1.00  0.00    +0.000 C 
ATOM     48  N5  UNL A   1      21.070  40.031  48.517  1.00  0.00    +0.000 N 
ATOM     49  C34 UNL A   1      22.234  42.229  48.807  1.00  0.00    +0.000 C 
ATOM     61  C41 UNL A   1      23.459  41.853  48.371  1.00  0.00    +0.000 C 
ATOM     62  N6  UNL A   1      23.879  40.608  47.923  1.00  0.00    +0.000 N 
ATOM     63  C42 UNL A   1      25.135  40.753  47.585  1.00  0.00    +0.000 C 
ATOM     64  C43 UNL A   1      26.092  39.732  47.037  1.00  0.00    +0.000 C 
ATOM     76  C50 UNL A   1      25.649  38.490  46.767  1.00  0.00    +0.000 C 
ATOM     77  C51 UNL A   1      26.462  37.405  46.226  1.00  0.00    +0.000 C 
ATOM     78  C52 UNL A   1      25.692  36.317  46.068  1.00  0.00    +0.000 C 
ATOM     79  C53 UNL A   1      24.341  36.616  46.545  1.00  0.00    +0.000 C 
ATOM     80  N7  UNL A   1      24.399  37.939  46.908  1.00  0.00    +0.000 N 
ATOM     81  C54 UNL A   1      25.659  42.114  47.779  1.00  0.00    +0.000 C 
ATOM     82  C55 UNL A   1      24.603  42.737  48.286  1.00  0.00    +0.000 C 
ATOM     83  C56 UNL A   1      19.901  35.832  47.654  1.00  0.00    +0.000 C 
ATOM     84  C57 UNL A   1      20.936  35.133  47.208  1.00  0.00    +0.000 C 
ATOM    109  H23 UNL A   1      18.058  40.408  49.600  1.00  0.00    +0.000 H 
ATOM    110  H24 UNL A   1      19.504  42.575  49.723  1.00  0.00    +0.000 H 
ATOM    111  H25 UNL A   1      21.835  39.542  48.136  1.00  0.00    +0.000 H 
ATOM    112  H26 UNL A   1      27.467  37.463  46.002  1.00  0.00    +0.000 H 
ATOM    113  H27 UNL A   1      26.001  35.415  45.674  1.00  0.00    +0.000 H 
ATOM    114  H28 UNL A   1      23.621  38.443  47.238  1.00  0.00    +0.000 H 
ATOM    115  H29 UNL A   1      26.600  42.485  47.575  1.00  0.00    +0.000 H 
ATOM    116  H30 UNL A   1      24.598  43.726  48.580  1.00  0.00    +0.000 H 
ATOM    117  H31 UNL A   1      18.953  35.447  47.790  1.00  0.00    +0.000 H 
ATOM    118  H32 UNL A   1      20.990  34.131  46.971  1.00  0.00    +0.000 H 
ENDROOT
BRANCH   28   27
ATOM     27  C19 UNL A   1      23.573  34.314  46.228  1.00  0.00    +0.000 C 
ATOM    107  H21 UNL A   1      24.552  31.400  47.588  1.00  0.00    +0.000 H 
ATOM    108  H22 UNL A   1      24.192  33.726  48.163  1.00  0.00    +0.000 H 
ATOM     85  C58 UNL A   1      23.354  33.862  44.917  1.00  0.00    +0.000 C 
ATOM     86  C59 UNL A   1      23.451  32.500  44.618  1.00  0.00    +0.000 C 
ATOM    120  H34 UNL A   1      23.257  32.165  43.661  1.00  0.00    +0.000 H 
ATOM     24  C16 UNL A   1      23.810  31.593  45.620  1.00  0.00    +0.000 C 
ATOM     25  C17 UNL A   1      24.167  32.053  46.888  1.00  0.00    +0.000 C 
ATOM     26  C18 UNL A   1      24.000  33.398  47.204  1.00  0.00    +0.000 C 
ATOM    119  H33 UNL A   1      23.120  34.538  44.173  1.00  0.00    +0.000 H 
BRANCH   24   22
ATOM     22  C15 UNL A   1      23.761  30.144  45.326  1.00  0.00    +0.000 C 
ATOM     23  O3  UNL A   1      24.781  29.466  45.416  1.00  0.00    +0.000 O 
BRANCH   22   21
ATOM    106  H20 UNL A   1      22.611  29.131  44.028  1.00  0.00    +0.000 H 
ATOM     21  N3  UNL A   1      22.580  29.574  44.906  1.00  0.00    +0.000 N 
BRANCH   21   20
ATOM    105  H19 UNL A   1      21.378  30.141  46.460  1.00  0.00    +0.000 H 
ATOM     20  C14 UNL A   1      21.292  29.536  45.582  1.00  0.00    +0.000 C 
ATOM    104  H18 UNL A   1      21.060  28.518  45.813  1.00  0.00    +0.000 H 
BRANCH   20   19
ATOM     19  C13 UNL A   1      20.155  30.115  44.747  1.00  0.00    +0.000 C 
ATOM    102  H16 UNL A   1      20.462  30.109  43.722  1.00  0.00    +0.000 H 
ATOM    103  H17 UNL A   1      19.302  29.500  44.945  1.00  0.00    +0.000 H 
BRANCH   19   18
ATOM     18  C12 UNL A   1      19.737  31.542  45.105  1.00  0.00    +0.000 C 
ATOM    100  H14 UNL A   1      18.694  31.530  45.339  1.00  0.00    +0.000 H 
ATOM    101  H15 UNL A   1      20.361  31.833  45.925  1.00  0.00    +0.000 H 
BRANCH   18   17
ATOM     17  C11 UNL A   1      19.964  32.590  44.013  1.00  0.00    +0.000 C 
ATOM     98  H12 UNL A   1      20.968  32.948  44.104  1.00  0.00    +0.000 H 
ATOM     99  H13 UNL A   1      19.760  32.095  43.087  1.00  0.00    +0.000 H 
BRANCH   17   16
ATOM     97  H11 UNL A   1      18.406  33.730  43.182  1.00  0.00    +0.000 H 
ATOM     96  H10 UNL A   1      19.631  34.690  44.064  1.00  0.00    +0.000 H 
ATOM     16  C10 UNL A   1      19.028  33.807  44.049  1.00  0.00    +0.000 C 
BRANCH   16   15
ATOM     95  H9  UNL A   1      18.603  34.300  46.071  1.00  0.00    +0.000 H 
ATOM     94  H8  UNL A   1      17.763  32.867  45.486  1.00  0.00    +0.000 H 
ATOM     15  C9  UNL A   1      18.080  33.860  45.247  1.00  0.00    +0.000 C 
BRANCH   15   14
ATOM     93  H7  UNL A   1      16.916  35.612  45.250  1.00  0.00    +0.000 H 
ATOM     14  N2  UNL A   1      16.916  34.671  44.960  1.00  0.00    +0.000 N 
BRANCH   14    2
ATOM      1  O1  UNL A   1      15.039  33.355  44.771  1.00  0.00    +0.000 O 
ATOM      2  C1  UNL A   1      15.808  34.187  44.299  1.00  0.00    +0.000 C 
BRANCH    2    3
ATOM      3  C2  UNL A   1      15.625  34.749  42.894  1.00  0.00    +0.000 C 
ATOM     87  H1  UNL A   1      16.357  35.511  42.724  1.00  0.00    +0.000 H 
ATOM     88  H2  UNL A   1      14.637  35.153  42.815  1.00  0.00    +0.000 H 
BRANCH    3    4
ATOM      4  C3  UNL A   1      15.787  33.671  41.855  1.00  0.00    +0.000 C 
ATOM      5  C4  UNL A   1      16.287  32.376  42.272  1.00  0.00    +0.000 C 
ATOM      6  C5  UNL A   1      16.489  31.400  41.377  1.00  0.00    +0.000 C 
ATOM      7  C6  UNL A   1      16.186  31.621  39.937  1.00  0.00    +0.000 C 
ATOM      8  O2  UNL A   1      16.414  30.711  39.146  1.00  0.00    +0.000 O 
ATOM      9  N1  UNL A   1      15.660  32.864  39.620  1.00  0.00    +0.000 N 
ATOM     13  C8  UNL A   1      15.478  33.862  40.562  1.00  0.00    +0.000 C 
ATOM     89  H3  UNL A   1      16.490  32.204  43.269  1.00  0.00    +0.000 H 
ATOM     90  H4  UNL A   1      16.856  30.489  41.690  1.00  0.00    +0.000 H 
ATOM     92  H6  UNL A   1      15.096  34.773  40.263  1.00  0.00    +0.000 H 
BRANCH    9   10
ATOM     10  C7  UNL A   1      15.354  33.105  38.233  1.00  0.00    +0.000 C 
ATOM     11  F1  UNL A   1      14.461  32.197  37.770  1.00  0.00    +0.000 F 
ATOM     12  F2  UNL A   1      14.826  34.341  38.056  1.00  0.00    +0.000 F 
ATOM     91  H5  UNL A   1      16.274  33.025  37.692  1.00  0.00    +0.000 H 
ENDBRANCH    9   10
ENDBRANCH    3    4
ENDBRANCH    2    3
ENDBRANCH   14    2
ENDBRANCH   15   14
ENDBRANCH   16   15
ENDBRANCH   17   16
ENDBRANCH   18   17
ENDBRANCH   19   18
ENDBRANCH   20   19
ENDBRANCH   21   20
ENDBRANCH   22   21
ENDBRANCH   24   22
ENDBRANCH   28   27
BRANCH   32   33
ATOM     33  C24 UNL A   1      18.028  37.720  48.744  1.00  0.00    +0.000 C 
ATOM     34  C25 UNL A   1      17.136  37.378  47.717  1.00  0.00    +0.000 C 
ATOM     35  F3  UNL A   1      17.510  37.488  46.434  1.00  0.00    +0.000 F 
ATOM     36  C26 UNL A   1      15.846  36.939  48.008  1.00  0.00    +0.000 C 
ATOM     37  F4  UNL A   1      15.001  36.641  47.010  1.00  0.00    +0.000 F 
ATOM     38  C27 UNL A   1      15.434  36.812  49.326  1.00  0.00    +0.000 C 
ATOM     39  F5  UNL A   1      14.197  36.375  49.603  1.00  0.00    +0.000 F 
ATOM     40  C28 UNL A   1      16.302  37.138  50.356  1.00  0.00    +0.000 C 
ATOM     41  F6  UNL A   1      15.908  37.006  51.630  1.00  0.00    +0.000 F 
ATOM     42  C29 UNL A   1      17.584  37.599  50.069  1.00  0.00    +0.000 C 
ATOM     43  F7  UNL A   1      18.402  37.908  51.087  1.00  0.00    +0.000 F 
ENDBRANCH   32   33
BRANCH   49   50
ATOM     50  C35 UNL A   1      22.060  43.657  49.229  1.00  0.00    +0.000 C 
ATOM     51  C36 UNL A   1      22.314  44.060  50.548  1.00  0.00    +0.000 C 
ATOM     52  F8  UNL A   1      22.648  43.153  51.478  1.00  0.00    +0.000 F 
ATOM     53  C37 UNL A   1      22.200  45.396  50.920  1.00  0.00    +0.000 C 
ATOM     54  F9  UNL A   1      22.418  45.757  52.192  1.00  0.00    +0.000 F 
ATOM     55  C38 UNL A   1      21.855  46.354  49.978  1.00  0.00    +0.000 C 
ATOM     56  F10 UNL A   1      21.756  47.642  50.336  1.00  0.00    +0.000 F 
ATOM     57  C39 UNL A   1      21.608  45.978  48.667  1.00  0.00    +0.000 C 
ATOM     58  F11 UNL A   1      21.284  46.904  47.754  1.00  0.00    +0.000 F 
ATOM     59  C40 UNL A   1      21.700  44.639  48.296  1.00  0.00    +0.000 C 
ATOM     60  F12 UNL A   1      21.453  44.303  47.020  1.00  0.00    +0.000 F 
ENDBRANCH   49   50
BRANCH   64   65
ATOM     65  C44 UNL A   1      27.516  40.071  46.794  1.00  0.00    +0.000 C 
ATOM     66  C45 UNL A   1      28.452  40.023  47.835  1.00  0.00    +0.000 C 
ATOM     67  F13 UNL A   1      28.055  39.719  49.079  1.00  0.00    +0.000 F 
ATOM     68  C46 UNL A   1      29.795  40.312  47.605  1.00  0.00    +0.000 C 
ATOM     69  F14 UNL A   1      30.668  40.283  48.622  1.00  0.00    +0.000 F 
ATOM     70  C47 UNL A   1      30.230  40.631  46.327  1.00  0.00    +0.000 C 
ATOM     71  F15 UNL A   1      31.525  40.893  46.104  1.00  0.00    +0.000 F 
ATOM     72  C48 UNL A   1      29.321  40.680  45.281  1.00  0.00    +0.000 C 
ATOM     73  F16 UNL A   1      29.739  40.976  44.043  1.00  0.00    +0.000 F 
ATOM     74  C49 UNL A   1      27.974  40.417  45.514  1.00  0.00    +0.000 C 
ATOM     75  F17 UNL A   1      27.114  40.474  44.487  1.00  0.00    +0.000 F 
ENDBRANCH   64   65
TORSDOF 17
ENDMDL
MODEL 6
REMARK VINA RESULT:      -8.8      2.787      7.263
ROOT
ATOM     28  C20 UNL A   1      13.725  53.414   6.146  1.00  0.00    +0.000 C 
ATOM     29  C21 UNL A   1      13.267  51.990   5.966  1.00  0.00    +0.000 C 
ATOM     30  N4  UNL A   1      13.598  51.127   5.037  1.00  0.00    +0.000 N 
ATOM     31  C22 UNL A   1      12.908  49.961   5.339  1.00  0.00    +0.000 C 
ATOM     32  C23 UNL A   1      12.891  48.790   4.658  1.00  0.00    +0.000 C 
ATOM     44  C30 UNL A   1      13.613  48.544   3.438  1.00  0.00    +0.000 C 
ATOM     45  C31 UNL A   1      13.638  47.393   2.667  1.00  0.00    +0.000 C 
ATOM     46  C32 UNL A   1      14.498  47.610   1.586  1.00  0.00    +0.000 C 
ATOM     47  C33 UNL A   1      14.981  48.905   1.663  1.00  0.00    +0.000 C 
ATOM     48  N5  UNL A   1      14.432  49.466   2.805  1.00  0.00    +0.000 N 
ATOM     49  C34 UNL A   1      15.880  49.583   0.766  1.00  0.00    +0.000 C 
ATOM     61  C41 UNL A   1      16.275  50.872   0.887  1.00  0.00    +0.000 C 
ATOM     62  N6  UNL A   1      15.935  51.797   1.865  1.00  0.00    +0.000 N 
ATOM     63  C42 UNL A   1      16.589  52.891   1.567  1.00  0.00    +0.000 C 
ATOM     64  C43 UNL A   1      16.597  54.213   2.281  1.00  0.00    +0.000 C 
ATOM     76  C50 UNL A   1      15.912  54.347   3.432  1.00  0.00    +0.000 C 
ATOM     77  C51 UNL A   1      15.838  55.566   4.232  1.00  0.00    +0.000 C 
ATOM     78  C52 UNL A   1      15.084  55.333   5.317  1.00  0.00    +0.000 C 
ATOM     79  C53 UNL A   1      14.580  53.960   5.261  1.00  0.00    +0.000 C 
ATOM     80  N7  UNL A   1      15.150  53.440   4.126  1.00  0.00    +0.000 N 
ATOM     81  C54 UNL A   1      17.425  52.785   0.362  1.00  0.00    +0.000 C 
ATOM     82  C55 UNL A   1      17.175  51.542  -0.028  1.00  0.00    +0.000 C 
ATOM     83  C56 UNL A   1      12.159  50.213   6.549  1.00  0.00    +0.000 C 
ATOM     84  C57 UNL A   1      12.312  51.466   6.955  1.00  0.00    +0.000 C 
ATOM    109  H23 UNL A   1      13.112  46.526   2.858  1.00  0.00    +0.000 H 
ATOM    110  H24 UNL A   1      14.735  46.920   0.855  1.00  0.00    +0.000 H 
ATOM    111  H25 UNL A   1      14.600  50.383   3.122  1.00  0.00    +0.000 H 
ATOM    112  H26 UNL A   1      16.291  56.463   4.000  1.00  0.00    +0.000 H 
ATOM    113  H27 UNL A   1      14.891  56.011   6.070  1.00  0.00    +0.000 H 
ATOM    114  H28 UNL A   1      15.027  52.507   3.839  1.00  0.00    +0.000 H 
ATOM    115  H29 UNL A   1      18.044  53.491  -0.067  1.00  0.00    +0.000 H 
ATOM    116  H30 UNL A   1      17.573  51.107  -0.875  1.00  0.00    +0.000 H 
ATOM    117  H31 UNL A   1      11.581  49.509   7.035  1.00  0.00    +0.000 H 
ATOM    118  H32 UNL A   1      11.876  51.948   7.757  1.00  0.00    +0.000 H 
ENDROOT
BRANCH   28   27
ATOM     27  C19 UNL A   1      13.186  54.247   7.253  1.00  0.00    +0.000 C 
ATOM    107  H21 UNL A   1      10.683  56.400   7.884  1.00  0.00    +0.000 H 
ATOM    108  H22 UNL A   1      11.618  55.065   6.092  1.00  0.00    +0.000 H 
ATOM     85  C58 UNL A   1      13.775  54.243   8.527  1.00  0.00    +0.000 C 
ATOM     86  C59 UNL A   1      13.166  54.922   9.585  1.00  0.00    +0.000 C 
ATOM    120  H34 UNL A   1      13.583  54.890  10.529  1.00  0.00    +0.000 H 
ATOM     24  C16 UNL A   1      11.988  55.642   9.362  1.00  0.00    +0.000 C 
ATOM     25  C17 UNL A   1      11.476  55.767   8.069  1.00  0.00    +0.000 C 
ATOM     26  C18 UNL A   1      12.043  55.033   7.032  1.00  0.00    +0.000 C 
ATOM    119  H33 UNL A   1      14.661  53.737   8.681  1.00  0.00    +0.000 H 
BRANCH   24   22
ATOM     22  C15 UNL A   1      11.275  56.228  10.519  1.00  0.00    +0.000 C 
ATOM     23  O3  UNL A   1      10.950  57.412  10.501  1.00  0.00    +0.000 O 
BRANCH   22   21
ATOM    106  H20 UNL A   1      10.659  54.556  11.445  1.00  0.00    +0.000 H 
ATOM     21  N3  UNL A   1      11.024  55.451  11.627  1.00  0.00    +0.000 N 
BRANCH   21   20
ATOM    105  H19 UNL A   1      10.337  55.487  13.553  1.00  0.00    +0.000 H 
ATOM     20  C14 UNL A   1      11.227  55.772  13.032  1.00  0.00    +0.000 C 
ATOM    104  H18 UNL A   1      11.425  56.820  13.116  1.00  0.00    +0.000 H 
BRANCH   20   19
ATOM     19  C13 UNL A   1      12.384  55.008  13.666  1.00  0.00    +0.000 C 
ATOM    102  H16 UNL A   1      13.170  54.941  12.943  1.00  0.00    +0.000 H 
ATOM    103  H17 UNL A   1      12.653  55.556  14.544  1.00  0.00    +0.000 H 
BRANCH   19   18
ATOM     18  C12 UNL A   1      12.056  53.591  14.137  1.00  0.00    +0.000 C 
ATOM    100  H14 UNL A   1      12.099  53.581  15.205  1.00  0.00    +0.000 H 
ATOM    101  H15 UNL A   1      11.087  53.367  13.740  1.00  0.00    +0.000 H 
BRANCH   18   17
ATOM     17  C11 UNL A   1      12.986  52.491  13.618  1.00  0.00    +0.000 C 
ATOM     98  H12 UNL A   1      12.960  51.681  14.317  1.00  0.00    +0.000 H 
ATOM     99  H13 UNL A   1      12.620  52.237  12.644  1.00  0.00    +0.000 H 
BRANCH   17   16
ATOM     97  H11 UNL A   1      14.754  53.380  14.323  1.00  0.00    +0.000 H 
ATOM     96  H10 UNL A   1      14.511  53.524  12.556  1.00  0.00    +0.000 H 
ATOM     16  C10 UNL A   1      14.454  52.894  13.419  1.00  0.00    +0.000 C 
BRANCH   16   15
ATOM     95  H9  UNL A   1      14.856  50.830  13.114  1.00  0.00    +0.000 H 
ATOM     94  H8  UNL A   1      16.075  51.670  14.066  1.00  0.00    +0.000 H 
ATOM     15  C9  UNL A   1      15.425  51.730  13.220  1.00  0.00    +0.000 C 
BRANCH   15   14
ATOM     93  H7  UNL A   1      16.609  52.797  11.847  1.00  0.00    +0.000 H 
ATOM     14  N2  UNL A   1      16.221  51.910  12.024  1.00  0.00    +0.000 N 
BRANCH   14    2
ATOM      1  O1  UNL A   1      17.296  50.012  11.296  1.00  0.00    +0.000 O 
ATOM      2  C1  UNL A   1      16.462  50.895  11.123  1.00  0.00    +0.000 C 
BRANCH    2    3
ATOM      3  C2  UNL A   1      15.621  50.975   9.854  1.00  0.00    +0.000 C 
ATOM     87  H1  UNL A   1      16.157  50.513   9.051  1.00  0.00    +0.000 H 
ATOM     88  H2  UNL A   1      15.432  52.005   9.636  1.00  0.00    +0.000 H 
BRANCH    3    4
ATOM      4  C3  UNL A   1      14.302  50.273  10.035  1.00  0.00    +0.000 C 
ATOM      5  C4  UNL A   1      13.126  51.070  10.320  1.00  0.00    +0.000 C 
ATOM      6  C5  UNL A   1      11.938  50.486  10.532  1.00  0.00    +0.000 C 
ATOM      7  C6  UNL A   1      11.800  49.006  10.461  1.00  0.00    +0.000 C 
ATOM      8  O2  UNL A   1      10.703  48.510  10.692  1.00  0.00    +0.000 O 
ATOM      9  N1  UNL A   1      12.955  48.312  10.131  1.00  0.00    +0.000 N 
ATOM     13  C8  UNL A   1      14.173  48.939   9.934  1.00  0.00    +0.000 C 
ATOM     89  H3  UNL A   1      13.203  52.097  10.360  1.00  0.00    +0.000 H 
ATOM     90  H4  UNL A   1      11.114  51.068  10.745  1.00  0.00    +0.000 H 
ATOM     92  H6  UNL A   1      15.002  48.368   9.705  1.00  0.00    +0.000 H 
BRANCH    9   10
ATOM     10  C7  UNL A   1      12.851  46.878  10.051  1.00  0.00    +0.000 C 
ATOM     11  F1  UNL A   1      13.907  46.353   9.384  1.00  0.00    +0.000 F 
ATOM     12  F2  UNL A   1      12.815  46.321  11.286  1.00  0.00    +0.000 F 
ATOM     91  H5  UNL A   1      11.941  46.660   9.530  1.00  0.00    +0.000 H 
ENDBRANCH    9   10
ENDBRANCH    3    4
ENDBRANCH    2    3
ENDBRANCH   14    2
ENDBRANCH   15   14
ENDBRANCH   16   15
ENDBRANCH   17   16
ENDBRANCH   18   17
ENDBRANCH   19   18
ENDBRANCH   20   19
ENDBRANCH   21   20
ENDBRANCH   22   21
ENDBRANCH   24   22
ENDBRANCH   28   27
BRANCH   32   33
ATOM     33  C24 UNL A   1      12.062  47.670   5.214  1.00  0.00    +0.000 C 
ATOM     34  C25 UNL A   1      10.747  47.447   4.778  1.00  0.00    +0.000 C 
ATOM     35  F3  UNL A   1      10.175  48.288   3.903  1.00  0.00    +0.000 F 
ATOM     36  C26 UNL A   1      10.008  46.368   5.257  1.00  0.00    +0.000 C 
ATOM     37  F4  UNL A   1       8.745  46.188   4.847  1.00  0.00    +0.000 F 
ATOM     38  C27 UNL A   1      10.576  45.481   6.160  1.00  0.00    +0.000 C 
ATOM     39  F5  UNL A   1       9.868  44.435   6.609  1.00  0.00    +0.000 F 
ATOM     40  C28 UNL A   1      11.876  45.679   6.599  1.00  0.00    +0.000 C 
ATOM     41  F6  UNL A   1      12.430  44.817   7.462  1.00  0.00    +0.000 F 
ATOM     42  C29 UNL A   1      12.610  46.770   6.139  1.00  0.00    +0.000 C 
ATOM     43  F7  UNL A   1      13.866  46.936   6.581  1.00  0.00    +0.000 F 
ENDBRANCH   32   33
BRANCH   49   50
ATOM     50  C35 UNL A   1      16.415  48.805  -0.399  1.00  0.00    +0.000 C 
ATOM     51  C36 UNL A   1      17.660  48.164  -0.333  1.00  0.00    +0.000 C 
ATOM     52  F8  UNL A   1      18.431  48.297   0.757  1.00  0.00    +0.000 F 
ATOM     53  C37 UNL A   1      18.128  47.402  -1.399  1.00  0.00    +0.000 C 
ATOM     54  F9  UNL A   1      19.333  46.820  -1.328  1.00  0.00    +0.000 F 
ATOM     55  C38 UNL A   1      17.350  47.247  -2.538  1.00  0.00    +0.000 C 
ATOM     56  F10 UNL A   1      17.798  46.504  -3.560  1.00  0.00    +0.000 F 
ATOM     57  C39 UNL A   1      16.113  47.867  -2.620  1.00  0.00    +0.000 C 
ATOM     58  F11 UNL A   1      15.357  47.710  -3.716  1.00  0.00    +0.000 F 
ATOM     59  C40 UNL A   1      15.652  48.648  -1.564  1.00  0.00    +0.000 C 
ATOM     60  F12 UNL A   1      14.451  49.238  -1.671  1.00  0.00    +0.000 F 
ENDBRANCH   49   50
BRANCH   64   65
ATOM     65  C44 UNL A   1      17.345  55.373   1.735  1.00  0.00    +0.000 C 
ATOM     66  C45 UNL A   1      18.690  55.578   2.063  1.00  0.00    +0.000 C 
ATOM     67  F13 UNL A   1      19.304  54.751   2.922  1.00  0.00    +0.000 F 
ATOM     68  C46 UNL A   1      19.404  56.649   1.530  1.00  0.00    +0.000 C 
ATOM     69  F14 UNL A   1      20.684  56.839   1.878  1.00  0.00    +0.000 F 
ATOM     70  C47 UNL A   1      18.792  57.520   0.641  1.00  0.00    +0.000 C 
ATOM     71  F15 UNL A   1      19.483  58.540   0.116  1.00  0.00    +0.000 F 
ATOM     72  C48 UNL A   1      17.460  57.333   0.298  1.00  0.00    +0.000 C 
ATOM     73  F16 UNL A   1      16.868  58.164  -0.570  1.00  0.00    +0.000 F 
ATOM     74  C49 UNL A   1      16.739  56.278   0.850  1.00  0.00    +0.000 C 
ATOM     75  F17 UNL A   1      15.453  56.121   0.506  1.00  0.00    +0.000 F 
ENDBRANCH   64   65
TORSDOF 17
ENDMDL
MODEL 7
REMARK VINA RESULT:      -8.7      2.579      7.290
ROOT
ATOM     28  C20 UNL A   1      13.953  53.441   5.740  1.00  0.00    +0.000 C 
ATOM     29  C21 UNL A   1      13.480  52.014   5.640  1.00  0.00    +0.000 C 
ATOM     30  N4  UNL A   1      13.790  51.101   4.753  1.00  0.00    +0.000 N 
ATOM     31  C22 UNL A   1      13.096  49.958   5.124  1.00  0.00    +0.000 C 
ATOM     32  C23 UNL A   1      13.059  48.754   4.506  1.00  0.00    +0.000 C 
ATOM     44  C30 UNL A   1      13.761  48.439   3.289  1.00  0.00    +0.000 C 
ATOM     45  C31 UNL A   1      13.765  47.250   2.579  1.00  0.00    +0.000 C 
ATOM     46  C32 UNL A   1      14.611  47.402   1.475  1.00  0.00    +0.000 C 
ATOM     47  C33 UNL A   1      15.105  48.696   1.479  1.00  0.00    +0.000 C 
ATOM     48  N5  UNL A   1      14.578  49.320   2.598  1.00  0.00    +0.000 N 
ATOM     49  C34 UNL A   1      15.996  49.318   0.534  1.00  0.00    +0.000 C 
ATOM     61  C41 UNL A   1      16.403  50.609   0.583  1.00  0.00    +0.000 C 
ATOM     62  N6  UNL A   1      16.085  51.586   1.516  1.00  0.00    +0.000 N 
ATOM     63  C42 UNL A   1      16.744  52.657   1.153  1.00  0.00    +0.000 C 
ATOM     64  C43 UNL A   1      16.773  54.014   1.797  1.00  0.00    +0.000 C 
ATOM     76  C50 UNL A   1      16.106  54.213   2.949  1.00  0.00    +0.000 C 
ATOM     77  C51 UNL A   1      16.053  55.473   3.686  1.00  0.00    +0.000 C 
ATOM     78  C52 UNL A   1      15.314  55.303   4.793  1.00  0.00    +0.000 C 
ATOM     79  C53 UNL A   1      14.798  53.934   4.815  1.00  0.00    +0.000 C 
ATOM     80  N7  UNL A   1      15.348  53.350   3.701  1.00  0.00    +0.000 N 
ATOM     81  C54 UNL A   1      17.561  52.481  -0.057  1.00  0.00    +0.000 C 
ATOM     82  C55 UNL A   1      17.295  51.223  -0.378  1.00  0.00    +0.000 C 
ATOM     83  C56 UNL A   1      12.367  50.279   6.331  1.00  0.00    +0.000 C 
ATOM     84  C57 UNL A   1      12.536  51.550   6.669  1.00  0.00    +0.000 C 
ATOM    109  H23 UNL A   1      13.236  46.398   2.822  1.00  0.00    +0.000 H 
ATOM    110  H24 UNL A   1      14.831  46.674   0.778  1.00  0.00    +0.000 H 
ATOM    111  H25 UNL A   1      14.758  50.251   2.864  1.00  0.00    +0.000 H 
ATOM    112  H26 UNL A   1      16.511  56.353   3.402  1.00  0.00    +0.000 H 
ATOM    113  H27 UNL A   1      15.137  56.021   5.512  1.00  0.00    +0.000 H 
ATOM    114  H28 UNL A   1      15.212  52.404   3.464  1.00  0.00    +0.000 H 
ATOM    115  H29 UNL A   1      18.178  53.159  -0.531  1.00  0.00    +0.000 H 
ATOM    116  H30 UNL A   1      17.676  50.741  -1.208  1.00  0.00    +0.000 H 
ATOM    117  H31 UNL A   1      11.791  49.606   6.860  1.00  0.00    +0.000 H 
ATOM    118  H32 UNL A   1      12.115  52.076   7.451  1.00  0.00    +0.000 H 
ENDROOT
BRANCH   28   27
ATOM     27  C19 UNL A   1      13.437  54.335   6.809  1.00  0.00    +0.000 C 
ATOM    107  H21 UNL A   1      10.794  56.298   7.486  1.00  0.00    +0.000 H 
ATOM    108  H22 UNL A   1      11.689  54.871   5.745  1.00  0.00    +0.000 H 
ATOM     85  C58 UNL A   1      14.141  54.524   8.009  1.00  0.00    +0.000 C 
ATOM     86  C59 UNL A   1      13.567  55.254   9.054  1.00  0.00    +0.000 C 
ATOM    120  H34 UNL A   1      14.073  55.364   9.947  1.00  0.00    +0.000 H 
ATOM     24  C16 UNL A   1      12.305  55.832   8.886  1.00  0.00    +0.000 C 
ATOM     25  C17 UNL A   1      11.663  55.767   7.648  1.00  0.00    +0.000 C 
ATOM     26  C18 UNL A   1      12.202  54.981   6.634  1.00  0.00    +0.000 C 
ATOM    119  H33 UNL A   1      15.086  54.123   8.118  1.00  0.00    +0.000 H 
BRANCH   24   22
ATOM     22  C15 UNL A   1      11.648  56.470  10.047  1.00  0.00    +0.000 C 
ATOM     23  O3  UNL A   1      11.615  57.694  10.135  1.00  0.00    +0.000 O 
BRANCH   22   21
ATOM    106  H20 UNL A   1      10.273  56.002  11.434  1.00  0.00    +0.000 H 
ATOM     21  N3  UNL A   1      11.120  55.684  11.047  1.00  0.00    +0.000 N 
BRANCH   21   20
ATOM    105  H19 UNL A   1      12.300  54.022  10.881  1.00  0.00    +0.000 H 
ATOM     20  C14 UNL A   1      11.641  54.447  11.608  1.00  0.00    +0.000 C 
ATOM    104  H18 UNL A   1      10.817  53.802  11.833  1.00  0.00    +0.000 H 
BRANCH   20   19
ATOM     19  C13 UNL A   1      12.453  54.657  12.882  1.00  0.00    +0.000 C 
ATOM    102  H16 UNL A   1      13.095  55.499  12.729  1.00  0.00    +0.000 H 
ATOM    103  H17 UNL A   1      11.739  54.796  13.667  1.00  0.00    +0.000 H 
BRANCH   19   18
ATOM     18  C12 UNL A   1      13.323  53.475  13.310  1.00  0.00    +0.000 C 
ATOM    100  H14 UNL A   1      13.828  53.107  12.442  1.00  0.00    +0.000 H 
ATOM    101  H15 UNL A   1      13.980  53.852  14.066  1.00  0.00    +0.000 H 
BRANCH   18   17
ATOM     17  C11 UNL A   1      12.576  52.303  13.952  1.00  0.00    +0.000 C 
ATOM     98  H12 UNL A   1      12.422  52.537  14.985  1.00  0.00    +0.000 H 
ATOM     99  H13 UNL A   1      11.671  52.192  13.391  1.00  0.00    +0.000 H 
BRANCH   17   16
ATOM     97  H11 UNL A   1      13.748  50.796  14.831  1.00  0.00    +0.000 H 
ATOM     96  H10 UNL A   1      13.971  50.967  13.064  1.00  0.00    +0.000 H 
ATOM     16  C10 UNL A   1      13.280  50.940  13.880  1.00  0.00    +0.000 C 
BRANCH   16   15
ATOM     95  H9  UNL A   1      11.367  50.107  13.482  1.00  0.00    +0.000 H 
ATOM     94  H8  UNL A   1      12.368  49.136  14.557  1.00  0.00    +0.000 H 
ATOM     15  C9  UNL A   1      12.354  49.742  13.675  1.00  0.00    +0.000 C 
BRANCH   15   14
ATOM     93  H7  UNL A   1      13.606  48.418  12.623  1.00  0.00    +0.000 H 
ATOM     14  N2  UNL A   1      12.774  48.940  12.545  1.00  0.00    +0.000 N 
BRANCH   14    2
ATOM      1  O1  UNL A   1      11.380  47.911  11.034  1.00  0.00    +0.000 O 
ATOM      2  C1  UNL A   1      12.064  48.873  11.366  1.00  0.00    +0.000 C 
BRANCH    2    3
ATOM      3  C2  UNL A   1      12.223  50.098  10.472  1.00  0.00    +0.000 C 
ATOM     87  H1  UNL A   1      11.891  50.965  11.004  1.00  0.00    +0.000 H 
ATOM     88  H2  UNL A   1      11.637  49.952   9.588  1.00  0.00    +0.000 H 
BRANCH    3    4
ATOM      4  C3  UNL A   1      13.661  50.289  10.068  1.00  0.00    +0.000 C 
ATOM      5  C4  UNL A   1      14.296  51.561  10.345  1.00  0.00    +0.000 C 
ATOM      6  C5  UNL A   1      15.560  51.793   9.966  1.00  0.00    +0.000 C 
ATOM      7  C6  UNL A   1      16.344  50.739   9.265  1.00  0.00    +0.000 C 
ATOM      8  O2  UNL A   1      17.486  51.003   8.907  1.00  0.00    +0.000 O 
ATOM      9  N1  UNL A   1      15.690  49.530   9.082  1.00  0.00    +0.000 N 
ATOM     13  C8  UNL A   1      14.377  49.323   9.469  1.00  0.00    +0.000 C 
ATOM     89  H3  UNL A   1      13.770  52.297  10.842  1.00  0.00    +0.000 H 
ATOM     90  H4  UNL A   1      15.992  52.708  10.161  1.00  0.00    +0.000 H 
ATOM     92  H6  UNL A   1      13.938  48.405   9.292  1.00  0.00    +0.000 H 
BRANCH    9   10
ATOM     10  C7  UNL A   1      16.425  48.490   8.409  1.00  0.00    +0.000 C 
ATOM     11  F1  UNL A   1      15.917  47.269   8.706  1.00  0.00    +0.000 F 
ATOM     12  F2  UNL A   1      16.378  48.648   7.064  1.00  0.00    +0.000 F 
ATOM     91  H5  UNL A   1      17.439  48.557   8.745  1.00  0.00    +0.000 H 
ENDBRANCH    9   10
ENDBRANCH    3    4
ENDBRANCH    2    3
ENDBRANCH   14    2
ENDBRANCH   15   14
ENDBRANCH   16   15
ENDBRANCH   17   16
ENDBRANCH   18   17
ENDBRANCH   19   18
ENDBRANCH   20   19
ENDBRANCH   21   20
ENDBRANCH   22   21
ENDBRANCH   24   22
ENDBRANCH   28   27
BRANCH   32   33
ATOM     33  C24 UNL A   1      12.229  47.671   5.130  1.00  0.00    +0.000 C 
ATOM     34  C25 UNL A   1      12.710  46.910   6.205  1.00  0.00    +0.000 C 
ATOM     35  F3  UNL A   1      13.963  47.086   6.650  1.00  0.00    +0.000 F 
ATOM     36  C26 UNL A   1      11.908  45.949   6.816  1.00  0.00    +0.000 C 
ATOM     37  F4  UNL A   1      12.395  45.214   7.825  1.00  0.00    +0.000 F 
ATOM     38  C27 UNL A   1      10.606  45.748   6.379  1.00  0.00    +0.000 C 
ATOM     39  F5  UNL A   1       9.832  44.832   6.977  1.00  0.00    +0.000 F 
ATOM     40  C28 UNL A   1      10.109  46.494   5.322  1.00  0.00    +0.000 C 
ATOM     41  F6  UNL A   1       8.849  46.309   4.906  1.00  0.00    +0.000 F 
ATOM     42  C29 UNL A   1      10.916  47.440   4.695  1.00  0.00    +0.000 C 
ATOM     43  F7  UNL A   1      10.408  48.147   3.674  1.00  0.00    +0.000 F 
ENDBRANCH   32   33
BRANCH   49   50
ATOM     50  C35 UNL A   1      16.507  48.477  -0.596  1.00  0.00    +0.000 C 
ATOM     51  C36 UNL A   1      17.790  47.911  -0.557  1.00  0.00    +0.000 C 
ATOM     52  F8  UNL A   1      18.613  48.175   0.469  1.00  0.00    +0.000 F 
ATOM     53  C37 UNL A   1      18.239  47.089  -1.586  1.00  0.00    +0.000 C 
ATOM     54  F9  UNL A   1      19.478  46.581  -1.545  1.00  0.00    +0.000 F 
ATOM     55  C38 UNL A   1      17.407  46.800  -2.659  1.00  0.00    +0.000 C 
ATOM     56  F10 UNL A   1      17.837  46.000  -3.644  1.00  0.00    +0.000 F 
ATOM     57  C39 UNL A   1      16.133  47.344  -2.713  1.00  0.00    +0.000 C 
ATOM     58  F11 UNL A   1      15.326  47.057  -3.744  1.00  0.00    +0.000 F 
ATOM     59  C40 UNL A   1      15.688  48.183  -1.695  1.00  0.00    +0.000 C 
ATOM     60  F12 UNL A   1      14.451  48.697  -1.774  1.00  0.00    +0.000 F 
ENDBRANCH   49   50
BRANCH   64   65
ATOM     65  C44 UNL A   1      17.521  55.138   1.181  1.00  0.00    +0.000 C 
ATOM     66  C45 UNL A   1      18.796  55.489   1.643  1.00  0.00    +0.000 C 
ATOM     67  F13 UNL A   1      19.332  54.842   2.688  1.00  0.00    +0.000 F 
ATOM     68  C46 UNL A   1      19.514  56.524   1.048  1.00  0.00    +0.000 C 
ATOM     69  F14 UNL A   1      20.722  56.859   1.523  1.00  0.00    +0.000 F 
ATOM     70  C47 UNL A   1      18.981  57.210  -0.033  1.00  0.00    +0.000 C 
ATOM     71  F15 UNL A   1      19.678  58.195  -0.615  1.00  0.00    +0.000 F 
ATOM     72  C48 UNL A   1      17.721  56.876  -0.509  1.00  0.00    +0.000 C 
ATOM     73  F16 UNL A   1      17.207  57.528  -1.561  1.00  0.00    +0.000 F 
ATOM     74  C49 UNL A   1      16.992  55.859   0.100  1.00  0.00    +0.000 C 
ATOM     75  F17 UNL A   1      15.776  55.557  -0.377  1.00  0.00    +0.000 F 
ENDBRANCH   64   65
TORSDOF 17
ENDMDL
MODEL 8
REMARK VINA RESULT:      -8.6     28.361     33.641
ROOT
ATOM     28  C20 UNL A   1      21.275  18.786   5.923  1.00  0.00    +0.000 C 
ATOM     29  C21 UNL A   1      20.082  18.479   6.789  1.00  0.00    +0.000 C 
ATOM     30  N4  UNL A   1      18.852  18.918   6.687  1.00  0.00    +0.000 N 
ATOM     31  C22 UNL A   1      18.146  18.320   7.722  1.00  0.00    +0.000 C 
ATOM     32  C23 UNL A   1      16.845  18.480   8.061  1.00  0.00    +0.000 C 
ATOM     44  C30 UNL A   1      15.925  19.351   7.377  1.00  0.00    +0.000 C 
ATOM     45  C31 UNL A   1      14.591  19.592   7.665  1.00  0.00    +0.000 C 
ATOM     46  C32 UNL A   1      14.095  20.492   6.715  1.00  0.00    +0.000 C 
ATOM     47  C33 UNL A   1      15.128  20.838   5.860  1.00  0.00    +0.000 C 
ATOM     48  N5  UNL A   1      16.243  20.128   6.275  1.00  0.00    +0.000 N 
ATOM     49  C34 UNL A   1      15.101  21.745   4.742  1.00  0.00    +0.000 C 
ATOM     61  C41 UNL A   1      16.169  22.064   3.974  1.00  0.00    +0.000 C 
ATOM     62  N6  UNL A   1      17.476  21.607   4.069  1.00  0.00    +0.000 N 
ATOM     63  C42 UNL A   1      18.129  22.180   3.089  1.00  0.00    +0.000 C 
ATOM     64  C43 UNL A   1      19.578  22.051   2.715  1.00  0.00    +0.000 C 
ATOM     76  C50 UNL A   1      20.362  21.192   3.393  1.00  0.00    +0.000 C 
ATOM     77  C51 UNL A   1      21.780  20.960   3.134  1.00  0.00    +0.000 C 
ATOM     78  C52 UNL A   1      22.236  20.030   3.988  1.00  0.00    +0.000 C 
ATOM     79  C53 UNL A   1      21.151  19.639   4.889  1.00  0.00    +0.000 C 
ATOM     80  N7  UNL A   1      20.068  20.353   4.440  1.00  0.00    +0.000 N 
ATOM     81  C54 UNL A   1      17.307  23.070   2.256  1.00  0.00    +0.000 C 
ATOM     82  C55 UNL A   1      16.127  22.984   2.856  1.00  0.00    +0.000 C 
ATOM     83  C56 UNL A   1      19.075  17.465   8.428  1.00  0.00    +0.000 C 
ATOM     84  C57 UNL A   1      20.295  17.559   7.918  1.00  0.00    +0.000 C 
ATOM    109  H23 UNL A   1      14.056  19.180   8.444  1.00  0.00    +0.000 H 
ATOM    110  H24 UNL A   1      13.125  20.838   6.661  1.00  0.00    +0.000 H 
ATOM    111  H25 UNL A   1      17.131  20.170   5.851  1.00  0.00    +0.000 H 
ATOM    112  H26 UNL A   1      22.343  21.434   2.410  1.00  0.00    +0.000 H 
ATOM    113  H27 UNL A   1      23.195  19.652   4.006  1.00  0.00    +0.000 H 
ATOM    114  H28 UNL A   1      19.168  20.272   4.830  1.00  0.00    +0.000 H 
ATOM    115  H29 UNL A   1      17.578  23.618   1.424  1.00  0.00    +0.000 H 
ATOM    116  H30 UNL A   1      15.286  23.505   2.562  1.00  0.00    +0.000 H 
ATOM    117  H31 UNL A   1      18.821  16.860   9.224  1.00  0.00    +0.000 H 
ATOM    118  H32 UNL A   1      21.168  17.106   8.231  1.00  0.00    +0.000 H 
ENDROOT
BRANCH   28   27
ATOM     27  C19 UNL A   1      22.609  18.214   6.243  1.00  0.00    +0.000 C 
ATOM    107  H21 UNL A   1      24.483  15.501   5.587  1.00  0.00    +0.000 H 
ATOM    108  H22 UNL A   1      22.299  16.443   5.126  1.00  0.00    +0.000 H 
ATOM     85  C58 UNL A   1      23.526  18.903   7.052  1.00  0.00    +0.000 C 
ATOM     86  C59 UNL A   1      24.824  18.411   7.219  1.00  0.00    +0.000 C 
ATOM    120  H34 UNL A   1      25.507  18.935   7.787  1.00  0.00    +0.000 H 
ATOM     24  C16 UNL A   1      25.194  17.206   6.612  1.00  0.00    +0.000 C 
ATOM     25  C17 UNL A   1      24.245  16.447   5.925  1.00  0.00    +0.000 C 
ATOM     26  C18 UNL A   1      22.976  16.971   5.699  1.00  0.00    +0.000 C 
ATOM    119  H33 UNL A   1      23.241  19.774   7.524  1.00  0.00    +0.000 H 
BRANCH   24   22
ATOM     22  C15 UNL A   1      26.608  16.777   6.673  1.00  0.00    +0.000 C 
ATOM     23  O3  UNL A   1      26.902  15.605   6.451  1.00  0.00    +0.000 O 
BRANCH   22   21
ATOM    106  H20 UNL A   1      27.599  18.514   6.494  1.00  0.00    +0.000 H 
ATOM     21  N3  UNL A   1      27.580  17.685   7.025  1.00  0.00    +0.000 N 
BRANCH   21   20
ATOM    105  H19 UNL A   1      29.425  18.170   7.761  1.00  0.00    +0.000 H 
ATOM     20  C14 UNL A   1      28.584  17.589   8.074  1.00  0.00    +0.000 C 
ATOM    104  H18 UNL A   1      28.834  16.558   8.211  1.00  0.00    +0.000 H 
BRANCH   20   19
ATOM     19  C13 UNL A   1      28.117  18.156   9.410  1.00  0.00    +0.000 C 
ATOM    102  H16 UNL A   1      27.263  17.594   9.727  1.00  0.00    +0.000 H 
ATOM    103  H17 UNL A   1      28.954  18.079  10.072  1.00  0.00    +0.000 H 
BRANCH   19   18
ATOM     18  C12 UNL A   1      27.727  19.635   9.396  1.00  0.00    +0.000 C 
ATOM    100  H14 UNL A   1      28.470  20.176   9.942  1.00  0.00    +0.000 H 
ATOM    101  H15 UNL A   1      27.662  19.911   8.364  1.00  0.00    +0.000 H 
BRANCH   18   17
ATOM     17  C11 UNL A   1      26.361  19.964  10.004  1.00  0.00    +0.000 C 
ATOM     98  H12 UNL A   1      25.705  20.246   9.208  1.00  0.00    +0.000 H 
ATOM     99  H13 UNL A   1      26.055  19.082  10.528  1.00  0.00    +0.000 H 
BRANCH   17   16
ATOM     97  H11 UNL A   1      25.521  21.722  10.793  1.00  0.00    +0.000 H 
ATOM     96  H10 UNL A   1      27.293  21.591  11.007  1.00  0.00    +0.000 H 
ATOM     16  C10 UNL A   1      26.347  21.091  11.046  1.00  0.00    +0.000 C 
BRANCH   16   15
ATOM     95  H9  UNL A   1      27.032  20.725  13.024  1.00  0.00    +0.000 H 
ATOM     94  H8  UNL A   1      25.766  19.627  12.483  1.00  0.00    +0.000 H 
ATOM     15  C9  UNL A   1      26.110  20.640  12.487  1.00  0.00    +0.000 C 
BRANCH   15   14
ATOM     93  H7  UNL A   1      25.414  22.055  13.879  1.00  0.00    +0.000 H 
ATOM     14  N2  UNL A   1      25.122  21.472  13.142  1.00  0.00    +0.000 N 
BRANCH   14    2
ATOM      1  O1  UNL A   1      23.319  22.250  11.946  1.00  0.00    +0.000 O 
ATOM      2  C1  UNL A   1      23.793  21.485  12.780  1.00  0.00    +0.000 C 
BRANCH    2    3
ATOM      3  C2  UNL A   1      22.931  20.479  13.535  1.00  0.00    +0.000 C 
ATOM     87  H1  UNL A   1      21.921  20.831  13.556  1.00  0.00    +0.000 H 
ATOM     88  H2  UNL A   1      23.315  20.380  14.529  1.00  0.00    +0.000 H 
BRANCH    3    4
ATOM      4  C3  UNL A   1      22.969  19.129  12.871  1.00  0.00    +0.000 C 
ATOM      5  C4  UNL A   1      23.022  19.069  11.423  1.00  0.00    +0.000 C 
ATOM      6  C5  UNL A   1      23.013  17.892  10.786  1.00  0.00    +0.000 C 
ATOM      7  C6  UNL A   1      22.967  16.617  11.553  1.00  0.00    +0.000 C 
ATOM      8  O2  UNL A   1      22.929  15.561  10.930  1.00  0.00    +0.000 O 
ATOM      9  N1  UNL A   1      22.973  16.749  12.933  1.00  0.00    +0.000 N 
ATOM     13  C8  UNL A   1      22.964  17.980  13.567  1.00  0.00    +0.000 C 
ATOM     89  H3  UNL A   1      23.067  19.944  10.878  1.00  0.00    +0.000 H 
ATOM     90  H4  UNL A   1      23.040  17.868   9.755  1.00  0.00    +0.000 H 
ATOM     92  H6  UNL A   1      22.954  18.016  14.599  1.00  0.00    +0.000 H 
BRANCH    9   10
ATOM     10  C7  UNL A   1      22.932  15.532  13.703  1.00  0.00    +0.000 C 
ATOM     11  F1  UNL A   1      24.070  14.817  13.537  1.00  0.00    +0.000 F 
ATOM     12  F2  UNL A   1      22.789  15.793  15.025  1.00  0.00    +0.000 F 
ATOM     91  H5  UNL A   1      22.090  14.970  13.353  1.00  0.00    +0.000 H 
ENDBRANCH    9   10
ENDBRANCH    3    4
ENDBRANCH    2    3
ENDBRANCH   14    2
ENDBRANCH   15   14
ENDBRANCH   16   15
ENDBRANCH   17   16
ENDBRANCH   18   17
ENDBRANCH   19   18
ENDBRANCH   20   19
ENDBRANCH   21   20
ENDBRANCH   22   21
ENDBRANCH   24   22
ENDBRANCH   28   27
BRANCH   32   33
ATOM     33  C24 UNL A   1      16.324  17.696   9.229  1.00  0.00    +0.000 C 
ATOM     34  C25 UNL A   1      16.127  18.295  10.482  1.00  0.00    +0.000 C 
ATOM     35  F3  UNL A   1      16.477  19.574  10.681  1.00  0.00    +0.000 F 
ATOM     36  C26 UNL A   1      15.587  17.572  11.543  1.00  0.00    +0.000 C 
ATOM     37  F4  UNL A   1      15.431  18.156  12.739  1.00  0.00    +0.000 F 
ATOM     38  C27 UNL A   1      15.213  16.248  11.365  1.00  0.00    +0.000 C 
ATOM     39  F5  UNL A   1      14.680  15.558  12.383  1.00  0.00    +0.000 F 
ATOM     40  C28 UNL A   1      15.393  15.638  10.133  1.00  0.00    +0.000 C 
ATOM     41  F6  UNL A   1      15.023  14.363   9.956  1.00  0.00    +0.000 F 
ATOM     42  C29 UNL A   1      15.954  16.352   9.076  1.00  0.00    +0.000 C 
ATOM     43  F7  UNL A   1      16.117  15.736   7.895  1.00  0.00    +0.000 F 
ENDBRANCH   32   33
BRANCH   49   50
ATOM     50  C35 UNL A   1      13.792  22.392   4.405  1.00  0.00    +0.000 C 
ATOM     51  C36 UNL A   1      12.957  21.866   3.408  1.00  0.00    +0.000 C 
ATOM     52  F8  UNL A   1      13.353  20.808   2.684  1.00  0.00    +0.000 F 
ATOM     53  C37 UNL A   1      11.720  22.443   3.136  1.00  0.00    +0.000 C 
ATOM     54  F9  UNL A   1      10.949  21.943   2.160  1.00  0.00    +0.000 F 
ATOM     55  C38 UNL A   1      11.286  23.538   3.869  1.00  0.00    +0.000 C 
ATOM     56  F10 UNL A   1      10.090  24.085   3.613  1.00  0.00    +0.000 F 
ATOM     57  C39 UNL A   1      12.093  24.068   4.864  1.00  0.00    +0.000 C 
ATOM     58  F11 UNL A   1      11.670  25.120   5.579  1.00  0.00    +0.000 F 
ATOM     59  C40 UNL A   1      13.340  23.507   5.124  1.00  0.00    +0.000 C 
ATOM     60  F12 UNL A   1      14.101  24.042   6.092  1.00  0.00    +0.000 F 
ENDBRANCH   49   50
BRANCH   64   65
ATOM     65  C44 UNL A   1      20.158  22.857   1.612  1.00  0.00    +0.000 C 
ATOM     66  C45 UNL A   1      20.028  22.447   0.279  1.00  0.00    +0.000 C 
ATOM     67  F13 UNL A   1      19.419  21.288  -0.009  1.00  0.00    +0.000 F 
ATOM     68  C46 UNL A   1      20.546  23.216  -0.761  1.00  0.00    +0.000 C 
ATOM     69  F14 UNL A   1      20.431  22.791  -2.027  1.00  0.00    +0.000 F 
ATOM     70  C47 UNL A   1      21.182  24.418  -0.489  1.00  0.00    +0.000 C 
ATOM     71  F15 UNL A   1      21.665  25.164  -1.491  1.00  0.00    +0.000 F 
ATOM     72  C48 UNL A   1      21.318  24.845   0.824  1.00  0.00    +0.000 C 
ATOM     73  F16 UNL A   1      21.920  26.012   1.091  1.00  0.00    +0.000 F 
ATOM     74  C49 UNL A   1      20.824  24.065   1.866  1.00  0.00    +0.000 C 
ATOM     75  F17 UNL A   1      20.971  24.498   3.127  1.00  0.00    +0.000 F 
ENDBRANCH   64   65
TORSDOF 17
ENDMDL
MODEL 9
REMARK VINA RESULT:      -8.6      2.663      7.683
ROOT
ATOM     28  C20 UNL A   1      13.782  53.835   5.496  1.00  0.00    +0.000 C 
ATOM     29  C21 UNL A   1      13.303  52.407   5.510  1.00  0.00    +0.000 C 
ATOM     30  N4  UNL A   1      13.628  51.419   4.714  1.00  0.00    +0.000 N 
ATOM     31  C22 UNL A   1      12.919  50.315   5.167  1.00  0.00    +0.000 C 
ATOM     32  C23 UNL A   1      12.888  49.061   4.656  1.00  0.00    +0.000 C 
ATOM     44  C30 UNL A   1      13.617  48.638   3.489  1.00  0.00    +0.000 C 
ATOM     45  C31 UNL A   1      13.630  47.391   2.886  1.00  0.00    +0.000 C 
ATOM     46  C32 UNL A   1      14.503  47.443   1.794  1.00  0.00    +0.000 C 
ATOM     47  C33 UNL A   1      15.004  48.730   1.695  1.00  0.00    +0.000 C 
ATOM     48  N5  UNL A   1      14.455  49.452   2.743  1.00  0.00    +0.000 N 
ATOM     49  C34 UNL A   1      15.921  49.264   0.722  1.00  0.00    +0.000 C 
ATOM     61  C41 UNL A   1      16.335  50.552   0.667  1.00  0.00    +0.000 C 
ATOM     62  N6  UNL A   1      16.001  51.608   1.503  1.00  0.00    +0.000 N 
ATOM     63  C42 UNL A   1      16.675  52.641   1.063  1.00  0.00    +0.000 C 
ATOM     64  C43 UNL A   1      16.697  54.049   1.587  1.00  0.00    +0.000 C 
ATOM     76  C50 UNL A   1      16.004  54.351   2.701  1.00  0.00    +0.000 C 
ATOM     77  C51 UNL A   1      15.943  55.671   3.323  1.00  0.00    +0.000 C 
ATOM     78  C52 UNL A   1      15.176  55.601   4.422  1.00  0.00    +0.000 C 
ATOM     79  C53 UNL A   1      14.651  54.241   4.552  1.00  0.00    +0.000 C 
ATOM     80  N7  UNL A   1      15.224  53.560   3.506  1.00  0.00    +0.000 N 
ATOM     81  C54 UNL A   1      17.519  52.356  -0.107  1.00  0.00    +0.000 C 
ATOM     82  C55 UNL A   1      17.253  51.075  -0.323  1.00  0.00    +0.000 C 
ATOM     83  C56 UNL A   1      12.163  50.744   6.323  1.00  0.00    +0.000 C 
ATOM     84  C57 UNL A   1      12.332  52.039   6.553  1.00  0.00    +0.000 C 
ATOM    109  H23 UNL A   1      13.090  46.567   3.190  1.00  0.00    +0.000 H 
ATOM    110  H24 UNL A   1      14.735  46.655   1.168  1.00  0.00    +0.000 H 
ATOM    111  H25 UNL A   1      14.634  50.402   2.931  1.00  0.00    +0.000 H 
ATOM    112  H26 UNL A   1      16.412  56.520   2.974  1.00  0.00    +0.000 H 
ATOM    113  H27 UNL A   1      14.988  56.380   5.072  1.00  0.00    +0.000 H 
ATOM    114  H28 UNL A   1      15.088  52.598   3.350  1.00  0.00    +0.000 H 
ATOM    115  H29 UNL A   1      18.151  52.987  -0.623  1.00  0.00    +0.000 H 
ATOM    116  H30 UNL A   1      17.650  50.521  -1.098  1.00  0.00    +0.000 H 
ATOM    117  H31 UNL A   1      11.571  50.122   6.896  1.00  0.00    +0.000 H 
ATOM    118  H32 UNL A   1      11.897  52.634   7.275  1.00  0.00    +0.000 H 
ENDROOT
BRANCH   28   27
ATOM     27  C19 UNL A   1      13.246  54.822   6.470  1.00  0.00    +0.000 C 
ATOM    107  H21 UNL A   1      14.006  56.192   9.444  1.00  0.00    +0.000 H 
ATOM    108  H22 UNL A   1      14.823  54.556   7.855  1.00  0.00    +0.000 H 
ATOM     85  C58 UNL A   1      12.056  55.523   6.223  1.00  0.00    +0.000 C 
ATOM     86  C59 UNL A   1      11.651  56.546   7.084  1.00  0.00    +0.000 C 
ATOM    120  H34 UNL A   1      10.792  57.083   6.883  1.00  0.00    +0.000 H 
ATOM     24  C16 UNL A   1      12.414  56.842   8.218  1.00  0.00    +0.000 C 
ATOM     25  C17 UNL A   1      13.519  56.056   8.544  1.00  0.00    +0.000 C 
ATOM     26  C18 UNL A   1      13.962  55.085   7.650  1.00  0.00    +0.000 C 
ATOM    119  H33 UNL A   1      11.478  55.281   5.403  1.00  0.00    +0.000 H 
BRANCH   24   22
ATOM     22  C15 UNL A   1      12.056  58.023   9.035  1.00  0.00    +0.000 C 
ATOM     23  O3  UNL A   1      12.567  59.113   8.790  1.00  0.00    +0.000 O 
BRANCH   22   21
ATOM    106  H20 UNL A   1      11.449  58.349  10.921  1.00  0.00    +0.000 H 
ATOM     21  N3  UNL A   1      11.190  57.881  10.095  1.00  0.00    +0.000 N 
BRANCH   21   20
ATOM    105  H19 UNL A   1       9.723  56.796   9.171  1.00  0.00    +0.000 H 
ATOM     20  C14 UNL A   1       9.943  57.133  10.162  1.00  0.00    +0.000 C 
ATOM    104  H18 UNL A   1       9.182  57.778  10.549  1.00  0.00    +0.000 H 
BRANCH   20   19
ATOM     19  C13 UNL A   1      10.028  55.896  11.050  1.00  0.00    +0.000 C 
ATOM    102  H16 UNL A   1      10.713  56.107  11.844  1.00  0.00    +0.000 H 
ATOM    103  H17 UNL A   1       9.030  55.703  11.382  1.00  0.00    +0.000 H 
BRANCH   19   18
ATOM     18  C12 UNL A   1      10.494  54.618  10.353  1.00  0.00    +0.000 C 
ATOM    100  H14 UNL A   1       9.700  53.903  10.411  1.00  0.00    +0.000 H 
ATOM    101  H15 UNL A   1      10.745  54.904   9.352  1.00  0.00    +0.000 H 
BRANCH   18   17
ATOM     17  C11 UNL A   1      11.755  53.971  10.932  1.00  0.00    +0.000 C 
ATOM     98  H12 UNL A   1      11.513  52.966  11.207  1.00  0.00    +0.000 H 
ATOM     99  H13 UNL A   1      12.498  54.046  10.166  1.00  0.00    +0.000 H 
BRANCH   17   16
ATOM     97  H11 UNL A   1      11.610  54.609  12.930  1.00  0.00    +0.000 H 
ATOM     96  H10 UNL A   1      12.613  55.665  11.889  1.00  0.00    +0.000 H 
ATOM     16  C10 UNL A   1      12.356  54.664  12.164  1.00  0.00    +0.000 C 
BRANCH   16   15
ATOM     95  H9  UNL A   1      13.954  54.584  13.561  1.00  0.00    +0.000 H 
ATOM     94  H8  UNL A   1      14.349  53.932  11.974  1.00  0.00    +0.000 H 
ATOM     15  C9  UNL A   1      13.604  53.996  12.739  1.00  0.00    +0.000 C 
BRANCH   15   14
ATOM     93  H7  UNL A   1      12.576  52.549  13.869  1.00  0.00    +0.000 H 
ATOM     14  N2  UNL A   1      13.311  52.663  13.223  1.00  0.00    +0.000 N 
BRANCH   14    2
ATOM      1  O1  UNL A   1      15.052  51.166  13.351  1.00  0.00    +0.000 O 
ATOM      2  C1  UNL A   1      14.012  51.547  12.822  1.00  0.00    +0.000 C 
BRANCH    2    3
ATOM      3  C2  UNL A   1      13.404  50.825  11.625  1.00  0.00    +0.000 C 
ATOM     87  H1  UNL A   1      12.518  51.341  11.319  1.00  0.00    +0.000 H 
ATOM     88  H2  UNL A   1      13.173  49.821  11.915  1.00  0.00    +0.000 H 
BRANCH    3    4
ATOM      4  C3  UNL A   1      14.371  50.781  10.472  1.00  0.00    +0.000 C 
ATOM      5  C4  UNL A   1      14.611  51.996   9.720  1.00  0.00    +0.000 C 
ATOM      6  C5  UNL A   1      15.429  51.996   8.660  1.00  0.00    +0.000 C 
ATOM      7  C6  UNL A   1      16.125  50.747   8.243  1.00  0.00    +0.000 C 
ATOM      8  O2  UNL A   1      16.841  50.783   7.249  1.00  0.00    +0.000 O 
ATOM      9  N1  UNL A   1      15.891  49.637   9.040  1.00  0.00    +0.000 N 
ATOM     13  C8  UNL A   1      15.026  49.661  10.121  1.00  0.00    +0.000 C 
ATOM     89  H3  UNL A   1      14.146  52.872  10.005  1.00  0.00    +0.000 H 
ATOM     90  H4  UNL A   1      15.579  52.867   8.130  1.00  0.00    +0.000 H 
ATOM     92  H6  UNL A   1      14.880  48.798  10.669  1.00  0.00    +0.000 H 
BRANCH    9   10
ATOM     10  C7  UNL A   1      16.553  48.415   8.663  1.00  0.00    +0.000 C 
ATOM     11  F1  UNL A   1      16.217  47.404   9.501  1.00  0.00    +0.000 F 
ATOM     12  F2  UNL A   1      16.217  48.045   7.403  1.00  0.00    +0.000 F 
ATOM     91  H5  UNL A   1      17.606  48.602   8.716  1.00  0.00    +0.000 H 
ENDBRANCH    9   10
ENDBRANCH    3    4
ENDBRANCH    2    3
ENDBRANCH   14    2
ENDBRANCH   15   14
ENDBRANCH   16   15
ENDBRANCH   17   16
ENDBRANCH   18   17
ENDBRANCH   19   18
ENDBRANCH   20   19
ENDBRANCH   21   20
ENDBRANCH   22   21
ENDBRANCH   24   22
ENDBRANCH   28   27
BRANCH   32   33
ATOM     33  C24 UNL A   1      12.038  48.041   5.353  1.00  0.00    +0.000 C 
ATOM     34  C25 UNL A   1      10.724  47.779   4.939  1.00  0.00    +0.000 C 
ATOM     35  F3  UNL A   1      10.172  48.498   3.950  1.00  0.00    +0.000 F 
ATOM     36  C26 UNL A   1       9.964  46.787   5.556  1.00  0.00    +0.000 C 
ATOM     37  F4  UNL A   1       8.702  46.570   5.162  1.00  0.00    +0.000 F 
ATOM     38  C27 UNL A   1      10.511  46.027   6.579  1.00  0.00    +0.000 C 
ATOM     39  F5  UNL A   1       9.783  45.063   7.161  1.00  0.00    +0.000 F 
ATOM     40  C28 UNL A   1      11.810  46.265   6.999  1.00  0.00    +0.000 C 
ATOM     41  F6  UNL A   1      12.344  45.524   7.980  1.00  0.00    +0.000 F 
ATOM     42  C29 UNL A   1      12.565  47.271   6.400  1.00  0.00    +0.000 C 
ATOM     43  F7  UNL A   1      13.819  47.479   6.828  1.00  0.00    +0.000 F 
ENDBRANCH   32   33
BRANCH   49   50
ATOM     50  C35 UNL A   1      16.454  48.324  -0.318  1.00  0.00    +0.000 C 
ATOM     51  C36 UNL A   1      15.680  47.955  -1.427  1.00  0.00    +0.000 C 
ATOM     52  F8  UNL A   1      14.413  48.384  -1.539  1.00  0.00    +0.000 F 
ATOM     53  C37 UNL A   1      16.199  47.123  -2.415  1.00  0.00    +0.000 C 
ATOM     54  F9  UNL A   1      15.433  46.759  -3.453  1.00  0.00    +0.000 F 
ATOM     55  C38 UNL A   1      17.506  46.666  -2.324  1.00  0.00    +0.000 C 
ATOM     56  F10 UNL A   1      18.007  45.874  -3.281  1.00  0.00    +0.000 F 
ATOM     57  C39 UNL A   1      18.290  47.025  -1.239  1.00  0.00    +0.000 C 
ATOM     58  F11 UNL A   1      19.556  46.592  -1.155  1.00  0.00    +0.000 F 
ATOM     59  C40 UNL A   1      17.767  47.840  -0.238  1.00  0.00    +0.000 C 
ATOM     60  F12 UNL A   1      18.548  48.171   0.802  1.00  0.00    +0.000 F 
ENDBRANCH   49   50
BRANCH   64   65
ATOM     65  C44 UNL A   1      17.467  55.111   0.892  1.00  0.00    +0.000 C 
ATOM     66  C45 UNL A   1      16.933  55.771  -0.222  1.00  0.00    +0.000 C 
ATOM     67  F13 UNL A   1      15.736  55.409  -0.705  1.00  0.00    +0.000 F 
ATOM     68  C46 UNL A   1      17.640  56.788  -0.859  1.00  0.00    +0.000 C 
ATOM     69  F14 UNL A   1      17.120  57.388  -1.939  1.00  0.00    +0.000 F 
ATOM     70  C47 UNL A   1      18.881  57.180  -0.380  1.00  0.00    +0.000 C 
ATOM     71  F15 UNL A   1      19.553  58.170  -0.983  1.00  0.00    +0.000 F 
ATOM     72  C48 UNL A   1      19.426  56.543   0.725  1.00  0.00    +0.000 C 
ATOM     73  F16 UNL A   1      20.619  56.926   1.199  1.00  0.00    +0.000 F 
ATOM     74  C49 UNL A   1      18.733  55.508   1.347  1.00  0.00    +0.000 C 
ATOM     75  F17 UNL A   1      19.283  54.906   2.412  1.00  0.00    +0.000 F 
ENDBRANCH   64   65
TORSDOF 17
ENDMDL
MODEL 10
REMARK VINA RESULT:      -8.6     38.576     43.932
ROOT
ATOM     28  C20 UNL A   1      40.646  28.021  28.421  1.00  0.00    +0.000 C 
ATOM     29  C21 UNL A   1      42.111  28.340  28.562  1.00  0.00    +0.000 C 
ATOM     30  N4  UNL A   1      42.680  29.439  28.993  1.00  0.00    +0.000 N 
ATOM     31  C22 UNL A   1      44.048  29.207  28.937  1.00  0.00    +0.000 C 
ATOM     32  C23 UNL A   1      45.061  30.051  29.245  1.00  0.00    +0.000 C 
ATOM     44  C30 UNL A   1      44.885  31.406  29.699  1.00  0.00    +0.000 C 
ATOM     45  C31 UNL A   1      45.856  32.342  30.015  1.00  0.00    +0.000 C 
ATOM     46  C32 UNL A   1      45.215  33.513  30.432  1.00  0.00    +0.000 C 
ATOM     47  C33 UNL A   1      43.846  33.319  30.341  1.00  0.00    +0.000 C 
ATOM     48  N5  UNL A   1      43.658  32.021  29.893  1.00  0.00    +0.000 N 
ATOM     49  C34 UNL A   1      42.787  34.245  30.645  1.00  0.00    +0.000 C 
ATOM     61  C41 UNL A   1      41.465  33.993  30.489  1.00  0.00    +0.000 C 
ATOM     62  N6  UNL A   1      40.849  32.835  30.036  1.00  0.00    +0.000 N 
ATOM     63  C42 UNL A   1      39.562  33.068  30.092  1.00  0.00    +0.000 C 
ATOM     64  C43 UNL A   1      38.419  32.166  29.721  1.00  0.00    +0.000 C 
ATOM     76  C50 UNL A   1      38.675  30.903  29.330  1.00  0.00    +0.000 C 
ATOM     77  C51 UNL A   1      37.666  29.919  28.949  1.00  0.00    +0.000 C 
ATOM     78  C52 UNL A   1      38.276  28.766  28.633  1.00  0.00    +0.000 C 
ATOM     79  C53 UNL A   1      39.724  28.948  28.742  1.00  0.00    +0.000 C 
ATOM     80  N7  UNL A   1      39.867  30.236  29.195  1.00  0.00    +0.000 N 
ATOM     81  C54 UNL A   1      39.213  34.406  30.592  1.00  0.00    +0.000 C 
ATOM     82  C55 UNL A   1      40.411  34.938  30.793  1.00  0.00    +0.000 C 
ATOM     83  C56 UNL A   1      44.228  27.856  28.455  1.00  0.00    +0.000 C 
ATOM     84  C57 UNL A   1      43.064  27.290  28.168  1.00  0.00    +0.000 C 
ATOM    109  H23 UNL A   1      46.876  32.200  29.954  1.00  0.00    +0.000 H 
ATOM    110  H24 UNL A   1      45.682  34.375  30.754  1.00  0.00    +0.000 H 
ATOM    111  H25 UNL A   1      42.783  31.598  29.736  1.00  0.00    +0.000 H 
ATOM    112  H26 UNL A   1      36.648  30.082  28.925  1.00  0.00    +0.000 H 
ATOM    113  H27 UNL A   1      37.802  27.892  28.359  1.00  0.00    +0.000 H 
ATOM    114  H28 UNL A   1      40.739  30.641  29.404  1.00  0.00    +0.000 H 
ATOM    115  H29 UNL A   1      38.281  34.822  30.745  1.00  0.00    +0.000 H 
ATOM    116  H30 UNL A   1      40.571  35.902  31.125  1.00  0.00    +0.000 H 
ATOM    117  H31 UNL A   1      45.144  27.392  28.349  1.00  0.00    +0.000 H 
ATOM    118  H32 UNL A   1      42.875  26.356  27.771  1.00  0.00    +0.000 H 
ENDROOT
BRANCH   28   27
ATOM     27  C19 UNL A   1      40.207  26.716  27.861  1.00  0.00    +0.000 C 
ATOM    107  H21 UNL A   1      40.348  24.951  25.004  1.00  0.00    +0.000 H 
ATOM    108  H22 UNL A   1      41.006  27.087  25.937  1.00  0.00    +0.000 H 
ATOM     85  C58 UNL A   1      39.512  25.780  28.643  1.00  0.00    +0.000 C 
ATOM     86  C59 UNL A   1      39.238  24.506  28.136  1.00  0.00    +0.000 C 
ATOM    120  H34 UNL A   1      38.756  23.808  28.724  1.00  0.00    +0.000 H 
ATOM     24  C16 UNL A   1      39.620  24.181  26.830  1.00  0.00    +0.000 C 
ATOM     25  C17 UNL A   1      40.183  25.153  26.002  1.00  0.00    +0.000 C 
ATOM     26  C18 UNL A   1      40.521  26.396  26.529  1.00  0.00    +0.000 C 
ATOM    119  H33 UNL A   1      39.203  26.034  29.594  1.00  0.00    +0.000 H 
BRANCH   24   22
ATOM     22  C15 UNL A   1      39.459  22.787  26.363  1.00  0.00    +0.000 C 
ATOM     23  O3  UNL A   1      38.340  22.353  26.106  1.00  0.00    +0.000 O 
BRANCH   22   21
ATOM    106  H20 UNL A   1      41.266  22.278  25.649  1.00  0.00    +0.000 H 
ATOM     21  N3  UNL A   1      40.563  21.970  26.265  1.00  0.00    +0.000 N 
BRANCH   21   20
ATOM    105  H19 UNL A   1      39.921  20.402  27.410  1.00  0.00    +0.000 H 
ATOM     20  C14 UNL A   1      40.834  20.714  26.949  1.00  0.00    +0.000 C 
ATOM    104  H18 UNL A   1      41.612  20.879  27.665  1.00  0.00    +0.000 H 
BRANCH   20   19
ATOM     19  C13 UNL A   1      41.270  19.596  26.008  1.00  0.00    +0.000 C 
ATOM    102  H16 UNL A   1      40.482  18.872  25.970  1.00  0.00    +0.000 H 
ATOM    103  H17 UNL A   1      41.471  20.064  25.068  1.00  0.00    +0.000 H 
BRANCH   19   18
ATOM     18  C12 UNL A   1      42.557  18.871  26.402  1.00  0.00    +0.000 C 
ATOM    100  H14 UNL A   1      43.056  19.462  27.139  1.00  0.00    +0.000 H 
ATOM    101  H15 UNL A   1      42.254  17.906  26.753  1.00  0.00    +0.000 H 
BRANCH   18   17
ATOM     17  C11 UNL A   1      43.543  18.609  25.260  1.00  0.00    +0.000 C 
ATOM     98  H12 UNL A   1      43.562  17.556  25.076  1.00  0.00    +0.000 H 
ATOM     99  H13 UNL A   1      43.192  19.190  24.433  1.00  0.00    +0.000 H 
BRANCH   17   16
ATOM     97  H11 UNL A   1      45.616  18.351  25.021  1.00  0.00    +0.000 H 
ATOM     96  H10 UNL A   1      45.142  19.124  26.564  1.00  0.00    +0.000 H 
ATOM     16  C10 UNL A   1      44.988  19.068  25.507  1.00  0.00    +0.000 C 
BRANCH   16   15
ATOM     95  H9  UNL A   1      45.467  20.306  23.848  1.00  0.00    +0.000 H 
ATOM     94  H8  UNL A   1      46.255  20.776  25.351  1.00  0.00    +0.000 H 
ATOM     15  C9  UNL A   1      45.348  20.426  24.905  1.00  0.00    +0.000 C 
BRANCH   15   14
ATOM     93  H7  UNL A   1      43.533  21.137  25.695  1.00  0.00    +0.000 H 
ATOM     14  N2  UNL A   1      44.301  21.399  25.138  1.00  0.00    +0.000 N 
BRANCH   14    2
ATOM      1  O1  UNL A   1      45.011  23.002  23.650  1.00  0.00    +0.000 O 
ATOM      2  C1  UNL A   1      44.332  22.674  24.618  1.00  0.00    +0.000 C 
BRANCH    2    3
ATOM      3  C2  UNL A   1      43.466  23.677  25.372  1.00  0.00    +0.000 C 
ATOM     87  H1  UNL A   1      42.465  23.301  25.429  1.00  0.00    +0.000 H 
ATOM     88  H2  UNL A   1      43.487  24.609  24.846  1.00  0.00    +0.000 H 
BRANCH    3    4
ATOM      4  C3  UNL A   1      43.988  23.901  26.766  1.00  0.00    +0.000 C 
ATOM      5  C4  UNL A   1      43.157  23.513  27.889  1.00  0.00    +0.000 C 
ATOM      6  C5  UNL A   1      43.560  23.732  29.147  1.00  0.00    +0.000 C 
ATOM      7  C6  UNL A   1      44.881  24.363  29.418  1.00  0.00    +0.000 C 
ATOM      8  O2  UNL A   1      45.198  24.574  30.584  1.00  0.00    +0.000 O 
ATOM      9  N1  UNL A   1      45.644  24.658  28.299  1.00  0.00    +0.000 N 
ATOM     13  C8  UNL A   1      45.196  24.437  27.008  1.00  0.00    +0.000 C 
ATOM     89  H3  UNL A   1      42.245  23.062  27.717  1.00  0.00    +0.000 H 
ATOM     90  H4  UNL A   1      42.951  23.460  29.933  1.00  0.00    +0.000 H 
ATOM     92  H6  UNL A   1      45.803  24.691  26.213  1.00  0.00    +0.000 H 
BRANCH    9   10
ATOM     10  C7  UNL A   1      46.929  25.267  28.530  1.00  0.00    +0.000 C 
ATOM     11  F1  UNL A   1      47.932  24.435  28.160  1.00  0.00    +0.000 F 
ATOM     12  F2  UNL A   1      47.058  26.419  27.828  1.00  0.00    +0.000 F 
ATOM     91  H5  UNL A   1      46.991  25.474  29.579  1.00  0.00    +0.000 H 
ENDBRANCH    9   10
ENDBRANCH    3    4
ENDBRANCH    2    3
ENDBRANCH   14    2
ENDBRANCH   15   14
ENDBRANCH   16   15
ENDBRANCH   17   16
ENDBRANCH   18   17
ENDBRANCH   19   18
ENDBRANCH   20   19
ENDBRANCH   21   20
ENDBRANCH   22   21
ENDBRANCH   24   22
ENDBRANCH   28   27
BRANCH   32   33
ATOM     33  C24 UNL A   1      46.464  29.541  29.106  1.00  0.00    +0.000 C 
ATOM     34  C25 UNL A   1      47.203  29.744  27.932  1.00  0.00    +0.000 C 
ATOM     35  F3  UNL A   1      46.636  30.339  26.872  1.00  0.00    +0.000 F 
ATOM     36  C26 UNL A   1      48.526  29.318  27.837  1.00  0.00    +0.000 C 
ATOM     37  F4  UNL A   1      49.207  29.500  26.696  1.00  0.00    +0.000 F 
ATOM     38  C27 UNL A   1      49.139  28.703  28.918  1.00  0.00    +0.000 C 
ATOM     39  F5  UNL A   1      50.417  28.306  28.829  1.00  0.00    +0.000 F 
ATOM     40  C28 UNL A   1      48.429  28.497  30.091  1.00  0.00    +0.000 C 
ATOM     41  F6  UNL A   1      49.023  27.913  31.140  1.00  0.00    +0.000 F 
ATOM     42  C29 UNL A   1      47.099  28.902  30.182  1.00  0.00    +0.000 C 
ATOM     43  F7  UNL A   1      46.436  28.690  31.328  1.00  0.00    +0.000 F 
ENDBRANCH   32   33
BRANCH   49   50
ATOM     50  C35 UNL A   1      43.174  35.596  31.165  1.00  0.00    +0.000 C 
ATOM     51  C36 UNL A   1      43.232  35.854  32.542  1.00  0.00    +0.000 C 
ATOM     52  F8  UNL A   1      42.870  34.909  33.422  1.00  0.00    +0.000 F 
ATOM     53  C37 UNL A   1      43.642  37.096  33.019  1.00  0.00    +0.000 C 
ATOM     54  F9  UNL A   1      43.663  37.332  34.338  1.00  0.00    +0.000 F 
ATOM     55  C38 UNL A   1      44.022  38.092  32.130  1.00  0.00    +0.000 C 
ATOM     56  F10 UNL A   1      44.426  39.284  32.591  1.00  0.00    +0.000 F 
ATOM     57  C39 UNL A   1      43.978  37.855  30.765  1.00  0.00    +0.000 C 
ATOM     58  F11 UNL A   1      44.355  38.813  29.907  1.00  0.00    +0.000 F 
ATOM     59  C40 UNL A   1      43.549  36.621  30.284  1.00  0.00    +0.000 C 
ATOM     60  F12 UNL A   1      43.515  36.419  28.958  1.00  0.00    +0.000 F 
ENDBRANCH   49   50
BRANCH   64   65
ATOM     65  C44 UNL A   1      37.016  32.646  29.774  1.00  0.00    +0.000 C 
ATOM     66  C45 UNL A   1      36.237  32.459  30.922  1.00  0.00    +0.000 C 
ATOM     67  F13 UNL A   1      36.740  31.793  31.972  1.00  0.00    +0.000 F 
ATOM     68  C46 UNL A   1      34.929  32.934  30.987  1.00  0.00    +0.000 C 
ATOM     69  F14 UNL A   1      34.194  32.722  32.087  1.00  0.00    +0.000 F 
ATOM     70  C47 UNL A   1      34.386  33.625  29.914  1.00  0.00    +0.000 C 
ATOM     71  F15 UNL A   1      33.133  34.096  29.983  1.00  0.00    +0.000 F 
ATOM     72  C48 UNL A   1      35.141  33.826  28.768  1.00  0.00    +0.000 C 
ATOM     73  F16 UNL A   1      34.625  34.504  27.734  1.00  0.00    +0.000 F 
ATOM     74  C49 UNL A   1      36.440  33.329  28.693  1.00  0.00    +0.000 C 
ATOM     75  F17 UNL A   1      37.148  33.533  27.573  1.00  0.00    +0.000 F 
ENDBRANCH   64   65
TORSDOF 17
ENDMDL
