MODEL 1
REMARK VINA RESULT:      -7.9      0.000      0.000
ROOT
ATOM    163  H58 UNL A   1      23.601  47.277  49.078  1.00  0.00    +0.000 H 
ATOM    164  H59 UNL A   1      25.178  49.327  49.412  1.00  0.00    +0.000 H 
ATOM    165  H60 UNL A   1      27.458  46.135  48.087  1.00  0.00    +0.000 H 
ATOM    166  H61 UNL A   1      33.170  43.681  46.601  1.00  0.00    +0.000 H 
ATOM    167  H62 UNL A   1      31.621  41.703  46.222  1.00  0.00    +0.000 H 
ATOM    168  H63 UNL A   1      29.302  44.904  47.508  1.00  0.00    +0.000 H 
ATOM    169  H64 UNL A   1      32.445  48.771  48.085  1.00  0.00    +0.000 H 
ATOM    170  H65 UNL A   1      30.450  50.085  49.000  1.00  0.00    +0.000 H 
ATOM    171  H66 UNL A   1      24.368  42.294  47.232  1.00  0.00    +0.000 H 
ATOM    172  H67 UNL A   1      26.414  40.800  46.861  1.00  0.00    +0.000 H 
ATOM     47  C38 UNL A   1      28.883  42.226  46.826  1.00  0.00    +0.000 C 
ATOM     48  C39 UNL A   1      27.516  42.761  47.154  1.00  0.00    +0.000 C 
ATOM     49  N5  UNL A   1      27.159  43.974  47.495  1.00  0.00    +0.000 N 
ATOM     50  C40 UNL A   1      25.779  43.934  47.641  1.00  0.00    +0.000 C 
ATOM     51  C41 UNL A   1      24.944  44.915  48.057  1.00  0.00    +0.000 C 
ATOM     63  C48 UNL A   1      25.377  46.236  48.431  1.00  0.00    +0.000 C 
ATOM     64  C49 UNL A   1      24.618  47.293  48.902  1.00  0.00    +0.000 C 
ATOM     65  C50 UNL A   1      25.467  48.387  49.098  1.00  0.00    +0.000 C 
ATOM     66  C51 UNL A   1      26.763  47.996  48.801  1.00  0.00    +0.000 C 
ATOM     67  N6  UNL A   1      26.691  46.677  48.380  1.00  0.00    +0.000 N 
ATOM     68  C52 UNL A   1      27.976  48.765  48.898  1.00  0.00    +0.000 C 
ATOM     80  C59 UNL A   1      29.210  48.320  48.559  1.00  0.00    +0.000 C 
ATOM     81  N7  UNL A   1      29.590  47.071  48.083  1.00  0.00    +0.000 N 
ATOM     82  C60 UNL A   1      30.886  47.136  47.896  1.00  0.00    +0.000 C 
ATOM     83  C61 UNL A   1      31.837  46.062  47.436  1.00  0.00    +0.000 C 
ATOM     95  C68 UNL A   1      31.356  44.833  47.173  1.00  0.00    +0.000 C 
ATOM     96  C69 UNL A   1      32.148  43.685  46.739  1.00  0.00    +0.000 C 
ATOM     97  C70 UNL A   1      31.330  42.637  46.549  1.00  0.00    +0.000 C 
ATOM     98  C71 UNL A   1      29.961  43.032  46.882  1.00  0.00    +0.000 C 
ATOM     99  N8  UNL A   1      30.071  44.353  47.235  1.00  0.00    +0.000 N 
ATOM    100  C72 UNL A   1      31.470  48.451  48.194  1.00  0.00    +0.000 C 
ATOM    101  C73 UNL A   1      30.416  49.118  48.641  1.00  0.00    +0.000 C 
ATOM    102  C74 UNL A   1      25.353  42.597  47.292  1.00  0.00    +0.000 C 
ATOM    103  C75 UNL A   1      26.394  41.813  47.058  1.00  0.00    +0.000 C 
ENDROOT
BRANCH   47   46
ATOM    161  H56 UNL A   1      29.636  37.734  47.601  1.00  0.00    +0.000 H 
ATOM    162  H57 UNL A   1      29.396  40.035  48.332  1.00  0.00    +0.000 H 
ATOM    104  C76 UNL A   1      28.875  40.482  45.045  1.00  0.00    +0.000 C 
ATOM    105  C77 UNL A   1      28.921  39.152  44.642  1.00  0.00    +0.000 C 
ATOM     43  C34 UNL A   1      29.242  38.154  45.567  1.00  0.00    +0.000 C 
ATOM     44  C35 UNL A   1      29.417  38.474  46.915  1.00  0.00    +0.000 C 
ATOM     45  C36 UNL A   1      29.296  39.799  47.332  1.00  0.00    +0.000 C 
ATOM    174  H69 UNL A   1      28.718  38.901  43.662  1.00  0.00    +0.000 H 
ATOM    173  H68 UNL A   1      28.721  41.227  44.347  1.00  0.00    +0.000 H 
ATOM     46  C37 UNL A   1      29.038  40.816  46.397  1.00  0.00    +0.000 C 
BRANCH   43   41
ATOM     41  C33 UNL A   1      29.360  36.743  45.149  1.00  0.00    +0.000 C 
ATOM     42  O4  UNL A   1      30.109  36.438  44.224  1.00  0.00    +0.000 O 
BRANCH   41   40
ATOM    160  H55 UNL A   1      28.872  35.632  46.742  1.00  0.00    +0.000 H 
ATOM     40  N4  UNL A   1      28.638  35.778  45.796  1.00  0.00    +0.000 N 
BRANCH   40   39
ATOM    159  H54 UNL A   1      27.399  34.146  45.980  1.00  0.00    +0.000 H 
ATOM    158  H53 UNL A   1      27.866  34.546  44.328  1.00  0.00    +0.000 H 
ATOM     39  C32 UNL A   1      27.571  34.936  45.279  1.00  0.00    +0.000 C 
BRANCH   39   38
ATOM    156  H51 UNL A   1      26.130  36.323  45.979  1.00  0.00    +0.000 H 
ATOM    157  H52 UNL A   1      26.370  36.289  44.215  1.00  0.00    +0.000 H 
ATOM     38  C31 UNL A   1      26.271  35.714  45.111  1.00  0.00    +0.000 C 
BRANCH   38   37
ATOM    154  H49 UNL A   1      24.165  35.433  45.116  1.00  0.00    +0.000 H 
ATOM    155  H50 UNL A   1      25.076  34.445  43.939  1.00  0.00    +0.000 H 
ATOM     37  C30 UNL A   1      25.032  34.832  44.935  1.00  0.00    +0.000 C 
BRANCH   37   36
ATOM    153  H48 UNL A   1      25.984  33.358  46.101  1.00  0.00    +0.000 H 
ATOM     36  C29 UNL A   1      24.972  33.615  45.868  1.00  0.00    +0.000 C 
ATOM    152  H47 UNL A   1      24.449  32.831  45.361  1.00  0.00    +0.000 H 
BRANCH   36   35
ATOM     35  C28 UNL A   1      24.268  33.878  47.200  1.00  0.00    +0.000 C 
ATOM    150  H45 UNL A   1      24.928  33.603  47.996  1.00  0.00    +0.000 H 
ATOM    151  H46 UNL A   1      24.017  34.917  47.233  1.00  0.00    +0.000 H 
BRANCH   35   34
ATOM     34  C27 UNL A   1      22.969  33.087  47.350  1.00  0.00    +0.000 C 
ATOM    148  H43 UNL A   1      23.138  32.075  47.051  1.00  0.00    +0.000 H 
ATOM    149  H44 UNL A   1      22.659  33.126  48.373  1.00  0.00    +0.000 H 
BRANCH   34   33
ATOM     33  N3  UNL A   1      21.918  33.661  46.522  1.00  0.00    +0.000 N 
ATOM    147  H42 UNL A   1      21.939  34.643  46.450  1.00  0.00    +0.000 H 
BRANCH   33   31
ATOM     31  C26 UNL A   1      20.904  33.055  45.826  1.00  0.00    +0.000 C 
ATOM     32  O3  UNL A   1      20.574  31.914  46.164  1.00  0.00    +0.000 O 
BRANCH   31    5
ATOM    115  H10 UNL A   1      20.003  33.317  43.723  1.00  0.00    +0.000 H 
ATOM      5  C5  UNL A   1      20.192  33.785  44.667  1.00  0.00    +0.000 C 
BRANCH    5    4
ATOM    113  H8  UNL A   1      18.700  33.799  46.175  1.00  0.00    +0.000 H 
ATOM    114  H9  UNL A   1      18.545  35.025  44.805  1.00  0.00    +0.000 H 
ATOM      4  C4  UNL A   1      18.724  34.021  45.128  1.00  0.00    +0.000 C 
BRANCH    4    3
ATOM      3  C3  UNL A   1      17.550  33.268  44.505  1.00  0.00    +0.000 C 
ATOM    111  H6  UNL A   1      17.697  32.226  44.697  1.00  0.00    +0.000 H 
ATOM    112  H7  UNL A   1      16.677  33.693  44.956  1.00  0.00    +0.000 H 
BRANCH    3    2
ATOM      2  C2  UNL A   1      17.337  33.434  43.001  1.00  0.00    +0.000 C 
ATOM    109  H4  UNL A   1      16.297  33.611  42.822  1.00  0.00    +0.000 H 
ATOM    110  H5  UNL A   1      17.944  34.256  42.682  1.00  0.00    +0.000 H 
BRANCH    2    1
ATOM      1  C1  UNL A   1      17.765  32.218  42.200  1.00  0.00    +0.000 C 
ATOM    106  H1  UNL A   1      17.219  31.360  42.535  1.00  0.00    +0.000 H 
ATOM    107  H2  UNL A   1      18.812  32.050  42.338  1.00  0.00    +0.000 H 
ATOM    108  H3  UNL A   1      17.564  32.386  41.162  1.00  0.00    +0.000 H 
ENDBRANCH    2    1
ENDBRANCH    3    2
ENDBRANCH    4    3
ENDBRANCH    5    4
BRANCH    5    6
ATOM      6  S1  UNL A   1      21.408  35.153  44.250  1.00  0.00    +0.000 S 
BRANCH    6    7
ATOM    131  H26 UNL A   1      20.794  37.862  48.684  1.00  0.00    +0.000 H 
ATOM      7  C6  UNL A   1      20.967  36.474  45.326  1.00  0.00    +0.000 C 
ATOM      8  N1  UNL A   1      21.958  37.320  45.678  1.00  0.00    +0.000 N 
ATOM      9  C7  UNL A   1      21.828  37.916  46.866  1.00  0.00    +0.000 C 
ATOM     19  C16 UNL A   1      20.784  37.603  47.685  1.00  0.00    +0.000 C 
ATOM     20  C17 UNL A   1      19.728  36.935  47.141  1.00  0.00    +0.000 C 
ATOM     30  N2  UNL A   1      19.799  36.361  45.948  1.00  0.00    +0.000 N 
BRANCH    9   10
ATOM     10  O1  UNL A   1      22.786  38.852  47.178  1.00  0.00    +0.000 O 
BRANCH   10   11
ATOM     11  C8  UNL A   1      24.054  38.787  46.510  1.00  0.00    +0.000 C 
ATOM    116  H11 UNL A   1      24.199  39.715  45.998  1.00  0.00    +0.000 H 
ATOM    117  H12 UNL A   1      23.993  37.929  45.874  1.00  0.00    +0.000 H 
BRANCH   11   12
ATOM     12  C9  UNL A   1      25.300  38.543  47.405  1.00  0.00    +0.000 C 
ATOM    118  H13 UNL A   1      25.400  39.386  48.057  1.00  0.00    +0.000 H 
ATOM    119  H14 UNL A   1      26.112  38.407  46.722  1.00  0.00    +0.000 H 
BRANCH   12   13
ATOM    129  H24 UNL A   1      23.476  37.837  49.256  1.00  0.00    +0.000 H 
ATOM    130  H25 UNL A   1      24.909  38.076  50.225  1.00  0.00    +0.000 H 
ATOM     13  C10 UNL A   1      25.293  37.278  48.277  1.00  0.00    +0.000 C 
ATOM     14  C11 UNL A   1      26.688  36.781  48.689  1.00  0.00    +0.000 C 
ATOM     15  C12 UNL A   1      26.582  35.412  49.373  1.00  0.00    +0.000 C 
ATOM     16  C13 UNL A   1      25.545  35.364  50.496  1.00  0.00    +0.000 C 
ATOM     17  C14 UNL A   1      24.221  36.054  50.165  1.00  0.00    +0.000 C 
ATOM     18  C15 UNL A   1      24.425  37.425  49.527  1.00  0.00    +0.000 C 
ATOM    120  H15 UNL A   1      24.866  36.537  47.633  1.00  0.00    +0.000 H 
ATOM    121  H16 UNL A   1      27.126  37.483  49.369  1.00  0.00    +0.000 H 
ATOM    122  H17 UNL A   1      27.298  36.689  47.815  1.00  0.00    +0.000 H 
ATOM    123  H18 UNL A   1      27.539  35.166  49.786  1.00  0.00    +0.000 H 
ATOM    124  H19 UNL A   1      26.269  34.713  48.627  1.00  0.00    +0.000 H 
ATOM    125  H20 UNL A   1      25.963  35.840  51.359  1.00  0.00    +0.000 H 
ATOM    126  H21 UNL A   1      25.318  34.331  50.659  1.00  0.00    +0.000 H 
ATOM    127  H22 UNL A   1      23.661  36.175  51.069  1.00  0.00    +0.000 H 
ATOM    128  H23 UNL A   1      23.700  35.440  49.462  1.00  0.00    +0.000 H 
ENDBRANCH   12   13
ENDBRANCH   11   12
ENDBRANCH   10   11
ENDBRANCH    9   10
BRANCH   20   21
ATOM     21  O2  UNL A   1      18.655  36.559  47.900  1.00  0.00    +0.000 O 
BRANCH   21   22
ATOM    132  H27 UNL A   1      17.285  38.083  47.950  1.00  0.00    +0.000 H 
ATOM    133  H28 UNL A   1      18.720  38.342  48.910  1.00  0.00    +0.000 H 
ATOM     22  C18 UNL A   1      17.998  37.617  48.598  1.00  0.00    +0.000 C 
BRANCH   22   23
ATOM    135  H30 UNL A   1      17.717  36.094  50.060  1.00  0.00    +0.000 H 
ATOM    134  H29 UNL A   1      17.381  37.731  50.649  1.00  0.00    +0.000 H 
ATOM     23  C19 UNL A   1      17.273  37.042  49.838  1.00  0.00    +0.000 C 
BRANCH   23   24
ATOM    136  H31 UNL A   1      15.618  35.902  50.149  1.00  0.00    +0.000 H 
ATOM    137  H32 UNL A   1      14.884  38.740  49.356  1.00  0.00    +0.000 H 
ATOM    138  H33 UNL A   1      15.300  38.368  50.995  1.00  0.00    +0.000 H 
ATOM    139  H34 UNL A   1      12.893  38.158  50.769  1.00  0.00    +0.000 H 
ATOM    140  H35 UNL A   1      13.543  36.554  50.947  1.00  0.00    +0.000 H 
ATOM    141  H36 UNL A   1      12.685  37.923  48.421  1.00  0.00    +0.000 H 
ATOM    142  H37 UNL A   1      12.045  36.434  49.153  1.00  0.00    +0.000 H 
ATOM    143  H38 UNL A   1      13.530  36.245  47.075  1.00  0.00    +0.000 H 
ATOM    144  H39 UNL A   1      13.802  35.179  48.490  1.00  0.00    +0.000 H 
ATOM    145  H40 UNL A   1      15.940  35.778  47.723  1.00  0.00    +0.000 H 
ATOM    146  H41 UNL A   1      15.494  37.464  47.579  1.00  0.00    +0.000 H 
ATOM     24  C20 UNL A   1      15.773  36.804  49.593  1.00  0.00    +0.000 C 
ATOM     25  C21 UNL A   1      14.907  37.960  50.087  1.00  0.00    +0.000 C 
ATOM     26  C22 UNL A   1      13.504  37.411  50.307  1.00  0.00    +0.000 C 
ATOM     27  C23 UNL A   1      12.914  37.027  48.957  1.00  0.00    +0.000 C 
ATOM     28  C24 UNL A   1      13.856  36.170  48.092  1.00  0.00    +0.000 C 
ATOM     29  C25 UNL A   1      15.348  36.566  48.142  1.00  0.00    +0.000 C 
ENDBRANCH   23   24
ENDBRANCH   22   23
ENDBRANCH   21   22
ENDBRANCH   20   21
ENDBRANCH    6    7
ENDBRANCH    5    6
ENDBRANCH   31    5
ENDBRANCH   33   31
ENDBRANCH   34   33
ENDBRANCH   35   34
ENDBRANCH   36   35
ENDBRANCH   37   36
ENDBRANCH   38   37
ENDBRANCH   39   38
ENDBRANCH   40   39
ENDBRANCH   41   40
ENDBRANCH   43   41
ENDBRANCH   47   46
BRANCH   51   52
ATOM     52  C42 UNL A   1      23.480  44.594  48.140  1.00  0.00    +0.000 C 
ATOM     53  C43 UNL A   1      22.608  44.859  47.071  1.00  0.00    +0.000 C 
ATOM     54  F1  UNL A   1      23.065  45.454  45.959  1.00  0.00    +0.000 F 
ATOM     55  C44 UNL A   1      21.253  44.551  47.158  1.00  0.00    +0.000 C 
ATOM     56  F2  UNL A   1      20.431  44.860  46.146  1.00  0.00    +0.000 F 
ATOM     57  C45 UNL A   1      20.750  43.938  48.295  1.00  0.00    +0.000 C 
ATOM     58  F3  UNL A   1      19.446  43.634  48.374  1.00  0.00    +0.000 F 
ATOM     59  C46 UNL A   1      21.596  43.647  49.354  1.00  0.00    +0.000 C 
ATOM     60  F4  UNL A   1      21.113  43.043  50.449  1.00  0.00    +0.000 F 
ATOM     61  C47 UNL A   1      22.946  43.983  49.284  1.00  0.00    +0.000 C 
ATOM     62  F5  UNL A   1      23.735  43.703  50.333  1.00  0.00    +0.000 F 
ENDBRANCH   51   52
BRANCH   68   69
ATOM     69  C53 UNL A   1      27.874  50.159  49.447  1.00  0.00    +0.000 C 
ATOM     70  C54 UNL A   1      27.912  50.418  50.824  1.00  0.00    +0.000 C 
ATOM     71  F6  UNL A   1      27.997  49.405  51.700  1.00  0.00    +0.000 F 
ATOM     72  C55 UNL A   1      27.819  51.719  51.309  1.00  0.00    +0.000 C 
ATOM     73  F7  UNL A   1      27.804  51.939  52.631  1.00  0.00    +0.000 F 
ATOM     74  C56 UNL A   1      27.725  52.787  50.429  1.00  0.00    +0.000 C 
ATOM     75  F8  UNL A   1      27.642  54.039  50.898  1.00  0.00    +0.000 F 
ATOM     76  C57 UNL A   1      27.710  52.555  49.061  1.00  0.00    +0.000 C 
ATOM     77  F9  UNL A   1      27.635  53.586  48.208  1.00  0.00    +0.000 F 
ATOM     78  C58 UNL A   1      27.770  51.253  48.574  1.00  0.00    +0.000 C 
ATOM     79  F10 UNL A   1      27.737  51.061  47.247  1.00  0.00    +0.000 F 
ENDBRANCH   68   69
BRANCH   83   84
ATOM     84  C62 UNL A   1      33.291  46.340  47.307  1.00  0.00    +0.000 C 
ATOM     85  C63 UNL A   1      33.814  46.897  46.131  1.00  0.00    +0.000 C 
ATOM     86  F11 UNL A   1      32.997  47.188  45.107  1.00  0.00    +0.000 F 
ATOM     87  C64 UNL A   1      35.182  47.113  45.982  1.00  0.00    +0.000 C 
ATOM     88  F12 UNL A   1      35.661  47.595  44.827  1.00  0.00    +0.000 F 
ATOM     89  C65 UNL A   1      36.051  46.809  47.019  1.00  0.00    +0.000 C 
ATOM     90  F13 UNL A   1      37.367  47.013  46.875  1.00  0.00    +0.000 F 
ATOM     91  C66 UNL A   1      35.554  46.281  48.201  1.00  0.00    +0.000 C 
ATOM     92  F14 UNL A   1      36.389  45.998  49.210  1.00  0.00    +0.000 F 
ATOM     93  C67 UNL A   1      34.189  46.036  48.339  1.00  0.00    +0.000 C 
ATOM     94  F15 UNL A   1      33.740  45.508  49.487  1.00  0.00    +0.000 F 
ENDBRANCH   83   84
TORSDOF 29
ENDMDL
MODEL 2
REMARK VINA RESULT:      -7.8     49.464     53.091
ROOT
ATOM    163  H58 UNL A   1      21.584  56.307  -3.668  1.00  0.00    +0.000 H 
ATOM    164  H59 UNL A   1      19.722  56.764  -1.901  1.00  0.00    +0.000 H 
ATOM    165  H60 UNL A   1      22.564  59.758  -1.598  1.00  0.00    +0.000 H 
ATOM    166  H61 UNL A   1      24.752  65.009   1.318  1.00  0.00    +0.000 H 
ATOM    167  H62 UNL A   1      26.534  64.592  -0.444  1.00  0.00    +0.000 H 
ATOM    168  H63 UNL A   1      23.672  61.599  -0.799  1.00  0.00    +0.000 H 
ATOM    169  H64 UNL A   1      20.151  62.610   2.629  1.00  0.00    +0.000 H 
ATOM    170  H65 UNL A   1      19.040  60.410   1.943  1.00  0.00    +0.000 H 
ATOM    171  H66 UNL A   1      25.994  58.982  -5.157  1.00  0.00    +0.000 H 
ATOM    172  H67 UNL A   1      27.413  60.845  -4.121  1.00  0.00    +0.000 H 
ATOM     47  C38 UNL A   1      26.093  62.261  -2.028  1.00  0.00    +0.000 C 
ATOM     48  C39 UNL A   1      25.614  61.033  -2.753  1.00  0.00    +0.000 C 
ATOM     49  N5  UNL A   1      24.509  60.351  -2.587  1.00  0.00    +0.000 N 
ATOM     50  C40 UNL A   1      24.543  59.341  -3.541  1.00  0.00    +0.000 C 
ATOM     51  C41 UNL A   1      23.667  58.327  -3.729  1.00  0.00    +0.000 C 
ATOM     63  C48 UNL A   1      22.489  58.121  -2.929  1.00  0.00    +0.000 C 
ATOM     64  C49 UNL A   1      21.555  57.102  -3.011  1.00  0.00    +0.000 C 
ATOM     65  C50 UNL A   1      20.566  57.338  -2.051  1.00  0.00    +0.000 C 
ATOM     66  C51 UNL A   1      20.911  58.472  -1.334  1.00  0.00    +0.000 C 
ATOM     67  N6  UNL A   1      22.086  58.950  -1.893  1.00  0.00    +0.000 N 
ATOM     68  C52 UNL A   1      20.223  59.073  -0.221  1.00  0.00    +0.000 C 
ATOM     80  C59 UNL A   1      20.610  60.208   0.413  1.00  0.00    +0.000 C 
ATOM     81  N7  UNL A   1      21.717  61.011   0.173  1.00  0.00    +0.000 N 
ATOM     82  C60 UNL A   1      21.647  61.990   1.041  1.00  0.00    +0.000 C 
ATOM     83  C61 UNL A   1      22.605  63.129   1.272  1.00  0.00    +0.000 C 
ATOM     95  C68 UNL A   1      23.719  63.207   0.523  1.00  0.00    +0.000 C 
ATOM     96  C69 UNL A   1      24.751  64.234   0.637  1.00  0.00    +0.000 C 
ATOM     97  C70 UNL A   1      25.698  64.007  -0.287  1.00  0.00    +0.000 C 
ATOM     98  C71 UNL A   1      25.356  62.797  -1.036  1.00  0.00    +0.000 C 
ATOM     99  N8  UNL A   1      24.163  62.395  -0.491  1.00  0.00    +0.000 N 
ATOM    100  C72 UNL A   1      20.460  61.940   1.906  1.00  0.00    +0.000 C 
ATOM    101  C73 UNL A   1      19.890  60.810   1.516  1.00  0.00    +0.000 C 
ATOM    102  C74 UNL A   1      25.743  59.537  -4.323  1.00  0.00    +0.000 C 
ATOM    103  C75 UNL A   1      26.478  60.522  -3.829  1.00  0.00    +0.000 C 
ENDROOT
BRANCH   47   46
ATOM    161  H56 UNL A   1      28.598  65.202  -4.563  1.00  0.00    +0.000 H 
ATOM    162  H57 UNL A   1      26.506  64.153  -3.921  1.00  0.00    +0.000 H 
ATOM    104  C76 UNL A   1      28.553  62.578  -1.774  1.00  0.00    +0.000 C 
ATOM    105  C77 UNL A   1      29.733  63.247  -2.079  1.00  0.00    +0.000 C 
ATOM     43  C34 UNL A   1      29.758  64.173  -3.126  1.00  0.00    +0.000 C 
ATOM     44  C35 UNL A   1      28.582  64.505  -3.802  1.00  0.00    +0.000 C 
ATOM     45  C36 UNL A   1      27.383  63.888  -3.444  1.00  0.00    +0.000 C 
ATOM    174  H69 UNL A   1      30.589  63.061  -1.533  1.00  0.00    +0.000 H 
ATOM    173  H68 UNL A   1      28.553  61.834  -1.058  1.00  0.00    +0.000 H 
ATOM     46  C37 UNL A   1      27.362  62.909  -2.437  1.00  0.00    +0.000 C 
BRANCH   43   41
ATOM     41  C33 UNL A   1      31.014  64.848  -3.510  1.00  0.00    +0.000 C 
ATOM     42  O4  UNL A   1      31.985  64.183  -3.864  1.00  0.00    +0.000 O 
BRANCH   41   40
ATOM    160  H55 UNL A   1      31.505  66.637  -4.262  1.00  0.00    +0.000 H 
ATOM     40  N4  UNL A   1      31.092  66.214  -3.475  1.00  0.00    +0.000 N 
BRANCH   40   39
ATOM    159  H54 UNL A   1      31.456  67.789  -2.204  1.00  0.00    +0.000 H 
ATOM    158  H53 UNL A   1      30.364  66.558  -1.573  1.00  0.00    +0.000 H 
ATOM     39  C32 UNL A   1      30.648  67.126  -2.433  1.00  0.00    +0.000 C 
BRANCH   39   38
ATOM    156  H51 UNL A   1      29.830  68.811  -3.424  1.00  0.00    +0.000 H 
ATOM    157  H52 UNL A   1      28.847  67.328  -3.491  1.00  0.00    +0.000 H 
ATOM     38  C31 UNL A   1      29.459  67.964  -2.887  1.00  0.00    +0.000 C 
BRANCH   38   37
ATOM    154  H49 UNL A   1      29.013  68.150  -0.819  1.00  0.00    +0.000 H 
ATOM    155  H50 UNL A   1      28.530  69.532  -1.843  1.00  0.00    +0.000 H 
ATOM     37  C30 UNL A   1      28.576  68.468  -1.743  1.00  0.00    +0.000 C 
BRANCH   37   36
ATOM    153  H48 UNL A   1      27.019  67.275  -0.973  1.00  0.00    +0.000 H 
ATOM     36  C29 UNL A   1      27.126  67.968  -1.782  1.00  0.00    +0.000 C 
ATOM    152  H47 UNL A   1      26.951  67.521  -2.738  1.00  0.00    +0.000 H 
BRANCH   36   35
ATOM     35  C28 UNL A   1      26.077  69.060  -1.565  1.00  0.00    +0.000 C 
ATOM    150  H45 UNL A   1      25.757  69.421  -2.520  1.00  0.00    +0.000 H 
ATOM    151  H46 UNL A   1      25.269  68.627  -1.013  1.00  0.00    +0.000 H 
BRANCH   35   34
ATOM     34  C27 UNL A   1      26.609  70.239  -0.751  1.00  0.00    +0.000 C 
ATOM    148  H43 UNL A   1      27.616  70.444  -1.048  1.00  0.00    +0.000 H 
ATOM    149  H44 UNL A   1      25.987  71.090  -0.933  1.00  0.00    +0.000 H 
BRANCH   34   33
ATOM     33  N3  UNL A   1      26.583  69.936   0.673  1.00  0.00    +0.000 N 
ATOM    147  H42 UNL A   1      27.218  70.457   1.217  1.00  0.00    +0.000 H 
BRANCH   33   31
ATOM     31  C26 UNL A   1      25.818  69.043   1.378  1.00  0.00    +0.000 C 
ATOM     32  O3  UNL A   1      24.652  69.359   1.633  1.00  0.00    +0.000 O 
BRANCH   31    5
ATOM    115  H10 UNL A   1      26.510  66.859   1.156  1.00  0.00    +0.000 H 
ATOM      5  C5  UNL A   1      26.398  67.684   1.826  1.00  0.00    +0.000 C 
BRANCH    5    4
ATOM    113  H8  UNL A   1      28.207  68.761   1.567  1.00  0.00    +0.000 H 
ATOM    114  H9  UNL A   1      27.866  68.049   3.234  1.00  0.00    +0.000 H 
ATOM      4  C4  UNL A   1      27.894  67.934   2.170  1.00  0.00    +0.000 C 
BRANCH    4    3
ATOM      3  C3  UNL A   1      28.956  66.850   1.993  1.00  0.00    +0.000 C 
ATOM    111  H6  UNL A   1      28.453  65.947   1.721  1.00  0.00    +0.000 H 
ATOM    112  H7  UNL A   1      29.626  67.236   1.253  1.00  0.00    +0.000 H 
BRANCH    3    2
ATOM      2  C2  UNL A   1      29.840  66.538   3.200  1.00  0.00    +0.000 C 
ATOM    109  H4  UNL A   1      29.470  67.085   4.043  1.00  0.00    +0.000 H 
ATOM    110  H5  UNL A   1      29.800  65.481   3.360  1.00  0.00    +0.000 H 
BRANCH    2    1
ATOM      1  C1  UNL A   1      31.296  66.909   2.986  1.00  0.00    +0.000 C 
ATOM    106  H1  UNL A   1      31.801  66.931   3.929  1.00  0.00    +0.000 H 
ATOM    107  H2  UNL A   1      31.354  67.872   2.527  1.00  0.00    +0.000 H 
ATOM    108  H3  UNL A   1      31.758  66.181   2.351  1.00  0.00    +0.000 H 
ENDBRANCH    2    1
ENDBRANCH    3    2
ENDBRANCH    4    3
ENDBRANCH    5    4
BRANCH    5    6
ATOM      6  S1  UNL A   1      25.110  67.088   3.056  1.00  0.00    +0.000 S 
BRANCH    6    7
ATOM    131  H26 UNL A   1      26.259  63.947   7.080  1.00  0.00    +0.000 H 
ATOM      7  C6  UNL A   1      26.046  66.325   4.335  1.00  0.00    +0.000 C 
ATOM      8  N1  UNL A   1      26.591  65.125   4.048  1.00  0.00    +0.000 N 
ATOM      9  C7  UNL A   1      26.773  64.299   5.082  1.00  0.00    +0.000 C 
ATOM     19  C16 UNL A   1      26.347  64.650   6.329  1.00  0.00    +0.000 C 
ATOM     20  C17 UNL A   1      26.040  65.959   6.550  1.00  0.00    +0.000 C 
ATOM     30  N2  UNL A   1      25.889  66.823   5.557  1.00  0.00    +0.000 N 
BRANCH    9   10
ATOM     10  O1  UNL A   1      27.420  63.117   4.803  1.00  0.00    +0.000 O 
BRANCH   10   11
ATOM     11  C8  UNL A   1      28.460  63.120   3.815  1.00  0.00    +0.000 C 
ATOM    116  H11 UNL A   1      28.757  64.135   3.660  1.00  0.00    +0.000 H 
ATOM    117  H12 UNL A   1      28.034  62.642   2.957  1.00  0.00    +0.000 H 
BRANCH   11   12
ATOM     12  C9  UNL A   1      29.737  62.300   4.147  1.00  0.00    +0.000 C 
ATOM    118  H13 UNL A   1      29.484  61.263   4.071  1.00  0.00    +0.000 H 
ATOM    119  H14 UNL A   1      30.028  62.620   5.126  1.00  0.00    +0.000 H 
BRANCH   12   13
ATOM    129  H24 UNL A   1      29.871  63.767   1.892  1.00  0.00    +0.000 H 
ATOM    130  H25 UNL A   1      30.202  62.157   1.303  1.00  0.00    +0.000 H 
ATOM     13  C10 UNL A   1      30.969  62.546   3.263  1.00  0.00    +0.000 C 
ATOM     14  C11 UNL A   1      31.943  61.359   3.183  1.00  0.00    +0.000 C 
ATOM     15  C12 UNL A   1      33.227  61.776   2.454  1.00  0.00    +0.000 C 
ATOM     16  C13 UNL A   1      32.977  62.468   1.114  1.00  0.00    +0.000 C 
ATOM     17  C14 UNL A   1      31.852  63.504   1.137  1.00  0.00    +0.000 C 
ATOM     18  C15 UNL A   1      30.603  62.988   1.845  1.00  0.00    +0.000 C 
ATOM    120  H15 UNL A   1      31.477  63.345   3.763  1.00  0.00    +0.000 H 
ATOM    121  H16 UNL A   1      31.478  60.557   2.649  1.00  0.00    +0.000 H 
ATOM    122  H17 UNL A   1      32.190  61.045   4.175  1.00  0.00    +0.000 H 
ATOM    123  H18 UNL A   1      33.814  60.898   2.276  1.00  0.00    +0.000 H 
ATOM    124  H19 UNL A   1      33.729  62.481   3.083  1.00  0.00    +0.000 H 
ATOM    125  H20 UNL A   1      32.727  61.720   0.391  1.00  0.00    +0.000 H 
ATOM    126  H21 UNL A   1      33.874  62.999   0.872  1.00  0.00    +0.000 H 
ATOM    127  H22 UNL A   1      31.597  63.757   0.129  1.00  0.00    +0.000 H 
ATOM    128  H23 UNL A   1      32.205  64.357   1.677  1.00  0.00    +0.000 H 
ENDBRANCH   12   13
ENDBRANCH   11   12
ENDBRANCH   10   11
ENDBRANCH    9   10
BRANCH   20   21
ATOM     21  O2  UNL A   1      25.579  66.388   7.764  1.00  0.00    +0.000 O 
BRANCH   21   22
ATOM    132  H27 UNL A   1      25.410  68.027   8.984  1.00  0.00    +0.000 H 
ATOM    133  H28 UNL A   1      25.829  68.376   7.326  1.00  0.00    +0.000 H 
ATOM     22  C18 UNL A   1      25.986  67.704   8.143  1.00  0.00    +0.000 C 
BRANCH   22   23
ATOM    135  H30 UNL A   1      27.558  67.876   9.570  1.00  0.00    +0.000 H 
ATOM    134  H29 UNL A   1      27.896  66.735   8.258  1.00  0.00    +0.000 H 
ATOM     23  C19 UNL A   1      27.487  67.688   8.519  1.00  0.00    +0.000 C 
BRANCH   23   24
ATOM    136  H31 UNL A   1      27.533  69.517   7.633  1.00  0.00    +0.000 H 
ATOM    137  H32 UNL A   1      30.296  68.654   8.553  1.00  0.00    +0.000 H 
ATOM    138  H33 UNL A   1      29.179  69.359   9.673  1.00  0.00    +0.000 H 
ATOM    139  H34 UNL A   1      30.535  71.145   8.746  1.00  0.00    +0.000 H 
ATOM    140  H35 UNL A   1      28.933  71.306   8.084  1.00  0.00    +0.000 H 
ATOM    141  H36 UNL A   1      31.354  70.108   6.779  1.00  0.00    +0.000 H 
ATOM    142  H37 UNL A   1      30.394  71.515   6.266  1.00  0.00    +0.000 H 
ATOM    143  H38 UNL A   1      30.145  69.317   4.975  1.00  0.00    +0.000 H 
ATOM    144  H39 UNL A   1      28.698  70.252   5.471  1.00  0.00    +0.000 H 
ATOM    145  H40 UNL A   1      28.146  67.995   5.814  1.00  0.00    +0.000 H 
ATOM    146  H41 UNL A   1      29.672  67.667   6.605  1.00  0.00    +0.000 H 
ATOM     24  C20 UNL A   1      28.293  68.782   7.798  1.00  0.00    +0.000 C 
ATOM     25  C21 UNL A   1      29.453  69.308   8.640  1.00  0.00    +0.000 C 
ATOM     26  C22 UNL A   1      29.807  70.689   8.108  1.00  0.00    +0.000 C 
ATOM     27  C23 UNL A   1      30.377  70.538   6.704  1.00  0.00    +0.000 C 
ATOM     28  C24 UNL A   1      29.524  69.648   5.782  1.00  0.00    +0.000 C 
ATOM     29  C25 UNL A   1      28.908  68.399   6.449  1.00  0.00    +0.000 C 
ENDBRANCH   23   24
ENDBRANCH   22   23
ENDBRANCH   21   22
ENDBRANCH   20   21
ENDBRANCH    6    7
ENDBRANCH    5    6
ENDBRANCH   31    5
ENDBRANCH   33   31
ENDBRANCH   34   33
ENDBRANCH   35   34
ENDBRANCH   36   35
ENDBRANCH   37   36
ENDBRANCH   38   37
ENDBRANCH   39   38
ENDBRANCH   40   39
ENDBRANCH   41   40
ENDBRANCH   43   41
ENDBRANCH   47   46
BRANCH   51   52
ATOM     52  C42 UNL A   1      23.956  57.355  -4.837  1.00  0.00    +0.000 C 
ATOM     53  C43 UNL A   1      23.452  57.548  -6.133  1.00  0.00    +0.000 C 
ATOM     54  F1  UNL A   1      22.654  58.593  -6.398  1.00  0.00    +0.000 F 
ATOM     55  C44 UNL A   1      23.732  56.642  -7.153  1.00  0.00    +0.000 C 
ATOM     56  F2  UNL A   1      23.197  56.819  -8.369  1.00  0.00    +0.000 F 
ATOM     57  C45 UNL A   1      24.551  55.551  -6.910  1.00  0.00    +0.000 C 
ATOM     58  F3  UNL A   1      24.827  54.685  -7.895  1.00  0.00    +0.000 F 
ATOM     59  C46 UNL A   1      25.079  55.352  -5.643  1.00  0.00    +0.000 C 
ATOM     60  F4  UNL A   1      25.881  54.304  -5.409  1.00  0.00    +0.000 F 
ATOM     61  C47 UNL A   1      24.774  56.238  -4.612  1.00  0.00    +0.000 C 
ATOM     62  F5  UNL A   1      25.287  56.008  -3.393  1.00  0.00    +0.000 F 
ENDBRANCH   51   52
BRANCH   68   69
ATOM     69  C53 UNL A   1      19.001  58.376   0.301  1.00  0.00    +0.000 C 
ATOM     70  C54 UNL A   1      17.708  58.763  -0.078  1.00  0.00    +0.000 C 
ATOM     71  F6  UNL A   1      17.529  59.814  -0.893  1.00  0.00    +0.000 F 
ATOM     72  C55 UNL A   1      16.590  58.099   0.417  1.00  0.00    +0.000 C 
ATOM     73  F7  UNL A   1      15.362  58.520   0.084  1.00  0.00    +0.000 F 
ATOM     74  C56 UNL A   1      16.742  57.013   1.266  1.00  0.00    +0.000 C 
ATOM     75  F8  UNL A   1      15.664  56.371   1.736  1.00  0.00    +0.000 F 
ATOM     76  C57 UNL A   1      18.013  56.597   1.635  1.00  0.00    +0.000 C 
ATOM     77  F9  UNL A   1      18.163  55.539   2.443  1.00  0.00    +0.000 F 
ATOM     78  C58 UNL A   1      19.132  57.279   1.167  1.00  0.00    +0.000 C 
ATOM     79  F10 UNL A   1      20.347  56.863   1.554  1.00  0.00    +0.000 F 
ENDBRANCH   68   69
BRANCH   83   84
ATOM     84  C62 UNL A   1      22.347  64.136   2.335  1.00  0.00    +0.000 C 
ATOM     85  C63 UNL A   1      22.876  63.972   3.624  1.00  0.00    +0.000 C 
ATOM     86  F11 UNL A   1      23.626  62.896   3.907  1.00  0.00    +0.000 F 
ATOM     87  C64 UNL A   1      22.597  64.884   4.639  1.00  0.00    +0.000 C 
ATOM     88  F12 UNL A   1      23.069  64.673   5.875  1.00  0.00    +0.000 F 
ATOM     89  C65 UNL A   1      21.813  65.998   4.376  1.00  0.00    +0.000 C 
ATOM     90  F13 UNL A   1      21.542  66.873   5.354  1.00  0.00    +0.000 F 
ATOM     91  C66 UNL A   1      21.300  66.195   3.104  1.00  0.00    +0.000 C 
ATOM     92  F14 UNL A   1      20.553  67.277   2.843  1.00  0.00    +0.000 F 
ATOM     93  C67 UNL A   1      21.553  65.267   2.095  1.00  0.00    +0.000 C 
ATOM     94  F15 UNL A   1      21.029  65.474   0.879  1.00  0.00    +0.000 F 
ENDBRANCH   83   84
TORSDOF 29
ENDMDL
MODEL 3
REMARK VINA RESULT:      -7.6      5.776     13.416
ROOT
ATOM    163  H58 UNL A   1      19.989  40.011  48.712  1.00  0.00    +0.000 H 
ATOM    164  H59 UNL A   1      19.992  37.541  47.877  1.00  0.00    +0.000 H 
ATOM    165  H60 UNL A   1      23.861  38.996  47.643  1.00  0.00    +0.000 H 
ATOM    166  H61 UNL A   1      29.980  38.149  46.001  1.00  0.00    +0.000 H 
ATOM    167  H62 UNL A   1      29.983  40.536  46.869  1.00  0.00    +0.000 H 
ATOM    168  H63 UNL A   1      26.098  39.085  47.157  1.00  0.00    +0.000 H 
ATOM    169  H64 UNL A   1      26.252  34.337  45.547  1.00  0.00    +0.000 H 
ATOM    170  H65 UNL A   1      23.708  34.301  45.819  1.00  0.00    +0.000 H 
ATOM    171  H66 UNL A   1      23.860  43.652  49.473  1.00  0.00    +0.000 H 
ATOM    172  H67 UNL A   1      26.283  43.906  48.683  1.00  0.00    +0.000 H 
ATOM     47  C38 UNL A   1      27.422  41.489  47.687  1.00  0.00    +0.000 C 
ATOM     48  C39 UNL A   1      25.995  41.733  48.099  1.00  0.00    +0.000 C 
ATOM     49  N5  UNL A   1      24.977  40.910  48.089  1.00  0.00    +0.000 N 
ATOM     50  C40 UNL A   1      23.908  41.628  48.610  1.00  0.00    +0.000 C 
ATOM     51  C41 UNL A   1      22.616  41.245  48.737  1.00  0.00    +0.000 C 
ATOM     63  C48 UNL A   1      22.113  39.958  48.336  1.00  0.00    +0.000 C 
ATOM     64  C49 UNL A   1      20.814  39.483  48.387  1.00  0.00    +0.000 C 
ATOM     65  C50 UNL A   1      20.813  38.163  47.922  1.00  0.00    +0.000 C 
ATOM     66  C51 UNL A   1      22.101  37.835  47.531  1.00  0.00    +0.000 C 
ATOM     67  N6  UNL A   1      22.891  38.941  47.803  1.00  0.00    +0.000 N 
ATOM     68  C52 UNL A   1      22.575  36.607  46.948  1.00  0.00    +0.000 C 
ATOM     80  C59 UNL A   1      23.864  36.347  46.617  1.00  0.00    +0.000 C 
ATOM     81  N7  UNL A   1      24.979  37.168  46.731  1.00  0.00    +0.000 N 
ATOM     82  C60 UNL A   1      25.991  36.464  46.288  1.00  0.00    +0.000 C 
ATOM     83  C61 UNL A   1      27.435  36.863  46.135  1.00  0.00    +0.000 C 
ATOM     95  C68 UNL A   1      27.807  38.112  46.471  1.00  0.00    +0.000 C 
ATOM     96  C69 UNL A   1      29.157  38.656  46.363  1.00  0.00    +0.000 C 
ATOM     97  C70 UNL A   1      29.157  39.921  46.813  1.00  0.00    +0.000 C 
ATOM     98  C71 UNL A   1      27.796  40.288  47.208  1.00  0.00    +0.000 C 
ATOM     99  N8  UNL A   1      27.064  39.150  46.977  1.00  0.00    +0.000 N 
ATOM    100  C72 UNL A   1      25.638  35.096  45.881  1.00  0.00    +0.000 C 
ATOM    101  C73 UNL A   1      24.324  35.095  46.054  1.00  0.00    +0.000 C 
ATOM    102  C74 UNL A   1      24.413  42.930  48.985  1.00  0.00    +0.000 C 
ATOM    103  C75 UNL A   1      25.678  43.072  48.620  1.00  0.00    +0.000 C 
ENDROOT
BRANCH   47   46
ATOM    161  H56 UNL A   1      30.182  44.837  46.097  1.00  0.00    +0.000 H 
ATOM    162  H57 UNL A   1      28.538  43.077  45.798  1.00  0.00    +0.000 H 
ATOM    104  C76 UNL A   1      28.891  42.891  49.133  1.00  0.00    +0.000 C 
ATOM    105  C77 UNL A   1      29.761  43.960  49.312  1.00  0.00    +0.000 C 
ATOM     43  C34 UNL A   1      30.266  44.643  48.200  1.00  0.00    +0.000 C 
ATOM     44  C35 UNL A   1      29.822  44.321  46.916  1.00  0.00    +0.000 C 
ATOM     45  C36 UNL A   1      28.891  43.297  46.743  1.00  0.00    +0.000 C 
ATOM    174  H69 UNL A   1      30.034  44.251  50.264  1.00  0.00    +0.000 H 
ATOM    173  H68 UNL A   1      28.585  42.335  49.947  1.00  0.00    +0.000 H 
ATOM     46  C37 UNL A   1      28.429  42.565  47.850  1.00  0.00    +0.000 C 
BRANCH   43   41
ATOM     41  C33 UNL A   1      31.241  45.740  48.363  1.00  0.00    +0.000 C 
ATOM     42  O4  UNL A   1      32.401  45.487  48.682  1.00  0.00    +0.000 O 
BRANCH   41   40
ATOM    160  H55 UNL A   1      30.534  47.518  48.951  1.00  0.00    +0.000 H 
ATOM     40  N4  UNL A   1      30.851  47.034  48.154  1.00  0.00    +0.000 N 
BRANCH   40   39
ATOM    159  H54 UNL A   1      30.215  48.652  47.055  1.00  0.00    +0.000 H 
ATOM    158  H53 UNL A   1      30.462  47.172  46.129  1.00  0.00    +0.000 H 
ATOM     39  C32 UNL A   1      30.838  47.794  46.914  1.00  0.00    +0.000 C 
BRANCH   39   38
ATOM    156  H51 UNL A   1      32.148  49.262  46.128  1.00  0.00    +0.000 H 
ATOM    157  H52 UNL A   1      32.822  48.248  47.428  1.00  0.00    +0.000 H 
ATOM     38  C31 UNL A   1      32.233  48.277  46.535  1.00  0.00    +0.000 C 
BRANCH   38   37
ATOM    154  H49 UNL A   1      33.704  46.834  46.019  1.00  0.00    +0.000 H 
ATOM    155  H50 UNL A   1      32.191  46.772  45.071  1.00  0.00    +0.000 H 
ATOM     37  C30 UNL A   1      32.945  47.391  45.510  1.00  0.00    +0.000 C 
BRANCH   37   36
ATOM    153  H48 UNL A   1      33.398  49.188  44.510  1.00  0.00    +0.000 H 
ATOM     36  C29 UNL A   1      33.607  48.151  44.353  1.00  0.00    +0.000 C 
ATOM    152  H47 UNL A   1      33.204  47.780  43.434  1.00  0.00    +0.000 H 
BRANCH   36   35
ATOM     35  C28 UNL A   1      35.129  48.013  44.299  1.00  0.00    +0.000 C 
ATOM    150  H45 UNL A   1      35.563  48.989  44.359  1.00  0.00    +0.000 H 
ATOM    151  H46 UNL A   1      35.427  47.394  45.120  1.00  0.00    +0.000 H 
BRANCH   35   34
ATOM     34  C27 UNL A   1      35.618  47.341  43.017  1.00  0.00    +0.000 C 
ATOM    148  H43 UNL A   1      34.775  46.986  42.463  1.00  0.00    +0.000 H 
ATOM    149  H44 UNL A   1      36.166  48.057  42.441  1.00  0.00    +0.000 H 
BRANCH   34   33
ATOM     33  N3  UNL A   1      36.494  46.219  43.325  1.00  0.00    +0.000 N 
ATOM    147  H42 UNL A   1      37.457  46.421  43.271  1.00  0.00    +0.000 H 
BRANCH   33   31
ATOM     31  C26 UNL A   1      36.196  44.928  43.676  1.00  0.00    +0.000 C 
ATOM     32  O3  UNL A   1      36.211  44.071  42.787  1.00  0.00    +0.000 O 
BRANCH   31    5
ATOM    115  H10 UNL A   1      35.386  45.245  45.808  1.00  0.00    +0.000 H 
ATOM      5  C5  UNL A   1      35.864  44.561  45.138  1.00  0.00    +0.000 C 
BRANCH    5    4
ATOM    113  H8  UNL A   1      34.544  43.313  44.042  1.00  0.00    +0.000 H 
ATOM    114  H9  UNL A   1      35.219  42.661  45.630  1.00  0.00    +0.000 H 
ATOM      4  C4  UNL A   1      34.767  43.459  45.078  1.00  0.00    +0.000 C 
BRANCH    4    3
ATOM      3  C3  UNL A   1      33.423  43.617  45.786  1.00  0.00    +0.000 C 
ATOM    111  H6  UNL A   1      33.496  44.468  46.430  1.00  0.00    +0.000 H 
ATOM    112  H7  UNL A   1      32.703  43.706  44.999  1.00  0.00    +0.000 H 
BRANCH    3    2
ATOM      2  C2  UNL A   1      32.938  42.440  46.631  1.00  0.00    +0.000 C 
ATOM    109  H4  UNL A   1      33.787  41.979  47.091  1.00  0.00    +0.000 H 
ATOM    110  H5  UNL A   1      32.252  42.829  47.355  1.00  0.00    +0.000 H 
BRANCH    2    1
ATOM      1  C1  UNL A   1      32.198  41.390  45.824  1.00  0.00    +0.000 C 
ATOM    106  H1  UNL A   1      31.491  40.889  46.453  1.00  0.00    +0.000 H 
ATOM    107  H2  UNL A   1      32.897  40.680  45.436  1.00  0.00    +0.000 H 
ATOM    108  H3  UNL A   1      31.682  41.862  45.013  1.00  0.00    +0.000 H 
ENDBRANCH    2    1
ENDBRANCH    3    2
ENDBRANCH    4    3
ENDBRANCH    5    4
BRANCH    5    6
ATOM      6  S1  UNL A   1      37.569  44.324  45.887  1.00  0.00    +0.000 S 
BRANCH    6    7
ATOM    131  H26 UNL A   1      35.206  40.824  48.975  1.00  0.00    +0.000 H 
ATOM      7  C6  UNL A   1      37.303  43.243  47.250  1.00  0.00    +0.000 C 
ATOM      8  N1  UNL A   1      37.602  41.942  47.054  1.00  0.00    +0.000 N 
ATOM      9  C7  UNL A   1      36.905  41.063  47.779  1.00  0.00    +0.000 C 
ATOM     19  C16 UNL A   1      35.902  41.486  48.599  1.00  0.00    +0.000 C 
ATOM     20  C17 UNL A   1      35.848  42.813  48.905  1.00  0.00    +0.000 C 
ATOM     30  N2  UNL A   1      36.552  43.717  48.238  1.00  0.00    +0.000 N 
BRANCH    9   10
ATOM     10  O1  UNL A   1      37.280  39.746  47.651  1.00  0.00    +0.000 O 
BRANCH   10   11
ATOM     11  C8  UNL A   1      36.779  38.993  46.538  1.00  0.00    +0.000 C 
ATOM    116  H11 UNL A   1      36.875  37.955  46.779  1.00  0.00    +0.000 H 
ATOM    117  H12 UNL A   1      37.360  39.313  45.697  1.00  0.00    +0.000 H 
BRANCH   11   12
ATOM     12  C9  UNL A   1      35.301  39.249  46.134  1.00  0.00    +0.000 C 
ATOM    118  H13 UNL A   1      35.255  39.251  45.064  1.00  0.00    +0.000 H 
ATOM    119  H14 UNL A   1      35.042  40.178  46.596  1.00  0.00    +0.000 H 
BRANCH   12   13
ATOM    129  H24 UNL A   1      35.577  37.473  48.140  1.00  0.00    +0.000 H 
ATOM    130  H25 UNL A   1      35.392  36.432  46.750  1.00  0.00    +0.000 H 
ATOM     13  C10 UNL A   1      34.257  38.243  46.643  1.00  0.00    +0.000 C 
ATOM     14  C11 UNL A   1      33.337  37.673  45.552  1.00  0.00    +0.000 C 
ATOM     15  C12 UNL A   1      32.209  36.849  46.188  1.00  0.00    +0.000 C 
ATOM     16  C13 UNL A   1      32.700  35.809  47.196  1.00  0.00    +0.000 C 
ATOM     17  C14 UNL A   1      33.783  36.315  48.151  1.00  0.00    +0.000 C 
ATOM     18  C15 UNL A   1      34.882  37.086  47.425  1.00  0.00    +0.000 C 
ATOM    120  H15 UNL A   1      33.651  38.829  47.301  1.00  0.00    +0.000 H 
ATOM    121  H16 UNL A   1      33.908  37.045  44.900  1.00  0.00    +0.000 H 
ATOM    122  H17 UNL A   1      32.909  38.482  44.999  1.00  0.00    +0.000 H 
ATOM    123  H18 UNL A   1      31.682  36.340  45.407  1.00  0.00    +0.000 H 
ATOM    124  H19 UNL A   1      31.585  37.533  46.722  1.00  0.00    +0.000 H 
ATOM    125  H20 UNL A   1      33.096  34.976  46.653  1.00  0.00    +0.000 H 
ATOM    126  H21 UNL A   1      31.858  35.549  47.802  1.00  0.00    +0.000 H 
ATOM    127  H22 UNL A   1      34.222  35.475  48.648  1.00  0.00    +0.000 H 
ATOM    128  H23 UNL A   1      33.319  36.982  48.846  1.00  0.00    +0.000 H 
ENDBRANCH   12   13
ENDBRANCH   11   12
ENDBRANCH   10   11
ENDBRANCH    9   10
BRANCH   20   21
ATOM     21  O2  UNL A   1      34.858  43.323  49.698  1.00  0.00    +0.000 O 
BRANCH   21   22
ATOM    132  H27 UNL A   1      34.827  42.612  51.620  1.00  0.00    +0.000 H 
ATOM    133  H28 UNL A   1      34.525  41.419  50.382  1.00  0.00    +0.000 H 
ATOM     22  C18 UNL A   1      34.342  42.428  50.684  1.00  0.00    +0.000 C 
BRANCH   22   23
ATOM    135  H30 UNL A   1      32.618  42.805  51.877  1.00  0.00    +0.000 H 
ATOM    134  H29 UNL A   1      32.539  43.507  50.254  1.00  0.00    +0.000 H 
ATOM     23  C19 UNL A   1      32.819  42.656  50.837  1.00  0.00    +0.000 C 
BRANCH   23   24
ATOM    136  H31 UNL A   1      31.433  41.883  49.567  1.00  0.00    +0.000 H 
ATOM    137  H32 UNL A   1      33.169  39.706  50.780  1.00  0.00    +0.000 H 
ATOM    138  H33 UNL A   1      33.730  40.619  49.420  1.00  0.00    +0.000 H 
ATOM    139  H34 UNL A   1      32.610  38.636  48.580  1.00  0.00    +0.000 H 
ATOM    140  H35 UNL A   1      31.592  40.002  48.224  1.00  0.00    +0.000 H 
ATOM    141  H36 UNL A   1      31.309  38.028  50.464  1.00  0.00    +0.000 H 
ATOM    142  H37 UNL A   1      30.176  38.378  49.138  1.00  0.00    +0.000 H 
ATOM    143  H38 UNL A   1      29.627  39.240  51.487  1.00  0.00    +0.000 H 
ATOM    144  H39 UNL A   1      29.466  40.314  50.060  1.00  0.00    +0.000 H 
ATOM    145  H40 UNL A   1      30.375  41.650  51.765  1.00  0.00    +0.000 H 
ATOM    146  H41 UNL A   1      31.548  40.426  52.198  1.00  0.00    +0.000 H 
ATOM     24  C20 UNL A   1      31.987  41.448  50.373  1.00  0.00    +0.000 C 
ATOM     25  C21 UNL A   1      32.855  40.273  49.929  1.00  0.00    +0.000 C 
ATOM     26  C22 UNL A   1      32.005  39.406  49.011  1.00  0.00    +0.000 C 
ATOM     27  C23 UNL A   1      30.885  38.780  49.832  1.00  0.00    +0.000 C 
ATOM     28  C24 UNL A   1      30.128  39.788  50.715  1.00  0.00    +0.000 C 
ATOM     29  C25 UNL A   1      31.002  40.867  51.391  1.00  0.00    +0.000 C 
ENDBRANCH   23   24
ENDBRANCH   22   23
ENDBRANCH   21   22
ENDBRANCH   20   21
ENDBRANCH    6    7
ENDBRANCH    5    6
ENDBRANCH   31    5
ENDBRANCH   33   31
ENDBRANCH   34   33
ENDBRANCH   35   34
ENDBRANCH   36   35
ENDBRANCH   37   36
ENDBRANCH   38   37
ENDBRANCH   39   38
ENDBRANCH   40   39
ENDBRANCH   41   40
ENDBRANCH   43   41
ENDBRANCH   47   46
BRANCH   51   52
ATOM     52  C42 UNL A   1      21.653  42.236  49.326  1.00  0.00    +0.000 C 
ATOM     53  C43 UNL A   1      21.221  42.138  50.659  1.00  0.00    +0.000 C 
ATOM     54  F1  UNL A   1      21.631  41.118  51.428  1.00  0.00    +0.000 F 
ATOM     55  C44 UNL A   1      20.332  43.066  51.194  1.00  0.00    +0.000 C 
ATOM     56  F2  UNL A   1      19.894  42.923  52.453  1.00  0.00    +0.000 F 
ATOM     57  C45 UNL A   1      19.888  44.129  50.424  1.00  0.00    +0.000 C 
ATOM     58  F3  UNL A   1      19.038  45.027  50.943  1.00  0.00    +0.000 F 
ATOM     59  C46 UNL A   1      20.318  44.259  49.112  1.00  0.00    +0.000 C 
ATOM     60  F4  UNL A   1      19.899  45.294  48.370  1.00  0.00    +0.000 F 
ATOM     61  C47 UNL A   1      21.181  43.314  48.562  1.00  0.00    +0.000 C 
ATOM     62  F5  UNL A   1      21.565  43.458  47.285  1.00  0.00    +0.000 F 
ENDBRANCH   51   52
BRANCH   68   69
ATOM     69  C53 UNL A   1      21.561  35.540  46.653  1.00  0.00    +0.000 C 
ATOM     70  C54 UNL A   1      21.007  35.376  45.376  1.00  0.00    +0.000 C 
ATOM     71  F6  UNL A   1      21.343  36.212  44.382  1.00  0.00    +0.000 F 
ATOM     72  C55 UNL A   1      20.071  34.376  45.126  1.00  0.00    +0.000 C 
ATOM     73  F7  UNL A   1      19.515  34.272  43.911  1.00  0.00    +0.000 F 
ATOM     74  C56 UNL A   1      19.700  33.500  46.135  1.00  0.00    +0.000 C 
ATOM     75  F8  UNL A   1      18.803  32.536  45.891  1.00  0.00    +0.000 F 
ATOM     76  C57 UNL A   1      20.253  33.629  47.400  1.00  0.00    +0.000 C 
ATOM     77  F9  UNL A   1      19.908  32.774  48.373  1.00  0.00    +0.000 F 
ATOM     78  C58 UNL A   1      21.165  34.647  47.662  1.00  0.00    +0.000 C 
ATOM     79  F10 UNL A   1      21.671  34.756  48.899  1.00  0.00    +0.000 F 
ENDBRANCH   68   69
BRANCH   83   84
ATOM     84  C62 UNL A   1      28.434  35.908  45.588  1.00  0.00    +0.000 C 
ATOM     85  C63 UNL A   1      28.949  36.070  44.294  1.00  0.00    +0.000 C 
ATOM     86  F11 UNL A   1      28.541  37.098  43.535  1.00  0.00    +0.000 F 
ATOM     87  C64 UNL A   1      29.848  35.151  43.755  1.00  0.00    +0.000 C 
ATOM     88  F12 UNL A   1      30.280  35.300  42.496  1.00  0.00    +0.000 F 
ATOM     89  C65 UNL A   1      30.276  34.072  44.513  1.00  0.00    +0.000 C 
ATOM     90  F13 UNL A   1      31.137  33.186  43.993  1.00  0.00    +0.000 F 
ATOM     91  C66 UNL A   1      29.800  33.905  45.804  1.00  0.00    +0.000 C 
ATOM     92  F14 UNL A   1      30.222  32.870  46.544  1.00  0.00    +0.000 F 
ATOM     93  C67 UNL A   1      28.879  34.806  46.333  1.00  0.00    +0.000 C 
ATOM     94  F15 UNL A   1      28.423  34.609  47.579  1.00  0.00    +0.000 F 
ENDBRANCH   83   84
TORSDOF 29
ENDMDL
MODEL 4
REMARK VINA RESULT:      -7.5     45.582     49.220
ROOT
ATOM    163  H58 UNL A   1      21.223  17.623   4.839  1.00  0.00    +0.000 H 
ATOM    164  H59 UNL A   1      20.777  19.848   3.555  1.00  0.00    +0.000 H 
ATOM    165  H60 UNL A   1      17.657  19.228   6.205  1.00  0.00    +0.000 H 
ATOM    166  H61 UNL A   1      12.020  21.048   8.607  1.00  0.00    +0.000 H 
ATOM    167  H62 UNL A   1      12.488  18.909   9.896  1.00  0.00    +0.000 H 
ATOM    168  H63 UNL A   1      15.654  19.531   7.276  1.00  0.00    +0.000 H 
ATOM    169  H64 UNL A   1      14.682  23.839   4.898  1.00  0.00    +0.000 H 
ATOM    170  H65 UNL A   1      16.771  23.382   3.494  1.00  0.00    +0.000 H 
ATOM    171  H66 UNL A   1      18.664  15.081   8.816  1.00  0.00    +0.000 H 
ATOM    172  H67 UNL A   1      16.314  15.210   9.825  1.00  0.00    +0.000 H 
ATOM     47  C38 UNL A   1      14.907  17.596   9.150  1.00  0.00    +0.000 C 
ATOM     48  C39 UNL A   1      16.238  17.133   8.624  1.00  0.00    +0.000 C 
ATOM     49  N5  UNL A   1      17.031  17.706   7.754  1.00  0.00    +0.000 N 
ATOM     50  C40 UNL A   1      18.146  16.882   7.661  1.00  0.00    +0.000 C 
ATOM     51  C41 UNL A   1      19.216  16.999   6.840  1.00  0.00    +0.000 C 
ATOM     63  C48 UNL A   1      19.384  18.057   5.880  1.00  0.00    +0.000 C 
ATOM     64  C49 UNL A   1      20.413  18.247   4.974  1.00  0.00    +0.000 C 
ATOM     65  C50 UNL A   1      20.164  19.432   4.272  1.00  0.00    +0.000 C 
ATOM     66  C51 UNL A   1      18.953  19.950   4.704  1.00  0.00    +0.000 C 
ATOM     67  N6  UNL A   1      18.493  19.105   5.700  1.00  0.00    +0.000 N 
ATOM     68  C52 UNL A   1      18.267  21.128   4.239  1.00  0.00    +0.000 C 
ATOM     80  C59 UNL A   1      17.093  21.591   4.734  1.00  0.00    +0.000 C 
ATOM     81  N7  UNL A   1      16.296  21.060   5.739  1.00  0.00    +0.000 N 
ATOM     82  C60 UNL A   1      15.274  21.872   5.857  1.00  0.00    +0.000 C 
ATOM     83  C61 UNL A   1      14.073  21.768   6.760  1.00  0.00    +0.000 C 
ATOM     95  C68 UNL A   1      13.962  20.707   7.579  1.00  0.00    +0.000 C 
ATOM     96  C69 UNL A   1      12.854  20.451   8.495  1.00  0.00    +0.000 C 
ATOM     97  C70 UNL A   1      13.096  19.315   9.169  1.00  0.00    +0.000 C 
ATOM     98  C71 UNL A   1      14.362  18.745   8.706  1.00  0.00    +0.000 C 
ATOM     99  N8  UNL A   1      14.808  19.641   7.767  1.00  0.00    +0.000 N 
ATOM    100  C72 UNL A   1      15.330  23.038   4.965  1.00  0.00    +0.000 C 
ATOM    101  C73 UNL A   1      16.430  22.792   4.268  1.00  0.00    +0.000 C 
ATOM    102  C74 UNL A   1      17.958  15.805   8.608  1.00  0.00    +0.000 C 
ATOM    103  C75 UNL A   1      16.763  15.871   9.172  1.00  0.00    +0.000 C 
ENDROOT
BRANCH   47   46
ATOM    161  H56 UNL A   1      12.033  14.275  10.586  1.00  0.00    +0.000 H 
ATOM    162  H57 UNL A   1      13.149  15.557   8.854  1.00  0.00    +0.000 H 
ATOM    104  C76 UNL A   1      14.476  17.064  11.547  1.00  0.00    +0.000 C 
ATOM    105  C77 UNL A   1      13.907  16.268  12.534  1.00  0.00    +0.000 C 
ATOM     43  C34 UNL A   1      12.983  15.278  12.186  1.00  0.00    +0.000 C 
ATOM     44  C35 UNL A   1      12.703  15.017  10.843  1.00  0.00    +0.000 C 
ATOM     45  C36 UNL A   1      13.331  15.767   9.849  1.00  0.00    +0.000 C 
ATOM    174  H69 UNL A   1      14.168  16.405  13.524  1.00  0.00    +0.000 H 
ATOM    173  H68 UNL A   1      15.094  17.848  11.810  1.00  0.00    +0.000 H 
ATOM     46  C37 UNL A   1      14.212  16.806  10.194  1.00  0.00    +0.000 C 
BRANCH   43   41
ATOM     41  C33 UNL A   1      12.317  14.464  13.223  1.00  0.00    +0.000 C 
ATOM     42  O4  UNL A   1      12.308  14.845  14.391  1.00  0.00    +0.000 O 
BRANCH   41   40
ATOM    160  H55 UNL A   1      10.916  13.371  12.302  1.00  0.00    +0.000 H 
ATOM     40  N4  UNL A   1      11.709  13.287  12.879  1.00  0.00    +0.000 N 
BRANCH   40   39
ATOM    159  H54 UNL A   1      11.637  11.260  12.538  1.00  0.00    +0.000 H 
ATOM    158  H53 UNL A   1      11.711  11.729  14.236  1.00  0.00    +0.000 H 
ATOM     39  C32 UNL A   1      12.074  11.930  13.249  1.00  0.00    +0.000 C 
BRANCH   39   38
ATOM    156  H51 UNL A   1      14.052  12.686  13.175  1.00  0.00    +0.000 H 
ATOM    157  H52 UNL A   1      13.835  11.192  14.120  1.00  0.00    +0.000 H 
ATOM     38  C31 UNL A   1      13.584  11.726  13.228  1.00  0.00    +0.000 C 
BRANCH   38   37
ATOM    154  H49 UNL A   1      13.332  10.888  11.292  1.00  0.00    +0.000 H 
ATOM    155  H50 UNL A   1      15.008  11.320  11.737  1.00  0.00    +0.000 H 
ATOM     37  C30 UNL A   1      14.085  10.881  12.053  1.00  0.00    +0.000 C 
BRANCH   37   36
ATOM    153  H48 UNL A   1      14.834   9.424  13.377  1.00  0.00    +0.000 H 
ATOM     36  C29 UNL A   1      14.398   9.420  12.400  1.00  0.00    +0.000 C 
ATOM    152  H47 UNL A   1      15.056   9.031  11.652  1.00  0.00    +0.000 H 
BRANCH   36   35
ATOM     35  C28 UNL A   1      13.168   8.513  12.473  1.00  0.00    +0.000 C 
ATOM    150  H45 UNL A   1      13.494   7.506  12.631  1.00  0.00    +0.000 H 
ATOM    151  H46 UNL A   1      12.557   8.863  13.279  1.00  0.00    +0.000 H 
BRANCH   35   34
ATOM     34  C27 UNL A   1      12.322   8.558  11.202  1.00  0.00    +0.000 C 
ATOM    148  H43 UNL A   1      11.305   8.760  11.464  1.00  0.00    +0.000 H 
ATOM    149  H44 UNL A   1      12.702   9.327  10.563  1.00  0.00    +0.000 H 
BRANCH   34   33
ATOM     33  N3  UNL A   1      12.389   7.287  10.494  1.00  0.00    +0.000 N 
ATOM    147  H42 UNL A   1      12.545   7.363   9.524  1.00  0.00    +0.000 H 
BRANCH   33   31
ATOM     31  C26 UNL A   1      12.268   6.003  10.958  1.00  0.00    +0.000 C 
ATOM     32  O3  UNL A   1      11.230   5.702  11.555  1.00  0.00    +0.000 O 
BRANCH   31    5
ATOM    115  H10 UNL A   1      13.341   4.230   9.954  1.00  0.00    +0.000 H 
ATOM      5  C5  UNL A   1      13.390   4.968  10.727  1.00  0.00    +0.000 C 
BRANCH    5    4
ATOM    113  H8  UNL A   1      14.405   6.096   9.244  1.00  0.00    +0.000 H 
ATOM    114  H9  UNL A   1      14.754   6.494  11.011  1.00  0.00    +0.000 H 
ATOM      4  C4  UNL A   1      14.633   5.766  10.236  1.00  0.00    +0.000 C 
BRANCH    4    3
ATOM      3  C3  UNL A   1      16.022   5.135  10.168  1.00  0.00    +0.000 C 
ATOM    111  H6  UNL A   1      16.708   5.816  10.626  1.00  0.00    +0.000 H 
ATOM    112  H7  UNL A   1      15.924   4.191  10.662  1.00  0.00    +0.000 H 
BRANCH    3    2
ATOM      2  C2  UNL A   1      16.566   4.799   8.780  1.00  0.00    +0.000 C 
ATOM    109  H4  UNL A   1      16.366   5.623   8.127  1.00  0.00    +0.000 H 
ATOM    110  H5  UNL A   1      17.615   4.615   8.884  1.00  0.00    +0.000 H 
BRANCH    2    1
ATOM      1  C1  UNL A   1      15.945   3.550   8.182  1.00  0.00    +0.000 C 
ATOM    106  H1  UNL A   1      15.465   2.985   8.955  1.00  0.00    +0.000 H 
ATOM    107  H2  UNL A   1      16.708   2.955   7.727  1.00  0.00    +0.000 H 
ATOM    108  H3  UNL A   1      15.222   3.829   7.444  1.00  0.00    +0.000 H 
ENDBRANCH    2    1
ENDBRANCH    3    2
ENDBRANCH    4    3
ENDBRANCH    5    4
BRANCH    5    6
ATOM      6  S1  UNL A   1      13.333   3.959  12.310  1.00  0.00    +0.000 S 
BRANCH    6    7
ATOM    131  H26 UNL A   1      15.753   5.826  16.556  1.00  0.00    +0.000 H 
ATOM      7  C6  UNL A   1      13.813   5.090  13.569  1.00  0.00    +0.000 C 
ATOM      8  N1  UNL A   1      14.980   5.740  13.381  1.00  0.00    +0.000 N 
ATOM      9  C7  UNL A   1      15.632   6.110  14.487  1.00  0.00    +0.000 C 
ATOM     19  C16 UNL A   1      15.156   5.764  15.717  1.00  0.00    +0.000 C 
ATOM     20  C17 UNL A   1      13.866   5.332  15.800  1.00  0.00    +0.000 C 
ATOM     30  N2  UNL A   1      13.168   4.991  14.726  1.00  0.00    +0.000 N 
BRANCH    9   10
ATOM     10  O1  UNL A   1      16.770   6.858  14.294  1.00  0.00    +0.000 O 
BRANCH   10   11
ATOM     11  C8  UNL A   1      17.833   6.302  13.508  1.00  0.00    +0.000 C 
ATOM    116  H11 UNL A   1      18.604   7.041  13.437  1.00  0.00    +0.000 H 
ATOM    117  H12 UNL A   1      17.383   6.033  12.575  1.00  0.00    +0.000 H 
BRANCH   11   12
ATOM     12  C9  UNL A   1      18.481   4.995  14.040  1.00  0.00    +0.000 C 
ATOM    118  H13 UNL A   1      17.939   4.697  14.914  1.00  0.00    +0.000 H 
ATOM    119  H14 UNL A   1      19.508   5.242  14.213  1.00  0.00    +0.000 H 
BRANCH   12   13
ATOM    129  H24 UNL A   1      20.112   4.628  11.928  1.00  0.00    +0.000 H 
ATOM    130  H25 UNL A   1      18.545   4.750  11.166  1.00  0.00    +0.000 H 
ATOM     13  C10 UNL A   1      18.514   3.795  13.081  1.00  0.00    +0.000 C 
ATOM     14  C11 UNL A   1      17.142   3.159  12.809  1.00  0.00    +0.000 C 
ATOM     15  C12 UNL A   1      17.309   1.856  12.016  1.00  0.00    +0.000 C 
ATOM     16  C13 UNL A   1      18.187   2.002  10.772  1.00  0.00    +0.000 C 
ATOM     17  C14 UNL A   1      19.457   2.826  10.986  1.00  0.00    +0.000 C 
ATOM     18  C15 UNL A   1      19.187   4.121  11.747  1.00  0.00    +0.000 C 
ATOM    120  H15 UNL A   1      19.103   3.074  13.608  1.00  0.00    +0.000 H 
ATOM    121  H16 UNL A   1      16.542   3.842  12.245  1.00  0.00    +0.000 H 
ATOM    122  H17 UNL A   1      16.668   2.941  13.743  1.00  0.00    +0.000 H 
ATOM    123  H18 UNL A   1      16.340   1.521  11.708  1.00  0.00    +0.000 H 
ATOM    124  H19 UNL A   1      17.795   1.156  12.662  1.00  0.00    +0.000 H 
ATOM    125  H20 UNL A   1      17.607   2.475  10.007  1.00  0.00    +0.000 H 
ATOM    126  H21 UNL A   1      18.505   1.016  10.505  1.00  0.00    +0.000 H 
ATOM    127  H22 UNL A   1      19.875   3.068  10.031  1.00  0.00    +0.000 H 
ATOM    128  H23 UNL A   1      20.132   2.238  11.571  1.00  0.00    +0.000 H 
ENDBRANCH   12   13
ENDBRANCH   11   12
ENDBRANCH   10   11
ENDBRANCH    9   10
BRANCH   20   21
ATOM     21  O2  UNL A   1      13.321   4.939  16.991  1.00  0.00    +0.000 O 
BRANCH   21   22
ATOM    132  H27 UNL A   1      11.894   6.399  16.811  1.00  0.00    +0.000 H 
ATOM    133  H28 UNL A   1      12.948   6.558  18.194  1.00  0.00    +0.000 H 
ATOM     22  C18 UNL A   1      12.409   5.866  17.582  1.00  0.00    +0.000 C 
BRANCH   22   23
ATOM    135  H30 UNL A   1      11.426   5.506  19.437  1.00  0.00    +0.000 H 
ATOM    134  H29 UNL A   1      10.415   5.205  18.015  1.00  0.00    +0.000 H 
ATOM     23  C19 UNL A   1      11.386   5.096  18.450  1.00  0.00    +0.000 C 
BRANCH   23   24
ATOM    136  H31 UNL A   1      12.706   3.575  18.175  1.00  0.00    +0.000 H 
ATOM    137  H32 UNL A   1      10.598   2.859  20.241  1.00  0.00    +0.000 H 
ATOM    138  H33 UNL A   1      11.973   3.812  20.686  1.00  0.00    +0.000 H 
ATOM    139  H34 UNL A   1      12.516   1.481  21.087  1.00  0.00    +0.000 H 
ATOM    140  H35 UNL A   1      13.443   2.004  19.709  1.00  0.00    +0.000 H 
ATOM    141  H36 UNL A   1      10.905   0.407  19.723  1.00  0.00    +0.000 H 
ATOM    142  H37 UNL A   1      12.506  -0.052  19.098  1.00  0.00    +0.000 H 
ATOM    143  H38 UNL A   1      10.658   0.545  17.429  1.00  0.00    +0.000 H 
ATOM    144  H39 UNL A   1      12.308   1.220  17.242  1.00  0.00    +0.000 H 
ATOM    145  H40 UNL A   1      10.839   2.973  16.707  1.00  0.00    +0.000 H 
ATOM    146  H41 UNL A   1       9.840   2.659  18.109  1.00  0.00    +0.000 H 
ATOM     24  C20 UNL A   1      11.708   3.596  18.560  1.00  0.00    +0.000 C 
ATOM     25  C21 UNL A   1      11.616   3.078  19.994  1.00  0.00    +0.000 C 
ATOM     26  C22 UNL A   1      12.455   1.810  20.071  1.00  0.00    +0.000 C 
ATOM     27  C23 UNL A   1      11.791   0.735  19.222  1.00  0.00    +0.000 C 
ATOM     28  C24 UNL A   1      11.402   1.213  17.811  1.00  0.00    +0.000 C 
ATOM     29  C25 UNL A   1      10.839   2.649  17.727  1.00  0.00    +0.000 C 
ENDBRANCH   23   24
ENDBRANCH   22   23
ENDBRANCH   21   22
ENDBRANCH   20   21
ENDBRANCH    6    7
ENDBRANCH    5    6
ENDBRANCH   31    5
ENDBRANCH   33   31
ENDBRANCH   34   33
ENDBRANCH   35   34
ENDBRANCH   36   35
ENDBRANCH   37   36
ENDBRANCH   38   37
ENDBRANCH   39   38
ENDBRANCH   40   39
ENDBRANCH   41   40
ENDBRANCH   43   41
ENDBRANCH   47   46
BRANCH   51   52
ATOM     52  C42 UNL A   1      20.284  15.947   6.938  1.00  0.00    +0.000 C 
ATOM     53  C43 UNL A   1      20.275  14.811   6.112  1.00  0.00    +0.000 C 
ATOM     54  F1  UNL A   1      19.274  14.619   5.240  1.00  0.00    +0.000 F 
ATOM     55  C44 UNL A   1      21.274  13.847   6.209  1.00  0.00    +0.000 C 
ATOM     56  F2  UNL A   1      21.216  12.746   5.446  1.00  0.00    +0.000 F 
ATOM     57  C45 UNL A   1      22.320  14.015   7.102  1.00  0.00    +0.000 C 
ATOM     58  F3  UNL A   1      23.286  13.089   7.188  1.00  0.00    +0.000 F 
ATOM     59  C46 UNL A   1      22.363  15.139   7.912  1.00  0.00    +0.000 C 
ATOM     60  F4  UNL A   1      23.381  15.310   8.767  1.00  0.00    +0.000 F 
ATOM     61  C47 UNL A   1      21.347  16.091   7.842  1.00  0.00    +0.000 C 
ATOM     62  F5  UNL A   1      21.408  17.159   8.651  1.00  0.00    +0.000 F 
ENDBRANCH   51   52
BRANCH   68   69
ATOM     69  C53 UNL A   1      18.879  21.885   3.097  1.00  0.00    +0.000 C 
ATOM     70  C54 UNL A   1      18.661  21.518   1.762  1.00  0.00    +0.000 C 
ATOM     71  F6  UNL A   1      17.924  20.435   1.471  1.00  0.00    +0.000 F 
ATOM     72  C55 UNL A   1      19.237  22.238   0.719  1.00  0.00    +0.000 C 
ATOM     73  F7  UNL A   1      19.059  21.837  -0.547  1.00  0.00    +0.000 F 
ATOM     74  C56 UNL A   1      20.008  23.359   0.988  1.00  0.00    +0.000 C 
ATOM     75  F8  UNL A   1      20.557  24.054  -0.017  1.00  0.00    +0.000 F 
ATOM     76  C57 UNL A   1      20.218  23.754   2.301  1.00  0.00    +0.000 C 
ATOM     77  F9  UNL A   1      20.949  24.846   2.563  1.00  0.00    +0.000 F 
ATOM     78  C58 UNL A   1      19.669  23.018   3.347  1.00  0.00    +0.000 C 
ATOM     79  F10 UNL A   1      19.903  23.417   4.606  1.00  0.00    +0.000 F 
ENDBRANCH   68   69
BRANCH   83   84
ATOM     84  C62 UNL A   1      13.004  22.800   6.725  1.00  0.00    +0.000 C 
ATOM     85  C63 UNL A   1      11.981  22.742   5.767  1.00  0.00    +0.000 C 
ATOM     86  F11 UNL A   1      11.960  21.745   4.869  1.00  0.00    +0.000 F 
ATOM     87  C64 UNL A   1      11.004  23.733   5.695  1.00  0.00    +0.000 C 
ATOM     88  F12 UNL A   1      10.071  23.683   4.734  1.00  0.00    +0.000 F 
ATOM     89  C65 UNL A   1      11.010  24.782   6.602  1.00  0.00    +0.000 C 
ATOM     90  F13 UNL A   1      10.073  25.737   6.531  1.00  0.00    +0.000 F 
ATOM     91  C66 UNL A   1      11.996  24.846   7.574  1.00  0.00    +0.000 C 
ATOM     92  F14 UNL A   1      11.998  25.851   8.461  1.00  0.00    +0.000 F 
ATOM     93  C67 UNL A   1      12.991  23.872   7.627  1.00  0.00    +0.000 C 
ATOM     94  F15 UNL A   1      13.943  23.970   8.567  1.00  0.00    +0.000 F 
ENDBRANCH   83   84
TORSDOF 29
ENDMDL
MODEL 5
REMARK VINA RESULT:      -7.5      5.931     12.885
ROOT
ATOM    163  H58 UNL A   1      19.674  33.840  47.297  1.00  0.00    +0.000 H 
ATOM    164  H59 UNL A   1      17.729  35.173  48.410  1.00  0.00    +0.000 H 
ATOM    165  H60 UNL A   1      20.981  37.704  48.019  1.00  0.00    +0.000 H 
ATOM    166  H61 UNL A   1      23.677  43.412  49.025  1.00  0.00    +0.000 H 
ATOM    167  H62 UNL A   1      25.550  42.127  47.888  1.00  0.00    +0.000 H 
ATOM    168  H63 UNL A   1      22.285  39.577  48.227  1.00  0.00    +0.000 H 
ATOM    169  H64 UNL A   1      18.622  42.265  50.355  1.00  0.00    +0.000 H 
ATOM    170  H65 UNL A   1      17.241  40.112  50.387  1.00  0.00    +0.000 H 
ATOM    171  H66 UNL A   1      24.609  35.187  45.667  1.00  0.00    +0.000 H 
ATOM    172  H67 UNL A   1      26.195  37.143  46.134  1.00  0.00    +0.000 H 
ATOM     47  C38 UNL A   1      24.905  39.418  47.268  1.00  0.00    +0.000 C 
ATOM     48  C39 UNL A   1      24.311  38.063  46.999  1.00  0.00    +0.000 C 
ATOM     49  N5  UNL A   1      23.096  37.630  47.224  1.00  0.00    +0.000 N 
ATOM     50  C40 UNL A   1      23.067  36.325  46.751  1.00  0.00    +0.000 C 
ATOM     51  C41 UNL A   1      22.060  35.423  46.821  1.00  0.00    +0.000 C 
ATOM     63  C48 UNL A   1      20.782  35.687  47.426  1.00  0.00    +0.000 C 
ATOM     64  C49 UNL A   1      19.705  34.831  47.583  1.00  0.00    +0.000 C 
ATOM     65  C50 UNL A   1      18.668  35.541  48.197  1.00  0.00    +0.000 C 
ATOM     66  C51 UNL A   1      19.117  36.823  48.472  1.00  0.00    +0.000 C 
ATOM     67  N6  UNL A   1      20.410  36.903  47.981  1.00  0.00    +0.000 N 
ATOM     68  C52 UNL A   1      18.419  37.894  49.135  1.00  0.00    +0.000 C 
ATOM     80  C59 UNL A   1      18.916  39.138  49.342  1.00  0.00    +0.000 C 
ATOM     81  N7  UNL A   1      20.162  39.650  49.003  1.00  0.00    +0.000 N 
ATOM     82  C60 UNL A   1      20.161  40.897  49.405  1.00  0.00    +0.000 C 
ATOM     83  C61 UNL A   1      21.264  41.921  49.340  1.00  0.00    +0.000 C 
ATOM     95  C68 UNL A   1      22.453  41.567  48.819  1.00  0.00    +0.000 C 
ATOM     96  C69 UNL A   1      23.623  42.433  48.704  1.00  0.00    +0.000 C 
ATOM     97  C70 UNL A   1      24.616  41.750  48.112  1.00  0.00    +0.000 C 
ATOM     98  C71 UNL A   1      24.162  40.386  47.838  1.00  0.00    +0.000 C 
ATOM     99  N8  UNL A   1      22.865  40.371  48.285  1.00  0.00    +0.000 N 
ATOM    100  C72 UNL A   1      18.893  41.331  50.008  1.00  0.00    +0.000 C 
ATOM    101  C73 UNL A   1      18.189  40.209  49.990  1.00  0.00    +0.000 C 
ATOM    102  C74 UNL A   1      24.363  36.055  46.169  1.00  0.00    +0.000 C 
ATOM    103  C75 UNL A   1      25.192  37.069  46.365  1.00  0.00    +0.000 C 
ENDROOT
BRANCH   47   46
ATOM    161  H56 UNL A   1      29.485  39.296  47.871  1.00  0.00    +0.000 H 
ATOM    162  H57 UNL A   1      27.207  38.823  48.564  1.00  0.00    +0.000 H 
ATOM    104  C76 UNL A   1      26.553  40.332  45.636  1.00  0.00    +0.000 C 
ATOM    105  C77 UNL A   1      27.859  40.518  45.199  1.00  0.00    +0.000 C 
ATOM     43  C34 UNL A   1      28.929  40.179  46.033  1.00  0.00    +0.000 C 
ATOM     44  C35 UNL A   1      28.694  39.562  47.263  1.00  0.00    +0.000 C 
ATOM     45  C36 UNL A   1      27.384  39.306  47.669  1.00  0.00    +0.000 C 
ATOM    174  H69 UNL A   1      28.040  40.905  44.259  1.00  0.00    +0.000 H 
ATOM    173  H68 UNL A   1      25.764  40.659  45.055  1.00  0.00    +0.000 H 
ATOM     46  C37 UNL A   1      26.303  39.703  46.864  1.00  0.00    +0.000 C 
BRANCH   43   41
ATOM     41  C33 UNL A   1      30.324  40.428  45.616  1.00  0.00    +0.000 C 
ATOM     42  O4  UNL A   1      30.898  41.453  45.975  1.00  0.00    +0.000 O 
BRANCH   41   40
ATOM    160  H55 UNL A   1      31.953  39.607  44.791  1.00  0.00    +0.000 H 
ATOM     40  N4  UNL A   1      30.974  39.512  44.835  1.00  0.00    +0.000 N 
BRANCH   40   39
ATOM    159  H54 UNL A   1      31.149  38.109  43.341  1.00  0.00    +0.000 H 
ATOM    158  H53 UNL A   1      29.525  38.754  43.572  1.00  0.00    +0.000 H 
ATOM     39  C32 UNL A   1      30.417  38.417  44.057  1.00  0.00    +0.000 C 
BRANCH   39   38
ATOM    156  H51 UNL A   1      30.885  37.064  45.620  1.00  0.00    +0.000 H 
ATOM    157  H52 UNL A   1      29.157  37.448  45.427  1.00  0.00    +0.000 H 
ATOM     38  C31 UNL A   1      30.078  37.218  44.935  1.00  0.00    +0.000 C 
BRANCH   38   37
ATOM    154  H49 UNL A   1      30.553  35.884  43.352  1.00  0.00    +0.000 H 
ATOM    155  H50 UNL A   1      29.974  35.122  44.861  1.00  0.00    +0.000 H 
ATOM     37  C30 UNL A   1      29.850  35.918  44.158  1.00  0.00    +0.000 C 
BRANCH   37   36
ATOM    153  H48 UNL A   1      28.460  36.224  42.606  1.00  0.00    +0.000 H 
ATOM     36  C29 UNL A   1      28.442  35.760  43.570  1.00  0.00    +0.000 C 
ATOM    152  H47 UNL A   1      27.745  36.218  44.240  1.00  0.00    +0.000 H 
BRANCH   36   35
ATOM     35  C28 UNL A   1      28.011  34.309  43.350  1.00  0.00    +0.000 C 
ATOM    150  H45 UNL A   1      26.945  34.256  43.411  1.00  0.00    +0.000 H 
ATOM    151  H46 UNL A   1      28.370  34.008  42.388  1.00  0.00    +0.000 H 
BRANCH   35   34
ATOM     34  C27 UNL A   1      28.606  33.351  44.382  1.00  0.00    +0.000 C 
ATOM    148  H43 UNL A   1      29.036  32.513  43.876  1.00  0.00    +0.000 H 
ATOM    149  H44 UNL A   1      29.354  33.871  44.942  1.00  0.00    +0.000 H 
BRANCH   34   33
ATOM     33  N3  UNL A   1      27.579  32.879  45.299  1.00  0.00    +0.000 N 
ATOM    147  H42 UNL A   1      26.943  32.235  44.911  1.00  0.00    +0.000 H 
BRANCH   33   31
ATOM     31  C26 UNL A   1      27.353  33.188  46.616  1.00  0.00    +0.000 C 
ATOM     32  O3  UNL A   1      26.291  32.811  47.121  1.00  0.00    +0.000 O 
BRANCH   31    5
ATOM    115  H10 UNL A   1      29.304  34.345  47.007  1.00  0.00    +0.000 H 
ATOM      5  C5  UNL A   1      28.399  33.971  47.438  1.00  0.00    +0.000 C 
BRANCH    5    4
ATOM    113  H8  UNL A   1      28.434  36.087  47.583  1.00  0.00    +0.000 H 
ATOM    114  H9  UNL A   1      26.802  35.274  47.305  1.00  0.00    +0.000 H 
ATOM      4  C4  UNL A   1      27.731  35.320  47.833  1.00  0.00    +0.000 C 
BRANCH    4    3
ATOM      3  C3  UNL A   1      27.275  35.607  49.262  1.00  0.00    +0.000 C 
ATOM    111  H6  UNL A   1      27.838  34.973  49.914  1.00  0.00    +0.000 H 
ATOM    112  H7  UNL A   1      27.437  36.656  49.399  1.00  0.00    +0.000 H 
BRANCH    3    2
ATOM      2  C2  UNL A   1      25.795  35.393  49.576  1.00  0.00    +0.000 C 
ATOM    109  H4  UNL A   1      25.274  35.216  48.658  1.00  0.00    +0.000 H 
ATOM    110  H5  UNL A   1      25.728  34.557  50.242  1.00  0.00    +0.000 H 
BRANCH    2    1
ATOM      1  C1  UNL A   1      25.155  36.579  50.273  1.00  0.00    +0.000 C 
ATOM    106  H1  UNL A   1      24.153  36.704  49.917  1.00  0.00    +0.000 H 
ATOM    107  H2  UNL A   1      25.720  37.462  50.065  1.00  0.00    +0.000 H 
ATOM    108  H3  UNL A   1      25.138  36.405  51.329  1.00  0.00    +0.000 H 
ENDBRANCH    2    1
ENDBRANCH    3    2
ENDBRANCH    4    3
ENDBRANCH    5    4
BRANCH    5    6
ATOM      6  S1  UNL A   1      28.991  32.678  48.665  1.00  0.00    +0.000 S 
BRANCH    6    7
ATOM    131  H26 UNL A   1      33.310  30.118  47.195  1.00  0.00    +0.000 H 
ATOM      7  C6  UNL A   1      30.045  31.630  47.723  1.00  0.00    +0.000 C 
ATOM      8  N1  UNL A   1      30.203  30.370  48.178  1.00  0.00    +0.000 N 
ATOM      9  C7  UNL A   1      31.362  29.778  47.880  1.00  0.00    +0.000 C 
ATOM     19  C16 UNL A   1      32.339  30.466  47.222  1.00  0.00    +0.000 C 
ATOM     20  C17 UNL A   1      31.991  31.628  46.603  1.00  0.00    +0.000 C 
ATOM     30  N2  UNL A   1      30.834  32.231  46.838  1.00  0.00    +0.000 N 
BRANCH    9   10
ATOM     10  O1  UNL A   1      31.481  28.461  48.258  1.00  0.00    +0.000 O 
BRANCH   10   11
ATOM     11  C8  UNL A   1      32.795  27.910  48.425  1.00  0.00    +0.000 C 
ATOM    116  H11 UNL A   1      33.357  28.140  47.545  1.00  0.00    +0.000 H 
ATOM    117  H12 UNL A   1      32.642  26.865  48.598  1.00  0.00    +0.000 H 
BRANCH   11   12
ATOM     12  C9  UNL A   1      33.608  28.410  49.650  1.00  0.00    +0.000 C 
ATOM    118  H13 UNL A   1      32.928  28.516  50.469  1.00  0.00    +0.000 H 
ATOM    119  H14 UNL A   1      34.067  29.322  49.327  1.00  0.00    +0.000 H 
BRANCH   12   13
ATOM    129  H24 UNL A   1      34.626  28.227  52.137  1.00  0.00    +0.000 H 
ATOM    130  H25 UNL A   1      35.964  28.903  51.241  1.00  0.00    +0.000 H 
ATOM     13  C10 UNL A   1      34.771  27.523  50.122  1.00  0.00    +0.000 C 
ATOM     14  C11 UNL A   1      35.880  27.317  49.078  1.00  0.00    +0.000 C 
ATOM     15  C12 UNL A   1      36.878  26.260  49.566  1.00  0.00    +0.000 C 
ATOM     16  C13 UNL A   1      37.395  26.511  50.984  1.00  0.00    +0.000 C 
ATOM     17  C14 UNL A   1      36.318  26.931  51.985  1.00  0.00    +0.000 C 
ATOM     18  C15 UNL A   1      35.398  28.014  51.427  1.00  0.00    +0.000 C 
ATOM    120  H15 UNL A   1      34.305  26.574  50.287  1.00  0.00    +0.000 H 
ATOM    121  H16 UNL A   1      36.394  28.243  48.921  1.00  0.00    +0.000 H 
ATOM    122  H17 UNL A   1      35.438  26.984  48.162  1.00  0.00    +0.000 H 
ATOM    123  H18 UNL A   1      37.715  26.252  48.898  1.00  0.00    +0.000 H 
ATOM    124  H19 UNL A   1      36.360  25.324  49.582  1.00  0.00    +0.000 H 
ATOM    125  H20 UNL A   1      38.131  27.286  50.940  1.00  0.00    +0.000 H 
ATOM    126  H21 UNL A   1      37.790  25.580  51.334  1.00  0.00    +0.000 H 
ATOM    127  H22 UNL A   1      36.795  27.305  52.867  1.00  0.00    +0.000 H 
ATOM    128  H23 UNL A   1      35.718  26.072  52.200  1.00  0.00    +0.000 H 
ENDBRANCH   12   13
ENDBRANCH   11   12
ENDBRANCH   10   11
ENDBRANCH    9   10
BRANCH   20   21
ATOM     21  O2  UNL A   1      32.915  32.392  45.946  1.00  0.00    +0.000 O 
BRANCH   21   22
ATOM    132  H27 UNL A   1      34.542  33.149  46.937  1.00  0.00    +0.000 H 
ATOM    133  H28 UNL A   1      32.995  33.534  47.647  1.00  0.00    +0.000 H 
ATOM     22  C18 UNL A   1      33.528  33.418  46.728  1.00  0.00    +0.000 C 
BRANCH   22   23
ATOM    135  H30 UNL A   1      34.512  35.054  45.784  1.00  0.00    +0.000 H 
ATOM    134  H29 UNL A   1      32.985  34.590  45.016  1.00  0.00    +0.000 H 
ATOM     23  C19 UNL A   1      33.499  34.750  45.940  1.00  0.00    +0.000 C 
BRANCH   23   24
ATOM    136  H31 UNL A   1      32.052  36.178  45.990  1.00  0.00    +0.000 H 
ATOM    137  H32 UNL A   1      32.924  35.376  48.787  1.00  0.00    +0.000 H 
ATOM    138  H33 UNL A   1      31.776  34.415  47.917  1.00  0.00    +0.000 H 
ATOM    139  H34 UNL A   1      30.545  36.030  49.247  1.00  0.00    +0.000 H 
ATOM    140  H35 UNL A   1      30.399  36.506  47.579  1.00  0.00    +0.000 H 
ATOM    141  H36 UNL A   1      32.231  37.640  49.665  1.00  0.00    +0.000 H 
ATOM    142  H37 UNL A   1      30.944  38.458  48.750  1.00  0.00    +0.000 H 
ATOM    143  H38 UNL A   1      33.384  38.929  48.132  1.00  0.00    +0.000 H 
ATOM    144  H39 UNL A   1      32.171  38.588  46.858  1.00  0.00    +0.000 H 
ATOM    145  H40 UNL A   1      34.125  37.468  46.192  1.00  0.00    +0.000 H 
ATOM    146  H41 UNL A   1      34.379  36.808  47.792  1.00  0.00    +0.000 H 
ATOM     24  C20 UNL A   1      32.789  35.879  46.707  1.00  0.00    +0.000 C 
ATOM     25  C21 UNL A   1      32.177  35.401  48.021  1.00  0.00    +0.000 C 
ATOM     26  C22 UNL A   1      31.082  36.391  48.395  1.00  0.00    +0.000 C 
ATOM     27  C23 UNL A   1      31.728  37.730  48.726  1.00  0.00    +0.000 C 
ATOM     28  C24 UNL A   1      32.747  38.202  47.672  1.00  0.00    +0.000 C 
ATOM     29  C25 UNL A   1      33.643  37.096  47.072  1.00  0.00    +0.000 C 
ENDBRANCH   23   24
ENDBRANCH   22   23
ENDBRANCH   21   22
ENDBRANCH   20   21
ENDBRANCH    6    7
ENDBRANCH    5    6
ENDBRANCH   31    5
ENDBRANCH   33   31
ENDBRANCH   34   33
ENDBRANCH   35   34
ENDBRANCH   36   35
ENDBRANCH   37   36
ENDBRANCH   38   37
ENDBRANCH   39   38
ENDBRANCH   40   39
ENDBRANCH   41   40
ENDBRANCH   43   41
ENDBRANCH   47   46
BRANCH   51   52
ATOM     52  C42 UNL A   1      22.305  34.061  46.236  1.00  0.00    +0.000 C 
ATOM     53  C43 UNL A   1      22.518  32.938  47.052  1.00  0.00    +0.000 C 
ATOM     54  F1  UNL A   1      22.553  33.071  48.387  1.00  0.00    +0.000 F 
ATOM     55  C44 UNL A   1      22.739  31.680  46.498  1.00  0.00    +0.000 C 
ATOM     56  F2  UNL A   1      22.991  30.634  47.296  1.00  0.00    +0.000 F 
ATOM     57  C45 UNL A   1      22.712  31.512  45.123  1.00  0.00    +0.000 C 
ATOM     58  F3  UNL A   1      22.916  30.298  44.590  1.00  0.00    +0.000 F 
ATOM     59  C46 UNL A   1      22.481  32.601  44.297  1.00  0.00    +0.000 C 
ATOM     60  F4  UNL A   1      22.442  32.437  42.967  1.00  0.00    +0.000 F 
ATOM     61  C47 UNL A   1      22.293  33.868  44.847  1.00  0.00    +0.000 C 
ATOM     62  F5  UNL A   1      22.089  34.905  44.020  1.00  0.00    +0.000 F 
ENDBRANCH   51   52
BRANCH   68   69
ATOM     69  C53 UNL A   1      17.047  37.604  49.669  1.00  0.00    +0.000 C 
ATOM     70  C54 UNL A   1      16.793  37.500  51.044  1.00  0.00    +0.000 C 
ATOM     71  F6  UNL A   1      17.796  37.613  51.927  1.00  0.00    +0.000 F 
ATOM     72  C55 UNL A   1      15.510  37.234  51.516  1.00  0.00    +0.000 C 
ATOM     73  F7  UNL A   1      15.301  37.085  52.831  1.00  0.00    +0.000 F 
ATOM     74  C56 UNL A   1      14.453  37.106  50.627  1.00  0.00    +0.000 C 
ATOM     75  F8  UNL A   1      13.219  36.855  51.084  1.00  0.00    +0.000 F 
ATOM     76  C57 UNL A   1      14.677  37.229  49.264  1.00  0.00    +0.000 C 
ATOM     77  F9  UNL A   1      13.655  37.121  48.405  1.00  0.00    +0.000 F 
ATOM     78  C58 UNL A   1      15.963  37.463  48.787  1.00  0.00    +0.000 C 
ATOM     79  F10 UNL A   1      16.151  37.562  47.463  1.00  0.00    +0.000 F 
ENDBRANCH   68   69
BRANCH   83   84
ATOM     84  C62 UNL A   1      21.061  43.292  49.876  1.00  0.00    +0.000 C 
ATOM     85  C63 UNL A   1      21.328  43.585  51.221  1.00  0.00    +0.000 C 
ATOM     86  F11 UNL A   1      21.773  42.620  52.041  1.00  0.00    +0.000 F 
ATOM     87  C64 UNL A   1      21.092  44.855  51.743  1.00  0.00    +0.000 C 
ATOM     88  F12 UNL A   1      21.302  45.092  53.045  1.00  0.00    +0.000 F 
ATOM     89  C65 UNL A   1      20.618  45.867  50.921  1.00  0.00    +0.000 C 
ATOM     90  F13 UNL A   1      20.388  47.088  51.423  1.00  0.00    +0.000 F 
ATOM     91  C66 UNL A   1      20.372  45.608  49.582  1.00  0.00    +0.000 C 
ATOM     92  F14 UNL A   1      19.927  46.587  48.782  1.00  0.00    +0.000 F 
ATOM     93  C67 UNL A   1      20.579  44.330  49.066  1.00  0.00    +0.000 C 
ATOM     94  F15 UNL A   1      20.314  44.105  47.771  1.00  0.00    +0.000 F 
ENDBRANCH   83   84
TORSDOF 29
ENDMDL
MODEL 6
REMARK VINA RESULT:      -7.5     43.684     46.629
ROOT
ATOM    163  H58 UNL A   1      12.960  61.374   2.837  1.00  0.00    +0.000 H 
ATOM    164  H59 UNL A   1      14.004  60.488   0.618  1.00  0.00    +0.000 H 
ATOM    165  H60 UNL A   1      13.978  57.395   3.370  1.00  0.00    +0.000 H 
ATOM    166  H61 UNL A   1      15.474  51.374   4.911  1.00  0.00    +0.000 H 
ATOM    167  H62 UNL A   1      14.404  52.226   7.052  1.00  0.00    +0.000 H 
ATOM    168  H63 UNL A   1      14.377  55.336   4.294  1.00  0.00    +0.000 H 
ATOM    169  H64 UNL A   1      16.383  53.493   0.082  1.00  0.00    +0.000 H 
ATOM    170  H65 UNL A   1      16.203  55.856  -0.881  1.00  0.00    +0.000 H 
ATOM    171  H66 UNL A   1      11.754  59.062   7.530  1.00  0.00    +0.000 H 
ATOM    172  H67 UNL A   1      12.435  56.888   8.701  1.00  0.00    +0.000 H 
ATOM     47  C38 UNL A   1      13.596  54.960   6.951  1.00  0.00    +0.000 C 
ATOM     48  C39 UNL A   1      13.214  56.379   6.632  1.00  0.00    +0.000 C 
ATOM     49  N5  UNL A   1      13.330  57.036   5.506  1.00  0.00    +0.000 N 
ATOM     50  C40 UNL A   1      12.786  58.292   5.744  1.00  0.00    +0.000 C 
ATOM     51  C41 UNL A   1      12.737  59.363   4.917  1.00  0.00    +0.000 C 
ATOM     63  C48 UNL A   1      13.265  59.371   3.578  1.00  0.00    +0.000 C 
ATOM     64  C49 UNL A   1      13.300  60.415   2.669  1.00  0.00    +0.000 C 
ATOM     65  C50 UNL A   1      13.877  59.944   1.485  1.00  0.00    +0.000 C 
ATOM     66  C51 UNL A   1      14.250  58.623   1.675  1.00  0.00    +0.000 C 
ATOM     67  N6  UNL A   1      13.856  58.280   2.959  1.00  0.00    +0.000 N 
ATOM     68  C52 UNL A   1      14.920  57.740   0.755  1.00  0.00    +0.000 C 
ATOM     80  C59 UNL A   1      15.227  56.444   1.003  1.00  0.00    +0.000 C 
ATOM     81  N7  UNL A   1      15.005  55.696   2.152  1.00  0.00    +0.000 N 
ATOM     82  C60 UNL A   1      15.471  54.497   1.898  1.00  0.00    +0.000 C 
ATOM     83  C61 UNL A   1      15.539  53.291   2.798  1.00  0.00    +0.000 C 
ATOM     95  C68 UNL A   1      15.084  53.391   4.060  1.00  0.00    +0.000 C 
ATOM     96  C69 UNL A   1      15.098  52.324   5.056  1.00  0.00    +0.000 C 
ATOM     97  C70 UNL A   1      14.542  52.778   6.191  1.00  0.00    +0.000 C 
ATOM     98  C71 UNL A   1      14.163  54.180   6.011  1.00  0.00    +0.000 C 
ATOM     99  N8  UNL A   1      14.517  54.457   4.715  1.00  0.00    +0.000 N 
ATOM    100  C72 UNL A   1      16.007  54.338   0.539  1.00  0.00    +0.000 C 
ATOM    101  C73 UNL A   1      15.880  55.565   0.054  1.00  0.00    +0.000 C 
ATOM    102  C74 UNL A   1      12.283  58.286   7.100  1.00  0.00    +0.000 C 
ATOM    103  C75 UNL A   1      12.590  57.156   7.716  1.00  0.00    +0.000 C 
ENDROOT
BRANCH   47   46
ATOM    161  H56 UNL A   1      14.606  54.133  11.384  1.00  0.00    +0.000 H 
ATOM    162  H57 UNL A   1      15.112  55.047   9.194  1.00  0.00    +0.000 H 
ATOM    104  C76 UNL A   1      12.082  53.760   8.527  1.00  0.00    +0.000 C 
ATOM    105  C77 UNL A   1      11.756  53.320   9.805  1.00  0.00    +0.000 C 
ATOM     43  C34 UNL A   1      12.694  53.417  10.837  1.00  0.00    +0.000 C 
ATOM     44  C35 UNL A   1      13.921  54.046  10.616  1.00  0.00    +0.000 C 
ATOM     45  C36 UNL A   1      14.218  54.556   9.352  1.00  0.00    +0.000 C 
ATOM    174  H69 UNL A   1      10.822  52.922   9.992  1.00  0.00    +0.000 H 
ATOM    173  H68 UNL A   1      11.422  53.612   7.747  1.00  0.00    +0.000 H 
ATOM     46  C37 UNL A   1      13.306  54.404   8.294  1.00  0.00    +0.000 C 
BRANCH   43   41
ATOM     41  C33 UNL A   1      12.393  52.897  12.186  1.00  0.00    +0.000 C 
ATOM     42  O4  UNL A   1      11.229  52.844  12.578  1.00  0.00    +0.000 O 
BRANCH   41   40
ATOM    160  H55 UNL A   1      13.738  53.132  13.650  1.00  0.00    +0.000 H 
ATOM     40  N4  UNL A   1      13.411  52.473  12.995  1.00  0.00    +0.000 N 
BRANCH   40   39
ATOM    159  H54 UNL A   1      14.259  50.918  14.041  1.00  0.00    +0.000 H 
ATOM    158  H53 UNL A   1      14.997  51.255  12.476  1.00  0.00    +0.000 H 
ATOM     39  C32 UNL A   1      14.079  51.182  13.020  1.00  0.00    +0.000 C 
BRANCH   39   38
ATOM    156  H51 UNL A   1      13.074  49.318  13.118  1.00  0.00    +0.000 H 
ATOM    157  H52 UNL A   1      12.303  50.555  12.094  1.00  0.00    +0.000 H 
ATOM     38  C31 UNL A   1      13.219  50.091  12.393  1.00  0.00    +0.000 C 
BRANCH   38   37
ATOM    154  H49 UNL A   1      14.729  48.962  11.414  1.00  0.00    +0.000 H 
ATOM    155  H50 UNL A   1      13.083  48.802  10.739  1.00  0.00    +0.000 H 
ATOM     37  C30 UNL A   1      13.825  49.462  11.135  1.00  0.00    +0.000 C 
BRANCH   37   36
ATOM    153  H48 UNL A   1      14.016  51.436  10.425  1.00  0.00    +0.000 H 
ATOM     36  C29 UNL A   1      14.157  50.458  10.016  1.00  0.00    +0.000 C 
ATOM    152  H47 UNL A   1      13.514  50.256   9.186  1.00  0.00    +0.000 H 
BRANCH   36   35
ATOM     35  C28 UNL A   1      15.605  50.393   9.525  1.00  0.00    +0.000 C 
ATOM    150  H45 UNL A   1      16.028  51.375   9.577  1.00  0.00    +0.000 H 
ATOM    151  H46 UNL A   1      16.128  49.703  10.154  1.00  0.00    +0.000 H 
BRANCH   35   34
ATOM     34  C27 UNL A   1      15.723  49.887   8.089  1.00  0.00    +0.000 C 
ATOM    148  H43 UNL A   1      16.097  50.674   7.469  1.00  0.00    +0.000 H 
ATOM    149  H44 UNL A   1      16.390  49.051   8.072  1.00  0.00    +0.000 H 
BRANCH   34   33
ATOM     33  N3  UNL A   1      14.425  49.460   7.585  1.00  0.00    +0.000 N 
ATOM    147  H42 UNL A   1      13.791  50.191   7.406  1.00  0.00    +0.000 H 
BRANCH   33   31
ATOM     31  C26 UNL A   1      13.943  48.204   7.321  1.00  0.00    +0.000 C 
ATOM     32  O3  UNL A   1      14.254  47.293   8.095  1.00  0.00    +0.000 O 
BRANCH   31    5
ATOM    115  H10 UNL A   1      12.011  48.263   6.070  1.00  0.00    +0.000 H 
ATOM      5  C5  UNL A   1      13.032  47.944   6.103  1.00  0.00    +0.000 C 
BRANCH    5    4
ATOM    113  H8  UNL A   1      12.834  48.840   4.190  1.00  0.00    +0.000 H 
ATOM    114  H9  UNL A   1      13.885  49.704   5.435  1.00  0.00    +0.000 H 
ATOM      4  C4  UNL A   1      13.601  48.802   4.935  1.00  0.00    +0.000 C 
BRANCH    4    3
ATOM      3  C3  UNL A   1      14.887  48.421   4.205  1.00  0.00    +0.000 C 
ATOM    111  H6  UNL A   1      15.260  49.302   3.727  1.00  0.00    +0.000 H 
ATOM    112  H7  UNL A   1      15.525  48.013   4.962  1.00  0.00    +0.000 H 
BRANCH    3    2
ATOM      2  C2  UNL A   1      14.786  47.328   3.142  1.00  0.00    +0.000 C 
ATOM    109  H4  UNL A   1      15.581  47.464   2.439  1.00  0.00    +0.000 H 
ATOM    110  H5  UNL A   1      14.854  46.386   3.646  1.00  0.00    +0.000 H 
BRANCH    2    1
ATOM      1  C1  UNL A   1      13.468  47.346   2.391  1.00  0.00    +0.000 C 
ATOM    106  H1  UNL A   1      13.173  46.343   2.163  1.00  0.00    +0.000 H 
ATOM    107  H2  UNL A   1      13.583  47.898   1.483  1.00  0.00    +0.000 H 
ATOM    108  H3  UNL A   1      12.718  47.809   2.998  1.00  0.00    +0.000 H 
ENDBRANCH    2    1
ENDBRANCH    3    2
ENDBRANCH    4    3
ENDBRANCH    5    4
BRANCH    5    6
ATOM      6  S1  UNL A   1      12.913  46.071   6.085  1.00  0.00    +0.000 S 
BRANCH    6    7
ATOM    131  H26 UNL A   1       7.726  46.696   5.801  1.00  0.00    +0.000 H 
ATOM      7  C6  UNL A   1      11.234  45.742   5.675  1.00  0.00    +0.000 C 
ATOM      8  N1  UNL A   1      10.745  46.373   4.588  1.00  0.00    +0.000 N 
ATOM      9  C7  UNL A   1       9.432  46.617   4.591  1.00  0.00    +0.000 C 
ATOM     19  C16 UNL A   1       8.674  46.306   5.681  1.00  0.00    +0.000 C 
ATOM     20  C17 UNL A   1       9.211  45.462   6.607  1.00  0.00    +0.000 C 
ATOM     30  N2  UNL A   1      10.501  45.160   6.619  1.00  0.00    +0.000 N 
BRANCH    9   10
ATOM     10  O1  UNL A   1       8.919  47.171   3.441  1.00  0.00    +0.000 O 
BRANCH   10   11
ATOM     11  C8  UNL A   1       8.297  48.461   3.517  1.00  0.00    +0.000 C 
ATOM    116  H11 UNL A   1       7.250  48.307   3.675  1.00  0.00    +0.000 H 
ATOM    117  H12 UNL A   1       8.544  48.947   2.596  1.00  0.00    +0.000 H 
BRANCH   11   12
ATOM     12  C9  UNL A   1       8.807  49.415   4.631  1.00  0.00    +0.000 C 
ATOM    118  H13 UNL A   1       9.073  48.813   5.475  1.00  0.00    +0.000 H 
ATOM    119  H14 UNL A   1       8.002  50.098   4.804  1.00  0.00    +0.000 H 
BRANCH   12   13
ATOM    129  H24 UNL A   1       9.470  51.782   5.731  1.00  0.00    +0.000 H 
ATOM    130  H25 UNL A   1       9.117  52.230   4.081  1.00  0.00    +0.000 H 
ATOM     13  C10 UNL A   1      10.016  50.299   4.289  1.00  0.00    +0.000 C 
ATOM     14  C11 UNL A   1      10.432  50.266   2.810  1.00  0.00    +0.000 C 
ATOM     15  C12 UNL A   1      11.760  51.010   2.616  1.00  0.00    +0.000 C 
ATOM     16  C13 UNL A   1      11.780  52.406   3.239  1.00  0.00    +0.000 C 
ATOM     17  C14 UNL A   1      11.164  52.485   4.637  1.00  0.00    +0.000 C 
ATOM     18  C15 UNL A   1       9.827  51.753   4.723  1.00  0.00    +0.000 C 
ATOM    120  H15 UNL A   1      10.811  49.861   4.856  1.00  0.00    +0.000 H 
ATOM    121  H16 UNL A   1       9.674  50.738   2.220  1.00  0.00    +0.000 H 
ATOM    122  H17 UNL A   1      10.553  49.248   2.505  1.00  0.00    +0.000 H 
ATOM    123  H18 UNL A   1      11.943  51.105   1.566  1.00  0.00    +0.000 H 
ATOM    124  H19 UNL A   1      12.515  50.435   3.110  1.00  0.00    +0.000 H 
ATOM    125  H20 UNL A   1      11.237  53.067   2.597  1.00  0.00    +0.000 H 
ATOM    126  H21 UNL A   1      12.809  52.679   3.344  1.00  0.00    +0.000 H 
ATOM    127  H22 UNL A   1      11.010  53.514   4.887  1.00  0.00    +0.000 H 
ATOM    128  H23 UNL A   1      11.840  52.013   5.318  1.00  0.00    +0.000 H 
ENDBRANCH   12   13
ENDBRANCH   11   12
ENDBRANCH   10   11
ENDBRANCH    9   10
BRANCH   20   21
ATOM     21  O2  UNL A   1       8.528  45.121   7.742  1.00  0.00    +0.000 O 
BRANCH   21   22
ATOM    132  H27 UNL A   1       6.829  45.766   8.690  1.00  0.00    +0.000 H 
ATOM    133  H28 UNL A   1       7.547  46.916   7.589  1.00  0.00    +0.000 H 
ATOM     22  C18 UNL A   1       7.751  46.168   8.326  1.00  0.00    +0.000 C 
BRANCH   22   23
ATOM    135  H30 UNL A   1       7.899  46.795  10.357  1.00  0.00    +0.000 H 
ATOM    134  H29 UNL A   1       9.426  46.224   9.665  1.00  0.00    +0.000 H 
ATOM     23  C19 UNL A   1       8.539  46.798   9.499  1.00  0.00    +0.000 C 
BRANCH   23   24
ATOM    136  H31 UNL A   1       9.065  48.622  10.229  1.00  0.00    +0.000 H 
ATOM    137  H32 UNL A   1       9.991  48.259   7.359  1.00  0.00    +0.000 H 
ATOM    138  H33 UNL A   1      10.916  47.603   8.668  1.00  0.00    +0.000 H 
ATOM    139  H34 UNL A   1      11.767  49.826   8.191  1.00  0.00    +0.000 H 
ATOM    140  H35 UNL A   1      10.924  49.904   9.712  1.00  0.00    +0.000 H 
ATOM    141  H36 UNL A   1       9.937  50.760   7.012  1.00  0.00    +0.000 H 
ATOM    142  H37 UNL A   1      10.172  51.744   8.475  1.00  0.00    +0.000 H 
ATOM    143  H38 UNL A   1       7.787  51.128   7.776  1.00  0.00    +0.000 H 
ATOM    144  H39 UNL A   1       8.310  50.955   9.482  1.00  0.00    +0.000 H 
ATOM    145  H40 UNL A   1       6.976  49.075   9.031  1.00  0.00    +0.000 H 
ATOM    146  H41 UNL A   1       7.785  48.776   7.509  1.00  0.00    +0.000 H 
ATOM     24  C20 UNL A   1       8.943  48.257   9.229  1.00  0.00    +0.000 C 
ATOM     25  C21 UNL A   1      10.219  48.369   8.399  1.00  0.00    +0.000 C 
ATOM     26  C22 UNL A   1      10.808  49.749   8.659  1.00  0.00    +0.000 C 
ATOM     27  C23 UNL A   1       9.868  50.797   8.079  1.00  0.00    +0.000 C 
ATOM     28  C24 UNL A   1       8.394  50.595   8.478  1.00  0.00    +0.000 C 
ATOM     29  C25 UNL A   1       7.910  49.130   8.511  1.00  0.00    +0.000 C 
ENDBRANCH   23   24
ENDBRANCH   22   23
ENDBRANCH   21   22
ENDBRANCH   20   21
ENDBRANCH    6    7
ENDBRANCH    5    6
ENDBRANCH   31    5
ENDBRANCH   33   31
ENDBRANCH   34   33
ENDBRANCH   35   34
ENDBRANCH   36   35
ENDBRANCH   37   36
ENDBRANCH   38   37
ENDBRANCH   39   38
ENDBRANCH   40   39
ENDBRANCH   41   40
ENDBRANCH   43   41
ENDBRANCH   47   46
BRANCH   51   52
ATOM     52  C42 UNL A   1      12.099  60.617   5.441  1.00  0.00    +0.000 C 
ATOM     53  C43 UNL A   1      12.832  61.562   6.176  1.00  0.00    +0.000 C 
ATOM     54  F1  UNL A   1      14.122  61.338   6.467  1.00  0.00    +0.000 F 
ATOM     55  C44 UNL A   1      12.229  62.724   6.652  1.00  0.00    +0.000 C 
ATOM     56  F2  UNL A   1      12.936  63.587   7.395  1.00  0.00    +0.000 F 
ATOM     57  C45 UNL A   1      10.897  62.983   6.371  1.00  0.00    +0.000 C 
ATOM     58  F3  UNL A   1      10.321  64.106   6.822  1.00  0.00    +0.000 F 
ATOM     59  C46 UNL A   1      10.159  62.075   5.627  1.00  0.00    +0.000 C 
ATOM     60  F4  UNL A   1       8.874  62.330   5.343  1.00  0.00    +0.000 F 
ATOM     61  C47 UNL A   1      10.749  60.895   5.177  1.00  0.00    +0.000 C 
ATOM     62  F5  UNL A   1      10.003  60.029   4.476  1.00  0.00    +0.000 F 
ENDBRANCH   51   52
BRANCH   68   69
ATOM     69  C53 UNL A   1      15.340  58.305  -0.571  1.00  0.00    +0.000 C 
ATOM     70  C54 UNL A   1      16.595  58.901  -0.758  1.00  0.00    +0.000 C 
ATOM     71  F6  UNL A   1      17.446  59.023   0.272  1.00  0.00    +0.000 F 
ATOM     72  C55 UNL A   1      16.964  59.416  -1.998  1.00  0.00    +0.000 C 
ATOM     73  F7  UNL A   1      18.147  60.029  -2.141  1.00  0.00    +0.000 F 
ATOM     74  C56 UNL A   1      16.104  59.310  -3.081  1.00  0.00    +0.000 C 
ATOM     75  F8  UNL A   1      16.463  59.800  -4.275  1.00  0.00    +0.000 F 
ATOM     76  C57 UNL A   1      14.867  58.703  -2.924  1.00  0.00    +0.000 C 
ATOM     77  F9  UNL A   1      14.040  58.586  -3.972  1.00  0.00    +0.000 F 
ATOM     78  C58 UNL A   1      14.482  58.216  -1.678  1.00  0.00    +0.000 C 
ATOM     79  F10 UNL A   1      13.273  57.648  -1.554  1.00  0.00    +0.000 F 
ENDBRANCH   68   69
BRANCH   83   84
ATOM     84  C62 UNL A   1      16.132  52.016   2.316  1.00  0.00    +0.000 C 
ATOM     85  C63 UNL A   1      15.434  51.195   1.417  1.00  0.00    +0.000 C 
ATOM     86  F11 UNL A   1      14.218  51.558   0.983  1.00  0.00    +0.000 F 
ATOM     87  C64 UNL A   1      15.961  49.974   1.000  1.00  0.00    +0.000 C 
ATOM     88  F12 UNL A   1      15.249  49.183   0.186  1.00  0.00    +0.000 F 
ATOM     89  C65 UNL A   1      17.210  49.567   1.445  1.00  0.00    +0.000 C 
ATOM     90  F13 UNL A   1      17.714  48.391   1.047  1.00  0.00    +0.000 F 
ATOM     91  C66 UNL A   1      17.928  50.374   2.313  1.00  0.00    +0.000 C 
ATOM     92  F14 UNL A   1      19.141  49.990   2.734  1.00  0.00    +0.000 F 
ATOM     93  C67 UNL A   1      17.390  51.581   2.755  1.00  0.00    +0.000 C 
ATOM     94  F15 UNL A   1      18.101  52.333   3.608  1.00  0.00    +0.000 F 
ENDBRANCH   83   84
TORSDOF 29
ENDMDL
MODEL 7
REMARK VINA RESULT:      -7.2     48.197     52.898
ROOT
ATOM    163  H58 UNL A   1      12.552   2.288  20.254  1.00  0.00    +0.000 H 
ATOM    164  H59 UNL A   1      13.486   1.291  22.474  1.00  0.00    +0.000 H 
ATOM    165  H60 UNL A   1       9.424   0.507  22.304  1.00  0.00    +0.000 H 
ATOM    166  H61 UNL A   1       4.150  -1.873  25.021  1.00  0.00    +0.000 H 
ATOM    167  H62 UNL A   1       3.256  -0.950  22.829  1.00  0.00    +0.000 H 
ATOM    168  H63 UNL A   1       7.340  -0.189  22.954  1.00  0.00    +0.000 H 
ATOM    169  H64 UNL A   1       9.006  -2.173  27.250  1.00  0.00    +0.000 H 
ATOM    170  H65 UNL A   1      11.286  -1.164  26.678  1.00  0.00    +0.000 H 
ATOM    171  H66 UNL A   1       7.714   2.222  17.927  1.00  0.00    +0.000 H 
ATOM    172  H67 UNL A   1       5.331   1.731  18.726  1.00  0.00    +0.000 H 
ATOM     47  C38 UNL A   1       5.221   0.332  21.208  1.00  0.00    +0.000 C 
ATOM     48  C39 UNL A   1       6.436   0.897  20.523  1.00  0.00    +0.000 C 
ATOM     49  N5  UNL A   1       7.688   0.877  20.905  1.00  0.00    +0.000 N 
ATOM     50  C40 UNL A   1       8.402   1.496  19.888  1.00  0.00    +0.000 C 
ATOM     51  C41 UNL A   1       9.722   1.791  19.841  1.00  0.00    +0.000 C 
ATOM     63  C48 UNL A   1      10.653   1.489  20.895  1.00  0.00    +0.000 C 
ATOM     64  C49 UNL A   1      12.006   1.778  20.965  1.00  0.00    +0.000 C 
ATOM     65  C50 UNL A   1      12.502   1.259  22.165  1.00  0.00    +0.000 C 
ATOM     66  C51 UNL A   1      11.450   0.694  22.867  1.00  0.00    +0.000 C 
ATOM     67  N6  UNL A   1      10.324   0.830  22.071  1.00  0.00    +0.000 N 
ATOM     68  C52 UNL A   1      11.469   0.081  24.170  1.00  0.00    +0.000 C 
ATOM     80  C59 UNL A   1      10.398  -0.480  24.783  1.00  0.00    +0.000 C 
ATOM     81  N7  UNL A   1       9.085  -0.573  24.339  1.00  0.00    +0.000 N 
ATOM     82  C60 UNL A   1       8.430  -1.206  25.282  1.00  0.00    +0.000 C 
ATOM     83  C61 UNL A   1       6.965  -1.547  25.360  1.00  0.00    +0.000 C 
ATOM     95  C68 UNL A   1       6.152  -1.165  24.359  1.00  0.00    +0.000 C 
ATOM     96  C69 UNL A   1       4.712  -1.400  24.296  1.00  0.00    +0.000 C 
ATOM     97  C70 UNL A   1       4.238  -0.903  23.142  1.00  0.00    +0.000 C 
ATOM     98  C71 UNL A   1       5.337  -0.283  22.400  1.00  0.00    +0.000 C 
ATOM     99  N8  UNL A   1       6.435  -0.493  23.196  1.00  0.00    +0.000 N 
ATOM    100  C72 UNL A   1       9.267  -1.625  26.415  1.00  0.00    +0.000 C 
ATOM    101  C73 UNL A   1      10.444  -1.115  26.084  1.00  0.00    +0.000 C 
ATOM    102  C74 UNL A   1       7.456   1.824  18.844  1.00  0.00    +0.000 C 
ATOM    103  C75 UNL A   1       6.218   1.544  19.219  1.00  0.00    +0.000 C 
ENDROOT
BRANCH   47   46
ATOM    161  H56 UNL A   1       1.889  -1.247  18.423  1.00  0.00    +0.000 H 
ATOM    162  H57 UNL A   1       4.065  -1.408  19.485  1.00  0.00    +0.000 H 
ATOM    104  C76 UNL A   1       3.050   1.498  20.828  1.00  0.00    +0.000 C 
ATOM    105  C77 UNL A   1       1.768   1.540  20.292  1.00  0.00    +0.000 C 
ATOM     43  C34 UNL A   1       1.360   0.561  19.381  1.00  0.00    +0.000 C 
ATOM     44  C35 UNL A   1       2.198  -0.516  19.083  1.00  0.00    +0.000 C 
ATOM     45  C36 UNL A   1       3.456  -0.598  19.680  1.00  0.00    +0.000 C 
ATOM    174  H69 UNL A   1       1.117   2.293  20.567  1.00  0.00    +0.000 H 
ATOM    173  H68 UNL A   1       3.380   2.264  21.435  1.00  0.00    +0.000 H 
ATOM     46  C37 UNL A   1       3.897   0.416  20.547  1.00  0.00    +0.000 C 
BRANCH   43   41
ATOM     41  C33 UNL A   1       0.027   0.622  18.749  1.00  0.00    +0.000 C 
ATOM     42  O4  UNL A   1      -0.332   1.646  18.171  1.00  0.00    +0.000 O 
BRANCH   41   40
ATOM    160  H55 UNL A   1      -0.777  -1.062  18.023  1.00  0.00    +0.000 H 
ATOM     40  N4  UNL A   1      -0.803  -0.464  18.805  1.00  0.00    +0.000 N 
BRANCH   40   39
ATOM    159  H54 UNL A   1      -2.422  -1.555  19.454  1.00  0.00    +0.000 H 
ATOM    158  H53 UNL A   1      -2.222   0.017  20.229  1.00  0.00    +0.000 H 
ATOM     39  C32 UNL A   1      -1.722  -0.855  19.862  1.00  0.00    +0.000 C 
BRANCH   39   38
ATOM    156  H51 UNL A   1      -0.066  -1.023  21.173  1.00  0.00    +0.000 H 
ATOM    157  H52 UNL A   1      -1.644  -1.471  21.867  1.00  0.00    +0.000 H 
ATOM     38  C31 UNL A   1      -0.995  -1.530  21.019  1.00  0.00    +0.000 C 
BRANCH   38   37
ATOM    154  H49 UNL A   1      -1.572  -3.574  21.068  1.00  0.00    +0.000 H 
ATOM    155  H50 UNL A   1      -0.444  -3.118  19.759  1.00  0.00    +0.000 H 
ATOM     37  C30 UNL A   1      -0.701  -3.016  20.792  1.00  0.00    +0.000 C 
BRANCH   37   36
ATOM    153  H48 UNL A   1       0.715  -2.837  22.341  1.00  0.00    +0.000 H 
ATOM     36  C29 UNL A   1       0.490  -3.564  21.589  1.00  0.00    +0.000 C 
ATOM    152  H47 UNL A   1       1.301  -3.727  20.911  1.00  0.00    +0.000 H 
BRANCH   36   35
ATOM     35  C28 UNL A   1       0.206  -4.878  22.320  1.00  0.00    +0.000 C 
ATOM    150  H45 UNL A   1      -0.033  -5.628  21.595  1.00  0.00    +0.000 H 
ATOM    151  H46 UNL A   1       1.082  -5.132  22.880  1.00  0.00    +0.000 H 
BRANCH   35   34
ATOM     34  C27 UNL A   1      -0.954  -4.768  23.308  1.00  0.00    +0.000 C 
ATOM    148  H43 UNL A   1      -1.859  -4.583  22.769  1.00  0.00    +0.000 H 
ATOM    149  H44 UNL A   1      -1.028  -5.684  23.855  1.00  0.00    +0.000 H 
BRANCH   34   33
ATOM     33  N3  UNL A   1      -0.729  -3.679  24.249  1.00  0.00    +0.000 N 
ATOM    147  H42 UNL A   1      -0.978  -2.787  23.914  1.00  0.00    +0.000 H 
BRANCH   33   31
ATOM     31  C26 UNL A   1      -0.226  -3.695  25.524  1.00  0.00    +0.000 C 
ATOM     32  O3  UNL A   1      -0.670  -4.539  26.308  1.00  0.00    +0.000 O 
BRANCH   31    5
ATOM    115  H10 UNL A   1       0.773  -2.079  26.825  1.00  0.00    +0.000 H 
ATOM      5  C5  UNL A   1       0.869  -2.697  25.956  1.00  0.00    +0.000 C 
BRANCH    5    4
ATOM    113  H8  UNL A   1       2.936  -2.883  26.396  1.00  0.00    +0.000 H 
ATOM    114  H9  UNL A   1       1.764  -3.976  27.310  1.00  0.00    +0.000 H 
ATOM      4  C4  UNL A   1       2.098  -3.549  26.388  1.00  0.00    +0.000 C 
BRANCH    4    3
ATOM      3  C3  UNL A   1       2.540  -4.783  25.604  1.00  0.00    +0.000 C 
ATOM    111  H6  UNL A   1       3.142  -5.381  26.257  1.00  0.00    +0.000 H 
ATOM    112  H7  UNL A   1       1.632  -5.245  25.277  1.00  0.00    +0.000 H 
BRANCH    3    2
ATOM      2  C2  UNL A   1       3.344  -4.545  24.327  1.00  0.00    +0.000 C 
ATOM    109  H4  UNL A   1       2.757  -3.947  23.662  1.00  0.00    +0.000 H 
ATOM    110  H5  UNL A   1       4.254  -4.056  24.608  1.00  0.00    +0.000 H 
BRANCH    2    1
ATOM      1  C1  UNL A   1       3.724  -5.829  23.613  1.00  0.00    +0.000 C 
ATOM    106  H1  UNL A   1       2.882  -6.489  23.593  1.00  0.00    +0.000 H 
ATOM    107  H2  UNL A   1       4.533  -6.299  24.130  1.00  0.00    +0.000 H 
ATOM    108  H3  UNL A   1       4.024  -5.604  22.610  1.00  0.00    +0.000 H 
ENDBRANCH    2    1
ENDBRANCH    3    2
ENDBRANCH    4    3
ENDBRANCH    5    4
BRANCH    5    6
ATOM      6  S1  UNL A   1       0.873  -1.469  24.536  1.00  0.00    +0.000 S 
BRANCH    6    7
ATOM    131  H26 UNL A   1       2.730   2.641  27.189  1.00  0.00    +0.000 H 
ATOM      7  C6  UNL A   1       0.911   0.107  25.319  1.00  0.00    +0.000 C 
ATOM      8  N1  UNL A   1       1.432   1.123  24.601  1.00  0.00    +0.000 N 
ATOM      9  C7  UNL A   1       1.998   2.109  25.303  1.00  0.00    +0.000 C 
ATOM     19  C16 UNL A   1       2.096   2.021  26.660  1.00  0.00    +0.000 C 
ATOM     20  C17 UNL A   1       1.332   1.088  27.293  1.00  0.00    +0.000 C 
ATOM     30  N2  UNL A   1       0.720   0.115  26.634  1.00  0.00    +0.000 N 
BRANCH    9   10
ATOM     10  O1  UNL A   1       2.439   3.190  24.575  1.00  0.00    +0.000 O 
BRANCH   10   11
ATOM     11  C8  UNL A   1       3.785   3.645  24.768  1.00  0.00    +0.000 C 
ATOM    116  H11 UNL A   1       3.953   3.722  25.822  1.00  0.00    +0.000 H 
ATOM    117  H12 UNL A   1       3.848   4.572  24.236  1.00  0.00    +0.000 H 
BRANCH   11   12
ATOM     12  C9  UNL A   1       4.912   2.757  24.175  1.00  0.00    +0.000 C 
ATOM    118  H13 UNL A   1       4.861   2.838  23.110  1.00  0.00    +0.000 H 
ATOM    119  H14 UNL A   1       4.726   1.775  24.560  1.00  0.00    +0.000 H 
BRANCH   12   13
ATOM    129  H24 UNL A   1       6.906   3.689  22.622  1.00  0.00    +0.000 H 
ATOM    130  H25 UNL A   1       7.502   2.112  23.079  1.00  0.00    +0.000 H 
ATOM     13  C10 UNL A   1       6.352   3.086  24.599  1.00  0.00    +0.000 C 
ATOM     14  C11 UNL A   1       6.918   2.172  25.697  1.00  0.00    +0.000 C 
ATOM     15  C12 UNL A   1       8.268   2.709  26.190  1.00  0.00    +0.000 C 
ATOM     16  C13 UNL A   1       9.256   3.016  25.064  1.00  0.00    +0.000 C 
ATOM     17  C14 UNL A   1       8.643   3.739  23.863  1.00  0.00    +0.000 C 
ATOM     18  C15 UNL A   1       7.325   3.111  23.419  1.00  0.00    +0.000 C 
ATOM    120  H15 UNL A   1       6.269   4.070  25.011  1.00  0.00    +0.000 H 
ATOM    121  H16 UNL A   1       7.053   1.187  25.302  1.00  0.00    +0.000 H 
ATOM    122  H17 UNL A   1       6.231   2.147  26.517  1.00  0.00    +0.000 H 
ATOM    123  H18 UNL A   1       8.708   1.976  26.835  1.00  0.00    +0.000 H 
ATOM    124  H19 UNL A   1       8.072   3.631  26.696  1.00  0.00    +0.000 H 
ATOM    125  H20 UNL A   1       9.671   2.092  24.720  1.00  0.00    +0.000 H 
ATOM    126  H21 UNL A   1       9.992   3.676  25.474  1.00  0.00    +0.000 H 
ATOM    127  H22 UNL A   1       9.336   3.700  23.048  1.00  0.00    +0.000 H 
ATOM    128  H23 UNL A   1       8.442   4.748  24.158  1.00  0.00    +0.000 H 
ENDBRANCH   12   13
ENDBRANCH   11   12
ENDBRANCH   10   11
ENDBRANCH    9   10
BRANCH   20   21
ATOM     21  O2  UNL A   1       1.393   0.917  28.649  1.00  0.00    +0.000 O 
BRANCH   21   22
ATOM    132  H27 UNL A   1       3.441   0.978  28.712  1.00  0.00    +0.000 H 
ATOM    133  H28 UNL A   1       2.739  -0.611  28.892  1.00  0.00    +0.000 H 
ATOM     22  C18 UNL A   1       2.636   0.423  29.148  1.00  0.00    +0.000 C 
BRANCH   22   23
ATOM    135  H30 UNL A   1       3.637   0.959  30.950  1.00  0.00    +0.000 H 
ATOM    134  H29 UNL A   1       1.890   1.252  30.980  1.00  0.00    +0.000 H 
ATOM     23  C19 UNL A   1       2.671   0.582  30.687  1.00  0.00    +0.000 C 
BRANCH   23   24
ATOM    136  H31 UNL A   1       2.621  -1.450  30.628  1.00  0.00    +0.000 H 
ATOM    137  H32 UNL A   1       3.138  -0.427  33.441  1.00  0.00    +0.000 H 
ATOM    138  H33 UNL A   1       4.435  -0.547  32.300  1.00  0.00    +0.000 H 
ATOM    139  H34 UNL A   1       4.345  -2.625  33.552  1.00  0.00    +0.000 H 
ATOM    140  H35 UNL A   1       3.789  -2.962  31.938  1.00  0.00    +0.000 H 
ATOM    141  H36 UNL A   1       2.137  -2.536  34.405  1.00  0.00    +0.000 H 
ATOM    142  H37 UNL A   1       2.239  -3.978  33.368  1.00  0.00    +0.000 H 
ATOM    143  H38 UNL A   1       0.152  -2.501  33.222  1.00  0.00    +0.000 H 
ATOM    144  H39 UNL A   1       0.971  -3.072  31.733  1.00  0.00    +0.000 H 
ATOM    145  H40 UNL A   1       0.344  -0.849  31.304  1.00  0.00    +0.000 H 
ATOM    146  H41 UNL A   1       0.948  -0.303  32.852  1.00  0.00    +0.000 H 
ATOM     24  C20 UNL A   1       2.477  -0.752  31.427  1.00  0.00    +0.000 C 
ATOM     25  C21 UNL A   1       3.476  -0.942  32.566  1.00  0.00    +0.000 C 
ATOM     26  C22 UNL A   1       3.567  -2.436  32.843  1.00  0.00    +0.000 C 
ATOM     27  C23 UNL A   1       2.233  -2.909  33.407  1.00  0.00    +0.000 C 
ATOM     28  C24 UNL A   1       1.015  -2.436  32.592  1.00  0.00    +0.000 C 
ATOM     29  C25 UNL A   1       1.099  -0.993  32.048  1.00  0.00    +0.000 C 
ENDBRANCH   23   24
ENDBRANCH   22   23
ENDBRANCH   21   22
ENDBRANCH   20   21
ENDBRANCH    6    7
ENDBRANCH    5    6
ENDBRANCH   31    5
ENDBRANCH   33   31
ENDBRANCH   34   33
ENDBRANCH   35   34
ENDBRANCH   36   35
ENDBRANCH   37   36
ENDBRANCH   38   37
ENDBRANCH   39   38
ENDBRANCH   40   39
ENDBRANCH   41   40
ENDBRANCH   43   41
ENDBRANCH   47   46
BRANCH   51   52
ATOM     52  C42 UNL A   1      10.236   2.486  18.612  1.00  0.00    +0.000 C 
ATOM     53  C43 UNL A   1      10.520   1.778  17.433  1.00  0.00    +0.000 C 
ATOM     54  F1  UNL A   1      10.380   0.445  17.395  1.00  0.00    +0.000 F 
ATOM     55  C44 UNL A   1      10.991   2.435  16.299  1.00  0.00    +0.000 C 
ATOM     56  F2  UNL A   1      11.305   1.732  15.202  1.00  0.00    +0.000 F 
ATOM     57  C45 UNL A   1      11.149   3.812  16.307  1.00  0.00    +0.000 C 
ATOM     58  F3  UNL A   1      11.595   4.444  15.212  1.00  0.00    +0.000 F 
ATOM     59  C46 UNL A   1      10.854   4.534  17.453  1.00  0.00    +0.000 C 
ATOM     60  F4  UNL A   1      10.994   5.868  17.459  1.00  0.00    +0.000 F 
ATOM     61  C47 UNL A   1      10.414   3.877  18.600  1.00  0.00    +0.000 C 
ATOM     62  F5  UNL A   1      10.153   4.603  19.698  1.00  0.00    +0.000 F 
ENDBRANCH   51   52
BRANCH   68   69
ATOM     69  C53 UNL A   1      12.767   0.088  24.923  1.00  0.00    +0.000 C 
ATOM     70  C54 UNL A   1      13.783  -0.841  24.659  1.00  0.00    +0.000 C 
ATOM     71  F6  UNL A   1      13.598  -1.802  23.742  1.00  0.00    +0.000 F 
ATOM     72  C55 UNL A   1      14.980  -0.813  25.369  1.00  0.00    +0.000 C 
ATOM     73  F7  UNL A   1      15.916  -1.743  25.137  1.00  0.00    +0.000 F 
ATOM     74  C56 UNL A   1      15.200   0.166  26.327  1.00  0.00    +0.000 C 
ATOM     75  F8  UNL A   1      16.355   0.195  27.005  1.00  0.00    +0.000 F 
ATOM     76  C57 UNL A   1      14.218   1.109  26.589  1.00  0.00    +0.000 C 
ATOM     77  F9  UNL A   1      14.433   2.065  27.503  1.00  0.00    +0.000 F 
ATOM     78  C58 UNL A   1      13.008   1.064  25.903  1.00  0.00    +0.000 C 
ATOM     79  F10 UNL A   1      12.071   1.981  26.189  1.00  0.00    +0.000 F 
ENDBRANCH   68   69
BRANCH   83   84
ATOM     84  C62 UNL A   1       6.413  -2.263  26.540  1.00  0.00    +0.000 C 
ATOM     85  C63 UNL A   1       6.217  -3.651  26.510  1.00  0.00    +0.000 C 
ATOM     86  F11 UNL A   1       6.530  -4.348  25.407  1.00  0.00    +0.000 F 
ATOM     87  C64 UNL A   1       5.653  -4.323  27.593  1.00  0.00    +0.000 C 
ATOM     88  F12 UNL A   1       5.425  -5.641  27.516  1.00  0.00    +0.000 F 
ATOM     89  C65 UNL A   1       5.307  -3.624  28.740  1.00  0.00    +0.000 C 
ATOM     90  F13 UNL A   1       4.761  -4.269  29.780  1.00  0.00    +0.000 F 
ATOM     91  C66 UNL A   1       5.516  -2.255  28.802  1.00  0.00    +0.000 C 
ATOM     92  F14 UNL A   1       5.195  -1.579  29.914  1.00  0.00    +0.000 F 
ATOM     93  C67 UNL A   1       6.051  -1.578  27.708  1.00  0.00    +0.000 C 
ATOM     94  F15 UNL A   1       6.225  -0.251  27.791  1.00  0.00    +0.000 F 
ENDBRANCH   83   84
TORSDOF 29
ENDMDL
MODEL 8
REMARK VINA RESULT:      -7.2     16.282     23.360
ROOT
ATOM    163  H58 UNL A   1      23.933  24.283  60.126  1.00  0.00    +0.000 H 
ATOM    164  H59 UNL A   1      25.499  22.463  61.142  1.00  0.00    +0.000 H 
ATOM    165  H60 UNL A   1      27.358  24.063  57.807  1.00  0.00    +0.000 H 
ATOM    166  H61 UNL A   1      32.273  24.098  53.720  1.00  0.00    +0.000 H 
ATOM    167  H62 UNL A   1      30.769  25.911  52.767  1.00  0.00    +0.000 H 
ATOM    168  H63 UNL A   1      28.901  24.353  56.137  1.00  0.00    +0.000 H 
ATOM    169  H64 UNL A   1      32.021  20.894  57.999  1.00  0.00    +0.000 H 
ATOM    170  H65 UNL A   1      30.196  20.359  59.709  1.00  0.00    +0.000 H 
ATOM    171  H66 UNL A   1      24.434  27.711  56.024  1.00  0.00    +0.000 H 
ATOM    172  H67 UNL A   1      25.973  27.873  53.983  1.00  0.00    +0.000 H 
ATOM     47  C38 UNL A   1      28.326  26.276  54.192  1.00  0.00    +0.000 C 
ATOM     48  C39 UNL A   1      27.152  26.314  55.133  1.00  0.00    +0.000 C 
ATOM     49  N5  UNL A   1      26.949  25.634  56.233  1.00  0.00    +0.000 N 
ATOM     50  C40 UNL A   1      25.734  26.082  56.735  1.00  0.00    +0.000 C 
ATOM     51  C41 UNL A   1      25.049  25.636  57.814  1.00  0.00    +0.000 C 
ATOM     63  C48 UNL A   1      25.497  24.568  58.667  1.00  0.00    +0.000 C 
ATOM     64  C49 UNL A   1      24.861  24.013  59.765  1.00  0.00    +0.000 C 
ATOM     65  C50 UNL A   1      25.694  23.024  60.299  1.00  0.00    +0.000 C 
ATOM     66  C51 UNL A   1      26.824  22.926  59.503  1.00  0.00    +0.000 C 
ATOM     67  N6  UNL A   1      26.696  23.888  58.514  1.00  0.00    +0.000 N 
ATOM     68  C52 UNL A   1      27.934  22.019  59.633  1.00  0.00    +0.000 C 
ATOM     80  C59 UNL A   1      29.025  22.002  58.828  1.00  0.00    +0.000 C 
ATOM     81  N7  UNL A   1      29.311  22.797  57.725  1.00  0.00    +0.000 N 
ATOM     82  C60 UNL A   1      30.484  22.404  57.292  1.00  0.00    +0.000 C 
ATOM     83  C61 UNL A   1      31.268  22.881  56.097  1.00  0.00    +0.000 C 
ATOM     95  C68 UNL A   1      30.742  23.838  55.311  1.00  0.00    +0.000 C 
ATOM     96  C69 UNL A   1      31.364  24.391  54.112  1.00  0.00    +0.000 C 
ATOM     97  C70 UNL A   1      30.564  25.341  53.602  1.00  0.00    +0.000 C 
ATOM     98  C71 UNL A   1      29.356  25.439  54.422  1.00  0.00    +0.000 C 
ATOM     99  N8  UNL A   1      29.552  24.515  55.416  1.00  0.00    +0.000 N 
ATOM    100  C72 UNL A   1      31.095  21.339  58.099  1.00  0.00    +0.000 C 
ATOM    101  C73 UNL A   1      30.144  21.097  58.990  1.00  0.00    +0.000 C 
ATOM    102  C74 UNL A   1      25.275  27.135  55.857  1.00  0.00    +0.000 C 
ATOM    103  C75 UNL A   1      26.076  27.265  54.811  1.00  0.00    +0.000 C 
ENDROOT
BRANCH   47   46
ATOM    161  H56 UNL A   1      27.575  27.378  49.768  1.00  0.00    +0.000 H 
ATOM    162  H57 UNL A   1      27.501  25.846  51.649  1.00  0.00    +0.000 H 
ATOM    104  C76 UNL A   1      28.854  28.501  53.199  1.00  0.00    +0.000 C 
ATOM    105  C77 UNL A   1      28.809  29.405  52.144  1.00  0.00    +0.000 C 
ATOM     43  C34 UNL A   1      28.382  28.983  50.881  1.00  0.00    +0.000 C 
ATOM     44  C35 UNL A   1      27.906  27.683  50.697  1.00  0.00    +0.000 C 
ATOM     45  C36 UNL A   1      27.880  26.798  51.774  1.00  0.00    +0.000 C 
ATOM    174  H69 UNL A   1      29.089  30.388  52.292  1.00  0.00    +0.000 H 
ATOM    173  H68 UNL A   1      29.246  28.790  54.109  1.00  0.00    +0.000 H 
ATOM     46  C37 UNL A   1      28.367  27.196  53.031  1.00  0.00    +0.000 C 
BRANCH   43   41
ATOM     41  C33 UNL A   1      28.388  29.909  49.730  1.00  0.00    +0.000 C 
ATOM     42  O4  UNL A   1      27.431  29.936  48.960  1.00  0.00    +0.000 O 
BRANCH   41   40
ATOM    160  H55 UNL A   1      29.557  31.472  50.176  1.00  0.00    +0.000 H 
ATOM     40  N4  UNL A   1      29.458  30.737  49.528  1.00  0.00    +0.000 N 
BRANCH   40   39
ATOM    159  H54 UNL A   1      30.540  31.651  48.036  1.00  0.00    +0.000 H 
ATOM    158  H53 UNL A   1      30.184  29.946  47.763  1.00  0.00    +0.000 H 
ATOM     39  C32 UNL A   1      30.469  30.682  48.485  1.00  0.00    +0.000 C 
BRANCH   39   38
ATOM    156  H51 UNL A   1      32.559  30.410  48.262  1.00  0.00    +0.000 H 
ATOM    157  H52 UNL A   1      32.025  30.987  49.860  1.00  0.00    +0.000 H 
ATOM     38  C31 UNL A   1      31.838  30.318  49.047  1.00  0.00    +0.000 C 
BRANCH   38   37
ATOM    154  H49 UNL A   1      31.001  28.399  49.405  1.00  0.00    +0.000 H 
ATOM    155  H50 UNL A   1      32.769  28.437  49.147  1.00  0.00    +0.000 H 
ATOM     37  C30 UNL A   1      31.924  28.898  49.615  1.00  0.00    +0.000 C 
BRANCH   37   36
ATOM    153  H48 UNL A   1      31.222  28.939  51.600  1.00  0.00    +0.000 H 
ATOM     36  C29 UNL A   1      32.174  28.825  51.127  1.00  0.00    +0.000 C 
ATOM    152  H47 UNL A   1      32.865  29.599  51.390  1.00  0.00    +0.000 H 
BRANCH   36   35
ATOM     35  C28 UNL A   1      32.746  27.490  51.606  1.00  0.00    +0.000 C 
ATOM    150  H45 UNL A   1      31.936  26.813  51.779  1.00  0.00    +0.000 H 
ATOM    151  H46 UNL A   1      33.408  27.131  50.846  1.00  0.00    +0.000 H 
BRANCH   35   34
ATOM     34  C27 UNL A   1      33.556  27.620  52.895  1.00  0.00    +0.000 C 
ATOM    148  H43 UNL A   1      33.726  28.656  53.099  1.00  0.00    +0.000 H 
ATOM    149  H44 UNL A   1      33.005  27.169  53.693  1.00  0.00    +0.000 H 
BRANCH   34   33
ATOM     33  N3  UNL A   1      34.838  26.941  52.769  1.00  0.00    +0.000 N 
ATOM    147  H42 UNL A   1      35.323  27.128  51.933  1.00  0.00    +0.000 H 
BRANCH   33   31
ATOM     31  C26 UNL A   1      35.477  26.083  53.626  1.00  0.00    +0.000 C 
ATOM     32  O3  UNL A   1      34.797  25.226  54.197  1.00  0.00    +0.000 O 
BRANCH   31    5
ATOM    115  H10 UNL A   1      37.668  26.579  53.121  1.00  0.00    +0.000 H 
ATOM      5  C5  UNL A   1      37.001  26.183  53.857  1.00  0.00    +0.000 C 
BRANCH    5    4
ATOM    113  H8  UNL A   1      36.336  27.860  54.975  1.00  0.00    +0.000 H 
ATOM    114  H9  UNL A   1      37.404  26.625  55.835  1.00  0.00    +0.000 H 
ATOM      4  C4  UNL A   1      37.209  27.240  54.981  1.00  0.00    +0.000 C 
BRANCH    4    3
ATOM      3  C3  UNL A   1      38.406  28.188  54.987  1.00  0.00    +0.000 C 
ATOM    111  H6  UNL A   1      38.896  28.095  54.041  1.00  0.00    +0.000 H 
ATOM    112  H7  UNL A   1      37.994  29.154  55.190  1.00  0.00    +0.000 H 
BRANCH    3    2
ATOM      2  C2  UNL A   1      39.459  27.972  56.073  1.00  0.00    +0.000 C 
ATOM    109  H4  UNL A   1      40.272  28.645  55.898  1.00  0.00    +0.000 H 
ATOM    110  H5  UNL A   1      38.986  28.152  57.016  1.00  0.00    +0.000 H 
BRANCH    2    1
ATOM      1  C1  UNL A   1      40.004  26.556  56.103  1.00  0.00    +0.000 C 
ATOM    106  H1  UNL A   1      41.065  26.584  56.237  1.00  0.00    +0.000 H 
ATOM    107  H2  UNL A   1      39.774  26.066  55.181  1.00  0.00    +0.000 H 
ATOM    108  H3  UNL A   1      39.557  26.019  56.914  1.00  0.00    +0.000 H 
ENDBRANCH    2    1
ENDBRANCH    3    2
ENDBRANCH    4    3
ENDBRANCH    5    4
BRANCH    5    6
ATOM      6  S1  UNL A   1      37.503  24.379  53.989  1.00  0.00    +0.000 S 
BRANCH    6    7
ATOM    131  H26 UNL A   1      37.543  22.853  48.984  1.00  0.00    +0.000 H 
ATOM      7  C6  UNL A   1      38.127  23.980  52.393  1.00  0.00    +0.000 C 
ATOM      8  N1  UNL A   1      38.030  24.942  51.452  1.00  0.00    +0.000 N 
ATOM      9  C7  UNL A   1      37.932  24.520  50.188  1.00  0.00    +0.000 C 
ATOM     19  C16 UNL A   1      37.856  23.187  49.909  1.00  0.00    +0.000 C 
ATOM     20  C17 UNL A   1      38.206  22.311  50.893  1.00  0.00    +0.000 C 
ATOM     30  N2  UNL A   1      38.353  22.693  52.154  1.00  0.00    +0.000 N 
BRANCH    9   10
ATOM     10  O1  UNL A   1      37.934  25.500  49.223  1.00  0.00    +0.000 O 
BRANCH   10   11
ATOM     11  C8  UNL A   1      37.036  26.609  49.369  1.00  0.00    +0.000 C 
ATOM    116  H11 UNL A   1      37.348  27.370  48.685  1.00  0.00    +0.000 H 
ATOM    117  H12 UNL A   1      37.092  26.884  50.401  1.00  0.00    +0.000 H 
BRANCH   11   12
ATOM     12  C9  UNL A   1      35.532  26.325  49.103  1.00  0.00    +0.000 C 
ATOM    118  H13 UNL A   1      34.980  26.699  49.941  1.00  0.00    +0.000 H 
ATOM    119  H14 UNL A   1      35.468  25.266  48.961  1.00  0.00    +0.000 H 
BRANCH   12   13
ATOM    129  H24 UNL A   1      35.984  28.778  48.086  1.00  0.00    +0.000 H 
ATOM    130  H25 UNL A   1      34.294  28.865  48.519  1.00  0.00    +0.000 H 
ATOM     13  C10 UNL A   1      34.922  26.938  47.833  1.00  0.00    +0.000 C 
ATOM     14  C11 UNL A   1      33.477  26.501  47.546  1.00  0.00    +0.000 C 
ATOM     15  C12 UNL A   1      33.039  26.997  46.161  1.00  0.00    +0.000 C 
ATOM     16  C13 UNL A   1      33.299  28.487  45.930  1.00  0.00    +0.000 C 
ATOM     17  C14 UNL A   1      34.664  28.974  46.418  1.00  0.00    +0.000 C 
ATOM     18  C15 UNL A   1      34.996  28.465  47.818  1.00  0.00    +0.000 C 
ATOM    120  H15 UNL A   1      35.538  26.545  47.050  1.00  0.00    +0.000 H 
ATOM    121  H16 UNL A   1      32.829  26.915  48.290  1.00  0.00    +0.000 H 
ATOM    122  H17 UNL A   1      33.425  25.433  47.567  1.00  0.00    +0.000 H 
ATOM    123  H18 UNL A   1      31.989  26.817  46.054  1.00  0.00    +0.000 H 
ATOM    124  H19 UNL A   1      33.619  26.462  45.439  1.00  0.00    +0.000 H 
ATOM    125  H20 UNL A   1      32.543  29.042  46.445  1.00  0.00    +0.000 H 
ATOM    126  H21 UNL A   1      33.281  28.640  44.872  1.00  0.00    +0.000 H 
ATOM    127  H22 UNL A   1      34.663  30.044  46.431  1.00  0.00    +0.000 H 
ATOM    128  H23 UNL A   1      35.405  28.592  45.747  1.00  0.00    +0.000 H 
ENDBRANCH   12   13
ENDBRANCH   11   12
ENDBRANCH   10   11
ENDBRANCH    9   10
BRANCH   20   21
ATOM     21  O2  UNL A   1      38.131  20.959  50.704  1.00  0.00    +0.000 O 
BRANCH   21   22
ATOM    132  H27 UNL A   1      38.083  20.823  52.749  1.00  0.00    +0.000 H 
ATOM    133  H28 UNL A   1      38.980  19.561  51.941  1.00  0.00    +0.000 H 
ATOM     22  C18 UNL A   1      38.105  20.175  51.898  1.00  0.00    +0.000 C 
BRANCH   22   23
ATOM    135  H30 UNL A   1      36.095  19.776  52.479  1.00  0.00    +0.000 H 
ATOM    134  H29 UNL A   1      36.526  19.136  50.885  1.00  0.00    +0.000 H 
ATOM     23  C19 UNL A   1      36.843  19.280  51.896  1.00  0.00    +0.000 C 
BRANCH   23   24
ATOM    136  H31 UNL A   1      36.565  17.267  51.851  1.00  0.00    +0.000 H 
ATOM    137  H32 UNL A   1      38.994  18.020  53.512  1.00  0.00    +0.000 H 
ATOM    138  H33 UNL A   1      39.108  17.922  51.788  1.00  0.00    +0.000 H 
ATOM    139  H34 UNL A   1      39.711  15.756  52.703  1.00  0.00    +0.000 H 
ATOM    140  H35 UNL A   1      38.157  15.586  51.936  1.00  0.00    +0.000 H 
ATOM    141  H36 UNL A   1      38.746  15.900  54.861  1.00  0.00    +0.000 H 
ATOM    142  H37 UNL A   1      37.952  14.546  54.024  1.00  0.00    +0.000 H 
ATOM    143  H38 UNL A   1      36.515  16.147  55.411  1.00  0.00    +0.000 H 
ATOM    144  H39 UNL A   1      36.003  15.656  53.765  1.00  0.00    +0.000 H 
ATOM    145  H40 UNL A   1      35.478  17.939  53.941  1.00  0.00    +0.000 H 
ATOM    146  H41 UNL A   1      37.040  18.319  54.631  1.00  0.00    +0.000 H 
ATOM     24  C20 UNL A   1      37.089  17.903  52.535  1.00  0.00    +0.000 C 
ATOM     25  C21 UNL A   1      38.574  17.562  52.642  1.00  0.00    +0.000 C 
ATOM     26  C22 UNL A   1      38.683  16.047  52.747  1.00  0.00    +0.000 C 
ATOM     27  C23 UNL A   1      38.082  15.607  54.075  1.00  0.00    +0.000 C 
ATOM     28  C24 UNL A   1      36.695  16.215  54.358  1.00  0.00    +0.000 C 
ATOM     29  C25 UNL A   1      36.519  17.690  53.940  1.00  0.00    +0.000 C 
ENDBRANCH   23   24
ENDBRANCH   22   23
ENDBRANCH   21   22
ENDBRANCH   20   21
ENDBRANCH    6    7
ENDBRANCH    5    6
ENDBRANCH   31    5
ENDBRANCH   33   31
ENDBRANCH   34   33
ENDBRANCH   35   34
ENDBRANCH   36   35
ENDBRANCH   37   36
ENDBRANCH   38   37
ENDBRANCH   39   38
ENDBRANCH   40   39
ENDBRANCH   41   40
ENDBRANCH   43   41
ENDBRANCH   47   46
BRANCH   51   52
ATOM     52  C42 UNL A   1      23.737  26.296  58.125  1.00  0.00    +0.000 C 
ATOM     53  C43 UNL A   1      22.582  26.026  57.373  1.00  0.00    +0.000 C 
ATOM     54  F1  UNL A   1      22.640  25.197  56.320  1.00  0.00    +0.000 F 
ATOM     55  C44 UNL A   1      21.369  26.641  57.675  1.00  0.00    +0.000 C 
ATOM     56  F2  UNL A   1      20.293  26.407  56.912  1.00  0.00    +0.000 F 
ATOM     57  C45 UNL A   1      21.277  27.505  58.755  1.00  0.00    +0.000 C 
ATOM     58  F3  UNL A   1      20.107  28.089  59.050  1.00  0.00    +0.000 F 
ATOM     59  C46 UNL A   1      22.399  27.769  59.525  1.00  0.00    +0.000 C 
ATOM     60  F4  UNL A   1      22.309  28.595  60.578  1.00  0.00    +0.000 F 
ATOM     61  C47 UNL A   1      23.622  27.182  59.207  1.00  0.00    +0.000 C 
ATOM     62  F5  UNL A   1      24.692  27.472  59.961  1.00  0.00    +0.000 F 
ENDBRANCH   51   52
BRANCH   68   69
ATOM     69  C53 UNL A   1      27.869  20.990  60.723  1.00  0.00    +0.000 C 
ATOM     70  C54 UNL A   1      27.507  19.660  60.467  1.00  0.00    +0.000 C 
ATOM     71  F6  UNL A   1      27.161  19.281  59.228  1.00  0.00    +0.000 F 
ATOM     72  C55 UNL A   1      27.457  18.722  61.495  1.00  0.00    +0.000 C 
ATOM     73  F7  UNL A   1      27.056  17.470  61.237  1.00  0.00    +0.000 F 
ATOM     74  C56 UNL A   1      27.803  19.085  62.788  1.00  0.00    +0.000 C 
ATOM     75  F8  UNL A   1      27.760  18.180  63.774  1.00  0.00    +0.000 F 
ATOM     76  C57 UNL A   1      28.187  20.390  63.060  1.00  0.00    +0.000 C 
ATOM     77  F9  UNL A   1      28.538  20.739  64.305  1.00  0.00    +0.000 F 
ATOM     78  C58 UNL A   1      28.208  21.337  62.041  1.00  0.00    +0.000 C 
ATOM     79  F10 UNL A   1      28.569  22.594  62.338  1.00  0.00    +0.000 F 
ENDBRANCH   68   69
BRANCH   83   84
ATOM     84  C62 UNL A   1      32.587  22.282  55.765  1.00  0.00    +0.000 C 
ATOM     85  C63 UNL A   1      33.759  22.740  56.384  1.00  0.00    +0.000 C 
ATOM     86  F11 UNL A   1      33.697  23.730  57.288  1.00  0.00    +0.000 F 
ATOM     87  C64 UNL A   1      35.006  22.220  56.041  1.00  0.00    +0.000 C 
ATOM     88  F12 UNL A   1      36.115  22.715  56.607  1.00  0.00    +0.000 F 
ATOM     89  C65 UNL A   1      35.100  21.206  55.099  1.00  0.00    +0.000 C 
ATOM     90  F13 UNL A   1      36.299  20.708  54.767  1.00  0.00    +0.000 F 
ATOM     91  C66 UNL A   1      33.952  20.720  54.493  1.00  0.00    +0.000 C 
ATOM     92  F14 UNL A   1      34.039  19.731  53.592  1.00  0.00    +0.000 F 
ATOM     93  C67 UNL A   1      32.709  21.261  54.813  1.00  0.00    +0.000 C 
ATOM     94  F15 UNL A   1      31.618  20.782  54.198  1.00  0.00    +0.000 F 
ENDBRANCH   83   84
TORSDOF 29
ENDMDL
MODEL 9
REMARK VINA RESULT:      -7.2      4.915     12.265
ROOT
ATOM    163  H58 UNL A   1      18.369  35.046  48.139  1.00  0.00    +0.000 H 
ATOM    164  H59 UNL A   1      20.375  33.728  47.120  1.00  0.00    +0.000 H 
ATOM    165  H60 UNL A   1      21.625  37.596  47.904  1.00  0.00    +0.000 H 
ATOM    166  H61 UNL A   1      26.173  42.081  47.643  1.00  0.00    +0.000 H 
ATOM    167  H62 UNL A   1      24.233  43.344  48.689  1.00  0.00    +0.000 H 
ATOM    168  H63 UNL A   1      22.966  39.454  47.953  1.00  0.00    +0.000 H 
ATOM    169  H64 UNL A   1      26.913  37.034  46.023  1.00  0.00    +0.000 H 
ATOM    170  H65 UNL A   1      25.359  35.028  45.701  1.00  0.00    +0.000 H 
ATOM    171  H66 UNL A   1      17.827  40.024  50.075  1.00  0.00    +0.000 H 
ATOM    172  H67 UNL A   1      19.176  42.193  49.886  1.00  0.00    +0.000 H 
ATOM     47  C38 UNL A   1      21.849  41.804  48.975  1.00  0.00    +0.000 C 
ATOM     48  C39 UNL A   1      20.751  40.780  49.069  1.00  0.00    +0.000 C 
ATOM     49  N5  UNL A   1      20.773  39.509  48.756  1.00  0.00    +0.000 N 
ATOM     50  C40 UNL A   1      19.513  39.020  49.077  1.00  0.00    +0.000 C 
ATOM     51  C41 UNL A   1      19.010  37.780  48.872  1.00  0.00    +0.000 C 
ATOM     63  C48 UNL A   1      19.743  36.705  48.258  1.00  0.00    +0.000 C 
ATOM     64  C49 UNL A   1      19.315  35.421  47.969  1.00  0.00    +0.000 C 
ATOM     65  C50 UNL A   1      20.386  34.720  47.405  1.00  0.00    +0.000 C 
ATOM     66  C51 UNL A   1      21.465  35.582  47.293  1.00  0.00    +0.000 C 
ATOM     67  N6  UNL A   1      21.061  36.793  47.833  1.00  0.00    +0.000 N 
ATOM     68  C52 UNL A   1      22.765  35.322  46.732  1.00  0.00    +0.000 C 
ATOM     80  C59 UNL A   1      23.786  36.214  46.685  1.00  0.00    +0.000 C 
ATOM     81  N7  UNL A   1      23.817  37.533  47.121  1.00  0.00    +0.000 N 
ATOM     82  C60 UNL A   1      25.026  37.969  46.863  1.00  0.00    +0.000 C 
ATOM     83  C61 UNL A   1      25.611  39.339  47.080  1.00  0.00    +0.000 C 
ATOM     95  C68 UNL A   1      24.832  40.307  47.598  1.00  0.00    +0.000 C 
ATOM     96  C69 UNL A   1      25.242  41.686  47.849  1.00  0.00    +0.000 C 
ATOM     97  C70 UNL A   1      24.213  42.356  48.392  1.00  0.00    +0.000 C 
ATOM     98  C71 UNL A   1      23.060  41.461  48.494  1.00  0.00    +0.000 C 
ATOM     99  N8  UNL A   1      23.521  40.265  48.006  1.00  0.00    +0.000 N 
ATOM    100  C72 UNL A   1      25.914  36.959  46.271  1.00  0.00    +0.000 C 
ATOM    101  C73 UNL A   1      25.095  35.925  46.138  1.00  0.00    +0.000 C 
ATOM    102  C74 UNL A   1      18.771  40.113  49.667  1.00  0.00    +0.000 C 
ATOM    103  C75 UNL A   1      19.463  41.240  49.615  1.00  0.00    +0.000 C 
ENDROOT
BRANCH   47   46
ATOM    161  H56 UNL A   1      20.620  46.221  48.401  1.00  0.00    +0.000 H 
ATOM    162  H57 UNL A   1      21.010  43.969  47.583  1.00  0.00    +0.000 H 
ATOM    104  C76 UNL A   1      21.786  43.486  50.814  1.00  0.00    +0.000 C 
ATOM    105  C77 UNL A   1      21.473  44.751  51.297  1.00  0.00    +0.000 C 
ATOM     43  C34 UNL A   1      21.089  45.761  50.410  1.00  0.00    +0.000 C 
ATOM     44  C35 UNL A   1      20.920  45.479  49.052  1.00  0.00    +0.000 C 
ATOM     45  C36 UNL A   1      21.162  44.189  48.580  1.00  0.00    +0.000 C 
ATOM    174  H69 UNL A   1      21.522  44.945  52.310  1.00  0.00    +0.000 H 
ATOM    173  H68 UNL A   1      22.149  42.765  51.457  1.00  0.00    +0.000 H 
ATOM     46  C37 UNL A   1      21.611  43.186  49.456  1.00  0.00    +0.000 C 
BRANCH   43   41
ATOM     41  C33 UNL A   1      20.814  47.130  50.892  1.00  0.00    +0.000 C 
ATOM     42  O4  UNL A   1      19.983  47.312  51.778  1.00  0.00    +0.000 O 
BRANCH   41   40
ATOM    160  H55 UNL A   1      20.928  48.934  50.033  1.00  0.00    +0.000 H 
ATOM     40  N4  UNL A   1      21.489  48.190  50.352  1.00  0.00    +0.000 N 
BRANCH   40   39
ATOM    159  H54 UNL A   1      23.106  49.396  49.950  1.00  0.00    +0.000 H 
ATOM    158  H53 UNL A   1      23.260  47.731  49.392  1.00  0.00    +0.000 H 
ATOM     39  C32 UNL A   1      22.922  48.368  50.182  1.00  0.00    +0.000 C 
BRANCH   39   38
ATOM    156  H51 UNL A   1      24.283  48.869  51.727  1.00  0.00    +0.000 H 
ATOM    157  H52 UNL A   1      22.956  47.777  52.196  1.00  0.00    +0.000 H 
ATOM     38  C31 UNL A   1      23.687  48.024  51.454  1.00  0.00    +0.000 C 
BRANCH   38   37
ATOM    154  H49 UNL A   1      25.596  47.105  51.602  1.00  0.00    +0.000 H 
ATOM    155  H50 UNL A   1      24.200  46.049  51.956  1.00  0.00    +0.000 H 
ATOM     37  C30 UNL A   1      24.607  46.807  51.321  1.00  0.00    +0.000 C 
BRANCH   37   36
ATOM    153  H48 UNL A   1      24.596  47.019  49.226  1.00  0.00    +0.000 H 
ATOM     36  C29 UNL A   1      24.673  46.202  49.913  1.00  0.00    +0.000 C 
ATOM    152  H47 UNL A   1      23.874  45.498  49.814  1.00  0.00    +0.000 H 
BRANCH   36   35
ATOM     35  C28 UNL A   1      25.986  45.484  49.597  1.00  0.00    +0.000 C 
ATOM    150  H45 UNL A   1      25.763  44.490  49.273  1.00  0.00    +0.000 H 
ATOM    151  H46 UNL A   1      26.486  46.047  48.836  1.00  0.00    +0.000 H 
BRANCH   35   34
ATOM     34  C27 UNL A   1      26.923  45.406  50.801  1.00  0.00    +0.000 C 
ATOM    148  H43 UNL A   1      27.133  46.395  51.148  1.00  0.00    +0.000 H 
ATOM    149  H44 UNL A   1      26.447  44.835  51.570  1.00  0.00    +0.000 H 
BRANCH   34   33
ATOM     33  N3  UNL A   1      28.173  44.752  50.440  1.00  0.00    +0.000 N 
ATOM    147  H42 UNL A   1      28.690  45.209  49.737  1.00  0.00    +0.000 H 
BRANCH   33   31
ATOM     31  C26 UNL A   1      28.747  43.603  50.919  1.00  0.00    +0.000 C 
ATOM     32  O3  UNL A   1      29.318  43.657  52.012  1.00  0.00    +0.000 O 
BRANCH   31    5
ATOM    115  H10 UNL A   1      27.804  42.008  49.552  1.00  0.00    +0.000 H 
ATOM      5  C5  UNL A   1      28.667  42.284  50.120  1.00  0.00    +0.000 C 
BRANCH    5    4
ATOM    113  H8  UNL A   1      30.587  42.824  49.395  1.00  0.00    +0.000 H 
ATOM    114  H9  UNL A   1      29.730  41.408  48.580  1.00  0.00    +0.000 H 
ATOM      4  C4  UNL A   1      29.701  42.406  48.963  1.00  0.00    +0.000 C 
BRANCH    4    3
ATOM      3  C3  UNL A   1      29.413  43.223  47.705  1.00  0.00    +0.000 C 
ATOM    111  H6  UNL A   1      28.761  42.644  47.086  1.00  0.00    +0.000 H 
ATOM    112  H7  UNL A   1      28.999  44.144  48.061  1.00  0.00    +0.000 H 
BRANCH    3    2
ATOM      2  C2  UNL A   1      30.613  43.634  46.853  1.00  0.00    +0.000 C 
ATOM    109  H4  UNL A   1      30.805  42.860  46.140  1.00  0.00    +0.000 H 
ATOM    110  H5  UNL A   1      30.365  44.562  46.379  1.00  0.00    +0.000 H 
BRANCH    2    1
ATOM      1  C1  UNL A   1      31.873  43.864  47.667  1.00  0.00    +0.000 C 
ATOM    106  H1  UNL A   1      32.722  43.516  47.117  1.00  0.00    +0.000 H 
ATOM    107  H2  UNL A   1      31.803  43.330  48.590  1.00  0.00    +0.000 H 
ATOM    108  H3  UNL A   1      31.982  44.910  47.867  1.00  0.00    +0.000 H 
ENDBRANCH    2    1
ENDBRANCH    3    2
ENDBRANCH    4    3
ENDBRANCH    5    4
BRANCH    5    6
ATOM      6  S1  UNL A   1      28.740  40.990  51.478  1.00  0.00    +0.000 S 
BRANCH    6    7
ATOM    131  H26 UNL A   1      24.365  38.416  52.747  1.00  0.00    +0.000 H 
ATOM      7  C6  UNL A   1      27.258  40.063  51.281  1.00  0.00    +0.000 C 
ATOM      8  N1  UNL A   1      26.105  40.764  51.282  1.00  0.00    +0.000 N 
ATOM      9  C7  UNL A   1      25.022  40.113  51.715  1.00  0.00    +0.000 C 
ATOM     19  C16 UNL A   1      25.127  38.842  52.195  1.00  0.00    +0.000 C 
ATOM     20  C17 UNL A   1      26.270  38.152  51.924  1.00  0.00    +0.000 C 
ATOM     30  N2  UNL A   1      27.357  38.750  51.456  1.00  0.00    +0.000 N 
BRANCH    9   10
ATOM     10  O1  UNL A   1      23.832  40.797  51.622  1.00  0.00    +0.000 O 
BRANCH   10   11
ATOM     11  C8  UNL A   1      22.883  40.673  52.690  1.00  0.00    +0.000 C 
ATOM    116  H11 UNL A   1      22.452  41.638  52.854  1.00  0.00    +0.000 H 
ATOM    117  H12 UNL A   1      23.440  40.285  53.518  1.00  0.00    +0.000 H 
BRANCH   11   12
ATOM     12  C9  UNL A   1      21.719  39.667  52.474  1.00  0.00    +0.000 C 
ATOM    118  H13 UNL A   1      21.960  39.073  51.618  1.00  0.00    +0.000 H 
ATOM    119  H14 UNL A   1      20.843  40.272  52.369  1.00  0.00    +0.000 H 
BRANCH   12   13
ATOM    129  H24 UNL A   1      22.709  39.741  54.978  1.00  0.00    +0.000 H 
ATOM    130  H25 UNL A   1      23.359  38.238  54.370  1.00  0.00    +0.000 H 
ATOM     13  C10 UNL A   1      21.406  38.708  53.633  1.00  0.00    +0.000 C 
ATOM     14  C11 UNL A   1      21.151  37.254  53.206  1.00  0.00    +0.000 C 
ATOM     15  C12 UNL A   1      20.647  36.431  54.398  1.00  0.00    +0.000 C 
ATOM     16  C13 UNL A   1      21.513  36.570  55.652  1.00  0.00    +0.000 C 
ATOM     17  C14 UNL A   1      21.953  38.002  55.961  1.00  0.00    +0.000 C 
ATOM     18  C15 UNL A   1      22.476  38.728  54.725  1.00  0.00    +0.000 C 
ATOM    120  H15 UNL A   1      20.488  39.091  54.030  1.00  0.00    +0.000 H 
ATOM    121  H16 UNL A   1      22.064  36.828  52.843  1.00  0.00    +0.000 H 
ATOM    122  H17 UNL A   1      20.410  37.242  52.435  1.00  0.00    +0.000 H 
ATOM    123  H18 UNL A   1      20.629  35.399  54.113  1.00  0.00    +0.000 H 
ATOM    124  H19 UNL A   1      19.675  36.802  54.646  1.00  0.00    +0.000 H 
ATOM    125  H20 UNL A   1      22.390  35.972  55.521  1.00  0.00    +0.000 H 
ATOM    126  H21 UNL A   1      20.910  36.252  56.476  1.00  0.00    +0.000 H 
ATOM    127  H22 UNL A   1      22.729  37.972  56.698  1.00  0.00    +0.000 H 
ATOM    128  H23 UNL A   1      21.097  38.537  56.316  1.00  0.00    +0.000 H 
ENDBRANCH   12   13
ENDBRANCH   11   12
ENDBRANCH   10   11
ENDBRANCH    9   10
BRANCH   20   21
ATOM     21  O2  UNL A   1      26.466  36.883  52.393  1.00  0.00    +0.000 O 
BRANCH   21   22
ATOM    132  H27 UNL A   1      26.072  37.623  54.263  1.00  0.00    +0.000 H 
ATOM    133  H28 UNL A   1      26.873  36.072  54.231  1.00  0.00    +0.000 H 
ATOM     22  C18 UNL A   1      26.126  36.678  53.764  1.00  0.00    +0.000 C 
BRANCH   22   23
ATOM    135  H30 UNL A   1      24.181  36.465  54.606  1.00  0.00    +0.000 H 
ATOM    134  H29 UNL A   1      24.279  36.019  52.895  1.00  0.00    +0.000 H 
ATOM     23  C19 UNL A   1      24.754  35.968  53.852  1.00  0.00    +0.000 C 
BRANCH   23   24
ATOM    136  H31 UNL A   1      25.275  34.586  55.249  1.00  0.00    +0.000 H 
ATOM    137  H32 UNL A   1      23.303  33.449  53.239  1.00  0.00    +0.000 H 
ATOM    138  H33 UNL A   1      22.744  34.407  54.569  1.00  0.00    +0.000 H 
ATOM    139  H34 UNL A   1      22.703  32.079  55.254  1.00  0.00    +0.000 H 
ATOM    140  H35 UNL A   1      24.003  32.854  56.114  1.00  0.00    +0.000 H 
ATOM    141  H36 UNL A   1      24.183  31.122  53.671  1.00  0.00    +0.000 H 
ATOM    142  H37 UNL A   1      24.896  30.857  55.279  1.00  0.00    +0.000 H 
ATOM    143  H38 UNL A   1      26.427  31.582  53.358  1.00  0.00    +0.000 H 
ATOM    144  H39 UNL A   1      26.540  32.374  54.962  1.00  0.00    +0.000 H 
ATOM    145  H40 UNL A   1      26.783  34.095  53.382  1.00  0.00    +0.000 H 
ATOM    146  H41 UNL A   1      25.427  33.520  52.439  1.00  0.00    +0.000 H 
ATOM     24  C20 UNL A   1      24.874  34.490  54.262  1.00  0.00    +0.000 C 
ATOM     25  C21 UNL A   1      23.531  33.763  54.236  1.00  0.00    +0.000 C 
ATOM     26  C22 UNL A   1      23.657  32.550  55.147  1.00  0.00    +0.000 C 
ATOM     27  C23 UNL A   1      24.645  31.573  54.524  1.00  0.00    +0.000 C 
ATOM     28  C24 UNL A   1      25.963  32.230  54.073  1.00  0.00    +0.000 C 
ATOM     29  C25 UNL A   1      25.823  33.626  53.427  1.00  0.00    +0.000 C 
ENDBRANCH   23   24
ENDBRANCH   22   23
ENDBRANCH   21   22
ENDBRANCH   20   21
ENDBRANCH    6    7
ENDBRANCH    5    6
ENDBRANCH   31    5
ENDBRANCH   33   31
ENDBRANCH   34   33
ENDBRANCH   35   34
ENDBRANCH   36   35
ENDBRANCH   37   36
ENDBRANCH   38   37
ENDBRANCH   39   38
ENDBRANCH   40   39
ENDBRANCH   41   40
ENDBRANCH   43   41
ENDBRANCH   47   46
BRANCH   51   52
ATOM     52  C42 UNL A   1      17.596  37.523  49.306  1.00  0.00    +0.000 C 
ATOM     53  C43 UNL A   1      17.232  37.522  50.662  1.00  0.00    +0.000 C 
ATOM     54  F1  UNL A   1      18.163  37.707  51.610  1.00  0.00    +0.000 F 
ATOM     55  C44 UNL A   1      15.916  37.287  51.052  1.00  0.00    +0.000 C 
ATOM     56  F2  UNL A   1      15.603  37.239  52.354  1.00  0.00    +0.000 F 
ATOM     57  C45 UNL A   1      14.932  37.089  50.096  1.00  0.00    +0.000 C 
ATOM     58  F3  UNL A   1      13.664  36.872  50.472  1.00  0.00    +0.000 F 
ATOM     59  C46 UNL A   1      15.263  37.108  48.750  1.00  0.00    +0.000 C 
ATOM     60  F4  UNL A   1      14.311  36.930  47.823  1.00  0.00    +0.000 F 
ATOM     61  C47 UNL A   1      16.585  37.310  48.357  1.00  0.00    +0.000 C 
ATOM     62  F5  UNL A   1      16.875  37.305  47.047  1.00  0.00    +0.000 F 
ENDBRANCH   51   52
BRANCH   68   69
ATOM     69  C53 UNL A   1      23.004  33.971  46.123  1.00  0.00    +0.000 C 
ATOM     70  C54 UNL A   1      22.511  33.633  44.855  1.00  0.00    +0.000 C 
ATOM     71  F6  UNL A   1      21.765  34.507  44.164  1.00  0.00    +0.000 F 
ATOM     72  C55 UNL A   1      22.748  32.374  44.310  1.00  0.00    +0.000 C 
ATOM     73  F7  UNL A   1      22.223  32.053  43.119  1.00  0.00    +0.000 F 
ATOM     74  C56 UNL A   1      23.511  31.446  45.002  1.00  0.00    +0.000 C 
ATOM     75  F8  UNL A   1      23.743  30.237  44.473  1.00  0.00    +0.000 F 
ATOM     76  C57 UNL A   1      24.028  31.768  46.248  1.00  0.00    +0.000 C 
ATOM     77  F9  UNL A   1      24.779  30.879  46.912  1.00  0.00    +0.000 F 
ATOM     78  C58 UNL A   1      23.767  33.014  46.810  1.00  0.00    +0.000 C 
ATOM     79  F10 UNL A   1      24.268  33.291  48.023  1.00  0.00    +0.000 F 
ENDBRANCH   68   69
BRANCH   83   84
ATOM     84  C62 UNL A   1      27.016  39.636  46.698  1.00  0.00    +0.000 C 
ATOM     85  C63 UNL A   1      27.304  40.392  45.552  1.00  0.00    +0.000 C 
ATOM     86  F11 UNL A   1      26.304  40.858  44.788  1.00  0.00    +0.000 F 
ATOM     87  C64 UNL A   1      28.619  40.632  45.158  1.00  0.00    +0.000 C 
ATOM     88  F12 UNL A   1      28.865  41.309  44.029  1.00  0.00    +0.000 F 
ATOM     89  C65 UNL A   1      29.672  40.149  45.922  1.00  0.00    +0.000 C 
ATOM     90  F13 UNL A   1      30.936  40.377  45.541  1.00  0.00    +0.000 F 
ATOM     91  C66 UNL A   1      29.411  39.421  47.072  1.00  0.00    +0.000 C 
ATOM     92  F14 UNL A   1      30.426  38.965  47.820  1.00  0.00    +0.000 F 
ATOM     93  C67 UNL A   1      28.097  39.156  47.450  1.00  0.00    +0.000 C 
ATOM     94  F15 UNL A   1      27.876  38.433  48.558  1.00  0.00    +0.000 F 
ENDBRANCH   83   84
TORSDOF 29
ENDMDL
MODEL 10
REMARK VINA RESULT:      -7.2     52.689     57.619
ROOT
ATOM    163  H58 UNL A   1      21.960  -9.664  31.786  1.00  0.00    +0.000 H 
ATOM    164  H59 UNL A   1      22.926 -10.206  29.426  1.00  0.00    +0.000 H 
ATOM    165  H60 UNL A   1      25.255 -12.128  32.258  1.00  0.00    +0.000 H 
ATOM    166  H61 UNL A   1      30.333 -15.737  33.691  1.00  0.00    +0.000 H 
ATOM    167  H62 UNL A   1      29.353 -15.253  35.985  1.00  0.00    +0.000 H 
ATOM    168  H63 UNL A   1      26.972 -13.348  33.160  1.00  0.00    +0.000 H 
ATOM    169  H64 UNL A   1      28.923 -14.490  28.682  1.00  0.00    +0.000 H 
ATOM    170  H65 UNL A   1      27.185 -12.911  27.669  1.00  0.00    +0.000 H 
ATOM    171  H66 UNL A   1      23.233 -11.261  36.751  1.00  0.00    +0.000 H 
ATOM    172  H67 UNL A   1      25.281 -12.361  37.825  1.00  0.00    +0.000 H 
ATOM     47  C38 UNL A   1      27.051 -13.569  35.945  1.00  0.00    +0.000 C 
ATOM     48  C39 UNL A   1      25.839 -12.726  35.657  1.00  0.00    +0.000 C 
ATOM     49  N5  UNL A   1      25.337 -12.362  34.504  1.00  0.00    +0.000 N 
ATOM     50  C40 UNL A   1      24.194 -11.632  34.805  1.00  0.00    +0.000 C 
ATOM     51  C41 UNL A   1      23.364 -10.975  33.961  1.00  0.00    +0.000 C 
ATOM     63  C48 UNL A   1      23.539 -10.930  32.533  1.00  0.00    +0.000 C 
ATOM     64  C49 UNL A   1      22.777 -10.262  31.589  1.00  0.00    +0.000 C 
ATOM     65  C50 UNL A   1      23.307 -10.538  30.325  1.00  0.00    +0.000 C 
ATOM     66  C51 UNL A   1      24.430 -11.333  30.485  1.00  0.00    +0.000 C 
ATOM     67  N6  UNL A   1      24.553 -11.577  31.843  1.00  0.00    +0.000 N 
ATOM     68  C52 UNL A   1      25.327 -11.830  29.473  1.00  0.00    +0.000 C 
ATOM     80  C59 UNL A   1      26.395 -12.633  29.705  1.00  0.00    +0.000 C 
ATOM     81  N7  UNL A   1      26.873 -13.126  30.912  1.00  0.00    +0.000 N 
ATOM     82  C60 UNL A   1      27.919 -13.858  30.613  1.00  0.00    +0.000 C 
ATOM     83  C61 UNL A   1      28.858 -14.598  31.530  1.00  0.00    +0.000 C 
ATOM     95  C68 UNL A   1      28.661 -14.530  32.859  1.00  0.00    +0.000 C 
ATOM     96  C69 UNL A   1      29.490 -15.171  33.876  1.00  0.00    +0.000 C 
ATOM     97  C70 UNL A   1      28.978 -14.906  35.089  1.00  0.00    +0.000 C 
ATOM     98  C71 UNL A   1      27.803 -14.047  34.935  1.00  0.00    +0.000 C 
ATOM     99  N8  UNL A   1      27.687 -13.882  33.578  1.00  0.00    +0.000 N 
ATOM    100  C72 UNL A   1      28.197 -13.946  29.173  1.00  0.00    +0.000 C 
ATOM    101  C73 UNL A   1      27.271 -13.142  28.671  1.00  0.00    +0.000 C 
ATOM    102  C74 UNL A   1      24.040 -11.657  36.243  1.00  0.00    +0.000 C 
ATOM    103  C75 UNL A   1      25.070 -12.254  36.821  1.00  0.00    +0.000 C 
ENDROOT
BRANCH   47   46
ATOM    161  H56 UNL A   1      26.393 -15.818  39.927  1.00  0.00    +0.000 H 
ATOM    162  H57 UNL A   1      25.801 -15.273  37.638  1.00  0.00    +0.000 H 
ATOM    104  C76 UNL A   1      28.533 -13.343  37.938  1.00  0.00    +0.000 C 
ATOM    105  C77 UNL A   1      28.922 -13.727  39.215  1.00  0.00    +0.000 C 
ATOM     43  C34 UNL A   1      28.118 -14.598  39.957  1.00  0.00    +0.000 C 
ATOM     44  C35 UNL A   1      26.977 -15.162  39.384  1.00  0.00    +0.000 C 
ATOM     45  C36 UNL A   1      26.627 -14.834  38.075  1.00  0.00    +0.000 C 
ATOM    174  H69 UNL A   1      29.805 -13.372  39.616  1.00  0.00    +0.000 H 
ATOM    173  H68 UNL A   1      29.082 -12.636  37.422  1.00  0.00    +0.000 H 
ATOM     46  C37 UNL A   1      27.395 -13.911  37.346  1.00  0.00    +0.000 C 
BRANCH   43   41
ATOM     41  C33 UNL A   1      28.479 -14.969  41.341  1.00  0.00    +0.000 C 
ATOM     42  O4  UNL A   1      29.657 -15.146  41.641  1.00  0.00    +0.000 O 
BRANCH   41   40
ATOM    160  H55 UNL A   1      26.610 -14.770  42.031  1.00  0.00    +0.000 H 
ATOM     40  N4  UNL A   1      27.499 -15.110  42.285  1.00  0.00    +0.000 N 
BRANCH   40   39
ATOM    159  H54 UNL A   1      26.976 -15.117  44.274  1.00  0.00    +0.000 H 
ATOM    158  H53 UNL A   1      28.612 -15.676  43.931  1.00  0.00    +0.000 H 
ATOM     39  C32 UNL A   1      27.590 -15.693  43.614  1.00  0.00    +0.000 C 
BRANCH   39   38
ATOM    156  H51 UNL A   1      26.791 -17.370  44.633  1.00  0.00    +0.000 H 
ATOM    157  H52 UNL A   1      26.282 -17.187  42.936  1.00  0.00    +0.000 H 
ATOM     38  C31 UNL A   1      27.091 -17.132  43.634  1.00  0.00    +0.000 C 
BRANCH   38   37
ATOM    154  H49 UNL A   1      28.044 -18.285  42.125  1.00  0.00    +0.000 H 
ATOM    155  H50 UNL A   1      29.084 -17.780  43.488  1.00  0.00    +0.000 H 
ATOM     37  C30 UNL A   1      28.131 -18.162  43.185  1.00  0.00    +0.000 C 
BRANCH   37   36
ATOM    153  H48 UNL A   1      27.431 -19.400  44.739  1.00  0.00    +0.000 H 
ATOM     36  C29 UNL A   1      27.992 -19.543  43.839  1.00  0.00    +0.000 C 
ATOM    152  H47 UNL A   1      28.974 -19.930  44.017  1.00  0.00    +0.000 H 
BRANCH   36   35
ATOM     35  C28 UNL A   1      27.221 -20.562  42.998  1.00  0.00    +0.000 C 
ATOM    150  H45 UNL A   1      27.646 -21.530  43.160  1.00  0.00    +0.000 H 
ATOM    151  H46 UNL A   1      26.196 -20.522  43.304  1.00  0.00    +0.000 H 
BRANCH   35   34
ATOM     34  C27 UNL A   1      27.266 -20.253  41.503  1.00  0.00    +0.000 C 
ATOM    148  H43 UNL A   1      27.798 -19.338  41.350  1.00  0.00    +0.000 H 
ATOM    149  H44 UNL A   1      27.760 -21.058  41.001  1.00  0.00    +0.000 H 
BRANCH   34   33
ATOM     33  N3  UNL A   1      25.921 -20.120  40.963  1.00  0.00    +0.000 N 
ATOM    147  H42 UNL A   1      25.198 -20.263  41.616  1.00  0.00    +0.000 H 
BRANCH   33   31
ATOM     31  C26 UNL A   1      25.498 -19.829  39.692  1.00  0.00    +0.000 C 
ATOM     32  O3  UNL A   1      25.414 -20.760  38.885  1.00  0.00    +0.000 O 
BRANCH   31    5
ATOM    115  H10 UNL A   1      25.747 -17.546  39.529  1.00  0.00    +0.000 H 
ATOM      5  C5  UNL A   1      25.128 -18.385  39.291  1.00  0.00    +0.000 C 
BRANCH    5    4
ATOM    113  H8  UNL A   1      26.214 -18.052  37.499  1.00  0.00    +0.000 H 
ATOM    114  H9  UNL A   1      24.849 -19.291  37.455  1.00  0.00    +0.000 H 
ATOM      4  C4  UNL A   1      25.207 -18.323  37.738  1.00  0.00    +0.000 C 
BRANCH    4    3
ATOM      3  C3  UNL A   1      24.310 -17.397  36.919  1.00  0.00    +0.000 C 
ATOM    111  H6  UNL A   1      23.405 -17.926  36.710  1.00  0.00    +0.000 H 
ATOM    112  H7  UNL A   1      24.193 -16.520  37.521  1.00  0.00    +0.000 H 
BRANCH    3    2
ATOM      2  C2  UNL A   1      24.864 -16.890  35.588  1.00  0.00    +0.000 C 
ATOM    109  H4  UNL A   1      24.204 -17.200  34.805  1.00  0.00    +0.000 H 
ATOM    110  H5  UNL A   1      24.932 -15.824  35.656  1.00  0.00    +0.000 H 
BRANCH    2    1
ATOM      1  C1  UNL A   1      26.255 -17.414  35.282  1.00  0.00    +0.000 C 
ATOM    106  H1  UNL A   1      26.659 -17.884  36.155  1.00  0.00    +0.000 H 
ATOM    107  H2  UNL A   1      26.886 -16.601  34.992  1.00  0.00    +0.000 H 
ATOM    108  H3  UNL A   1      26.201 -18.127  34.486  1.00  0.00    +0.000 H 
ENDBRANCH    2    1
ENDBRANCH    3    2
ENDBRANCH    4    3
ENDBRANCH    5    4
BRANCH    5    6
ATOM      6  S1  UNL A   1      23.566 -18.082  40.288  1.00  0.00    +0.000 S 
BRANCH    6    7
ATOM    131  H26 UNL A   1      22.135 -13.464  42.289  1.00  0.00    +0.000 H 
ATOM      7  C6  UNL A   1      23.616 -16.365  40.670  1.00  0.00    +0.000 C 
ATOM      8  N1  UNL A   1      24.115 -16.033  41.879  1.00  0.00    +0.000 N 
ATOM      9  C7  UNL A   1      23.650 -14.901  42.416  1.00  0.00    +0.000 C 
ATOM     19  C16 UNL A   1      22.669 -14.192  41.789  1.00  0.00    +0.000 C 
ATOM     20  C17 UNL A   1      22.417 -14.477  40.481  1.00  0.00    +0.000 C 
ATOM     30  N2  UNL A   1      22.890 -15.567  39.895  1.00  0.00    +0.000 N 
BRANCH    9   10
ATOM     10  O1  UNL A   1      24.232 -14.513  43.600  1.00  0.00    +0.000 O 
BRANCH   10   11
ATOM     11  C8  UNL A   1      23.383 -14.138  44.694  1.00  0.00    +0.000 C 
ATOM    116  H11 UNL A   1      23.839 -14.492  45.594  1.00  0.00    +0.000 H 
ATOM    117  H12 UNL A   1      22.431 -14.574  44.473  1.00  0.00    +0.000 H 
BRANCH   11   12
ATOM     12  C9  UNL A   1      23.105 -12.621  44.871  1.00  0.00    +0.000 C 
ATOM    118  H13 UNL A   1      22.116 -12.517  45.266  1.00  0.00    +0.000 H 
ATOM    119  H14 UNL A   1      23.246 -12.195  43.899  1.00  0.00    +0.000 H 
BRANCH   12   13
ATOM    129  H24 UNL A   1      25.200 -13.590  46.260  1.00  0.00    +0.000 H 
ATOM    130  H25 UNL A   1      24.116 -13.084  47.533  1.00  0.00    +0.000 H 
ATOM     13  C10 UNL A   1      24.058 -11.842  45.791  1.00  0.00    +0.000 C 
ATOM     14  C11 UNL A   1      23.399 -10.688  46.562  1.00  0.00    +0.000 C 
ATOM     15  C12 UNL A   1      24.466  -9.853  47.282  1.00  0.00    +0.000 C 
ATOM     16  C13 UNL A   1      25.438 -10.687  48.119  1.00  0.00    +0.000 C 
ATOM     17  C14 UNL A   1      25.931 -11.961  47.432  1.00  0.00    +0.000 C 
ATOM     18  C15 UNL A   1      24.797 -12.746  46.779  1.00  0.00    +0.000 C 
ATOM    120  H15 UNL A   1      24.763 -11.412  45.110  1.00  0.00    +0.000 H 
ATOM    121  H16 UNL A   1      22.717 -11.089  47.283  1.00  0.00    +0.000 H 
ATOM    122  H17 UNL A   1      22.874 -10.063  45.871  1.00  0.00    +0.000 H 
ATOM    123  H18 UNL A   1      23.971  -9.160  47.931  1.00  0.00    +0.000 H 
ATOM    124  H19 UNL A   1      25.043  -9.364  46.526  1.00  0.00    +0.000 H 
ATOM    125  H20 UNL A   1      24.944 -10.967  49.026  1.00  0.00    +0.000 H 
ATOM    126  H21 UNL A   1      26.300 -10.076  48.284  1.00  0.00    +0.000 H 
ATOM    127  H22 UNL A   1      26.406 -12.584  48.162  1.00  0.00    +0.000 H 
ATOM    128  H23 UNL A   1      26.615 -11.673  46.661  1.00  0.00    +0.000 H 
ENDBRANCH   12   13
ENDBRANCH   11   12
ENDBRANCH   10   11
ENDBRANCH    9   10
BRANCH   20   21
ATOM     21  O2  UNL A   1      21.431 -13.831  39.787  1.00  0.00    +0.000 O 
BRANCH   21   22
ATOM    132  H27 UNL A   1      22.684 -13.296  38.255  1.00  0.00    +0.000 H 
ATOM    133  H28 UNL A   1      22.230 -11.998  39.332  1.00  0.00    +0.000 H 
ATOM     22  C18 UNL A   1      21.884 -12.875  38.827  1.00  0.00    +0.000 C 
BRANCH   22   23
ATOM    135  H30 UNL A   1      19.803 -12.672  38.418  1.00  0.00    +0.000 H 
ATOM    134  H29 UNL A   1      20.820 -11.477  37.597  1.00  0.00    +0.000 H 
ATOM     23  C19 UNL A   1      20.714 -12.502  37.885  1.00  0.00    +0.000 C 
BRANCH   23   24
ATOM    136  H31 UNL A   1      20.694 -12.611  35.855  1.00  0.00    +0.000 H 
ATOM    137  H32 UNL A   1      21.664 -15.206  37.102  1.00  0.00    +0.000 H 
ATOM    138  H33 UNL A   1      22.749 -13.871  36.898  1.00  0.00    +0.000 H 
ATOM    139  H34 UNL A   1      22.914 -15.278  34.927  1.00  0.00    +0.000 H 
ATOM    140  H35 UNL A   1      22.096 -13.815  34.458  1.00  0.00    +0.000 H 
ATOM    141  H36 UNL A   1      20.883 -16.488  35.071  1.00  0.00    +0.000 H 
ATOM    142  H37 UNL A   1      20.833 -15.565  33.552  1.00  0.00    +0.000 H 
ATOM    143  H38 UNL A   1      18.724 -15.665  35.001  1.00  0.00    +0.000 H 
ATOM    144  H39 UNL A   1      19.288 -14.106  34.318  1.00  0.00    +0.000 H 
ATOM    145  H40 UNL A   1      18.554 -13.619  36.495  1.00  0.00    +0.000 H 
ATOM    146  H41 UNL A   1      19.404 -14.993  37.167  1.00  0.00    +0.000 H 
ATOM     24  C20 UNL A   1      20.675 -13.366  36.614  1.00  0.00    +0.000 C 
ATOM     25  C21 UNL A   1      21.858 -14.328  36.521  1.00  0.00    +0.000 C 
ATOM     26  C22 UNL A   1      22.022 -14.701  35.054  1.00  0.00    +0.000 C 
ATOM     27  C23 UNL A   1      20.814 -15.520  34.621  1.00  0.00    +0.000 C 
ATOM     28  C24 UNL A   1      19.466 -14.893  35.020  1.00  0.00    +0.000 C 
ATOM     29  C25 UNL A   1      19.428 -14.232  36.416  1.00  0.00    +0.000 C 
ENDBRANCH   23   24
ENDBRANCH   22   23
ENDBRANCH   21   22
ENDBRANCH   20   21
ENDBRANCH    6    7
ENDBRANCH    5    6
ENDBRANCH   31    5
ENDBRANCH   33   31
ENDBRANCH   34   33
ENDBRANCH   35   34
ENDBRANCH   36   35
ENDBRANCH   37   36
ENDBRANCH   38   37
ENDBRANCH   39   38
ENDBRANCH   40   39
ENDBRANCH   41   40
ENDBRANCH   43   41
ENDBRANCH   47   46
BRANCH   51   52
ATOM     52  C42 UNL A   1      22.198 -10.243  34.561  1.00  0.00    +0.000 C 
ATOM     53  C43 UNL A   1      22.359  -9.002  35.199  1.00  0.00    +0.000 C 
ATOM     54  F1  UNL A   1      23.580  -8.462  35.325  1.00  0.00    +0.000 F 
ATOM     55  C44 UNL A   1      21.269  -8.332  35.747  1.00  0.00    +0.000 C 
ATOM     56  F2  UNL A   1      21.454  -7.174  36.396  1.00  0.00    +0.000 F 
ATOM     57  C45 UNL A   1      19.995  -8.866  35.635  1.00  0.00    +0.000 C 
ATOM     58  F3  UNL A   1      18.945  -8.215  36.156  1.00  0.00    +0.000 F 
ATOM     59  C46 UNL A   1      19.809 -10.079  34.990  1.00  0.00    +0.000 C 
ATOM     60  F4  UNL A   1      18.576 -10.591  34.870  1.00  0.00    +0.000 F 
ATOM     61  C47 UNL A   1      20.901 -10.770  34.470  1.00  0.00    +0.000 C 
ATOM     62  F5  UNL A   1      20.690 -11.950  33.867  1.00  0.00    +0.000 F 
ENDBRANCH   51   52
BRANCH   68   69
ATOM     69  C53 UNL A   1      25.083 -11.403  28.055  1.00  0.00    +0.000 C 
ATOM     70  C54 UNL A   1      25.630 -10.223  27.532  1.00  0.00    +0.000 C 
ATOM     71  F6  UNL A   1      26.359  -9.412  28.313  1.00  0.00    +0.000 F 
ATOM     72  C55 UNL A   1      25.392  -9.849  26.212  1.00  0.00    +0.000 C 
ATOM     73  F7  UNL A   1      25.880  -8.691  25.748  1.00  0.00    +0.000 F 
ATOM     74  C56 UNL A   1      24.637 -10.664  25.382  1.00  0.00    +0.000 C 
ATOM     75  F8  UNL A   1      24.414 -10.305  24.110  1.00  0.00    +0.000 F 
ATOM     76  C57 UNL A   1      24.106 -11.848  25.872  1.00  0.00    +0.000 C 
ATOM     77  F9  UNL A   1      23.389 -12.644  25.068  1.00  0.00    +0.000 F 
ATOM     78  C58 UNL A   1      24.315 -12.209  27.200  1.00  0.00    +0.000 C 
ATOM     79  F10 UNL A   1      23.775 -13.352  27.649  1.00  0.00    +0.000 F 
ENDBRANCH   68   69
BRANCH   83   84
ATOM     84  C62 UNL A   1      30.008 -15.364  30.983  1.00  0.00    +0.000 C 
ATOM     85  C63 UNL A   1      31.230 -14.730  30.715  1.00  0.00    +0.000 C 
ATOM     86  F11 UNL A   1      31.370 -13.417  30.953  1.00  0.00    +0.000 F 
ATOM     87  C64 UNL A   1      32.297 -15.430  30.155  1.00  0.00    +0.000 C 
ATOM     88  F12 UNL A   1      33.434 -14.787  29.857  1.00  0.00    +0.000 F 
ATOM     89  C65 UNL A   1      32.174 -16.785  29.885  1.00  0.00    +0.000 C 
ATOM     90  F13 UNL A   1      33.199 -17.457  29.343  1.00  0.00    +0.000 F 
ATOM     91  C66 UNL A   1      30.984 -17.438  30.166  1.00  0.00    +0.000 C 
ATOM     92  F14 UNL A   1      30.867 -18.750  29.918  1.00  0.00    +0.000 F 
ATOM     93  C67 UNL A   1      29.907 -16.732  30.697  1.00  0.00    +0.000 C 
ATOM     94  F15 UNL A   1      28.762 -17.387  30.942  1.00  0.00    +0.000 F 
ENDBRANCH   83   84
TORSDOF 29
ENDMDL
