MODEL 1
REMARK VINA RESULT:      -9.5      0.000      0.000
ROOT
ATOM    129  H38 UNL A   1      28.965  34.738  43.033  1.00  0.00    +0.000 H 
ATOM    130  H39 UNL A   1      26.514  34.843  43.764  1.00  0.00    +0.000 H 
ATOM     33  C24 UNL A   1      26.003  36.788  45.783  1.00  0.00    +0.000 C 
ATOM     34  C25 UNL A   1      27.290  36.549  45.042  1.00  0.00    +0.000 C 
ATOM     35  N5  UNL A   1      28.437  37.169  45.152  1.00  0.00    +0.000 N 
ATOM     36  C26 UNL A   1      29.302  36.522  44.278  1.00  0.00    +0.000 C 
ATOM     37  C27 UNL A   1      30.589  36.823  43.985  1.00  0.00    +0.000 C 
ATOM     49  C34 UNL A   1      31.315  37.927  44.557  1.00  0.00    +0.000 C 
ATOM     50  C35 UNL A   1      32.604  38.348  44.280  1.00  0.00    +0.000 C 
ATOM     51  C36 UNL A   1      32.896  39.437  45.107  1.00  0.00    +0.000 C 
ATOM     52  C37 UNL A   1      31.773  39.725  45.864  1.00  0.00    +0.000 C 
ATOM     53  N6  UNL A   1      30.812  38.786  45.521  1.00  0.00    +0.000 N 
ATOM     54  C38 UNL A   1      31.588  40.777  46.829  1.00  0.00    +0.000 C 
ATOM     66  C45 UNL A   1      30.451  40.992  47.536  1.00  0.00    +0.000 C 
ATOM     67  N7  UNL A   1      29.250  40.298  47.487  1.00  0.00    +0.000 N 
ATOM     68  C46 UNL A   1      28.463  40.879  48.360  1.00  0.00    +0.000 C 
ATOM     69  C47 UNL A   1      27.031  40.566  48.703  1.00  0.00    +0.000 C 
ATOM     81  C54 UNL A   1      26.396  39.576  48.047  1.00  0.00    +0.000 C 
ATOM     82  C55 UNL A   1      25.015  39.160  48.273  1.00  0.00    +0.000 C 
ATOM     83  C56 UNL A   1      24.741  38.104  47.490  1.00  0.00    +0.000 C 
ATOM     84  C57 UNL A   1      25.917  37.793  46.676  1.00  0.00    +0.000 C 
ATOM     85  N8  UNL A   1      26.844  38.730  47.062  1.00  0.00    +0.000 N 
ATOM     86  C58 UNL A   1      29.092  41.991  49.087  1.00  0.00    +0.000 C 
ATOM     87  C59 UNL A   1      30.287  42.044  48.517  1.00  0.00    +0.000 C 
ATOM     88  C60 UNL A   1      28.560  35.433  43.678  1.00  0.00    +0.000 C 
ATOM     89  C61 UNL A   1      27.293  35.448  44.067  1.00  0.00    +0.000 C 
ATOM    121  H30 UNL A   1      33.241  37.929  43.583  1.00  0.00    +0.000 H 
ATOM    122  H31 UNL A   1      33.796  39.941  45.146  1.00  0.00    +0.000 H 
ATOM    123  H32 UNL A   1      29.907  38.738  45.906  1.00  0.00    +0.000 H 
ATOM    124  H33 UNL A   1      24.356  39.606  48.930  1.00  0.00    +0.000 H 
ATOM    125  H34 UNL A   1      23.845  37.595  47.465  1.00  0.00    +0.000 H 
ATOM    126  H35 UNL A   1      27.746  38.790  46.669  1.00  0.00    +0.000 H 
ATOM    127  H36 UNL A   1      28.705  42.575  49.843  1.00  0.00    +0.000 H 
ATOM    128  H37 UNL A   1      31.010  42.745  48.744  1.00  0.00    +0.000 H 
ENDROOT
BRANCH   33   32
ATOM    131  H40 UNL A   1      23.877  37.118  44.188  1.00  0.00    +0.000 H 
ATOM    132  H41 UNL A   1      21.946  35.679  43.914  1.00  0.00    +0.000 H 
ATOM    119  H28 UNL A   1      23.660  32.868  46.531  1.00  0.00    +0.000 H 
ATOM    120  H29 UNL A   1      25.485  34.404  46.981  1.00  0.00    +0.000 H 
ATOM     90  C62 UNL A   1      23.824  36.224  44.703  1.00  0.00    +0.000 C 
ATOM     91  C63 UNL A   1      22.734  35.378  44.509  1.00  0.00    +0.000 C 
ATOM     29  C20 UNL A   1      22.708  34.124  45.123  1.00  0.00    +0.000 C 
ATOM     30  C21 UNL A   1      23.705  33.773  46.038  1.00  0.00    +0.000 C 
ATOM     31  C22 UNL A   1      24.763  34.652  46.285  1.00  0.00    +0.000 C 
ATOM     32  C23 UNL A   1      24.851  35.870  45.592  1.00  0.00    +0.000 C 
BRANCH   29   27
ATOM     27  C19 UNL A   1      21.630  33.151  44.834  1.00  0.00    +0.000 C 
ATOM     28  O5  UNL A   1      21.699  32.016  45.297  1.00  0.00    +0.000 O 
BRANCH   27   26
ATOM     26  N4  UNL A   1      20.571  33.507  44.035  1.00  0.00    +0.000 N 
ATOM    118  H27 UNL A   1      20.805  33.731  43.106  1.00  0.00    +0.000 H 
BRANCH   26   25
ATOM     25  C18 UNL A   1      19.154  33.601  44.356  1.00  0.00    +0.000 C 
ATOM    116  H25 UNL A   1      18.977  33.083  45.276  1.00  0.00    +0.000 H 
ATOM    117  H26 UNL A   1      18.909  34.640  44.432  1.00  0.00    +0.000 H 
BRANCH   25   24
ATOM    114  H23 UNL A   1      17.419  33.641  43.144  1.00  0.00    +0.000 H 
ATOM    115  H24 UNL A   1      18.874  32.909  42.402  1.00  0.00    +0.000 H 
ATOM     24  C17 UNL A   1      18.263  32.996  43.276  1.00  0.00    +0.000 C 
BRANCH   24   23
ATOM    113  H22 UNL A   1      17.282  31.255  42.666  1.00  0.00    +0.000 H 
ATOM     23  C16 UNL A   1      17.742  31.592  43.571  1.00  0.00    +0.000 C 
ATOM    112  H21 UNL A   1      17.069  31.658  44.401  1.00  0.00    +0.000 H 
BRANCH   23   22
ATOM    110  H19 UNL A   1      19.376  30.361  43.024  1.00  0.00    +0.000 H 
ATOM     22  C15 UNL A   1      18.807  30.548  43.911  1.00  0.00    +0.000 C 
ATOM    111  H20 UNL A   1      19.371  30.968  44.717  1.00  0.00    +0.000 H 
BRANCH   22   21
ATOM    109  H18 UNL A   1      17.523  29.423  45.136  1.00  0.00    +0.000 H 
ATOM    108  H17 UNL A   1      19.121  28.671  44.858  1.00  0.00    +0.000 H 
ATOM     21  C14 UNL A   1      18.295  29.198  44.430  1.00  0.00    +0.000 C 
BRANCH   21   20
ATOM    106  H15 UNL A   1      16.796  28.797  42.975  1.00  0.00    +0.000 H 
ATOM    107  H16 UNL A   1      18.397  28.117  42.619  1.00  0.00    +0.000 H 
ATOM     20  C13 UNL A   1      17.657  28.299  43.370  1.00  0.00    +0.000 C 
BRANCH   20   19
ATOM    105  H14 UNL A   1      17.921  26.301  43.985  1.00  0.00    +0.000 H 
ATOM     19  N3  UNL A   1      17.244  27.010  43.890  1.00  0.00    +0.000 N 
BRANCH   19    2
ATOM      1  O1  UNL A   1      15.541  26.783  45.413  1.00  0.00    +0.000 O 
ATOM      2  C1  UNL A   1      15.945  26.734  44.254  1.00  0.00    +0.000 C 
BRANCH    2    3
ATOM      3  C2  UNL A   1      15.027  26.279  43.111  1.00  0.00    +0.000 C 
ATOM     92  H1  UNL A   1      15.468  26.587  42.185  1.00  0.00    +0.000 H 
ATOM     93  H2  UNL A   1      14.073  26.729  43.285  1.00  0.00    +0.000 H 
BRANCH    3    4
ATOM      4  N1  UNL A   1      14.807  24.838  43.055  1.00  0.00    +0.000 N 
ATOM     94  H3  UNL A   1      14.875  24.365  43.915  1.00  0.00    +0.000 H 
BRANCH    4    5
ATOM      5  C3  UNL A   1      14.521  24.053  41.975  1.00  0.00    +0.000 C 
ATOM      6  O2  UNL A   1      14.415  24.594  40.874  1.00  0.00    +0.000 O 
BRANCH    5    7
ATOM     95  H4  UNL A   1      14.482  22.274  43.168  1.00  0.00    +0.000 H 
ATOM      7  C4  UNL A   1      14.382  22.539  42.136  1.00  0.00    +0.000 C 
ATOM     96  H5  UNL A   1      15.144  22.039  41.576  1.00  0.00    +0.000 H 
BRANCH    7    8
ATOM     97  H6  UNL A   1      12.309  22.684  41.961  1.00  0.00    +0.000 H 
ATOM      8  N2  UNL A   1      13.073  22.144  41.656  1.00  0.00    +0.000 N 
BRANCH    8    9
ATOM      9  C5  UNL A   1      12.790  21.105  40.827  1.00  0.00    +0.000 C 
ATOM     10  O3  UNL A   1      12.536  20.001  41.286  1.00  0.00    +0.000 O 
BRANCH    9   11
ATOM     11  O4  UNL A   1      12.800  21.437  39.516  1.00  0.00    +0.000 O 
BRANCH   11   12
ATOM     98  H7  UNL A   1      13.686  20.175  38.165  1.00  0.00    +0.000 H 
ATOM     99  H8  UNL A   1      14.711  20.722  39.494  1.00  0.00    +0.000 H 
ATOM     12  C6  UNL A   1      13.959  21.001  38.786  1.00  0.00    +0.000 C 
BRANCH   12   13
ATOM    100  H9  UNL A   1      16.120  20.942  37.160  1.00  0.00    +0.000 H 
ATOM    101  H10 UNL A   1      17.119  22.727  35.870  1.00  0.00    +0.000 H 
ATOM    102  H11 UNL A   1      16.079  24.919  35.825  1.00  0.00    +0.000 H 
ATOM    103  H12 UNL A   1      14.046  25.320  37.085  1.00  0.00    +0.000 H 
ATOM    104  H13 UNL A   1      13.076  23.552  38.432  1.00  0.00    +0.000 H 
ATOM     13  C7  UNL A   1      14.523  22.100  37.917  1.00  0.00    +0.000 C 
ATOM     14  C8  UNL A   1      15.684  21.876  37.160  1.00  0.00    +0.000 C 
ATOM     15  C9  UNL A   1      16.255  22.901  36.408  1.00  0.00    +0.000 C 
ATOM     16  C10 UNL A   1      15.660  24.158  36.384  1.00  0.00    +0.000 C 
ATOM     17  C11 UNL A   1      14.494  24.390  37.114  1.00  0.00    +0.000 C 
ATOM     18  C12 UNL A   1      13.932  23.369  37.884  1.00  0.00    +0.000 C 
ENDBRANCH   12   13
ENDBRANCH   11   12
ENDBRANCH    9   11
ENDBRANCH    8    9
ENDBRANCH    7    8
ENDBRANCH    5    7
ENDBRANCH    4    5
ENDBRANCH    3    4
ENDBRANCH    2    3
ENDBRANCH   19    2
ENDBRANCH   20   19
ENDBRANCH   21   20
ENDBRANCH   22   21
ENDBRANCH   23   22
ENDBRANCH   24   23
ENDBRANCH   25   24
ENDBRANCH   26   25
ENDBRANCH   27   26
ENDBRANCH   29   27
ENDBRANCH   33   32
BRANCH   37   38
ATOM     38  C28 UNL A   1      31.300  35.948  42.995  1.00  0.00    +0.000 C 
ATOM     39  C29 UNL A   1      31.885  34.731  43.377  1.00  0.00    +0.000 C 
ATOM     40  F1  UNL A   1      31.868  34.348  44.663  1.00  0.00    +0.000 F 
ATOM     41  C30 UNL A   1      32.523  33.917  42.444  1.00  0.00    +0.000 C 
ATOM     42  F2  UNL A   1      33.112  32.781  42.840  1.00  0.00    +0.000 F 
ATOM     43  C31 UNL A   1      32.557  34.286  41.108  1.00  0.00    +0.000 C 
ATOM     44  F3  UNL A   1      33.162  33.497  40.209  1.00  0.00    +0.000 F 
ATOM     45  C32 UNL A   1      31.969  35.475  40.704  1.00  0.00    +0.000 C 
ATOM     46  F4  UNL A   1      31.990  35.826  39.410  1.00  0.00    +0.000 F 
ATOM     47  C33 UNL A   1      31.357  36.305  41.639  1.00  0.00    +0.000 C 
ATOM     48  F5  UNL A   1      30.807  37.455  41.219  1.00  0.00    +0.000 F 
ENDBRANCH   37   38
BRANCH   54   55
ATOM     65  F10 UNL A   1      31.639  43.417  45.785  1.00  0.00    +0.000 F 
ATOM     55  C39 UNL A   1      32.730  41.725  47.055  1.00  0.00    +0.000 C 
ATOM     56  C40 UNL A   1      33.868  41.348  47.782  1.00  0.00    +0.000 C 
ATOM     57  F6  UNL A   1      33.935  40.134  48.350  1.00  0.00    +0.000 F 
ATOM     58  C41 UNL A   1      34.928  42.234  47.960  1.00  0.00    +0.000 C 
ATOM     59  F7  UNL A   1      35.987  41.868  48.695  1.00  0.00    +0.000 F 
ATOM     60  C42 UNL A   1      34.885  43.496  47.387  1.00  0.00    +0.000 C 
ATOM     61  F8  UNL A   1      35.910  44.344  47.552  1.00  0.00    +0.000 F 
ATOM     62  C43 UNL A   1      33.775  43.883  46.650  1.00  0.00    +0.000 C 
ATOM     63  F9  UNL A   1      33.738  45.098  46.085  1.00  0.00    +0.000 F 
ATOM     64  C44 UNL A   1      32.702  43.011  46.495  1.00  0.00    +0.000 C 
ENDBRANCH   54   55
BRANCH   69   70
ATOM     70  C48 UNL A   1      26.312  41.354  49.738  1.00  0.00    +0.000 C 
ATOM     71  C49 UNL A   1      26.308  40.944  51.079  1.00  0.00    +0.000 C 
ATOM     72  F11 UNL A   1      26.953  39.824  51.437  1.00  0.00    +0.000 F 
ATOM     73  C50 UNL A   1      25.604  41.655  52.048  1.00  0.00    +0.000 C 
ATOM     74  F12 UNL A   1      25.576  41.213  53.312  1.00  0.00    +0.000 F 
ATOM     75  C51 UNL A   1      24.915  42.808  51.702  1.00  0.00    +0.000 C 
ATOM     76  F13 UNL A   1      24.238  43.491  52.634  1.00  0.00    +0.000 F 
ATOM     77  C52 UNL A   1      24.923  43.245  50.386  1.00  0.00    +0.000 C 
ATOM     78  F14 UNL A   1      24.270  44.366  50.050  1.00  0.00    +0.000 F 
ATOM     79  C53 UNL A   1      25.603  42.518  49.411  1.00  0.00    +0.000 C 
ATOM     80  F15 UNL A   1      25.579  42.956  48.143  1.00  0.00    +0.000 F 
ENDBRANCH   69   70
TORSDOF 23
ENDMDL
MODEL 2
REMARK VINA RESULT:      -9.4      1.368      2.480
ROOT
ATOM    129  H38 UNL A   1      29.044  34.705  43.157  1.00  0.00    +0.000 H 
ATOM    130  H39 UNL A   1      26.588  34.925  43.844  1.00  0.00    +0.000 H 
ATOM     33  C24 UNL A   1      26.119  36.958  45.786  1.00  0.00    +0.000 C 
ATOM     34  C25 UNL A   1      27.407  36.646  45.074  1.00  0.00    +0.000 C 
ATOM     35  N5  UNL A   1      28.575  37.227  45.181  1.00  0.00    +0.000 N 
ATOM     36  C26 UNL A   1      29.428  36.518  44.344  1.00  0.00    +0.000 C 
ATOM     37  C27 UNL A   1      30.729  36.762  44.062  1.00  0.00    +0.000 C 
ATOM     49  C34 UNL A   1      31.487  37.858  44.607  1.00  0.00    +0.000 C 
ATOM     50  C35 UNL A   1      32.795  38.222  44.336  1.00  0.00    +0.000 C 
ATOM     51  C36 UNL A   1      33.114  39.328  45.129  1.00  0.00    +0.000 C 
ATOM     52  C37 UNL A   1      31.991  39.683  45.858  1.00  0.00    +0.000 C 
ATOM     53  N6  UNL A   1      31.002  38.769  45.532  1.00  0.00    +0.000 N 
ATOM     54  C38 UNL A   1      31.831  40.775  46.783  1.00  0.00    +0.000 C 
ATOM     66  C45 UNL A   1      30.693  41.056  47.463  1.00  0.00    +0.000 C 
ATOM     67  N7  UNL A   1      29.468  40.405  47.419  1.00  0.00    +0.000 N 
ATOM     68  C46 UNL A   1      28.689  41.044  48.258  1.00  0.00    +0.000 C 
ATOM     69  C47 UNL A   1      27.242  40.796  48.589  1.00  0.00    +0.000 C 
ATOM     81  C54 UNL A   1      26.581  39.807  47.957  1.00  0.00    +0.000 C 
ATOM     82  C55 UNL A   1      25.182  39.450  48.175  1.00  0.00    +0.000 C 
ATOM     83  C56 UNL A   1      24.881  38.379  47.424  1.00  0.00    +0.000 C 
ATOM     84  C57 UNL A   1      26.057  37.996  46.642  1.00  0.00    +0.000 C 
ATOM     85  N8  UNL A   1      27.012  38.912  47.010  1.00  0.00    +0.000 N 
ATOM     86  C58 UNL A   1      29.348  42.158  48.956  1.00  0.00    +0.000 C 
ATOM     87  C59 UNL A   1      30.553  42.147  48.404  1.00  0.00    +0.000 C 
ATOM     88  C60 UNL A   1      28.655  35.437  43.770  1.00  0.00    +0.000 C 
ATOM     89  C61 UNL A   1      27.384  35.511  44.138  1.00  0.00    +0.000 C 
ATOM    121  H30 UNL A   1      33.426  37.756  43.665  1.00  0.00    +0.000 H 
ATOM    122  H31 UNL A   1      34.032  39.800  45.166  1.00  0.00    +0.000 H 
ATOM    123  H32 UNL A   1      30.090  38.767  45.904  1.00  0.00    +0.000 H 
ATOM    124  H33 UNL A   1      24.530  39.943  48.805  1.00  0.00    +0.000 H 
ATOM    125  H34 UNL A   1      23.967  37.901  47.403  1.00  0.00    +0.000 H 
ATOM    126  H35 UNL A   1      27.921  38.925  46.630  1.00  0.00    +0.000 H 
ATOM    127  H36 UNL A   1      28.972  42.782  49.686  1.00  0.00    +0.000 H 
ATOM    128  H37 UNL A   1      31.298  42.829  48.618  1.00  0.00    +0.000 H 
ENDROOT
BRANCH   33   32
ATOM    131  H40 UNL A   1      24.124  37.209  44.016  1.00  0.00    +0.000 H 
ATOM    132  H41 UNL A   1      22.144  35.835  43.754  1.00  0.00    +0.000 H 
ATOM    119  H28 UNL A   1      23.533  33.246  46.763  1.00  0.00    +0.000 H 
ATOM    120  H29 UNL A   1      25.400  34.740  47.182  1.00  0.00    +0.000 H 
ATOM     90  C62 UNL A   1      23.991  36.378  44.615  1.00  0.00    +0.000 C 
ATOM     91  C63 UNL A   1      22.874  35.565  44.432  1.00  0.00    +0.000 C 
ATOM     29  C20 UNL A   1      22.743  34.386  45.168  1.00  0.00    +0.000 C 
ATOM     30  C21 UNL A   1      23.657  34.091  46.184  1.00  0.00    +0.000 C 
ATOM     31  C22 UNL A   1      24.740  34.944  46.415  1.00  0.00    +0.000 C 
ATOM     32  C23 UNL A   1      24.936  36.076  45.607  1.00  0.00    +0.000 C 
BRANCH   29   27
ATOM     27  C19 UNL A   1      21.638  33.437  44.905  1.00  0.00    +0.000 C 
ATOM     28  O5  UNL A   1      20.672  33.801  44.241  1.00  0.00    +0.000 O 
BRANCH   27   26
ATOM     26  N4  UNL A   1      21.680  32.164  45.420  1.00  0.00    +0.000 N 
ATOM    118  H27 UNL A   1      21.524  32.099  46.389  1.00  0.00    +0.000 H 
BRANCH   26   25
ATOM     25  C18 UNL A   1      21.919  30.896  44.746  1.00  0.00    +0.000 C 
ATOM    116  H25 UNL A   1      21.702  31.016  43.704  1.00  0.00    +0.000 H 
ATOM    117  H26 UNL A   1      22.943  30.632  44.910  1.00  0.00    +0.000 H 
BRANCH   25   24
ATOM    114  H23 UNL A   1      21.578  28.843  45.130  1.00  0.00    +0.000 H 
ATOM    115  H24 UNL A   1      20.902  29.986  46.331  1.00  0.00    +0.000 H 
ATOM     24  C17 UNL A   1      21.058  29.763  45.296  1.00  0.00    +0.000 C 
BRANCH   24   23
ATOM    113  H22 UNL A   1      19.163  28.885  45.240  1.00  0.00    +0.000 H 
ATOM     23  C16 UNL A   1      19.669  29.639  44.675  1.00  0.00    +0.000 C 
ATOM    112  H21 UNL A   1      19.792  29.396  43.639  1.00  0.00    +0.000 H 
BRANCH   23   22
ATOM    110  H19 UNL A   1      18.530  31.031  45.793  1.00  0.00    +0.000 H 
ATOM     22  C15 UNL A   1      18.789  30.887  44.764  1.00  0.00    +0.000 C 
ATOM    111  H20 UNL A   1      19.372  31.677  44.341  1.00  0.00    +0.000 H 
BRANCH   22   21
ATOM    109  H18 UNL A   1      17.773  30.720  42.933  1.00  0.00    +0.000 H 
ATOM    108  H17 UNL A   1      16.969  31.780  44.127  1.00  0.00    +0.000 H 
ATOM     21  C14 UNL A   1      17.486  30.860  43.954  1.00  0.00    +0.000 C 
BRANCH   21   20
ATOM    106  H15 UNL A   1      17.105  28.805  44.343  1.00  0.00    +0.000 H 
ATOM    107  H16 UNL A   1      16.076  29.946  45.230  1.00  0.00    +0.000 H 
ATOM     20  C13 UNL A   1      16.538  29.711  44.294  1.00  0.00    +0.000 C 
BRANCH   20   19
ATOM    105  H14 UNL A   1      14.564  29.812  43.566  1.00  0.00    +0.000 H 
ATOM     19  N3  UNL A   1      15.478  29.539  43.320  1.00  0.00    +0.000 N 
BRANCH   19    2
ATOM      1  O1  UNL A   1      16.092  29.669  41.112  1.00  0.00    +0.000 O 
ATOM      2  C1  UNL A   1      15.694  29.009  42.068  1.00  0.00    +0.000 C 
BRANCH    2    3
ATOM      3  C2  UNL A   1      15.330  27.525  41.914  1.00  0.00    +0.000 C 
ATOM     92  H1  UNL A   1      14.474  27.325  42.525  1.00  0.00    +0.000 H 
ATOM     93  H2  UNL A   1      16.192  26.965  42.211  1.00  0.00    +0.000 H 
BRANCH    3    4
ATOM      4  N1  UNL A   1      15.019  27.123  40.547  1.00  0.00    +0.000 N 
ATOM     94  H3  UNL A   1      15.308  27.749  39.844  1.00  0.00    +0.000 H 
BRANCH    4    5
ATOM      5  C3  UNL A   1      14.384  25.998  40.105  1.00  0.00    +0.000 C 
ATOM      6  O2  UNL A   1      13.549  25.474  40.843  1.00  0.00    +0.000 O 
BRANCH    5    7
ATOM     95  H4  UNL A   1      15.310  26.119  38.178  1.00  0.00    +0.000 H 
ATOM      7  C4  UNL A   1      14.678  25.441  38.712  1.00  0.00    +0.000 C 
ATOM     96  H5  UNL A   1      13.766  25.318  38.166  1.00  0.00    +0.000 H 
BRANCH    7    8
ATOM     97  H6  UNL A   1      16.188  24.162  39.366  1.00  0.00    +0.000 H 
ATOM      8  N2  UNL A   1      15.345  24.164  38.858  1.00  0.00    +0.000 N 
BRANCH    8    9
ATOM      9  C5  UNL A   1      14.928  22.967  38.368  1.00  0.00    +0.000 C 
ATOM     10  O3  UNL A   1      15.688  22.270  37.711  1.00  0.00    +0.000 O 
BRANCH    9   11
ATOM     11  O4  UNL A   1      13.656  22.656  38.704  1.00  0.00    +0.000 O 
BRANCH   11   12
ATOM     98  H7  UNL A   1      12.775  22.881  40.542  1.00  0.00    +0.000 H 
ATOM     99  H8  UNL A   1      14.424  22.251  40.550  1.00  0.00    +0.000 H 
ATOM     12  C6  UNL A   1      13.472  22.226  40.063  1.00  0.00    +0.000 C 
BRANCH   12   13
ATOM    100  H9  UNL A   1      12.329  20.951  42.157  1.00  0.00    +0.000 H 
ATOM    101  H10 UNL A   1      11.608  18.649  42.345  1.00  0.00    +0.000 H 
ATOM    102  H11 UNL A   1      11.749  17.175  40.424  1.00  0.00    +0.000 H 
ATOM    103  H12 UNL A   1      12.626  18.007  38.321  1.00  0.00    +0.000 H 
ATOM    104  H13 UNL A   1      13.411  20.295  38.146  1.00  0.00    +0.000 H 
ATOM     13  C7  UNL A   1      12.945  20.813  40.141  1.00  0.00    +0.000 C 
ATOM     14  C8  UNL A   1      12.409  20.324  41.343  1.00  0.00    +0.000 C 
ATOM     15  C9  UNL A   1      11.984  19.000  41.450  1.00  0.00    +0.000 C 
ATOM     16  C10 UNL A   1      12.067  18.155  40.348  1.00  0.00    +0.000 C 
ATOM     17  C11 UNL A   1      12.578  18.632  39.141  1.00  0.00    +0.000 C 
ATOM     18  C12 UNL A   1      13.022  19.952  39.039  1.00  0.00    +0.000 C 
ENDBRANCH   12   13
ENDBRANCH   11   12
ENDBRANCH    9   11
ENDBRANCH    8    9
ENDBRANCH    7    8
ENDBRANCH    5    7
ENDBRANCH    4    5
ENDBRANCH    3    4
ENDBRANCH    2    3
ENDBRANCH   19    2
ENDBRANCH   20   19
ENDBRANCH   21   20
ENDBRANCH   22   21
ENDBRANCH   23   22
ENDBRANCH   24   23
ENDBRANCH   25   24
ENDBRANCH   26   25
ENDBRANCH   27   26
ENDBRANCH   29   27
ENDBRANCH   33   32
BRANCH   37   38
ATOM     38  C28 UNL A   1      31.423  35.827  43.115  1.00  0.00    +0.000 C 
ATOM     39  C29 UNL A   1      31.498  36.096  41.740  1.00  0.00    +0.000 C 
ATOM     40  F1  UNL A   1      30.894  37.181  41.230  1.00  0.00    +0.000 F 
ATOM     41  C30 UNL A   1      32.164  35.231  40.875  1.00  0.00    +0.000 C 
ATOM     42  F2  UNL A   1      32.184  35.487  39.559  1.00  0.00    +0.000 F 
ATOM     43  C31 UNL A   1      32.797  34.102  41.371  1.00  0.00    +0.000 C 
ATOM     44  F3  UNL A   1      33.447  33.276  40.539  1.00  0.00    +0.000 F 
ATOM     45  C32 UNL A   1      32.753  33.826  42.730  1.00  0.00    +0.000 C 
ATOM     46  F4  UNL A   1      33.376  32.742  43.212  1.00  0.00    +0.000 F 
ATOM     47  C33 UNL A   1      32.062  34.673  43.593  1.00  0.00    +0.000 C 
ATOM     48  F5  UNL A   1      32.027  34.372  44.900  1.00  0.00    +0.000 F 
ENDBRANCH   37   38
BRANCH   54   55
ATOM     65  F10 UNL A   1      32.137  43.245  45.417  1.00  0.00    +0.000 F 
ATOM     55  C39 UNL A   1      33.004  41.687  46.994  1.00  0.00    +0.000 C 
ATOM     56  C40 UNL A   1      34.047  41.357  47.870  1.00  0.00    +0.000 C 
ATOM     57  F6  UNL A   1      33.989  40.228  48.594  1.00  0.00    +0.000 F 
ATOM     58  C41 UNL A   1      35.139  42.206  48.034  1.00  0.00    +0.000 C 
ATOM     59  F7  UNL A   1      36.104  41.891  48.910  1.00  0.00    +0.000 F 
ATOM     60  C42 UNL A   1      35.224  43.381  47.302  1.00  0.00    +0.000 C 
ATOM     61  F8  UNL A   1      36.280  44.192  47.455  1.00  0.00    +0.000 F 
ATOM     62  C43 UNL A   1      34.211  43.719  46.417  1.00  0.00    +0.000 C 
ATOM     63  F9  UNL A   1      34.298  44.848  45.700  1.00  0.00    +0.000 F 
ATOM     64  C44 UNL A   1      33.105  42.887  46.273  1.00  0.00    +0.000 C 
ENDBRANCH   54   55
BRANCH   69   70
ATOM     70  C48 UNL A   1      26.537  41.646  49.584  1.00  0.00    +0.000 C 
ATOM     71  C49 UNL A   1      26.508  41.290  50.940  1.00  0.00    +0.000 C 
ATOM     72  F11 UNL A   1      27.115  40.166  51.349  1.00  0.00    +0.000 F 
ATOM     73  C50 UNL A   1      25.817  42.060  51.873  1.00  0.00    +0.000 C 
ATOM     74  F12 UNL A   1      25.763  41.669  53.152  1.00  0.00    +0.000 F 
ATOM     75  C51 UNL A   1      25.166  43.218  51.473  1.00  0.00    +0.000 C 
ATOM     76  F13 UNL A   1      24.502  43.958  52.370  1.00  0.00    +0.000 F 
ATOM     77  C52 UNL A   1      25.200  43.602  50.141  1.00  0.00    +0.000 C 
ATOM     78  F14 UNL A   1      24.585  44.728  49.754  1.00  0.00    +0.000 F 
ATOM     79  C53 UNL A   1      25.868  42.817  49.203  1.00  0.00    +0.000 C 
ATOM     80  F15 UNL A   1      25.869  43.205  47.919  1.00  0.00    +0.000 F 
ENDBRANCH   69   70
TORSDOF 23
ENDMDL
MODEL 3
REMARK VINA RESULT:      -9.1      3.986      6.015
ROOT
ATOM    129  H38 UNL A   1      30.154  32.758  44.356  1.00  0.00    +0.000 H 
ATOM    130  H39 UNL A   1      27.602  32.694  44.556  1.00  0.00    +0.000 H 
ATOM     33  C24 UNL A   1      26.495  34.988  45.835  1.00  0.00    +0.000 C 
ATOM     34  C25 UNL A   1      27.929  34.756  45.444  1.00  0.00    +0.000 C 
ATOM     35  N5  UNL A   1      28.966  35.540  45.595  1.00  0.00    +0.000 N 
ATOM     36  C26 UNL A   1      30.054  34.825  45.109  1.00  0.00    +0.000 C 
ATOM     37  C27 UNL A   1      31.343  35.223  44.994  1.00  0.00    +0.000 C 
ATOM     49  C34 UNL A   1      31.828  36.525  45.370  1.00  0.00    +0.000 C 
ATOM     50  C35 UNL A   1      33.105  37.042  45.237  1.00  0.00    +0.000 C 
ATOM     51  C36 UNL A   1      33.113  38.331  45.776  1.00  0.00    +0.000 C 
ATOM     52  C37 UNL A   1      31.831  38.637  46.201  1.00  0.00    +0.000 C 
ATOM     53  N6  UNL A   1      31.053  37.517  45.951  1.00  0.00    +0.000 N 
ATOM     54  C38 UNL A   1      31.348  39.859  46.790  1.00  0.00    +0.000 C 
ATOM     66  C45 UNL A   1      30.070  40.079  47.184  1.00  0.00    +0.000 C 
ATOM     67  N7  UNL A   1      28.974  39.233  47.100  1.00  0.00    +0.000 N 
ATOM     68  C46 UNL A   1      27.967  39.895  47.617  1.00  0.00    +0.000 C 
ATOM     69  C47 UNL A   1      26.527  39.478  47.757  1.00  0.00    +0.000 C 
ATOM     81  C54 UNL A   1      26.140  38.277  47.287  1.00  0.00    +0.000 C 
ATOM     82  C55 UNL A   1      24.784  37.739  47.353  1.00  0.00    +0.000 C 
ATOM     83  C56 UNL A   1      24.781  36.494  46.849  1.00  0.00    +0.000 C 
ATOM     84  C57 UNL A   1      26.129  36.160  46.388  1.00  0.00    +0.000 C 
ATOM     85  N8  UNL A   1      26.865  37.285  46.672  1.00  0.00    +0.000 N 
ATOM     86  C58 UNL A   1      28.323  41.230  48.120  1.00  0.00    +0.000 C 
ATOM     87  C59 UNL A   1      29.605  41.308  47.793  1.00  0.00    +0.000 C 
ATOM     88  C60 UNL A   1      29.559  33.528  44.699  1.00  0.00    +0.000 C 
ATOM     89  C61 UNL A   1      28.241  33.459  44.823  1.00  0.00    +0.000 C 
ATOM    121  H30 UNL A   1      33.913  36.557  44.814  1.00  0.00    +0.000 H 
ATOM    122  H31 UNL A   1      33.936  38.951  45.846  1.00  0.00    +0.000 H 
ATOM    123  H32 UNL A   1      30.093  37.438  46.157  1.00  0.00    +0.000 H 
ATOM    124  H33 UNL A   1      23.961  38.236  47.727  1.00  0.00    +0.000 H 
ATOM    125  H34 UNL A   1      23.959  35.873  46.795  1.00  0.00    +0.000 H 
ATOM    126  H35 UNL A   1      27.821  37.372  46.455  1.00  0.00    +0.000 H 
ATOM    127  H36 UNL A   1      27.730  41.923  48.602  1.00  0.00    +0.000 H 
ATOM    128  H37 UNL A   1      30.197  42.138  47.953  1.00  0.00    +0.000 H 
ENDROOT
BRANCH   33   32
ATOM    131  H40 UNL A   1      24.777  34.586  43.820  1.00  0.00    +0.000 H 
ATOM    132  H41 UNL A   1      23.085  32.867  43.587  1.00  0.00    +0.000 H 
ATOM    119  H28 UNL A   1      24.367  31.106  47.185  1.00  0.00    +0.000 H 
ATOM    120  H29 UNL A   1      25.908  32.949  47.534  1.00  0.00    +0.000 H 
ATOM     90  C62 UNL A   1      24.678  33.858  44.547  1.00  0.00    +0.000 C 
ATOM     91  C63 UNL A   1      23.735  32.846  44.389  1.00  0.00    +0.000 C 
ATOM     29  C20 UNL A   1      23.669  31.804  45.316  1.00  0.00    +0.000 C 
ATOM     30  C21 UNL A   1      24.452  31.849  46.474  1.00  0.00    +0.000 C 
ATOM     31  C22 UNL A   1      25.349  32.903  46.667  1.00  0.00    +0.000 C 
ATOM     32  C23 UNL A   1      25.497  33.897  45.687  1.00  0.00    +0.000 C 
BRANCH   29   27
ATOM     27  C19 UNL A   1      22.769  30.647  45.107  1.00  0.00    +0.000 C 
ATOM     28  O5  UNL A   1      23.072  29.785  44.287  1.00  0.00    +0.000 O 
BRANCH   27   26
ATOM     26  N4  UNL A   1      21.591  30.550  45.807  1.00  0.00    +0.000 N 
ATOM    118  H27 UNL A   1      21.671  30.168  46.710  1.00  0.00    +0.000 H 
BRANCH   26   25
ATOM     25  C18 UNL A   1      20.242  30.930  45.413  1.00  0.00    +0.000 C 
ATOM    116  H25 UNL A   1      19.768  30.085  44.957  1.00  0.00    +0.000 H 
ATOM    117  H26 UNL A   1      19.726  31.246  46.295  1.00  0.00    +0.000 H 
BRANCH   25   24
ATOM    114  H23 UNL A   1      21.132  32.068  43.867  1.00  0.00    +0.000 H 
ATOM    115  H24 UNL A   1      19.346  31.955  43.825  1.00  0.00    +0.000 H 
ATOM     24  C17 UNL A   1      20.220  32.093  44.426  1.00  0.00    +0.000 C 
BRANCH   24   23
ATOM    113  H22 UNL A   1      19.038  33.665  45.132  1.00  0.00    +0.000 H 
ATOM     23  C16 UNL A   1      20.089  33.478  45.054  1.00  0.00    +0.000 C 
ATOM    112  H21 UNL A   1      20.608  34.174  44.427  1.00  0.00    +0.000 H 
BRANCH   23   22
ATOM    110  H19 UNL A   1      20.983  32.654  46.787  1.00  0.00    +0.000 H 
ATOM     22  C15 UNL A   1      20.643  33.619  46.473  1.00  0.00    +0.000 C 
ATOM    111  H20 UNL A   1      21.413  34.357  46.406  1.00  0.00    +0.000 H 
BRANCH   22   21
ATOM    109  H18 UNL A   1      19.635  33.395  48.303  1.00  0.00    +0.000 H 
ATOM    108  H17 UNL A   1      18.721  34.306  47.065  1.00  0.00    +0.000 H 
ATOM     21  C14 UNL A   1      19.667  34.140  47.536  1.00  0.00    +0.000 C 
BRANCH   21   20
ATOM    106  H15 UNL A   1      19.274  35.794  48.814  1.00  0.00    +0.000 H 
ATOM    107  H16 UNL A   1      20.954  35.221  48.813  1.00  0.00    +0.000 H 
ATOM     20  C13 UNL A   1      20.091  35.440  48.220  1.00  0.00    +0.000 C 
BRANCH   20   19
ATOM    105  H14 UNL A   1      21.303  36.382  46.776  1.00  0.00    +0.000 H 
ATOM     19  N3  UNL A   1      20.464  36.482  47.283  1.00  0.00    +0.000 N 
BRANCH   19    2
ATOM      1  O1  UNL A   1      19.545  38.489  47.913  1.00  0.00    +0.000 O 
ATOM      2  C1  UNL A   1      19.697  37.606  47.073  1.00  0.00    +0.000 C 
BRANCH    2    3
ATOM      3  C2  UNL A   1      18.966  37.657  45.724  1.00  0.00    +0.000 C 
ATOM     92  H1  UNL A   1      19.695  37.800  44.953  1.00  0.00    +0.000 H 
ATOM     93  H2  UNL A   1      18.263  38.461  45.786  1.00  0.00    +0.000 H 
BRANCH    3    4
ATOM      4  N1  UNL A   1      18.200  36.456  45.411  1.00  0.00    +0.000 N 
ATOM     94  H3  UNL A   1      18.701  35.739  44.960  1.00  0.00    +0.000 H 
BRANCH    4    5
ATOM      5  C3  UNL A   1      16.884  36.186  45.655  1.00  0.00    +0.000 C 
ATOM      6  O2  UNL A   1      16.181  37.089  46.110  1.00  0.00    +0.000 O 
BRANCH    5    7
ATOM     95  H4  UNL A   1      15.266  34.784  45.590  1.00  0.00    +0.000 H 
ATOM      7  C4  UNL A   1      16.303  34.811  45.326  1.00  0.00    +0.000 C 
ATOM     96  H5  UNL A   1      16.818  34.053  45.878  1.00  0.00    +0.000 H 
BRANCH    7    8
ATOM     97  H6  UNL A   1      16.303  35.350  43.313  1.00  0.00    +0.000 H 
ATOM      8  N2  UNL A   1      16.450  34.577  43.905  1.00  0.00    +0.000 N 
BRANCH    8    9
ATOM      9  C5  UNL A   1      16.772  33.402  43.302  1.00  0.00    +0.000 C 
ATOM     10  O3  UNL A   1      17.627  33.370  42.428  1.00  0.00    +0.000 O 
BRANCH    9   11
ATOM     11  O4  UNL A   1      16.087  32.340  43.783  1.00  0.00    +0.000 O 
BRANCH   11   12
ATOM     98  H7  UNL A   1      15.966  31.732  41.828  1.00  0.00    +0.000 H 
ATOM     99  H8  UNL A   1      14.528  31.452  42.812  1.00  0.00    +0.000 H 
ATOM     12  C6  UNL A   1      15.597  31.429  42.785  1.00  0.00    +0.000 C 
BRANCH   12   13
ATOM    100  H9  UNL A   1      14.229  29.125  42.415  1.00  0.00    +0.000 H 
ATOM    101  H10 UNL A   1      14.866  26.857  42.965  1.00  0.00    +0.000 H 
ATOM    102  H11 UNL A   1      17.069  26.404  43.874  1.00  0.00    +0.000 H 
ATOM    103  H12 UNL A   1      18.625  28.227  44.241  1.00  0.00    +0.000 H 
ATOM    104  H13 UNL A   1      17.969  30.509  43.752  1.00  0.00    +0.000 H 
ATOM     13  C7  UNL A   1      16.039  30.010  43.051  1.00  0.00    +0.000 C 
ATOM     14  C8  UNL A   1      15.160  28.941  42.818  1.00  0.00    +0.000 C 
ATOM     15  C9  UNL A   1      15.529  27.632  43.126  1.00  0.00    +0.000 C 
ATOM     16  C10 UNL A   1      16.792  27.372  43.648  1.00  0.00    +0.000 C 
ATOM     17  C11 UNL A   1      17.684  28.422  43.866  1.00  0.00    +0.000 C 
ATOM     18  C12 UNL A   1      17.308  29.736  43.577  1.00  0.00    +0.000 C 
ENDBRANCH   12   13
ENDBRANCH   11   12
ENDBRANCH    9   11
ENDBRANCH    8    9
ENDBRANCH    7    8
ENDBRANCH    5    7
ENDBRANCH    4    5
ENDBRANCH    3    4
ENDBRANCH    2    3
ENDBRANCH   19    2
ENDBRANCH   20   19
ENDBRANCH   21   20
ENDBRANCH   22   21
ENDBRANCH   23   22
ENDBRANCH   24   23
ENDBRANCH   25   24
ENDBRANCH   26   25
ENDBRANCH   27   26
ENDBRANCH   29   27
ENDBRANCH   33   32
BRANCH   37   38
ATOM     38  C28 UNL A   1      32.327  34.239  44.432  1.00  0.00    +0.000 C 
ATOM     39  C29 UNL A   1      32.682  34.248  43.074  1.00  0.00    +0.000 C 
ATOM     40  F1  UNL A   1      32.099  35.113  42.230  1.00  0.00    +0.000 F 
ATOM     41  C30 UNL A   1      33.614  33.344  42.571  1.00  0.00    +0.000 C 
ATOM     42  F2  UNL A   1      33.904  33.343  41.262  1.00  0.00    +0.000 F 
ATOM     43  C31 UNL A   1      34.234  32.439  43.418  1.00  0.00    +0.000 C 
ATOM     44  F3  UNL A   1      35.139  31.576  42.934  1.00  0.00    +0.000 F 
ATOM     45  C32 UNL A   1      33.913  32.424  44.767  1.00  0.00    +0.000 C 
ATOM     46  F4  UNL A   1      34.522  31.559  45.590  1.00  0.00    +0.000 F 
ATOM     47  C33 UNL A   1      32.960  33.307  45.269  1.00  0.00    +0.000 C 
ATOM     48  F5  UNL A   1      32.662  33.260  46.576  1.00  0.00    +0.000 F 
ENDBRANCH   37   38
BRANCH   54   55
ATOM     65  F10 UNL A   1      32.574  40.481  49.275  1.00  0.00    +0.000 F 
ATOM     55  C39 UNL A   1      32.327  40.984  46.961  1.00  0.00    +0.000 C 
ATOM     56  C40 UNL A   1      32.679  41.824  45.895  1.00  0.00    +0.000 C 
ATOM     57  F6  UNL A   1      32.185  41.600  44.667  1.00  0.00    +0.000 F 
ATOM     58  C41 UNL A   1      33.570  42.878  46.080  1.00  0.00    +0.000 C 
ATOM     59  F7  UNL A   1      33.926  43.642  45.038  1.00  0.00    +0.000 F 
ATOM     60  C42 UNL A   1      34.099  43.131  47.337  1.00  0.00    +0.000 C 
ATOM     61  F8  UNL A   1      34.950  44.151  47.514  1.00  0.00    +0.000 F 
ATOM     62  C43 UNL A   1      33.752  42.322  48.409  1.00  0.00    +0.000 C 
ATOM     63  F9  UNL A   1      34.252  42.574  49.626  1.00  0.00    +0.000 F 
ATOM     64  C44 UNL A   1      32.884  41.251  48.221  1.00  0.00    +0.000 C 
ENDBRANCH   54   55
BRANCH   69   70
ATOM     70  C48 UNL A   1      25.533  40.389  48.383  1.00  0.00    +0.000 C 
ATOM     71  C49 UNL A   1      24.857  41.348  47.617  1.00  0.00    +0.000 C 
ATOM     72  F11 UNL A   1      25.110  41.456  46.304  1.00  0.00    +0.000 F 
ATOM     73  C50 UNL A   1      23.953  42.232  48.203  1.00  0.00    +0.000 C 
ATOM     74  F12 UNL A   1      23.359  43.171  47.457  1.00  0.00    +0.000 F 
ATOM     75  C51 UNL A   1      23.685  42.153  49.562  1.00  0.00    +0.000 C 
ATOM     76  F13 UNL A   1      22.817  43.002  50.126  1.00  0.00    +0.000 F 
ATOM     77  C52 UNL A   1      24.326  41.197  50.336  1.00  0.00    +0.000 C 
ATOM     78  F14 UNL A   1      24.060  41.109  51.646  1.00  0.00    +0.000 F 
ATOM     79  C53 UNL A   1      25.251  40.332  49.755  1.00  0.00    +0.000 C 
ATOM     80  F15 UNL A   1      25.869  39.429  50.531  1.00  0.00    +0.000 F 
ENDBRANCH   69   70
TORSDOF 23
ENDMDL
MODEL 4
REMARK VINA RESULT:      -9.1     21.700     31.333
ROOT
ATOM    129  H38 UNL A   1      40.537  32.600  30.953  1.00  0.00    +0.000 H 
ATOM    130  H39 UNL A   1      42.526  33.885  29.981  1.00  0.00    +0.000 H 
ATOM     33  C24 UNL A   1      44.380  32.237  28.578  1.00  0.00    +0.000 C 
ATOM     34  C25 UNL A   1      43.051  31.838  29.158  1.00  0.00    +0.000 C 
ATOM     35  N5  UNL A   1      42.459  30.671  29.147  1.00  0.00    +0.000 N 
ATOM     36  C26 UNL A   1      41.281  30.837  29.864  1.00  0.00    +0.000 C 
ATOM     37  C27 UNL A   1      40.294  29.938  30.088  1.00  0.00    +0.000 C 
ATOM     49  C34 UNL A   1      40.297  28.587  29.590  1.00  0.00    +0.000 C 
ATOM     50  C35 UNL A   1      39.316  27.619  29.715  1.00  0.00    +0.000 C 
ATOM     51  C36 UNL A   1      39.776  26.448  29.105  1.00  0.00    +0.000 C 
ATOM     52  C37 UNL A   1      41.023  26.701  28.557  1.00  0.00    +0.000 C 
ATOM     53  N6  UNL A   1      41.333  28.016  28.867  1.00  0.00    +0.000 N 
ATOM     54  C38 UNL A   1      41.869  25.811  27.806  1.00  0.00    +0.000 C 
ATOM     66  C45 UNL A   1      43.085  26.136  27.303  1.00  0.00    +0.000 C 
ATOM     67  N7  UNL A   1      43.762  27.346  27.371  1.00  0.00    +0.000 N 
ATOM     68  C46 UNL A   1      44.898  27.159  26.744  1.00  0.00    +0.000 C 
ATOM     69  C47 UNL A   1      46.010  28.139  26.479  1.00  0.00    +0.000 C 
ATOM     81  C54 UNL A   1      45.880  29.413  26.898  1.00  0.00    +0.000 C 
ATOM     82  C55 UNL A   1      46.871  30.469  26.716  1.00  0.00    +0.000 C 
ATOM     83  C56 UNL A   1      46.434  31.588  27.316  1.00  0.00    +0.000 C 
ATOM     84  C57 UNL A   1      45.113  31.339  27.893  1.00  0.00    +0.000 C 
ATOM     85  N8  UNL A   1      44.857  30.026  27.579  1.00  0.00    +0.000 N 
ATOM     86  C58 UNL A   1      45.084  25.792  26.235  1.00  0.00    +0.000 C 
ATOM     87  C59 UNL A   1      43.933  25.223  26.565  1.00  0.00    +0.000 C 
ATOM     88  C60 UNL A   1      41.263  32.206  30.336  1.00  0.00    +0.000 C 
ATOM     89  C61 UNL A   1      42.302  32.884  29.871  1.00  0.00    +0.000 C 
ATOM    121  H30 UNL A   1      38.402  27.740  30.180  1.00  0.00    +0.000 H 
ATOM    122  H31 UNL A   1      39.272  25.548  29.068  1.00  0.00    +0.000 H 
ATOM    123  H32 UNL A   1      42.166  28.475  28.613  1.00  0.00    +0.000 H 
ATOM    124  H33 UNL A   1      47.764  30.371  26.207  1.00  0.00    +0.000 H 
ATOM    125  H34 UNL A   1      46.949  32.481  27.363  1.00  0.00    +0.000 H 
ATOM    126  H35 UNL A   1      44.019  29.568  27.820  1.00  0.00    +0.000 H 
ATOM    127  H36 UNL A   1      45.897  25.384  25.749  1.00  0.00    +0.000 H 
ATOM    128  H37 UNL A   1      43.675  24.253  26.328  1.00  0.00    +0.000 H 
ENDROOT
BRANCH   33   32
ATOM    131  H40 UNL A   1      43.993  34.457  27.130  1.00  0.00    +0.000 H 
ATOM    132  H41 UNL A   1      44.927  36.669  27.462  1.00  0.00    +0.000 H 
ATOM    119  H28 UNL A   1      46.785  35.361  31.002  1.00  0.00    +0.000 H 
ATOM    120  H29 UNL A   1      46.039  33.096  30.552  1.00  0.00    +0.000 H 
ATOM     90  C62 UNL A   1      44.603  34.642  27.943  1.00  0.00    +0.000 C 
ATOM     91  C63 UNL A   1      45.102  35.925  28.156  1.00  0.00    +0.000 C 
ATOM     29  C20 UNL A   1      45.841  36.203  29.309  1.00  0.00    +0.000 C 
ATOM     30  C21 UNL A   1      46.197  35.167  30.177  1.00  0.00    +0.000 C 
ATOM     31  C22 UNL A   1      45.754  33.865  29.925  1.00  0.00    +0.000 C 
ATOM     32  C23 UNL A   1      44.922  33.598  28.826  1.00  0.00    +0.000 C 
BRANCH   29   27
ATOM     27  C19 UNL A   1      46.272  37.582  29.629  1.00  0.00    +0.000 C 
ATOM     28  O5  UNL A   1      46.356  37.934  30.802  1.00  0.00    +0.000 O 
BRANCH   27   26
ATOM     26  N4  UNL A   1      46.554  38.472  28.620  1.00  0.00    +0.000 N 
ATOM    118  H27 UNL A   1      45.973  39.266  28.588  1.00  0.00    +0.000 H 
BRANCH   26   25
ATOM     25  C18 UNL A   1      47.584  38.418  27.594  1.00  0.00    +0.000 C 
ATOM    116  H25 UNL A   1      48.303  37.674  27.870  1.00  0.00    +0.000 H 
ATOM    117  H26 UNL A   1      47.103  38.181  26.668  1.00  0.00    +0.000 H 
BRANCH   25   24
ATOM    114  H23 UNL A   1      49.240  39.693  27.927  1.00  0.00    +0.000 H 
ATOM    115  H24 UNL A   1      48.409  39.886  26.353  1.00  0.00    +0.000 H 
ATOM     24  C17 UNL A   1      48.305  39.749  27.410  1.00  0.00    +0.000 C 
BRANCH   24   23
ATOM    113  H22 UNL A   1      47.962  41.182  28.891  1.00  0.00    +0.000 H 
ATOM     23  C16 UNL A   1      47.554  40.975  27.924  1.00  0.00    +0.000 C 
ATOM    112  H21 UNL A   1      46.509  40.739  27.934  1.00  0.00    +0.000 H 
BRANCH   23   22
ATOM    110  H19 UNL A   1      47.884  43.063  27.800  1.00  0.00    +0.000 H 
ATOM     22  C15 UNL A   1      47.740  42.256  27.110  1.00  0.00    +0.000 C 
ATOM    111  H20 UNL A   1      48.575  42.069  26.470  1.00  0.00    +0.000 H 
BRANCH   22   21
ATOM    109  H18 UNL A   1      46.754  43.662  25.900  1.00  0.00    +0.000 H 
ATOM    108  H17 UNL A   1      45.667  42.491  26.703  1.00  0.00    +0.000 H 
ATOM     21  C14 UNL A   1      46.585  42.642  26.176  1.00  0.00    +0.000 C 
BRANCH   21   20
ATOM    106  H15 UNL A   1      47.396  42.066  24.296  1.00  0.00    +0.000 H 
ATOM    107  H16 UNL A   1      46.454  40.814  25.129  1.00  0.00    +0.000 H 
ATOM     20  C13 UNL A   1      46.519  41.850  24.870  1.00  0.00    +0.000 C 
BRANCH   20   19
ATOM    105  H14 UNL A   1      45.408  42.057  23.092  1.00  0.00    +0.000 H 
ATOM     19  N3  UNL A   1      45.354  42.169  24.069  1.00  0.00    +0.000 N 
BRANCH   19    2
ATOM      1  O1  UNL A   1      43.486  41.964  25.388  1.00  0.00    +0.000 O 
ATOM      2  C1  UNL A   1      44.175  42.625  24.615  1.00  0.00    +0.000 C 
BRANCH    2    3
ATOM      3  C2  UNL A   1      43.723  44.011  24.134  1.00  0.00    +0.000 C 
ATOM     92  H1  UNL A   1      44.595  44.579  23.883  1.00  0.00    +0.000 H 
ATOM     93  H2  UNL A   1      43.162  44.446  24.934  1.00  0.00    +0.000 H 
BRANCH    3    4
ATOM      4  N1  UNL A   1      42.843  43.985  22.971  1.00  0.00    +0.000 N 
ATOM     94  H3  UNL A   1      42.855  44.796  22.413  1.00  0.00    +0.000 H 
BRANCH    4    5
ATOM      5  C3  UNL A   1      42.005  42.994  22.549  1.00  0.00    +0.000 C 
ATOM      6  O2  UNL A   1      40.944  42.834  23.153  1.00  0.00    +0.000 O 
BRANCH    5    7
ATOM     95  H4  UNL A   1      41.485  41.675  20.943  1.00  0.00    +0.000 H 
ATOM      7  C4  UNL A   1      42.366  42.144  21.331  1.00  0.00    +0.000 C 
ATOM     96  H5  UNL A   1      43.067  41.384  21.608  1.00  0.00    +0.000 H 
BRANCH    7    8
ATOM     97  H6  UNL A   1      43.866  43.311  20.476  1.00  0.00    +0.000 H 
ATOM      8  N2  UNL A   1      42.943  43.008  20.321  1.00  0.00    +0.000 N 
BRANCH    8    9
ATOM      9  C5  UNL A   1      42.342  43.443  19.182  1.00  0.00    +0.000 C 
ATOM     10  O3  UNL A   1      41.130  43.351  19.050  1.00  0.00    +0.000 O 
BRANCH    9   11
ATOM     11  O4  UNL A   1      43.201  43.979  18.286  1.00  0.00    +0.000 O 
BRANCH   11   12
ATOM     98  H7  UNL A   1      44.921  45.033  18.655  1.00  0.00    +0.000 H 
ATOM     99  H8  UNL A   1      43.560  45.379  19.725  1.00  0.00    +0.000 H 
ATOM     12  C6  UNL A   1      43.863  45.179  18.719  1.00  0.00    +0.000 C 
BRANCH   12   13
ATOM    100  H9  UNL A   1      45.470  46.985  17.507  1.00  0.00    +0.000 H 
ATOM    101  H10 UNL A   1      44.879  48.975  16.264  1.00  0.00    +0.000 H 
ATOM    102  H11 UNL A   1      42.546  49.499  15.853  1.00  0.00    +0.000 H 
ATOM    103  H12 UNL A   1      40.810  48.033  16.700  1.00  0.00    +0.000 H 
ATOM    104  H13 UNL A   1      41.394  46.072  18.001  1.00  0.00    +0.000 H 
ATOM     13  C7  UNL A   1      43.483  46.369  17.872  1.00  0.00    +0.000 C 
ATOM     14  C8  UNL A   1      44.477  47.213  17.351  1.00  0.00    +0.000 C 
ATOM     15  C9  UNL A   1      44.138  48.355  16.626  1.00  0.00    +0.000 C 
ATOM     16  C10 UNL A   1      42.800  48.655  16.392  1.00  0.00    +0.000 C 
ATOM     17  C11 UNL A   1      41.801  47.816  16.885  1.00  0.00    +0.000 C 
ATOM     18  C12 UNL A   1      42.139  46.682  17.629  1.00  0.00    +0.000 C 
ENDBRANCH   12   13
ENDBRANCH   11   12
ENDBRANCH    9   11
ENDBRANCH    8    9
ENDBRANCH    7    8
ENDBRANCH    5    7
ENDBRANCH    4    5
ENDBRANCH    3    4
ENDBRANCH    2    3
ENDBRANCH   19    2
ENDBRANCH   20   19
ENDBRANCH   21   20
ENDBRANCH   22   21
ENDBRANCH   23   22
ENDBRANCH   24   23
ENDBRANCH   25   24
ENDBRANCH   26   25
ENDBRANCH   27   26
ENDBRANCH   29   27
ENDBRANCH   33   32
BRANCH   37   38
ATOM     38  C28 UNL A   1      39.119  30.385  30.908  1.00  0.00    +0.000 C 
ATOM     39  C29 UNL A   1      39.088  30.216  32.301  1.00  0.00    +0.000 C 
ATOM     40  F1  UNL A   1      40.098  29.594  32.928  1.00  0.00    +0.000 F 
ATOM     41  C30 UNL A   1      38.001  30.656  33.053  1.00  0.00    +0.000 C 
ATOM     42  F2  UNL A   1      37.975  30.445  34.376  1.00  0.00    +0.000 F 
ATOM     43  C31 UNL A   1      36.943  31.302  32.433  1.00  0.00    +0.000 C 
ATOM     44  F3  UNL A   1      35.902  31.734  33.159  1.00  0.00    +0.000 F 
ATOM     45  C32 UNL A   1      36.960  31.497  31.060  1.00  0.00    +0.000 C 
ATOM     46  F4  UNL A   1      35.944  32.134  30.462  1.00  0.00    +0.000 F 
ATOM     47  C33 UNL A   1      38.032  31.032  30.302  1.00  0.00    +0.000 C 
ATOM     48  F5  UNL A   1      38.013  31.225  28.974  1.00  0.00    +0.000 F 
ENDBRANCH   37   38
BRANCH   54   55
ATOM     65  F10 UNL A   1      39.705  25.272  26.048  1.00  0.00    +0.000 F 
ATOM     55  C39 UNL A   1      41.359  24.425  27.537  1.00  0.00    +0.000 C 
ATOM     56  C40 UNL A   1      41.910  23.301  28.167  1.00  0.00    +0.000 C 
ATOM     57  F6  UNL A   1      42.961  23.437  28.992  1.00  0.00    +0.000 F 
ATOM     58  C41 UNL A   1      41.407  22.026  27.923  1.00  0.00    +0.000 C 
ATOM     59  F7  UNL A   1      41.977  20.961  28.503  1.00  0.00    +0.000 F 
ATOM     60  C42 UNL A   1      40.324  21.855  27.073  1.00  0.00    +0.000 C 
ATOM     61  F8  UNL A   1      39.836  20.628  26.846  1.00  0.00    +0.000 F 
ATOM     62  C43 UNL A   1      39.753  22.956  26.451  1.00  0.00    +0.000 C 
ATOM     63  F9  UNL A   1      38.700  22.794  25.639  1.00  0.00    +0.000 F 
ATOM     64  C44 UNL A   1      40.273  24.228  26.671  1.00  0.00    +0.000 C 
ENDBRANCH   54   55
BRANCH   69   70
ATOM     70  C48 UNL A   1      47.230  27.718  25.743  1.00  0.00    +0.000 C 
ATOM     71  C49 UNL A   1      47.268  27.746  24.341  1.00  0.00    +0.000 C 
ATOM     72  F11 UNL A   1      46.191  28.151  23.651  1.00  0.00    +0.000 F 
ATOM     73  C50 UNL A   1      48.394  27.317  23.642  1.00  0.00    +0.000 C 
ATOM     74  F12 UNL A   1      48.384  27.307  22.303  1.00  0.00    +0.000 F 
ATOM     75  C51 UNL A   1      49.515  26.878  24.331  1.00  0.00    +0.000 C 
ATOM     76  F13 UNL A   1      50.597  26.465  23.659  1.00  0.00    +0.000 F 
ATOM     77  C52 UNL A   1      49.509  26.862  25.718  1.00  0.00    +0.000 C 
ATOM     78  F14 UNL A   1      50.595  26.453  26.387  1.00  0.00    +0.000 F 
ATOM     79  C53 UNL A   1      48.373  27.266  26.417  1.00  0.00    +0.000 C 
ATOM     80  F15 UNL A   1      48.389  27.223  27.758  1.00  0.00    +0.000 F 
ENDBRANCH   69   70
TORSDOF 23
ENDMDL
MODEL 5
REMARK VINA RESULT:      -9.0      1.519      2.479
ROOT
ATOM    129  H38 UNL A   1      29.759  32.908  44.273  1.00  0.00    +0.000 H 
ATOM    130  H39 UNL A   1      27.209  33.011  44.474  1.00  0.00    +0.000 H 
ATOM     33  C24 UNL A   1      26.260  35.313  45.862  1.00  0.00    +0.000 C 
ATOM     34  C25 UNL A   1      27.675  35.002  45.457  1.00  0.00    +0.000 C 
ATOM     35  N5  UNL A   1      28.764  35.703  45.644  1.00  0.00    +0.000 N 
ATOM     36  C26 UNL A   1      29.800  34.939  45.122  1.00  0.00    +0.000 C 
ATOM     37  C27 UNL A   1      31.114  35.252  45.023  1.00  0.00    +0.000 C 
ATOM     49  C34 UNL A   1      31.687  36.498  45.460  1.00  0.00    +0.000 C 
ATOM     50  C35 UNL A   1      32.997  36.932  45.349  1.00  0.00    +0.000 C 
ATOM     51  C36 UNL A   1      33.094  38.191  45.948  1.00  0.00    +0.000 C 
ATOM     52  C37 UNL A   1      31.834  38.564  46.388  1.00  0.00    +0.000 C 
ATOM     53  N6  UNL A   1      30.982  37.513  46.088  1.00  0.00    +0.000 N 
ATOM     54  C38 UNL A   1      31.437  39.787  47.036  1.00  0.00    +0.000 C 
ATOM     66  C45 UNL A   1      30.177  40.076  47.442  1.00  0.00    +0.000 C 
ATOM     67  N7  UNL A   1      29.025  39.312  47.321  1.00  0.00    +0.000 N 
ATOM     68  C46 UNL A   1      28.065  40.017  47.870  1.00  0.00    +0.000 C 
ATOM     69  C47 UNL A   1      26.600  39.694  47.993  1.00  0.00    +0.000 C 
ATOM     81  C54 UNL A   1      26.131  38.546  47.468  1.00  0.00    +0.000 C 
ATOM     82  C55 UNL A   1      24.741  38.100  47.511  1.00  0.00    +0.000 C 
ATOM     83  C56 UNL A   1      24.653  36.884  46.949  1.00  0.00    +0.000 C 
ATOM     84  C57 UNL A   1      25.975  36.480  46.471  1.00  0.00    +0.000 C 
ATOM     85  N8  UNL A   1      26.786  37.537  46.805  1.00  0.00    +0.000 N 
ATOM     86  C58 UNL A   1      28.511  41.299  48.435  1.00  0.00    +0.000 C 
ATOM     87  C59 UNL A   1      29.796  41.304  48.109  1.00  0.00    +0.000 C 
ATOM     88  C60 UNL A   1      29.218  33.700  44.653  1.00  0.00    +0.000 C 
ATOM     89  C61 UNL A   1      27.898  33.717  44.776  1.00  0.00    +0.000 C 
ATOM    121  H30 UNL A   1      33.770  36.413  44.902  1.00  0.00    +0.000 H 
ATOM    122  H31 UNL A   1      33.957  38.749  46.045  1.00  0.00    +0.000 H 
ATOM    123  H32 UNL A   1      30.019  37.491  46.292  1.00  0.00    +0.000 H 
ATOM    124  H33 UNL A   1      23.954  38.635  47.909  1.00  0.00    +0.000 H 
ATOM    125  H34 UNL A   1      23.790  36.324  46.868  1.00  0.00    +0.000 H 
ATOM    126  H35 UNL A   1      27.747  37.568  46.591  1.00  0.00    +0.000 H 
ATOM    127  H36 UNL A   1      27.967  42.008  48.949  1.00  0.00    +0.000 H 
ATOM    128  H37 UNL A   1      30.444  42.083  48.307  1.00  0.00    +0.000 H 
ENDROOT
BRANCH   33   32
ATOM    131  H40 UNL A   1      25.582  33.289  47.480  1.00  0.00    +0.000 H 
ATOM    132  H41 UNL A   1      23.897  31.579  47.148  1.00  0.00    +0.000 H 
ATOM    119  H28 UNL A   1      22.716  33.427  43.560  1.00  0.00    +0.000 H 
ATOM    120  H29 UNL A   1      24.546  35.007  43.775  1.00  0.00    +0.000 H 
ATOM     90  C62 UNL A   1      24.987  33.309  46.636  1.00  0.00    +0.000 C 
ATOM     91  C63 UNL A   1      23.989  32.350  46.469  1.00  0.00    +0.000 C 
ATOM     29  C20 UNL A   1      23.117  32.435  45.382  1.00  0.00    +0.000 C 
ATOM     30  C21 UNL A   1      23.329  33.396  44.389  1.00  0.00    +0.000 C 
ATOM     31  C22 UNL A   1      24.374  34.315  44.521  1.00  0.00    +0.000 C 
ATOM     32  C23 UNL A   1      25.189  34.302  45.664  1.00  0.00    +0.000 C 
BRANCH   29   27
ATOM     27  C19 UNL A   1      21.968  31.511  45.248  1.00  0.00    +0.000 C 
ATOM     28  O5  UNL A   1      22.159  30.356  44.881  1.00  0.00    +0.000 O 
BRANCH   27   26
ATOM     26  N4  UNL A   1      20.692  31.950  45.509  1.00  0.00    +0.000 N 
ATOM    118  H27 UNL A   1      20.632  32.837  45.930  1.00  0.00    +0.000 H 
BRANCH   26   25
ATOM     25  C18 UNL A   1      19.415  31.298  45.254  1.00  0.00    +0.000 C 
ATOM    116  H25 UNL A   1      19.390  30.373  45.793  1.00  0.00    +0.000 H 
ATOM    117  H26 UNL A   1      18.644  31.966  45.575  1.00  0.00    +0.000 H 
BRANCH   25   24
ATOM    114  H23 UNL A   1      20.118  31.133  43.265  1.00  0.00    +0.000 H 
ATOM    115  H24 UNL A   1      18.803  30.009  43.725  1.00  0.00    +0.000 H 
ATOM     24  C17 UNL A   1      19.186  31.007  43.775  1.00  0.00    +0.000 C 
BRANCH   24   23
ATOM    113  H22 UNL A   1      18.292  31.750  42.039  1.00  0.00    +0.000 H 
ATOM     23  C16 UNL A   1      18.149  31.893  43.089  1.00  0.00    +0.000 C 
ATOM    112  H21 UNL A   1      18.309  32.900  43.416  1.00  0.00    +0.000 H 
BRANCH   23   22
ATOM    110  H19 UNL A   1      16.641  31.057  44.319  1.00  0.00    +0.000 H 
ATOM     22  C15 UNL A   1      16.687  31.537  43.363  1.00  0.00    +0.000 C 
ATOM    111  H20 UNL A   1      16.153  32.461  43.307  1.00  0.00    +0.000 H 
BRANCH   22   21
ATOM    109  H18 UNL A   1      16.759  30.365  41.620  1.00  0.00    +0.000 H 
ATOM    108  H17 UNL A   1      15.173  31.130  41.928  1.00  0.00    +0.000 H 
ATOM     21  C14 UNL A   1      16.010  30.611  42.344  1.00  0.00    +0.000 C 
BRANCH   21   20
ATOM    106  H15 UNL A   1      14.898  29.485  43.764  1.00  0.00    +0.000 H 
ATOM    107  H16 UNL A   1      14.965  28.789  42.133  1.00  0.00    +0.000 H 
ATOM     20  C13 UNL A   1      15.511  29.282  42.911  1.00  0.00    +0.000 C 
BRANCH   20   19
ATOM    105  H14 UNL A   1      17.512  28.658  43.118  1.00  0.00    +0.000 H 
ATOM     19  N3  UNL A   1      16.584  28.394  43.314  1.00  0.00    +0.000 N 
BRANCH   19    2
ATOM      1  O1  UNL A   1      17.225  26.594  44.586  1.00  0.00    +0.000 O 
ATOM      2  C1  UNL A   1      16.360  27.198  43.957  1.00  0.00    +0.000 C 
BRANCH    2    3
ATOM      3  C2  UNL A   1      14.953  26.611  43.776  1.00  0.00    +0.000 C 
ATOM     92  H1  UNL A   1      14.278  27.417  43.571  1.00  0.00    +0.000 H 
ATOM     93  H2  UNL A   1      14.717  26.093  44.682  1.00  0.00    +0.000 H 
BRANCH    3    4
ATOM      4  N1  UNL A   1      14.842  25.637  42.696  1.00  0.00    +0.000 N 
ATOM     94  H3  UNL A   1      15.403  24.833  42.791  1.00  0.00    +0.000 H 
BRANCH    4    5
ATOM      5  C3  UNL A   1      14.071  25.684  41.571  1.00  0.00    +0.000 C 
ATOM      6  O2  UNL A   1      14.318  26.552  40.733  1.00  0.00    +0.000 O 
BRANCH    5    7
ATOM     95  H4  UNL A   1      12.088  25.140  40.969  1.00  0.00    +0.000 H 
ATOM      7  C4  UNL A   1      12.963  24.654  41.350  1.00  0.00    +0.000 C 
ATOM     96  H5  UNL A   1      12.716  24.176  42.275  1.00  0.00    +0.000 H 
BRANCH    7    8
ATOM     97  H6  UNL A   1      14.070  23.988  39.714  1.00  0.00    +0.000 H 
ATOM      8  N2  UNL A   1      13.431  23.672  40.394  1.00  0.00    +0.000 N 
BRANCH    8    9
ATOM      9  C5  UNL A   1      13.082  22.360  40.337  1.00  0.00    +0.000 C 
ATOM     10  O3  UNL A   1      12.967  21.707  41.364  1.00  0.00    +0.000 O 
BRANCH    9   11
ATOM     11  O4  UNL A   1      12.866  21.909  39.081  1.00  0.00    +0.000 O 
BRANCH   11   12
ATOM     98  H7  UNL A   1      13.551  20.371  37.910  1.00  0.00    +0.000 H 
ATOM     99  H8  UNL A   1      14.551  20.782  39.305  1.00  0.00    +0.000 H 
ATOM     12  C6  UNL A   1      13.952  21.164  38.506  1.00  0.00    +0.000 C 
BRANCH   12   13
ATOM    100  H9  UNL A   1      13.326  23.444  37.192  1.00  0.00    +0.000 H 
ATOM    101  H10 UNL A   1      14.679  24.768  35.686  1.00  0.00    +0.000 H 
ATOM    102  H11 UNL A   1      16.995  24.163  35.288  1.00  0.00    +0.000 H 
ATOM    103  H12 UNL A   1      17.946  22.224  36.391  1.00  0.00    +0.000 H 
ATOM    104  H13 UNL A   1      16.576  20.856  37.852  1.00  0.00    +0.000 H 
ATOM     13  C7  UNL A   1      14.832  22.030  37.637  1.00  0.00    +0.000 C 
ATOM     14  C8  UNL A   1      14.304  23.171  37.012  1.00  0.00    +0.000 C 
ATOM     15  C9  UNL A   1      15.085  23.941  36.151  1.00  0.00    +0.000 C 
ATOM     16  C10 UNL A   1      16.413  23.593  35.922  1.00  0.00    +0.000 C 
ATOM     17  C11 UNL A   1      16.958  22.473  36.552  1.00  0.00    +0.000 C 
ATOM     18  C12 UNL A   1      16.170  21.690  37.399  1.00  0.00    +0.000 C 
ENDBRANCH   12   13
ENDBRANCH   11   12
ENDBRANCH    9   11
ENDBRANCH    8    9
ENDBRANCH    7    8
ENDBRANCH    5    7
ENDBRANCH    4    5
ENDBRANCH    3    4
ENDBRANCH    2    3
ENDBRANCH   19    2
ENDBRANCH   20   19
ENDBRANCH   21   20
ENDBRANCH   22   21
ENDBRANCH   23   22
ENDBRANCH   24   23
ENDBRANCH   25   24
ENDBRANCH   26   25
ENDBRANCH   27   26
ENDBRANCH   29   27
ENDBRANCH   33   32
BRANCH   37   38
ATOM     38  C28 UNL A   1      32.029  34.230  44.414  1.00  0.00    +0.000 C 
ATOM     39  C29 UNL A   1      32.418  34.301  43.068  1.00  0.00    +0.000 C 
ATOM     40  F1  UNL A   1      31.928  35.267  42.274  1.00  0.00    +0.000 F 
ATOM     41  C30 UNL A   1      33.286  33.360  42.521  1.00  0.00    +0.000 C 
ATOM     42  F2  UNL A   1      33.607  33.423  41.221  1.00  0.00    +0.000 F 
ATOM     43  C31 UNL A   1      33.808  32.351  43.315  1.00  0.00    +0.000 C 
ATOM     44  F3  UNL A   1      34.651  31.451  42.790  1.00  0.00    +0.000 F 
ATOM     45  C32 UNL A   1      33.453  32.272  44.654  1.00  0.00    +0.000 C 
ATOM     46  F4  UNL A   1      33.968  31.305  45.426  1.00  0.00    +0.000 F 
ATOM     47  C33 UNL A   1      32.562  33.194  45.196  1.00  0.00    +0.000 C 
ATOM     48  F5  UNL A   1      32.229  33.084  46.491  1.00  0.00    +0.000 F 
ENDBRANCH   37   38
BRANCH   54   55
ATOM     65  F10 UNL A   1      32.051  41.795  45.125  1.00  0.00    +0.000 F 
ATOM     55  C39 UNL A   1      32.491  40.833  47.258  1.00  0.00    +0.000 C 
ATOM     56  C40 UNL A   1      33.265  40.865  48.426  1.00  0.00    +0.000 C 
ATOM     57  F6  UNL A   1      33.035  39.983  49.412  1.00  0.00    +0.000 F 
ATOM     58  C41 UNL A   1      34.254  41.828  48.603  1.00  0.00    +0.000 C 
ATOM     59  F7  UNL A   1      34.952  41.867  49.746  1.00  0.00    +0.000 F 
ATOM     60  C42 UNL A   1      34.511  42.754  47.602  1.00  0.00    +0.000 C 
ATOM     61  F8  UNL A   1      35.470  43.675  47.770  1.00  0.00    +0.000 F 
ATOM     62  C43 UNL A   1      33.768  42.731  46.431  1.00  0.00    +0.000 C 
ATOM     63  F9  UNL A   1      34.024  43.617  45.459  1.00  0.00    +0.000 F 
ATOM     64  C44 UNL A   1      32.759  41.787  46.265  1.00  0.00    +0.000 C 
ENDBRANCH   54   55
BRANCH   69   70
ATOM     70  C48 UNL A   1      25.670  40.641  48.663  1.00  0.00    +0.000 C 
ATOM     71  C49 UNL A   1      24.989  41.621  47.927  1.00  0.00    +0.000 C 
ATOM     72  F11 UNL A   1      25.179  41.714  46.602  1.00  0.00    +0.000 F 
ATOM     73  C50 UNL A   1      24.146  42.536  48.553  1.00  0.00    +0.000 C 
ATOM     74  F12 UNL A   1      23.548  43.493  47.832  1.00  0.00    +0.000 F 
ATOM     75  C51 UNL A   1      23.945  42.472  49.923  1.00  0.00    +0.000 C 
ATOM     76  F13 UNL A   1      23.135  43.353  50.525  1.00  0.00    +0.000 F 
ATOM     77  C52 UNL A   1      24.590  41.498  50.669  1.00  0.00    +0.000 C 
ATOM     78  F14 UNL A   1      24.388  41.423  51.992  1.00  0.00    +0.000 F 
ATOM     79  C53 UNL A   1      25.456  40.599  50.048  1.00  0.00    +0.000 C 
ATOM     80  F15 UNL A   1      26.080  39.678  50.797  1.00  0.00    +0.000 F 
ENDBRANCH   69   70
TORSDOF 23
ENDMDL
MODEL 6
REMARK VINA RESULT:      -9.0     43.322     49.026
ROOT
ATOM    129  H38 UNL A   1      25.310  22.631   3.475  1.00  0.00    +0.000 H 
ATOM    130  H39 UNL A   1      24.155  24.778   2.693  1.00  0.00    +0.000 H 
ATOM     33  C24 UNL A   1      21.532  24.357   1.661  1.00  0.00    +0.000 C 
ATOM     34  C25 UNL A   1      22.435  23.348   2.315  1.00  0.00    +0.000 C 
ATOM     35  N5  UNL A   1      22.223  22.079   2.556  1.00  0.00    +0.000 N 
ATOM     36  C26 UNL A   1      23.395  21.602   3.130  1.00  0.00    +0.000 C 
ATOM     37  C27 UNL A   1      23.658  20.363   3.608  1.00  0.00    +0.000 C 
ATOM     49  C34 UNL A   1      22.715  19.275   3.609  1.00  0.00    +0.000 C 
ATOM     50  C35 UNL A   1      22.868  18.000   4.125  1.00  0.00    +0.000 C 
ATOM     51  C36 UNL A   1      21.701  17.277   3.859  1.00  0.00    +0.000 C 
ATOM     52  C37 UNL A   1      20.802  18.116   3.222  1.00  0.00    +0.000 C 
ATOM     53  N6  UNL A   1      21.439  19.338   3.069  1.00  0.00    +0.000 N 
ATOM     54  C38 UNL A   1      19.461  17.827   2.784  1.00  0.00    +0.000 C 
ATOM     66  C45 UNL A   1      18.641  18.707   2.160  1.00  0.00    +0.000 C 
ATOM     67  N7  UNL A   1      18.877  20.034   1.829  1.00  0.00    +0.000 N 
ATOM     68  C46 UNL A   1      17.787  20.456   1.234  1.00  0.00    +0.000 C 
ATOM     69  C47 UNL A   1      17.469  21.825   0.695  1.00  0.00    +0.000 C 
ATOM     81  C54 UNL A   1      18.375  22.813   0.825  1.00  0.00    +0.000 C 
ATOM     82  C55 UNL A   1      18.207  24.184   0.351  1.00  0.00    +0.000 C 
ATOM     83  C56 UNL A   1      19.334  24.872   0.593  1.00  0.00    +0.000 C 
ATOM     84  C57 UNL A   1      20.292  24.000   1.274  1.00  0.00    +0.000 C 
ATOM     85  N8  UNL A   1      19.628  22.803   1.386  1.00  0.00    +0.000 N 
ATOM     86  C58 UNL A   1      16.746  19.428   1.091  1.00  0.00    +0.000 C 
ATOM     87  C59 UNL A   1      17.301  18.395   1.709  1.00  0.00    +0.000 C 
ATOM     88  C60 UNL A   1      24.331  22.706   3.160  1.00  0.00    +0.000 C 
ATOM     89  C61 UNL A   1      23.764  23.824   2.729  1.00  0.00    +0.000 C 
ATOM    121  H30 UNL A   1      23.701  17.644   4.619  1.00  0.00    +0.000 H 
ATOM    122  H31 UNL A   1      21.537  16.287   4.098  1.00  0.00    +0.000 H 
ATOM    123  H32 UNL A   1      21.044  20.131   2.640  1.00  0.00    +0.000 H 
ATOM    124  H33 UNL A   1      17.358  24.562  -0.097  1.00  0.00    +0.000 H 
ATOM    125  H34 UNL A   1      19.499  25.858   0.338  1.00  0.00    +0.000 H 
ATOM    126  H35 UNL A   1      20.015  22.012   1.827  1.00  0.00    +0.000 H 
ATOM    127  H36 UNL A   1      15.826  19.493   0.630  1.00  0.00    +0.000 H 
ATOM    128  H37 UNL A   1      16.838  17.484   1.850  1.00  0.00    +0.000 H 
ENDROOT
BRANCH   33   32
ATOM    131  H40 UNL A   1      23.038  25.155  -0.405  1.00  0.00    +0.000 H 
ATOM    132  H41 UNL A   1      23.937  27.358  -0.868  1.00  0.00    +0.000 H 
ATOM    119  H28 UNL A   1      21.926  28.893   2.491  1.00  0.00    +0.000 H 
ATOM    120  H29 UNL A   1      21.210  26.650   3.083  1.00  0.00    +0.000 H 
ATOM     90  C62 UNL A   1      22.817  25.944   0.223  1.00  0.00    +0.000 C 
ATOM     91  C63 UNL A   1      23.298  27.218  -0.070  1.00  0.00    +0.000 C 
ATOM     29  C20 UNL A   1      22.916  28.306   0.718  1.00  0.00    +0.000 C 
ATOM     30  C21 UNL A   1      22.165  28.097   1.880  1.00  0.00    +0.000 C 
ATOM     31  C22 UNL A   1      21.741  26.807   2.212  1.00  0.00    +0.000 C 
ATOM     32  C23 UNL A   1      22.032  25.725   1.367  1.00  0.00    +0.000 C 
BRANCH   29   27
ATOM     27  C19 UNL A   1      23.302  29.688   0.357  1.00  0.00    +0.000 C 
ATOM     28  O5  UNL A   1      24.389  30.128   0.722  1.00  0.00    +0.000 O 
BRANCH   27   26
ATOM     26  N4  UNL A   1      22.442  30.483  -0.361  1.00  0.00    +0.000 N 
ATOM    118  H27 UNL A   1      22.412  31.426  -0.081  1.00  0.00    +0.000 H 
BRANCH   26   25
ATOM     25  C18 UNL A   1      21.571  30.140  -1.475  1.00  0.00    +0.000 C 
ATOM    116  H25 UNL A   1      21.710  30.862  -2.253  1.00  0.00    +0.000 H 
ATOM    117  H26 UNL A   1      21.833  29.154  -1.797  1.00  0.00    +0.000 H 
BRANCH   25   24
ATOM    114  H23 UNL A   1      19.961  30.792  -0.264  1.00  0.00    +0.000 H 
ATOM    115  H24 UNL A   1      19.554  30.404  -1.964  1.00  0.00    +0.000 H 
ATOM     24  C17 UNL A   1      20.096  30.120  -1.086  1.00  0.00    +0.000 C 
BRANCH   24   23
ATOM    113  H22 UNL A   1      18.956  28.930   0.199  1.00  0.00    +0.000 H 
ATOM     23  C16 UNL A   1      19.548  28.755  -0.675  1.00  0.00    +0.000 C 
ATOM    112  H21 UNL A   1      20.381  28.102  -0.512  1.00  0.00    +0.000 H 
BRANCH   23   22
ATOM    110  H19 UNL A   1      18.017  27.372  -1.152  1.00  0.00    +0.000 H 
ATOM     22  C15 UNL A   1      18.614  28.084  -1.684  1.00  0.00    +0.000 C 
ATOM    111  H20 UNL A   1      18.058  28.880  -2.131  1.00  0.00    +0.000 H 
BRANCH   22   21
ATOM    109  H18 UNL A   1      19.447  28.082  -3.612  1.00  0.00    +0.000 H 
ATOM    108  H17 UNL A   1      18.644  26.551  -3.156  1.00  0.00    +0.000 H 
ATOM     21  C14 UNL A   1      19.288  27.349  -2.850  1.00  0.00    +0.000 C 
BRANCH   21   20
ATOM    106  H15 UNL A   1      21.376  27.171  -3.211  1.00  0.00    +0.000 H 
ATOM    107  H16 UNL A   1      20.885  26.998  -1.514  1.00  0.00    +0.000 H 
ATOM     20  C13 UNL A   1      20.661  26.756  -2.532  1.00  0.00    +0.000 C 
BRANCH   20   19
ATOM    105  H14 UNL A   1      19.876  24.801  -2.468  1.00  0.00    +0.000 H 
ATOM     19  N3  UNL A   1      20.699  25.311  -2.650  1.00  0.00    +0.000 N 
BRANCH   19    2
ATOM      1  O1  UNL A   1      22.055  23.458  -2.676  1.00  0.00    +0.000 O 
ATOM      2  C1  UNL A   1      21.837  24.622  -3.004  1.00  0.00    +0.000 C 
BRANCH    2    3
ATOM      3  C2  UNL A   1      22.876  25.434  -3.790  1.00  0.00    +0.000 C 
ATOM     92  H1  UNL A   1      23.851  25.110  -3.490  1.00  0.00    +0.000 H 
ATOM     93  H2  UNL A   1      22.694  26.464  -3.567  1.00  0.00    +0.000 H 
BRANCH    3    4
ATOM      4  N1  UNL A   1      22.775  25.296  -5.239  1.00  0.00    +0.000 N 
ATOM     94  H3  UNL A   1      22.367  24.459  -5.558  1.00  0.00    +0.000 H 
BRANCH    4    5
ATOM      5  C3  UNL A   1      23.169  26.165  -6.215  1.00  0.00    +0.000 C 
ATOM      6  O2  UNL A   1      24.375  26.363  -6.365  1.00  0.00    +0.000 O 
BRANCH    5    7
ATOM     95  H4  UNL A   1      21.483  27.447  -6.532  1.00  0.00    +0.000 H 
ATOM      7  C4  UNL A   1      22.133  26.833  -7.119  1.00  0.00    +0.000 C 
ATOM     96  H5  UNL A   1      21.546  26.089  -7.617  1.00  0.00    +0.000 H 
BRANCH    7    8
ATOM     97  H6  UNL A   1      23.063  28.564  -7.814  1.00  0.00    +0.000 H 
ATOM      8  N2  UNL A   1      22.829  27.650  -8.092  1.00  0.00    +0.000 N 
BRANCH    8    9
ATOM      9  C5  UNL A   1      23.194  27.285  -9.349  1.00  0.00    +0.000 C 
ATOM     10  O3  UNL A   1      22.353  26.896 -10.148  1.00  0.00    +0.000 O 
BRANCH    9   11
ATOM     11  O4  UNL A   1      24.516  27.424  -9.594  1.00  0.00    +0.000 O 
BRANCH   11   12
ATOM     98  H7  UNL A   1      23.978  28.676 -11.127  1.00  0.00    +0.000 H 
ATOM     99  H8  UNL A   1      25.622  28.037 -11.195  1.00  0.00    +0.000 H 
ATOM     12  C6  UNL A   1      24.854  28.431 -10.563  1.00  0.00    +0.000 C 
BRANCH   12   13
ATOM    100  H9  UNL A   1      25.672  28.806  -8.013  1.00  0.00    +0.000 H 
ATOM    101  H10 UNL A   1      26.390  30.838  -6.915  1.00  0.00    +0.000 H 
ATOM    102  H11 UNL A   1      26.574  32.899  -8.181  1.00  0.00    +0.000 H 
ATOM    103  H12 UNL A   1      26.026  32.922 -10.543  1.00  0.00    +0.000 H 
ATOM    104  H13 UNL A   1      25.244  30.902 -11.634  1.00  0.00    +0.000 H 
ATOM     13  C7  UNL A   1      25.383  29.685  -9.912  1.00  0.00    +0.000 C 
ATOM     14  C8  UNL A   1      25.731  29.683  -8.552  1.00  0.00    +0.000 C 
ATOM     15  C9  UNL A   1      26.154  30.851  -7.920  1.00  0.00    +0.000 C 
ATOM     16  C10 UNL A   1      26.258  32.033  -8.646  1.00  0.00    +0.000 C 
ATOM     17  C11 UNL A   1      25.936  32.047 -10.003  1.00  0.00    +0.000 C 
ATOM     18  C12 UNL A   1      25.492  30.881 -10.632  1.00  0.00    +0.000 C 
ENDBRANCH   12   13
ENDBRANCH   11   12
ENDBRANCH    9   11
ENDBRANCH    8    9
ENDBRANCH    7    8
ENDBRANCH    5    7
ENDBRANCH    4    5
ENDBRANCH    3    4
ENDBRANCH    2    3
ENDBRANCH   19    2
ENDBRANCH   20   19
ENDBRANCH   21   20
ENDBRANCH   22   21
ENDBRANCH   23   22
ENDBRANCH   24   23
ENDBRANCH   25   24
ENDBRANCH   26   25
ENDBRANCH   27   26
ENDBRANCH   29   27
ENDBRANCH   33   32
BRANCH   37   38
ATOM     38  C28 UNL A   1      25.023  20.113   4.179  1.00  0.00    +0.000 C 
ATOM     39  C29 UNL A   1      25.243  20.063   5.564  1.00  0.00    +0.000 C 
ATOM     40  F1  UNL A   1      24.232  20.296   6.417  1.00  0.00    +0.000 F 
ATOM     41  C30 UNL A   1      26.510  19.807   6.081  1.00  0.00    +0.000 C 
ATOM     42  F2  UNL A   1      26.704  19.808   7.407  1.00  0.00    +0.000 F 
ATOM     43  C31 UNL A   1      27.573  19.562   5.226  1.00  0.00    +0.000 C 
ATOM     44  F3  UNL A   1      28.791  19.306   5.724  1.00  0.00    +0.000 F 
ATOM     45  C32 UNL A   1      27.376  19.587   3.853  1.00  0.00    +0.000 C 
ATOM     46  F4  UNL A   1      28.400  19.337   3.025  1.00  0.00    +0.000 F 
ATOM     47  C33 UNL A   1      26.116  19.872   3.333  1.00  0.00    +0.000 C 
ATOM     48  F5  UNL A   1      25.960  19.901   2.001  1.00  0.00    +0.000 F 
ENDBRANCH   37   38
BRANCH   54   55
ATOM     65  F10 UNL A   1      18.131  17.142   5.197  1.00  0.00    +0.000 F 
ATOM     55  C39 UNL A   1      18.919  16.454   3.059  1.00  0.00    +0.000 C 
ATOM     56  C40 UNL A   1      19.064  15.406   2.139  1.00  0.00    +0.000 C 
ATOM     57  F6  UNL A   1      19.647  15.627   0.950  1.00  0.00    +0.000 F 
ATOM     58  C41 UNL A   1      18.575  14.133   2.423  1.00  0.00    +0.000 C 
ATOM     59  F7  UNL A   1      18.685  13.157   1.511  1.00  0.00    +0.000 F 
ATOM     60  C42 UNL A   1      17.965  13.877   3.642  1.00  0.00    +0.000 C 
ATOM     61  F8  UNL A   1      17.504  12.649   3.917  1.00  0.00    +0.000 F 
ATOM     62  C43 UNL A   1      17.827  14.896   4.573  1.00  0.00    +0.000 C 
ATOM     63  F9  UNL A   1      17.249  14.646   5.757  1.00  0.00    +0.000 F 
ATOM     64  C44 UNL A   1      18.288  16.176   4.280  1.00  0.00    +0.000 C 
ENDBRANCH   54   55
BRANCH   69   70
ATOM     70  C48 UNL A   1      16.159  22.096   0.046  1.00  0.00    +0.000 C 
ATOM     71  C49 UNL A   1      15.980  21.879  -1.328  1.00  0.00    +0.000 C 
ATOM     72  F11 UNL A   1      17.000  21.427  -2.072  1.00  0.00    +0.000 F 
ATOM     73  C50 UNL A   1      14.768  22.167  -1.951  1.00  0.00    +0.000 C 
ATOM     74  F12 UNL A   1      14.640  21.998  -3.273  1.00  0.00    +0.000 F 
ATOM     75  C51 UNL A   1      13.702  22.651  -1.208  1.00  0.00    +0.000 C 
ATOM     76  F13 UNL A   1      12.536  22.929  -1.807  1.00  0.00    +0.000 F 
ATOM     77  C52 UNL A   1      13.848  22.853   0.156  1.00  0.00    +0.000 C 
ATOM     78  F14 UNL A   1      12.816  23.307   0.880  1.00  0.00    +0.000 F 
ATOM     79  C53 UNL A   1      15.069  22.591   0.775  1.00  0.00    +0.000 C 
ATOM     80  F15 UNL A   1      15.187  22.813   2.093  1.00  0.00    +0.000 F 
ENDBRANCH   69   70
TORSDOF 23
ENDMDL
MODEL 7
REMARK VINA RESULT:      -8.8     39.237     48.414
ROOT
ATOM    129  H38 UNL A   1      19.108   7.478  10.507  1.00  0.00    +0.000 H 
ATOM    130  H39 UNL A   1      19.817   9.413   8.988  1.00  0.00    +0.000 H 
ATOM     33  C24 UNL A   1      22.076   8.819   7.355  1.00  0.00    +0.000 C 
ATOM     34  C25 UNL A   1      21.325   7.882   8.260  1.00  0.00    +0.000 C 
ATOM     35  N5  UNL A   1      21.533   6.611   8.494  1.00  0.00    +0.000 N 
ATOM     36  C26 UNL A   1      20.588   6.242   9.445  1.00  0.00    +0.000 C 
ATOM     37  C27 UNL A   1      20.356   5.018   9.973  1.00  0.00    +0.000 C 
ATOM     49  C34 UNL A   1      21.082   3.827   9.616  1.00  0.00    +0.000 C 
ATOM     50  C35 UNL A   1      20.880   2.530  10.053  1.00  0.00    +0.000 C 
ATOM     51  C36 UNL A   1      21.851   1.714   9.465  1.00  0.00    +0.000 C 
ATOM     52  C37 UNL A   1      22.627   2.494   8.624  1.00  0.00    +0.000 C 
ATOM     53  N6  UNL A   1      22.148   3.790   8.731  1.00  0.00    +0.000 N 
ATOM     54  C38 UNL A   1      23.725   2.089   7.784  1.00  0.00    +0.000 C 
ATOM     66  C45 UNL A   1      24.440   2.920   6.987  1.00  0.00    +0.000 C 
ATOM     67  N7  UNL A   1      24.282   4.283   6.784  1.00  0.00    +0.000 N 
ATOM     68  C46 UNL A   1      25.217   4.631   5.933  1.00  0.00    +0.000 C 
ATOM     69  C47 UNL A   1      25.497   5.982   5.329  1.00  0.00    +0.000 C 
ATOM     81  C54 UNL A   1      24.704   7.023   5.646  1.00  0.00    +0.000 C 
ATOM     82  C55 UNL A   1      24.854   8.386   5.143  1.00  0.00    +0.000 C 
ATOM     83  C56 UNL A   1      23.931   9.170   5.720  1.00  0.00    +0.000 C 
ATOM     84  C57 UNL A   1      23.097   8.358   6.607  1.00  0.00    +0.000 C 
ATOM     85  N8  UNL A   1      23.618   7.093   6.484  1.00  0.00    +0.000 N 
ATOM     86  C58 UNL A   1      26.096   3.527   5.524  1.00  0.00    +0.000 C 
ATOM     87  C59 UNL A   1      25.553   2.499   6.162  1.00  0.00    +0.000 C 
ATOM     88  C60 UNL A   1      19.837   7.433   9.778  1.00  0.00    +0.000 C 
ATOM     89  C61 UNL A   1      20.209   8.459   9.025  1.00  0.00    +0.000 C 
ATOM    121  H30 UNL A   1      20.141   2.218  10.703  1.00  0.00    +0.000 H 
ATOM    122  H31 UNL A   1      21.970   0.702   9.630  1.00  0.00    +0.000 H 
ATOM    123  H32 UNL A   1      22.511   4.569   8.249  1.00  0.00    +0.000 H 
ATOM    124  H33 UNL A   1      25.558   8.694   4.453  1.00  0.00    +0.000 H 
ATOM    125  H34 UNL A   1      23.826  10.185   5.563  1.00  0.00    +0.000 H 
ATOM    126  H35 UNL A   1      23.248   6.310   6.953  1.00  0.00    +0.000 H 
ATOM    127  H36 UNL A   1      26.921   3.546   4.905  1.00  0.00    +0.000 H 
ATOM    128  H37 UNL A   1      25.883   1.525   6.082  1.00  0.00    +0.000 H 
ENDROOT
BRANCH   33   32
ATOM    131  H40 UNL A   1      20.436  10.126   5.689  1.00  0.00    +0.000 H 
ATOM    132  H41 UNL A   1      19.941  12.496   5.594  1.00  0.00    +0.000 H 
ATOM    119  H28 UNL A   1      22.334  13.140   8.992  1.00  0.00    +0.000 H 
ATOM    120  H29 UNL A   1      23.009  10.809   8.954  1.00  0.00    +0.000 H 
ATOM     90  C62 UNL A   1      20.856  10.768   6.380  1.00  0.00    +0.000 C 
ATOM     91  C63 UNL A   1      20.535  12.123   6.351  1.00  0.00    +0.000 C 
ATOM     29  C20 UNL A   1      21.019  12.976   7.345  1.00  0.00    +0.000 C 
ATOM     30  C21 UNL A   1      21.936  12.500   8.288  1.00  0.00    +0.000 C 
ATOM     31  C22 UNL A   1      22.312  11.153   8.275  1.00  0.00    +0.000 C 
ATOM     32  C23 UNL A   1      21.747  10.268   7.343  1.00  0.00    +0.000 C 
BRANCH   29   27
ATOM     27  C19 UNL A   1      20.591  14.391   7.417  1.00  0.00    +0.000 C 
ATOM     28  O5  UNL A   1      20.037  14.905   6.450  1.00  0.00    +0.000 O 
BRANCH   27   26
ATOM     26  N4  UNL A   1      20.835  15.132   8.548  1.00  0.00    +0.000 N 
ATOM    118  H27 UNL A   1      20.458  14.764   9.379  1.00  0.00    +0.000 H 
BRANCH   26   25
ATOM     25  C18 UNL A   1      21.569  16.380   8.700  1.00  0.00    +0.000 C 
ATOM    116  H25 UNL A   1      22.349  16.410   7.968  1.00  0.00    +0.000 H 
ATOM    117  H26 UNL A   1      20.872  17.181   8.570  1.00  0.00    +0.000 H 
BRANCH   25   24
ATOM    114  H23 UNL A   1      22.076  17.552  10.388  1.00  0.00    +0.000 H 
ATOM    115  H24 UNL A   1      21.682  15.837  10.717  1.00  0.00    +0.000 H 
ATOM     24  C17 UNL A   1      22.192  16.533  10.084  1.00  0.00    +0.000 C 
BRANCH   24   23
ATOM    113  H22 UNL A   1      24.024  16.615  11.087  1.00  0.00    +0.000 H 
ATOM     23  C16 UNL A   1      23.675  16.179  10.174  1.00  0.00    +0.000 C 
ATOM    112  H21 UNL A   1      24.158  16.561   9.298  1.00  0.00    +0.000 H 
BRANCH   23   22
ATOM    110  H19 UNL A   1      24.671  14.554  11.096  1.00  0.00    +0.000 H 
ATOM     22  C15 UNL A   1      23.996  14.687  10.276  1.00  0.00    +0.000 C 
ATOM    111  H20 UNL A   1      23.051  14.200  10.399  1.00  0.00    +0.000 H 
BRANCH   22   21
ATOM    109  H18 UNL A   1      23.863  13.454   8.580  1.00  0.00    +0.000 H 
ATOM    108  H17 UNL A   1      25.472  13.464   9.359  1.00  0.00    +0.000 H 
ATOM     21  C14 UNL A   1      24.631  14.042   9.038  1.00  0.00    +0.000 C 
BRANCH   21   20
ATOM    106  H15 UNL A   1      25.302  15.969   8.439  1.00  0.00    +0.000 H 
ATOM    107  H16 UNL A   1      25.992  14.611   7.528  1.00  0.00    +0.000 H 
ATOM     20  C13 UNL A   1      25.111  15.026   7.971  1.00  0.00    +0.000 C 
BRANCH   20   19
ATOM    105  H14 UNL A   1      23.189  15.136   7.115  1.00  0.00    +0.000 H 
ATOM     19  N3  UNL A   1      24.146  15.228   6.907  1.00  0.00    +0.000 N 
BRANCH   19    2
ATOM      1  O1  UNL A   1      24.806  14.697   4.773  1.00  0.00    +0.000 O 
ATOM      2  C1  UNL A   1      24.514  15.540   5.617  1.00  0.00    +0.000 C 
BRANCH    2    3
ATOM      3  C2  UNL A   1      24.612  17.041   5.309  1.00  0.00    +0.000 C 
ATOM     92  H1  UNL A   1      23.648  17.479   5.471  1.00  0.00    +0.000 H 
ATOM     93  H2  UNL A   1      24.940  17.126   4.295  1.00  0.00    +0.000 H 
BRANCH    3    4
ATOM      4  N1  UNL A   1      25.584  17.759   6.126  1.00  0.00    +0.000 N 
ATOM     94  H3  UNL A   1      26.045  17.220   6.809  1.00  0.00    +0.000 H 
BRANCH    4    5
ATOM      5  C3  UNL A   1      25.944  19.075   6.077  1.00  0.00    +0.000 C 
ATOM      6  O2  UNL A   1      25.562  19.746   5.118  1.00  0.00    +0.000 O 
BRANCH    5    7
ATOM     95  H4  UNL A   1      26.149  20.373   7.768  1.00  0.00    +0.000 H 
ATOM      7  C4  UNL A   1      26.761  19.696   7.210  1.00  0.00    +0.000 C 
ATOM     96  H5  UNL A   1      27.594  20.234   6.809  1.00  0.00    +0.000 H 
BRANCH    7    8
ATOM     97  H6  UNL A   1      27.486  17.789   7.640  1.00  0.00    +0.000 H 
ATOM      8  N2  UNL A   1      27.227  18.632   8.076  1.00  0.00    +0.000 N 
BRANCH    8    9
ATOM      9  C5  UNL A   1      27.346  18.678   9.429  1.00  0.00    +0.000 C 
ATOM     10  O3  UNL A   1      28.413  18.415   9.964  1.00  0.00    +0.000 O 
BRANCH    9   11
ATOM     11  O4  UNL A   1      26.212  19.054  10.062  1.00  0.00    +0.000 O 
BRANCH   11   12
ATOM     98  H7  UNL A   1      26.754  20.229  11.652  1.00  0.00    +0.000 H 
ATOM     99  H8  UNL A   1      26.983  18.492  11.865  1.00  0.00    +0.000 H 
ATOM     12  C6  UNL A   1      26.343  19.257  11.479  1.00  0.00    +0.000 C 
BRANCH   12   13
ATOM    100  H9  UNL A   1      24.153  20.823  11.219  1.00  0.00    +0.000 H 
ATOM    101  H10 UNL A   1      22.068  20.761  12.444  1.00  0.00    +0.000 H 
ATOM    102  H11 UNL A   1      21.684  19.025  14.094  1.00  0.00    +0.000 H 
ATOM    103  H12 UNL A   1      23.395  17.361  14.522  1.00  0.00    +0.000 H 
ATOM    104  H13 UNL A   1      25.512  17.457  13.343  1.00  0.00    +0.000 H 
ATOM     13  C7  UNL A   1      25.014  19.155  12.188  1.00  0.00    +0.000 C 
ATOM     14  C8  UNL A   1      24.003  20.094  11.932  1.00  0.00    +0.000 C 
ATOM     15  C9  UNL A   1      22.797  20.054  12.631  1.00  0.00    +0.000 C 
ATOM     16  C10 UNL A   1      22.577  19.059  13.578  1.00  0.00    +0.000 C 
ATOM     17  C11 UNL A   1      23.565  18.106  13.828  1.00  0.00    +0.000 C 
ATOM     18  C12 UNL A   1      24.781  18.158  13.143  1.00  0.00    +0.000 C 
ENDBRANCH   12   13
ENDBRANCH   11   12
ENDBRANCH    9   11
ENDBRANCH    8    9
ENDBRANCH    7    8
ENDBRANCH    5    7
ENDBRANCH    4    5
ENDBRANCH    3    4
ENDBRANCH    2    3
ENDBRANCH   19    2
ENDBRANCH   20   19
ENDBRANCH   21   20
ENDBRANCH   22   21
ENDBRANCH   23   22
ENDBRANCH   24   23
ENDBRANCH   25   24
ENDBRANCH   26   25
ENDBRANCH   27   26
ENDBRANCH   29   27
ENDBRANCH   33   32
BRANCH   37   38
ATOM     38  C28 UNL A   1      19.264   4.898  10.997  1.00  0.00    +0.000 C 
ATOM     39  C29 UNL A   1      17.924   4.718  10.624  1.00  0.00    +0.000 C 
ATOM     40  F1  UNL A   1      17.580   4.704   9.326  1.00  0.00    +0.000 F 
ATOM     41  C30 UNL A   1      16.923   4.585  11.583  1.00  0.00    +0.000 C 
ATOM     42  F2  UNL A   1      15.645   4.458  11.203  1.00  0.00    +0.000 F 
ATOM     43  C31 UNL A   1      17.247   4.594  12.931  1.00  0.00    +0.000 C 
ATOM     44  F3  UNL A   1      16.285   4.456  13.854  1.00  0.00    +0.000 F 
ATOM     45  C32 UNL A   1      18.569   4.752  13.324  1.00  0.00    +0.000 C 
ATOM     46  F4  UNL A   1      18.884   4.748  14.626  1.00  0.00    +0.000 F 
ATOM     47  C33 UNL A   1      19.567   4.915  12.367  1.00  0.00    +0.000 C 
ATOM     48  F5  UNL A   1      20.833   5.077  12.778  1.00  0.00    +0.000 F 
ENDBRANCH   37   38
BRANCH   54   55
ATOM     65  F10 UNL A   1      22.589   0.223   5.970  1.00  0.00    +0.000 F 
ATOM     55  C39 UNL A   1      24.091   0.633   7.771  1.00  0.00    +0.000 C 
ATOM     56  C40 UNL A   1      25.009   0.095   8.684  1.00  0.00    +0.000 C 
ATOM     57  F6  UNL A   1      25.633   0.894   9.564  1.00  0.00    +0.000 F 
ATOM     58  C41 UNL A   1      25.318  -1.263   8.671  1.00  0.00    +0.000 C 
ATOM     59  F7  UNL A   1      26.230  -1.748   9.524  1.00  0.00    +0.000 F 
ATOM     60  C42 UNL A   1      24.692  -2.111   7.769  1.00  0.00    +0.000 C 
ATOM     61  F8  UNL A   1      24.984  -3.419   7.765  1.00  0.00    +0.000 F 
ATOM     62  C43 UNL A   1      23.768  -1.602   6.868  1.00  0.00    +0.000 C 
ATOM     63  F9  UNL A   1      23.153  -2.423   6.006  1.00  0.00    +0.000 F 
ATOM     64  C44 UNL A   1      23.479  -0.241   6.860  1.00  0.00    +0.000 C 
ENDBRANCH   54   55
BRANCH   69   70
ATOM     70  C48 UNL A   1      26.621   6.165   4.374  1.00  0.00    +0.000 C 
ATOM     71  C49 UNL A   1      26.421   6.018   2.994  1.00  0.00    +0.000 C 
ATOM     72  F11 UNL A   1      25.204   5.703   2.524  1.00  0.00    +0.000 F 
ATOM     73  C50 UNL A   1      27.477   6.150   2.094  1.00  0.00    +0.000 C 
ATOM     74  F12 UNL A   1      27.267   5.955   0.786  1.00  0.00    +0.000 F 
ATOM     75  C51 UNL A   1      28.747   6.459   2.555  1.00  0.00    +0.000 C 
ATOM     76  F13 UNL A   1      29.763   6.585   1.691  1.00  0.00    +0.000 F 
ATOM     77  C52 UNL A   1      28.965   6.630   3.914  1.00  0.00    +0.000 C 
ATOM     78  F14 UNL A   1      30.189   6.943   4.361  1.00  0.00    +0.000 F 
ATOM     79  C53 UNL A   1      27.915   6.471   4.816  1.00  0.00    +0.000 C 
ATOM     80  F15 UNL A   1      28.159   6.626   6.126  1.00  0.00    +0.000 F 
ENDBRANCH   69   70
TORSDOF 23
ENDMDL
MODEL 8
REMARK VINA RESULT:      -8.8     18.338     23.901
ROOT
ATOM    129  H38 UNL A   1      43.450  28.496  36.443  1.00  0.00    +0.000 H 
ATOM    130  H39 UNL A   1      41.278  29.713  37.039  1.00  0.00    +0.000 H 
ATOM     33  C24 UNL A   1      39.660  30.343  34.779  1.00  0.00    +0.000 C 
ATOM     34  C25 UNL A   1      40.925  29.529  34.806  1.00  0.00    +0.000 C 
ATOM     35  N5  UNL A   1      41.551  28.937  33.820  1.00  0.00    +0.000 N 
ATOM     36  C26 UNL A   1      42.688  28.370  34.382  1.00  0.00    +0.000 C 
ATOM     37  C27 UNL A   1      43.632  27.603  33.786  1.00  0.00    +0.000 C 
ATOM     49  C34 UNL A   1      43.611  27.221  32.398  1.00  0.00    +0.000 C 
ATOM     50  C35 UNL A   1      44.490  26.399  31.715  1.00  0.00    +0.000 C 
ATOM     51  C36 UNL A   1      44.093  26.349  30.376  1.00  0.00    +0.000 C 
ATOM     52  C37 UNL A   1      42.938  27.101  30.233  1.00  0.00    +0.000 C 
ATOM     53  N6  UNL A   1      42.657  27.636  31.481  1.00  0.00    +0.000 N 
ATOM     54  C38 UNL A   1      42.150  27.317  29.048  1.00  0.00    +0.000 C 
ATOM     66  C45 UNL A   1      41.027  28.074  28.990  1.00  0.00    +0.000 C 
ATOM     67  N7  UNL A   1      40.392  28.770  30.008  1.00  0.00    +0.000 N 
ATOM     68  C46 UNL A   1      39.354  29.352  29.455  1.00  0.00    +0.000 C 
ATOM     69  C47 UNL A   1      38.292  30.206  30.093  1.00  0.00    +0.000 C 
ATOM     81  C54 UNL A   1      38.335  30.432  31.419  1.00  0.00    +0.000 C 
ATOM     82  C55 UNL A   1      37.379  31.239  32.173  1.00  0.00    +0.000 C 
ATOM     83  C56 UNL A   1      37.770  31.298  33.456  1.00  0.00    +0.000 C 
ATOM     84  C57 UNL A   1      38.986  30.501  33.624  1.00  0.00    +0.000 C 
ATOM     85  N8  UNL A   1      39.237  30.010  32.366  1.00  0.00    +0.000 N 
ATOM     86  C58 UNL A   1      39.236  29.114  28.009  1.00  0.00    +0.000 C 
ATOM     87  C59 UNL A   1      40.255  28.297  27.785  1.00  0.00    +0.000 C 
ATOM     88  C60 UNL A   1      42.690  28.725  35.784  1.00  0.00    +0.000 C 
ATOM     89  C61 UNL A   1      41.588  29.385  36.111  1.00  0.00    +0.000 C 
ATOM    121  H30 UNL A   1      45.301  25.908  32.125  1.00  0.00    +0.000 H 
ATOM    122  H31 UNL A   1      44.578  25.839  29.621  1.00  0.00    +0.000 H 
ATOM    123  H32 UNL A   1      41.893  28.223  31.684  1.00  0.00    +0.000 H 
ATOM    124  H33 UNL A   1      36.538  31.690  31.781  1.00  0.00    +0.000 H 
ATOM    125  H34 UNL A   1      37.291  31.822  34.203  1.00  0.00    +0.000 H 
ATOM    126  H35 UNL A   1      39.991  29.411  32.161  1.00  0.00    +0.000 H 
ATOM    127  H36 UNL A   1      38.543  29.488  27.343  1.00  0.00    +0.000 H 
ATOM    128  H37 UNL A   1      40.471  27.873  26.869  1.00  0.00    +0.000 H 
ENDROOT
BRANCH   33   32
ATOM    131  H40 UNL A   1      37.621  29.678  36.382  1.00  0.00    +0.000 H 
ATOM    132  H41 UNL A   1      36.790  30.836  38.343  1.00  0.00    +0.000 H 
ATOM    119  H28 UNL A   1      39.910  33.638  38.019  1.00  0.00    +0.000 H 
ATOM    120  H29 UNL A   1      40.608  32.614  35.932  1.00  0.00    +0.000 H 
ATOM     90  C62 UNL A   1      38.097  30.531  36.717  1.00  0.00    +0.000 C 
ATOM     91  C63 UNL A   1      37.644  31.170  37.870  1.00  0.00    +0.000 C 
ATOM     29  C20 UNL A   1      38.347  32.262  38.383  1.00  0.00    +0.000 C 
ATOM     30  C21 UNL A   1      39.421  32.800  37.667  1.00  0.00    +0.000 C 
ATOM     31  C22 UNL A   1      39.832  32.201  36.473  1.00  0.00    +0.000 C 
ATOM     32  C23 UNL A   1      39.196  31.039  36.007  1.00  0.00    +0.000 C 
BRANCH   29   27
ATOM     27  C19 UNL A   1      37.969  32.879  39.674  1.00  0.00    +0.000 C 
ATOM     28  O5  UNL A   1      37.087  33.732  39.702  1.00  0.00    +0.000 O 
BRANCH   27   26
ATOM     26  N4  UNL A   1      38.618  32.518  40.831  1.00  0.00    +0.000 N 
ATOM    118  H27 UNL A   1      38.311  31.677  41.238  1.00  0.00    +0.000 H 
BRANCH   26   25
ATOM     25  C18 UNL A   1      39.692  33.194  41.543  1.00  0.00    +0.000 C 
ATOM    116  H25 UNL A   1      39.568  34.251  41.426  1.00  0.00    +0.000 H 
ATOM    117  H26 UNL A   1      39.634  32.899  42.569  1.00  0.00    +0.000 H 
BRANCH   25   24
ATOM    114  H23 UNL A   1      41.650  32.456  41.863  1.00  0.00    +0.000 H 
ATOM    115  H24 UNL A   1      40.915  32.062  40.278  1.00  0.00    +0.000 H 
ATOM     24  C17 UNL A   1      41.076  32.806  41.031  1.00  0.00    +0.000 C 
BRANCH   24   23
ATOM    113  H22 UNL A   1      42.272  33.502  39.465  1.00  0.00    +0.000 H 
ATOM     23  C16 UNL A   1      41.859  33.929  40.355  1.00  0.00    +0.000 C 
ATOM    112  H21 UNL A   1      42.594  34.281  41.049  1.00  0.00    +0.000 H 
BRANCH   23   22
ATOM    110  H19 UNL A   1      40.688  34.929  38.902  1.00  0.00    +0.000 H 
ATOM     22  C15 UNL A   1      41.033  35.131  39.895  1.00  0.00    +0.000 C 
ATOM    111  H20 UNL A   1      40.254  35.235  40.620  1.00  0.00    +0.000 H 
BRANCH   22   21
ATOM    109  H18 UNL A   1      42.603  36.381  40.517  1.00  0.00    +0.000 H 
ATOM    108  H17 UNL A   1      41.065  37.234  40.196  1.00  0.00    +0.000 H 
ATOM     21  C14 UNL A   1      41.755  36.484  39.872  1.00  0.00    +0.000 C 
BRANCH   21   20
ATOM    106  H15 UNL A   1      41.936  37.879  38.277  1.00  0.00    +0.000 H 
ATOM    107  H16 UNL A   1      43.371  36.878  38.573  1.00  0.00    +0.000 H 
ATOM     20  C13 UNL A   1      42.303  36.901  38.508  1.00  0.00    +0.000 C 
BRANCH   20   19
ATOM    105  H14 UNL A   1      41.320  35.246  37.650  1.00  0.00    +0.000 H 
ATOM     19  N3  UNL A   1      41.916  36.001  37.439  1.00  0.00    +0.000 N 
BRANCH   19    2
ATOM      1  O1  UNL A   1      42.838  37.195  35.708  1.00  0.00    +0.000 O 
ATOM      2  C1  UNL A   1      42.350  36.155  36.141  1.00  0.00    +0.000 C 
BRANCH    2    3
ATOM      3  C2  UNL A   1      42.115  34.945  35.224  1.00  0.00    +0.000 C 
ATOM     92  H1  UNL A   1      41.690  34.157  35.812  1.00  0.00    +0.000 H 
ATOM     93  H2  UNL A   1      43.065  34.686  34.808  1.00  0.00    +0.000 H 
BRANCH    3    4
ATOM      4  N1  UNL A   1      41.223  35.208  34.101  1.00  0.00    +0.000 N 
ATOM     94  H3  UNL A   1      41.205  36.140  33.782  1.00  0.00    +0.000 H 
BRANCH    4    5
ATOM      5  C3  UNL A   1      40.408  34.343  33.429  1.00  0.00    +0.000 C 
ATOM      6  O2  UNL A   1      40.883  33.271  33.052  1.00  0.00    +0.000 O 
BRANCH    5    7
ATOM     95  H4  UNL A   1      38.504  33.989  32.513  1.00  0.00    +0.000 H 
ATOM      7  C4  UNL A   1      38.937  34.690  33.196  1.00  0.00    +0.000 C 
ATOM     96  H5  UNL A   1      38.853  35.672  32.782  1.00  0.00    +0.000 H 
BRANCH    7    8
ATOM     97  H6  UNL A   1      38.750  34.910  35.261  1.00  0.00    +0.000 H 
ATOM      8  N2  UNL A   1      38.243  34.625  34.466  1.00  0.00    +0.000 N 
BRANCH    8    9
ATOM      9  C5  UNL A   1      36.965  34.213  34.675  1.00  0.00    +0.000 C 
ATOM     10  O3  UNL A   1      36.608  33.847  35.786  1.00  0.00    +0.000 O 
BRANCH    9   11
ATOM     11  O4  UNL A   1      36.185  34.282  33.573  1.00  0.00    +0.000 O 
BRANCH   11   12
ATOM     98  H7  UNL A   1      35.166  35.960  34.168  1.00  0.00    +0.000 H 
ATOM     99  H8  UNL A   1      34.319  34.427  34.387  1.00  0.00    +0.000 H 
ATOM     12  C6  UNL A   1      34.952  35.002  33.744  1.00  0.00    +0.000 C 
BRANCH   12   13
ATOM    100  H9  UNL A   1      35.191  33.600  31.443  1.00  0.00    +0.000 H 
ATOM    101  H10 UNL A   1      34.147  33.986  29.296  1.00  0.00    +0.000 H 
ATOM    102  H11 UNL A   1      32.532  35.778  29.038  1.00  0.00    +0.000 H 
ATOM    103  H12 UNL A   1      31.976  37.188  30.931  1.00  0.00    +0.000 H 
ATOM    104  H13 UNL A   1      33.067  36.846  33.069  1.00  0.00    +0.000 H 
ATOM     13  C7  UNL A   1      34.229  35.199  32.433  1.00  0.00    +0.000 C 
ATOM     14  C8  UNL A   1      34.519  34.375  31.335  1.00  0.00    +0.000 C 
ATOM     15  C9  UNL A   1      33.911  34.590  30.099  1.00  0.00    +0.000 C 
ATOM     16  C10 UNL A   1      32.986  35.618  29.951  1.00  0.00    +0.000 C 
ATOM     17  C11 UNL A   1      32.672  36.433  31.039  1.00  0.00    +0.000 C 
ATOM     18  C12 UNL A   1      33.295  36.231  32.272  1.00  0.00    +0.000 C 
ENDBRANCH   12   13
ENDBRANCH   11   12
ENDBRANCH    9   11
ENDBRANCH    8    9
ENDBRANCH    7    8
ENDBRANCH    5    7
ENDBRANCH    4    5
ENDBRANCH    3    4
ENDBRANCH    2    3
ENDBRANCH   19    2
ENDBRANCH   20   19
ENDBRANCH   21   20
ENDBRANCH   22   21
ENDBRANCH   23   22
ENDBRANCH   24   23
ENDBRANCH   25   24
ENDBRANCH   26   25
ENDBRANCH   27   26
ENDBRANCH   29   27
ENDBRANCH   33   32
BRANCH   37   38
ATOM     38  C28 UNL A   1      44.771  27.117  34.633  1.00  0.00    +0.000 C 
ATOM     39  C29 UNL A   1      45.944  27.870  34.790  1.00  0.00    +0.000 C 
ATOM     40  F1  UNL A   1      46.094  29.030  34.131  1.00  0.00    +0.000 F 
ATOM     41  C30 UNL A   1      46.984  27.418  35.598  1.00  0.00    +0.000 C 
ATOM     42  F2  UNL A   1      48.113  28.134  35.697  1.00  0.00    +0.000 F 
ATOM     43  C31 UNL A   1      46.858  26.224  36.292  1.00  0.00    +0.000 C 
ATOM     44  F3  UNL A   1      47.856  25.795  37.077  1.00  0.00    +0.000 F 
ATOM     45  C32 UNL A   1      45.699  25.472  36.167  1.00  0.00    +0.000 C 
ATOM     46  F4  UNL A   1      45.571  24.325  36.848  1.00  0.00    +0.000 F 
ATOM     47  C33 UNL A   1      44.670  25.907  35.337  1.00  0.00    +0.000 C 
ATOM     48  F5  UNL A   1      43.567  25.151  35.228  1.00  0.00    +0.000 F 
ENDBRANCH   37   38
BRANCH   54   55
ATOM     65  F10 UNL A   1      41.258  24.727  28.300  1.00  0.00    +0.000 F 
ATOM     55  C39 UNL A   1      42.588  26.634  27.785  1.00  0.00    +0.000 C 
ATOM     56  C40 UNL A   1      43.497  27.231  26.901  1.00  0.00    +0.000 C 
ATOM     57  F6  UNL A   1      43.957  28.469  27.139  1.00  0.00    +0.000 F 
ATOM     58  C41 UNL A   1      43.910  26.570  25.746  1.00  0.00    +0.000 C 
ATOM     59  F7  UNL A   1      44.746  27.177  24.893  1.00  0.00    +0.000 F 
ATOM     60  C42 UNL A   1      43.449  25.291  25.473  1.00  0.00    +0.000 C 
ATOM     61  F8  UNL A   1      43.854  24.654  24.366  1.00  0.00    +0.000 F 
ATOM     62  C43 UNL A   1      42.561  24.675  26.343  1.00  0.00    +0.000 C 
ATOM     63  F9  UNL A   1      42.125  23.435  26.086  1.00  0.00    +0.000 F 
ATOM     64  C44 UNL A   1      42.124  25.345  27.482  1.00  0.00    +0.000 C 
ENDBRANCH   54   55
BRANCH   69   70
ATOM     70  C48 UNL A   1      37.190  30.778  29.275  1.00  0.00    +0.000 C 
ATOM     71  C49 UNL A   1      37.239  32.108  28.835  1.00  0.00    +0.000 C 
ATOM     72  F11 UNL A   1      38.286  32.882  29.157  1.00  0.00    +0.000 F 
ATOM     73  C50 UNL A   1      36.192  32.663  28.101  1.00  0.00    +0.000 C 
ATOM     74  F12 UNL A   1      36.242  33.951  27.737  1.00  0.00    +0.000 F 
ATOM     75  C51 UNL A   1      35.090  31.891  27.768  1.00  0.00    +0.000 C 
ATOM     76  F13 UNL A   1      34.083  32.424  27.064  1.00  0.00    +0.000 F 
ATOM     77  C52 UNL A   1      35.029  30.566  28.174  1.00  0.00    +0.000 C 
ATOM     78  F14 UNL A   1      33.972  29.812  27.843  1.00  0.00    +0.000 F 
ATOM     79  C53 UNL A   1      36.063  30.018  28.932  1.00  0.00    +0.000 C 
ATOM     80  F15 UNL A   1      35.970  28.739  29.325  1.00  0.00    +0.000 F 
ENDBRANCH   69   70
TORSDOF 23
ENDMDL
MODEL 9
REMARK VINA RESULT:      -8.7     45.654     51.447
ROOT
ATOM    129  H38 UNL A   1      15.340  56.704   3.571  1.00  0.00    +0.000 H 
ATOM    130  H39 UNL A   1      16.914  56.726   1.552  1.00  0.00    +0.000 H 
ATOM     33  C24 UNL A   1      17.286  54.163   0.362  1.00  0.00    +0.000 C 
ATOM     34  C25 UNL A   1      16.341  54.532   1.472  1.00  0.00    +0.000 C 
ATOM     35  N5  UNL A   1      15.492  53.778   2.124  1.00  0.00    +0.000 N 
ATOM     36  C26 UNL A   1      14.907  54.603   3.076  1.00  0.00    +0.000 C 
ATOM     37  C27 UNL A   1      13.925  54.309   3.960  1.00  0.00    +0.000 C 
ATOM     49  C34 UNL A   1      13.284  53.024   4.064  1.00  0.00    +0.000 C 
ATOM     50  C35 UNL A   1      12.239  52.645   4.888  1.00  0.00    +0.000 C 
ATOM     51  C36 UNL A   1      11.977  51.290   4.668  1.00  0.00    +0.000 C 
ATOM     52  C37 UNL A   1      12.825  50.836   3.672  1.00  0.00    +0.000 C 
ATOM     53  N6  UNL A   1      13.626  51.909   3.314  1.00  0.00    +0.000 N 
ATOM     54  C38 UNL A   1      12.901  49.522   3.088  1.00  0.00    +0.000 C 
ATOM     66  C45 UNL A   1      13.767  49.155   2.113  1.00  0.00    +0.000 C 
ATOM     67  N7  UNL A   1      14.725  49.921   1.463  1.00  0.00    +0.000 N 
ATOM     68  C46 UNL A   1      15.312  49.117   0.609  1.00  0.00    +0.000 C 
ATOM     69  C47 UNL A   1      16.402  49.418  -0.384  1.00  0.00    +0.000 C 
ATOM     81  C54 UNL A   1      16.878  50.673  -0.481  1.00  0.00    +0.000 C 
ATOM     82  C55 UNL A   1      17.931  51.112  -1.392  1.00  0.00    +0.000 C 
ATOM     83  C56 UNL A   1      18.192  52.410  -1.169  1.00  0.00    +0.000 C 
ATOM     84  C57 UNL A   1      17.297  52.906  -0.123  1.00  0.00    +0.000 C 
ATOM     85  N8  UNL A   1      16.540  51.810   0.212  1.00  0.00    +0.000 N 
ATOM     86  C58 UNL A   1      14.811  47.735   0.647  1.00  0.00    +0.000 C 
ATOM     87  C59 UNL A   1      13.844  47.823   1.549  1.00  0.00    +0.000 C 
ATOM     88  C60 UNL A   1      15.529  55.904   2.948  1.00  0.00    +0.000 C 
ATOM     89  C61 UNL A   1      16.374  55.931   1.927  1.00  0.00    +0.000 C 
ATOM    121  H30 UNL A   1      11.740  53.258   5.553  1.00  0.00    +0.000 H 
ATOM    122  H31 UNL A   1      11.271  50.723   5.164  1.00  0.00    +0.000 H 
ATOM    123  H32 UNL A   1      14.334  51.883   2.630  1.00  0.00    +0.000 H 
ATOM    124  H33 UNL A   1      18.399  50.519  -2.095  1.00  0.00    +0.000 H 
ATOM    125  H34 UNL A   1      18.909  52.968  -1.656  1.00  0.00    +0.000 H 
ATOM    126  H35 UNL A   1      15.822  51.836   0.886  1.00  0.00    +0.000 H 
ATOM    127  H36 UNL A   1      15.131  46.913   0.113  1.00  0.00    +0.000 H 
ATOM    128  H37 UNL A   1      13.224  47.042   1.816  1.00  0.00    +0.000 H 
ENDROOT
BRANCH   33   32
ATOM    131  H40 UNL A   1      17.021  55.815  -1.730  1.00  0.00    +0.000 H 
ATOM    132  H41 UNL A   1      18.625  57.391  -2.633  1.00  0.00    +0.000 H 
ATOM    119  H28 UNL A   1      21.294  56.473   0.486  1.00  0.00    +0.000 H 
ATOM    120  H29 UNL A   1      19.786  54.736   1.260  1.00  0.00    +0.000 H 
ATOM     90  C62 UNL A   1      17.937  55.939  -1.269  1.00  0.00    +0.000 C 
ATOM     91  C63 UNL A   1      18.839  56.878  -1.763  1.00  0.00    +0.000 C 
ATOM     29  C20 UNL A   1      20.034  57.122  -1.083  1.00  0.00    +0.000 C 
ATOM     30  C21 UNL A   1      20.388  56.329   0.013  1.00  0.00    +0.000 C 
ATOM     31  C22 UNL A   1      19.512  55.338   0.468  1.00  0.00    +0.000 C 
ATOM     32  C23 UNL A   1      18.263  55.159  -0.147  1.00  0.00    +0.000 C 
BRANCH   29   27
ATOM     27  C19 UNL A   1      20.952  58.203  -1.508  1.00  0.00    +0.000 C 
ATOM     28  O5  UNL A   1      20.489  59.261  -1.924  1.00  0.00    +0.000 O 
BRANCH   27   26
ATOM     26  N4  UNL A   1      22.312  58.016  -1.461  1.00  0.00    +0.000 N 
ATOM    118  H27 UNL A   1      22.603  57.145  -1.107  1.00  0.00    +0.000 H 
BRANCH   26   25
ATOM     25  C18 UNL A   1      23.387  58.913  -1.857  1.00  0.00    +0.000 C 
ATOM    116  H25 UNL A   1      23.960  58.440  -2.628  1.00  0.00    +0.000 H 
ATOM    117  H26 UNL A   1      22.939  59.822  -2.197  1.00  0.00    +0.000 H 
BRANCH   25   24
ATOM    114  H23 UNL A   1      24.826  58.370  -0.403  1.00  0.00    +0.000 H 
ATOM    115  H24 UNL A   1      24.977  60.024  -1.072  1.00  0.00    +0.000 H 
ATOM     24  C17 UNL A   1      24.320  59.264  -0.702  1.00  0.00    +0.000 C 
BRANCH   24   23
ATOM    113  H22 UNL A   1      23.542  59.049   1.225  1.00  0.00    +0.000 H 
ATOM     23  C16 UNL A   1      23.639  59.855   0.529  1.00  0.00    +0.000 C 
ATOM    112  H21 UNL A   1      22.704  60.275   0.218  1.00  0.00    +0.000 H 
BRANCH   23   22
ATOM    110  H19 UNL A   1      25.415  60.578   1.427  1.00  0.00    +0.000 H 
ATOM     22  C15 UNL A   1      24.423  60.946   1.261  1.00  0.00    +0.000 C 
ATOM    111  H20 UNL A   1      24.371  61.807   0.630  1.00  0.00    +0.000 H 
BRANCH   22   21
ATOM    109  H18 UNL A   1      24.066  60.601   3.303  1.00  0.00    +0.000 H 
ATOM    108  H17 UNL A   1      22.816  61.591   2.493  1.00  0.00    +0.000 H 
ATOM     21  C14 UNL A   1      23.860  61.395   2.616  1.00  0.00    +0.000 C 
BRANCH   21   20
ATOM    106  H15 UNL A   1      24.771  62.451   4.221  1.00  0.00    +0.000 H 
ATOM    107  H16 UNL A   1      25.371  62.869   2.604  1.00  0.00    +0.000 H 
ATOM     20  C13 UNL A   1      24.512  62.648   3.202  1.00  0.00    +0.000 C 
BRANCH   20   19
ATOM    105  H14 UNL A   1      23.150  64.001   2.335  1.00  0.00    +0.000 H 
ATOM     19  N3  UNL A   1      23.647  63.811   3.163  1.00  0.00    +0.000 N 
BRANCH   19    2
ATOM      1  O1  UNL A   1      22.537  64.624   5.001  1.00  0.00    +0.000 O 
ATOM      2  C1  UNL A   1      23.495  64.664   4.234  1.00  0.00    +0.000 C 
BRANCH    2    3
ATOM      3  C2  UNL A   1      24.582  65.740   4.373  1.00  0.00    +0.000 C 
ATOM     92  H1  UNL A   1      24.185  66.665   4.009  1.00  0.00    +0.000 H 
ATOM     93  H2  UNL A   1      25.425  65.400   3.810  1.00  0.00    +0.000 H 
BRANCH    3    4
ATOM      4  N1  UNL A   1      25.048  65.949   5.740  1.00  0.00    +0.000 N 
ATOM     94  H3  UNL A   1      24.895  66.850   6.106  1.00  0.00    +0.000 H 
BRANCH    4    5
ATOM      5  C3  UNL A   1      25.667  65.070   6.581  1.00  0.00    +0.000 C 
ATOM      6  O2  UNL A   1      26.522  64.320   6.110  1.00  0.00    +0.000 O 
BRANCH    5    7
ATOM     95  H4  UNL A   1      24.858  64.136   8.330  1.00  0.00    +0.000 H 
ATOM      7  C4  UNL A   1      25.331  65.061   8.072  1.00  0.00    +0.000 C 
ATOM     96  H5  UNL A   1      24.664  65.865   8.303  1.00  0.00    +0.000 H 
BRANCH    7    8
ATOM     97  H6  UNL A   1      27.091  64.388   8.963  1.00  0.00    +0.000 H 
ATOM      8  N2  UNL A   1      26.561  65.205   8.823  1.00  0.00    +0.000 N 
BRANCH    8    9
ATOM      9  C5  UNL A   1      27.061  66.352   9.353  1.00  0.00    +0.000 C 
ATOM     10  O3  UNL A   1      27.019  66.545  10.559  1.00  0.00    +0.000 O 
BRANCH    9   11
ATOM     11  O4  UNL A   1      27.600  67.186   8.434  1.00  0.00    +0.000 O 
BRANCH   11   12
ATOM     98  H7  UNL A   1      26.448  68.651   9.289  1.00  0.00    +0.000 H 
ATOM     99  H8  UNL A   1      26.446  68.601   7.524  1.00  0.00    +0.000 H 
ATOM     12  C6  UNL A   1      27.040  68.509   8.410  1.00  0.00    +0.000 C 
BRANCH   12   13
ATOM    100  H9  UNL A   1      29.691  68.275   8.894  1.00  0.00    +0.000 H 
ATOM    101  H10 UNL A   1      31.396  69.989   8.963  1.00  0.00    +0.000 H 
ATOM    102  H11 UNL A   1      30.828  72.285   8.423  1.00  0.00    +0.000 H 
ATOM    103  H12 UNL A   1      28.549  72.860   7.826  1.00  0.00    +0.000 H 
ATOM    104  H13 UNL A   1      26.823  71.157   7.817  1.00  0.00    +0.000 H 
ATOM     13  C7  UNL A   1      28.110  69.573   8.365  1.00  0.00    +0.000 C 
ATOM     14  C8  UNL A   1      29.440  69.252   8.681  1.00  0.00    +0.000 C 
ATOM     15  C9  UNL A   1      30.425  70.237   8.712  1.00  0.00    +0.000 C 
ATOM     16  C10 UNL A   1      30.099  71.554   8.404  1.00  0.00    +0.000 C 
ATOM     17  C11 UNL A   1      28.787  71.885   8.067  1.00  0.00    +0.000 C 
ATOM     18  C12 UNL A   1      27.794  70.902   8.055  1.00  0.00    +0.000 C 
ENDBRANCH   12   13
ENDBRANCH   11   12
ENDBRANCH    9   11
ENDBRANCH    8    9
ENDBRANCH    7    8
ENDBRANCH    5    7
ENDBRANCH    4    5
ENDBRANCH    3    4
ENDBRANCH    2    3
ENDBRANCH   19    2
ENDBRANCH   20   19
ENDBRANCH   21   20
ENDBRANCH   22   21
ENDBRANCH   23   22
ENDBRANCH   24   23
ENDBRANCH   25   24
ENDBRANCH   26   25
ENDBRANCH   27   26
ENDBRANCH   29   27
ENDBRANCH   33   32
BRANCH   37   38
ATOM     38  C28 UNL A   1      13.476  55.398   4.890  1.00  0.00    +0.000 C 
ATOM     39  C29 UNL A   1      12.452  56.289   4.537  1.00  0.00    +0.000 C 
ATOM     40  F1  UNL A   1      11.883  56.218   3.323  1.00  0.00    +0.000 F 
ATOM     41  C30 UNL A   1      12.028  57.281   5.418  1.00  0.00    +0.000 C 
ATOM     42  F2  UNL A   1      11.079  58.148   5.042  1.00  0.00    +0.000 F 
ATOM     43  C31 UNL A   1      12.596  57.380   6.679  1.00  0.00    +0.000 C 
ATOM     44  F3  UNL A   1      12.181  58.329   7.530  1.00  0.00    +0.000 F 
ATOM     45  C32 UNL A   1      13.597  56.497   7.057  1.00  0.00    +0.000 C 
ATOM     46  F4  UNL A   1      14.137  56.583   8.281  1.00  0.00    +0.000 F 
ATOM     47  C33 UNL A   1      14.043  55.523   6.168  1.00  0.00    +0.000 C 
ATOM     48  F5  UNL A   1      15.021  54.693   6.559  1.00  0.00    +0.000 F 
ENDBRANCH   37   38
BRANCH   54   55
ATOM     65  F10 UNL A   1      10.427  48.983   1.802  1.00  0.00    +0.000 F 
ATOM     55  C39 UNL A   1      11.933  48.485   3.578  1.00  0.00    +0.000 C 
ATOM     56  C40 UNL A   1      12.183  47.728   4.732  1.00  0.00    +0.000 C 
ATOM     57  F6  UNL A   1      13.338  47.877   5.399  1.00  0.00    +0.000 F 
ATOM     58  C41 UNL A   1      11.261  46.788   5.184  1.00  0.00    +0.000 C 
ATOM     59  F7  UNL A   1      11.540  46.045   6.264  1.00  0.00    +0.000 F 
ATOM     60  C42 UNL A   1      10.060  46.610   4.512  1.00  0.00    +0.000 C 
ATOM     61  F8  UNL A   1       9.171  45.711   4.954  1.00  0.00    +0.000 F 
ATOM     62  C43 UNL A   1       9.786  47.360   3.378  1.00  0.00    +0.000 C 
ATOM     63  F9  UNL A   1       8.621  47.198   2.736  1.00  0.00    +0.000 F 
ATOM     64  C44 UNL A   1      10.718  48.280   2.907  1.00  0.00    +0.000 C 
ENDBRANCH   54   55
BRANCH   69   70
ATOM     70  C48 UNL A   1      16.936  48.348  -1.268  1.00  0.00    +0.000 C 
ATOM     71  C49 UNL A   1      18.107  47.655  -0.929  1.00  0.00    +0.000 C 
ATOM     72  F11 UNL A   1      18.761  47.960   0.201  1.00  0.00    +0.000 F 
ATOM     73  C50 UNL A   1      18.635  46.679  -1.771  1.00  0.00    +0.000 C 
ATOM     74  F12 UNL A   1      19.782  46.068  -1.447  1.00  0.00    +0.000 F 
ATOM     75  C51 UNL A   1      17.987  46.356  -2.954  1.00  0.00    +0.000 C 
ATOM     76  F13 UNL A   1      18.495  45.417  -3.763  1.00  0.00    +0.000 F 
ATOM     77  C52 UNL A   1      16.816  47.013  -3.299  1.00  0.00    +0.000 C 
ATOM     78  F14 UNL A   1      16.179  46.693  -4.434  1.00  0.00    +0.000 F 
ATOM     79  C53 UNL A   1      16.302  48.009  -2.471  1.00  0.00    +0.000 C 
ATOM     80  F15 UNL A   1      15.177  48.640  -2.839  1.00  0.00    +0.000 F 
ENDBRANCH   69   70
TORSDOF 23
ENDMDL
MODEL 10
REMARK VINA RESULT:      -8.7      5.455      8.159
ROOT
ATOM    129  H38 UNL A   1      30.026  32.806  44.235  1.00  0.00    +0.000 H 
ATOM    130  H39 UNL A   1      27.470  32.942  44.306  1.00  0.00    +0.000 H 
ATOM     33  C24 UNL A   1      26.483  35.286  45.592  1.00  0.00    +0.000 C 
ATOM     34  C25 UNL A   1      27.912  34.950  45.265  1.00  0.00    +0.000 C 
ATOM     35  N5  UNL A   1      28.999  35.644  45.489  1.00  0.00    +0.000 N 
ATOM     36  C26 UNL A   1      30.051  34.856  45.038  1.00  0.00    +0.000 C 
ATOM     37  C27 UNL A   1      31.371  35.151  44.997  1.00  0.00    +0.000 C 
ATOM     49  C34 UNL A   1      31.938  36.401  45.433  1.00  0.00    +0.000 C 
ATOM     50  C35 UNL A   1      33.256  36.817  45.377  1.00  0.00    +0.000 C 
ATOM     51  C36 UNL A   1      33.339  38.089  45.952  1.00  0.00    +0.000 C 
ATOM     52  C37 UNL A   1      32.064  38.486  46.320  1.00  0.00    +0.000 C 
ATOM     53  N6  UNL A   1      31.215  37.438  46.002  1.00  0.00    +0.000 N 
ATOM     54  C38 UNL A   1      31.650  39.729  46.919  1.00  0.00    +0.000 C 
ATOM     66  C45 UNL A   1      30.375  40.041  47.255  1.00  0.00    +0.000 C 
ATOM     67  N7  UNL A   1      29.222  39.288  47.094  1.00  0.00    +0.000 N 
ATOM     68  C46 UNL A   1      28.245  40.016  47.579  1.00  0.00    +0.000 C 
ATOM     69  C47 UNL A   1      26.771  39.713  47.636  1.00  0.00    +0.000 C 
ATOM     81  C54 UNL A   1      26.315  38.558  47.115  1.00  0.00    +0.000 C 
ATOM     82  C55 UNL A   1      24.919  38.129  47.099  1.00  0.00    +0.000 C 
ATOM     83  C56 UNL A   1      24.844  36.901  46.561  1.00  0.00    +0.000 C 
ATOM     84  C57 UNL A   1      26.183  36.471  46.159  1.00  0.00    +0.000 C 
ATOM     85  N8  UNL A   1      26.989  37.526  46.509  1.00  0.00    +0.000 N 
ATOM     86  C58 UNL A   1      28.678  41.306  48.135  1.00  0.00    +0.000 C 
ATOM     87  C59 UNL A   1      29.978  41.289  47.874  1.00  0.00    +0.000 C 
ATOM     88  C60 UNL A   1      29.476  33.613  44.569  1.00  0.00    +0.000 C 
ATOM     89  C61 UNL A   1      28.153  33.647  44.626  1.00  0.00    +0.000 C 
ATOM    121  H30 UNL A   1      34.044  36.279  44.982  1.00  0.00    +0.000 H 
ATOM    122  H31 UNL A   1      34.203  38.639  46.079  1.00  0.00    +0.000 H 
ATOM    123  H32 UNL A   1      30.242  37.432  46.158  1.00  0.00    +0.000 H 
ATOM    124  H33 UNL A   1      24.120  38.682  47.445  1.00  0.00    +0.000 H 
ATOM    125  H34 UNL A   1      23.979  36.349  46.450  1.00  0.00    +0.000 H 
ATOM    126  H35 UNL A   1      27.960  37.542  46.342  1.00  0.00    +0.000 H 
ATOM    127  H36 UNL A   1      28.118  42.033  48.606  1.00  0.00    +0.000 H 
ATOM    128  H37 UNL A   1      30.624  42.065  48.086  1.00  0.00    +0.000 H 
ENDROOT
BRANCH   33   32
ATOM    131  H40 UNL A   1      25.745  33.268  47.190  1.00  0.00    +0.000 H 
ATOM    132  H41 UNL A   1      24.058  31.570  46.812  1.00  0.00    +0.000 H 
ATOM    119  H28 UNL A   1      22.991  33.426  43.191  1.00  0.00    +0.000 H 
ATOM    120  H29 UNL A   1      24.826  34.992  43.458  1.00  0.00    +0.000 H 
ATOM     90  C62 UNL A   1      25.174  33.292  46.330  1.00  0.00    +0.000 C 
ATOM     91  C63 UNL A   1      24.175  32.341  46.136  1.00  0.00    +0.000 C 
ATOM     29  C20 UNL A   1      23.333  32.431  45.025  1.00  0.00    +0.000 C 
ATOM     30  C21 UNL A   1      23.580  33.390  44.038  1.00  0.00    +0.000 C 
ATOM     31  C22 UNL A   1      24.628  34.302  44.199  1.00  0.00    +0.000 C 
ATOM     32  C23 UNL A   1      25.411  34.283  45.365  1.00  0.00    +0.000 C 
BRANCH   29   27
ATOM     27  C19 UNL A   1      22.182  31.516  44.859  1.00  0.00    +0.000 C 
ATOM     28  O5  UNL A   1      22.004  30.613  45.671  1.00  0.00    +0.000 O 
BRANCH   27   26
ATOM     26  N4  UNL A   1      21.331  31.660  43.790  1.00  0.00    +0.000 N 
ATOM    118  H27 UNL A   1      21.638  31.245  42.952  1.00  0.00    +0.000 H 
BRANCH   26   25
ATOM     25  C18 UNL A   1      20.042  32.332  43.712  1.00  0.00    +0.000 C 
ATOM    116  H25 UNL A   1      20.207  33.357  43.450  1.00  0.00    +0.000 H 
ATOM    117  H26 UNL A   1      19.458  31.823  42.975  1.00  0.00    +0.000 H 
BRANCH   25   24
ATOM    114  H23 UNL A   1      19.363  31.295  45.427  1.00  0.00    +0.000 H 
ATOM    115  H24 UNL A   1      19.698  33.040  45.650  1.00  0.00    +0.000 H 
ATOM     24  C17 UNL A   1      19.270  32.282  45.026  1.00  0.00    +0.000 C 
BRANCH   24   23
ATOM    113  H22 UNL A   1      17.366  32.384  45.880  1.00  0.00    +0.000 H 
ATOM     23  C16 UNL A   1      17.783  32.611  44.922  1.00  0.00    +0.000 C 
ATOM    112  H21 UNL A   1      17.373  32.029  44.121  1.00  0.00    +0.000 H 
BRANCH   23   22
ATOM    110  H19 UNL A   1      18.010  34.395  43.804  1.00  0.00    +0.000 H 
ATOM     22  C15 UNL A   1      17.445  34.079  44.657  1.00  0.00    +0.000 C 
ATOM    111  H20 UNL A   1      16.385  34.107  44.518  1.00  0.00    +0.000 H 
BRANCH   22   21
ATOM    109  H18 UNL A   1      18.322  34.522  46.514  1.00  0.00    +0.000 H 
ATOM    108  H17 UNL A   1      16.799  35.401  46.190  1.00  0.00    +0.000 H 
ATOM     21  C14 UNL A   1      17.735  35.061  45.799  1.00  0.00    +0.000 C 
BRANCH   21   20
ATOM    106  H15 UNL A   1      18.091  36.754  44.564  1.00  0.00    +0.000 H 
ATOM    107  H16 UNL A   1      18.596  36.933  46.256  1.00  0.00    +0.000 H 
ATOM     20  C13 UNL A   1      18.559  36.286  45.405  1.00  0.00    +0.000 C 
BRANCH   20   19
ATOM    105  H14 UNL A   1      20.109  35.099  44.612  1.00  0.00    +0.000 H 
ATOM     19  N3  UNL A   1      19.927  35.962  45.050  1.00  0.00    +0.000 N 
BRANCH   19    2
ATOM      1  O1  UNL A   1      21.971  36.894  44.576  1.00  0.00    +0.000 O 
ATOM      2  C1  UNL A   1      20.983  36.810  45.300  1.00  0.00    +0.000 C 
BRANCH    2    3
ATOM      3  C2  UNL A   1      20.884  37.608  46.608  1.00  0.00    +0.000 C 
ATOM     92  H1  UNL A   1      19.849  37.712  46.860  1.00  0.00    +0.000 H 
ATOM     93  H2  UNL A   1      21.363  38.548  46.431  1.00  0.00    +0.000 H 
BRANCH    3    4
ATOM      4  N1  UNL A   1      21.571  36.995  47.739  1.00  0.00    +0.000 N 
ATOM     94  H3  UNL A   1      22.404  37.438  48.021  1.00  0.00    +0.000 H 
BRANCH    4    5
ATOM      5  C3  UNL A   1      21.220  35.892  48.463  1.00  0.00    +0.000 C 
ATOM      6  O2  UNL A   1      22.107  35.098  48.779  1.00  0.00    +0.000 O 
BRANCH    5    7
ATOM     95  H4  UNL A   1      19.618  34.659  49.170  1.00  0.00    +0.000 H 
ATOM      7  C4  UNL A   1      19.770  35.683  48.900  1.00  0.00    +0.000 C 
ATOM     96  H5  UNL A   1      19.106  35.930  48.098  1.00  0.00    +0.000 H 
BRANCH    7    8
ATOM     97  H6  UNL A   1      19.588  36.116  50.931  1.00  0.00    +0.000 H 
ATOM      8  N2  UNL A   1      19.507  36.533  50.043  1.00  0.00    +0.000 N 
BRANCH    8    9
ATOM      9  C5  UNL A   1      19.162  37.847  50.017  1.00  0.00    +0.000 C 
ATOM     10  O3  UNL A   1      19.951  38.700  50.397  1.00  0.00    +0.000 O 
BRANCH    9   11
ATOM     11  O4  UNL A   1      17.924  38.074  49.524  1.00  0.00    +0.000 O 
BRANCH   11   12
ATOM     98  H7  UNL A   1      16.630  38.791  50.944  1.00  0.00    +0.000 H 
ATOM     99  H8  UNL A   1      17.160  37.122  51.158  1.00  0.00    +0.000 H 
ATOM     12  C6  UNL A   1      16.849  37.866  50.455  1.00  0.00    +0.000 C 
BRANCH   12   13
ATOM    100  H9  UNL A   1      16.622  36.293  48.266  1.00  0.00    +0.000 H 
ATOM    101  H10 UNL A   1      14.634  35.599  47.075  1.00  0.00    +0.000 H 
ATOM    102  H11 UNL A   1      12.443  36.219  47.909  1.00  0.00    +0.000 H 
ATOM    103  H12 UNL A   1      12.248  37.545  49.930  1.00  0.00    +0.000 H 
ATOM    104  H13 UNL A   1      14.238  38.298  51.093  1.00  0.00    +0.000 H 
ATOM     13  C7  UNL A   1      15.599  37.367  49.771  1.00  0.00    +0.000 C 
ATOM     14  C8  UNL A   1      15.694  36.576  48.616  1.00  0.00    +0.000 C 
ATOM     15  C9  UNL A   1      14.549  36.166  47.933  1.00  0.00    +0.000 C 
ATOM     16  C10 UNL A   1      13.292  36.523  48.411  1.00  0.00    +0.000 C 
ATOM     17  C11 UNL A   1      13.181  37.292  49.570  1.00  0.00    +0.000 C 
ATOM     18  C12 UNL A   1      14.328  37.719  50.243  1.00  0.00    +0.000 C 
ENDBRANCH   12   13
ENDBRANCH   11   12
ENDBRANCH    9   11
ENDBRANCH    8    9
ENDBRANCH    7    8
ENDBRANCH    5    7
ENDBRANCH    4    5
ENDBRANCH    3    4
ENDBRANCH    2    3
ENDBRANCH   19    2
ENDBRANCH   20   19
ENDBRANCH   21   20
ENDBRANCH   22   21
ENDBRANCH   23   22
ENDBRANCH   24   23
ENDBRANCH   25   24
ENDBRANCH   26   25
ENDBRANCH   27   26
ENDBRANCH   29   27
ENDBRANCH   33   32
BRANCH   37   38
ATOM     38  C28 UNL A   1      32.302  34.105  44.458  1.00  0.00    +0.000 C 
ATOM     39  C29 UNL A   1      32.735  34.123  43.123  1.00  0.00    +0.000 C 
ATOM     40  F1  UNL A   1      32.274  35.058  42.277  1.00  0.00    +0.000 F 
ATOM     41  C30 UNL A   1      33.617  33.160  42.641  1.00  0.00    +0.000 C 
ATOM     42  F2  UNL A   1      33.981  33.173  41.352  1.00  0.00    +0.000 F 
ATOM     43  C31 UNL A   1      34.111  32.182  43.491  1.00  0.00    +0.000 C 
ATOM     44  F3  UNL A   1      34.968  31.261  43.028  1.00  0.00    +0.000 F 
ATOM     45  C32 UNL A   1      33.712  32.155  44.819  1.00  0.00    +0.000 C 
ATOM     46  F4  UNL A   1      34.200  31.218  45.645  1.00  0.00    +0.000 F 
ATOM     47  C33 UNL A   1      32.808  33.100  45.297  1.00  0.00    +0.000 C 
ATOM     48  F5  UNL A   1      32.432  33.040  46.583  1.00  0.00    +0.000 F 
ENDBRANCH   37   38
BRANCH   54   55
ATOM     65  F10 UNL A   1      32.312  41.748  45.035  1.00  0.00    +0.000 F 
ATOM     55  C39 UNL A   1      32.705  40.767  47.169  1.00  0.00    +0.000 C 
ATOM     56  C40 UNL A   1      33.456  40.787  48.353  1.00  0.00    +0.000 C 
ATOM     57  F6  UNL A   1      33.203  39.898  49.327  1.00  0.00    +0.000 F 
ATOM     58  C41 UNL A   1      34.447  41.744  48.555  1.00  0.00    +0.000 C 
ATOM     59  F7  UNL A   1      35.123  41.771  49.712  1.00  0.00    +0.000 F 
ATOM     60  C42 UNL A   1      34.727  42.676  47.567  1.00  0.00    +0.000 C 
ATOM     61  F8  UNL A   1      35.687  43.591  47.760  1.00  0.00    +0.000 F 
ATOM     62  C43 UNL A   1      34.007  42.665  46.381  1.00  0.00    +0.000 C 
ATOM     63  F9  UNL A   1      34.286  43.557  45.421  1.00  0.00    +0.000 F 
ATOM     64  C44 UNL A   1      32.997  41.728  46.188  1.00  0.00    +0.000 C 
ENDBRANCH   54   55
BRANCH   69   70
ATOM     70  C48 UNL A   1      25.821  40.685  48.237  1.00  0.00    +0.000 C 
ATOM     71  C49 UNL A   1      25.490  40.617  49.598  1.00  0.00    +0.000 C 
ATOM     72  F11 UNL A   1      26.027  39.661  50.370  1.00  0.00    +0.000 F 
ATOM     73  C50 UNL A   1      24.571  41.500  50.161  1.00  0.00    +0.000 C 
ATOM     74  F12 UNL A   1      24.235  41.380  51.452  1.00  0.00    +0.000 F 
ATOM     75  C51 UNL A   1      23.988  42.488  49.382  1.00  0.00    +0.000 C 
ATOM     76  F13 UNL A   1      23.105  43.336  49.923  1.00  0.00    +0.000 F 
ATOM     77  C52 UNL A   1      24.317  42.589  48.038  1.00  0.00    +0.000 C 
ATOM     78  F14 UNL A   1      23.767  43.551  47.285  1.00  0.00    +0.000 F 
ATOM     79  C53 UNL A   1      25.215  41.688  47.468  1.00  0.00    +0.000 C 
ATOM     80  F15 UNL A   1      25.502  41.799  46.162  1.00  0.00    +0.000 F 
ENDBRANCH   69   70
TORSDOF 23
ENDMDL
