MODEL 1
REMARK VINA RESULT:      -7.2      0.000      0.000
ROOT
ATOM    140  H46 UNL A   1      17.540  15.249   9.160  1.00  0.00    +0.000 H 
ATOM    141  H47 UNL A   1      19.735  15.024   7.772  1.00  0.00    +0.000 H 
ATOM    142  H48 UNL A   1      17.889  18.578   6.722  1.00  0.00    +0.000 H 
ATOM    143  H49 UNL A   1      17.679  23.814   3.076  1.00  0.00    +0.000 H 
ATOM    144  H50 UNL A   1      15.583  24.064   4.488  1.00  0.00    +0.000 H 
ATOM    145  H51 UNL A   1      17.463  20.535   5.622  1.00  0.00    +0.000 H 
ATOM    146  H52 UNL A   1      21.621  20.212   2.829  1.00  0.00    +0.000 H 
ATOM    147  H53 UNL A   1      21.973  17.896   3.858  1.00  0.00    +0.000 H 
ATOM    148  H54 UNL A   1      13.858  19.128   9.648  1.00  0.00    +0.000 H 
ATOM    149  H55 UNL A   1      13.191  21.178   8.269  1.00  0.00    +0.000 H 
ATOM     36  C31 UNL A   1      15.112  21.903   6.286  1.00  0.00    +0.000 C 
ATOM     37  C32 UNL A   1      15.134  20.709   7.197  1.00  0.00    +0.000 C 
ATOM     38  N3  UNL A   1      16.022  19.750   7.282  1.00  0.00    +0.000 N 
ATOM     39  C33 UNL A   1      15.576  18.906   8.289  1.00  0.00    +0.000 C 
ATOM     40  C34 UNL A   1      16.100  17.726   8.698  1.00  0.00    +0.000 C 
ATOM     52  C41 UNL A   1      17.295  17.138   8.149  1.00  0.00    +0.000 C 
ATOM     53  C42 UNL A   1      17.895  15.933   8.475  1.00  0.00    +0.000 C 
ATOM     54  C43 UNL A   1      19.062  15.804   7.715  1.00  0.00    +0.000 C 
ATOM     55  C44 UNL A   1      19.160  16.900   6.874  1.00  0.00    +0.000 C 
ATOM     56  N4  UNL A   1      18.077  17.716   7.159  1.00  0.00    +0.000 N 
ATOM     57  C45 UNL A   1      20.167  17.181   5.881  1.00  0.00    +0.000 C 
ATOM     69  C52 UNL A   1      20.189  18.281   5.088  1.00  0.00    +0.000 C 
ATOM     70  N5  UNL A   1      19.305  19.352   5.051  1.00  0.00    +0.000 N 
ATOM     71  C53 UNL A   1      19.778  20.177   4.147  1.00  0.00    +0.000 C 
ATOM     72  C54 UNL A   1      19.214  21.487   3.667  1.00  0.00    +0.000 C 
ATOM     84  C61 UNL A   1      18.052  21.925   4.188  1.00  0.00    +0.000 C 
ATOM     85  C62 UNL A   1      17.362  23.151   3.800  1.00  0.00    +0.000 C 
ATOM     86  C63 UNL A   1      16.249  23.277   4.539  1.00  0.00    +0.000 C 
ATOM     87  C64 UNL A   1      16.128  22.121   5.429  1.00  0.00    +0.000 C 
ATOM     88  N6  UNL A   1      17.252  21.379   5.161  1.00  0.00    +0.000 N 
ATOM     89  C65 UNL A   1      21.032  19.730   3.525  1.00  0.00    +0.000 C 
ATOM     90  C66 UNL A   1      21.207  18.546   4.094  1.00  0.00    +0.000 C 
ATOM     91  C67 UNL A   1      14.374  19.498   8.836  1.00  0.00    +0.000 C 
ATOM     92  C68 UNL A   1      14.025  20.581   8.156  1.00  0.00    +0.000 C 
ENDROOT
BRANCH   36   35
ATOM     33  C28 UNL A   1      12.845  24.722   7.412  1.00  0.00    +0.000 C 
ATOM     34  C29 UNL A   1      13.942  23.866   7.316  1.00  0.00    +0.000 C 
ATOM     35  C30 UNL A   1      13.984  22.869   6.327  1.00  0.00    +0.000 C 
ATOM    138  H44 UNL A   1      12.804  25.430   8.162  1.00  0.00    +0.000 H 
ATOM    139  H45 UNL A   1      14.730  23.966   7.977  1.00  0.00    +0.000 H 
ATOM    150  H56 UNL A   1      12.959  22.058   4.666  1.00  0.00    +0.000 H 
ATOM    151  H57 UNL A   1      11.158  23.682   4.709  1.00  0.00    +0.000 H 
ATOM     93  C69 UNL A   1      12.942  22.789   5.393  1.00  0.00    +0.000 C 
ATOM     94  C70 UNL A   1      11.882  23.693   5.444  1.00  0.00    +0.000 C 
ATOM     32  C27 UNL A   1      11.801  24.616   6.491  1.00  0.00    +0.000 C 
BRANCH   32   30
ATOM     30  C26 UNL A   1      10.639  25.520   6.649  1.00  0.00    +0.000 C 
ATOM     31  O2  UNL A   1      10.296  25.880   7.765  1.00  0.00    +0.000 O 
BRANCH   30   29
ATOM    137  H43 UNL A   1       9.184  25.326   5.293  1.00  0.00    +0.000 H 
ATOM     29  N2  UNL A   1       9.923  25.923   5.548  1.00  0.00    +0.000 N 
BRANCH   29   28
ATOM     28  C25 UNL A   1      10.088  27.093   4.704  1.00  0.00    +0.000 C 
ATOM    135  H41 UNL A   1       9.341  27.813   4.967  1.00  0.00    +0.000 H 
ATOM    136  H42 UNL A   1      11.077  27.469   4.865  1.00  0.00    +0.000 H 
BRANCH   28   27
ATOM     27  C24 UNL A   1       9.955  26.774   3.218  1.00  0.00    +0.000 C 
ATOM    133  H39 UNL A   1       9.361  25.889   3.123  1.00  0.00    +0.000 H 
ATOM    134  H40 UNL A   1       9.513  27.639   2.769  1.00  0.00    +0.000 H 
BRANCH   27   26
ATOM     26  C23 UNL A   1      11.273  26.540   2.476  1.00  0.00    +0.000 C 
ATOM    131  H37 UNL A   1      12.029  27.126   2.957  1.00  0.00    +0.000 H 
ATOM    132  H38 UNL A   1      11.448  25.485   2.520  1.00  0.00    +0.000 H 
BRANCH   26   25
ATOM     25  C22 UNL A   1      11.273  26.902   0.987  1.00  0.00    +0.000 C 
ATOM    130  H36 UNL A   1      11.163  27.965   0.941  1.00  0.00    +0.000 H 
ATOM    129  H35 UNL A   1      10.474  26.367   0.517  1.00  0.00    +0.000 H 
BRANCH   25   24
ATOM    128  H34 UNL A   1      12.870  25.587   0.500  1.00  0.00    +0.000 H 
ATOM    127  H33 UNL A   1      13.317  27.293   0.507  1.00  0.00    +0.000 H 
ATOM     24  C21 UNL A   1      12.568  26.578   0.233  1.00  0.00    +0.000 C 
BRANCH   24   23
ATOM    125  H31 UNL A   1      11.345  26.409  -1.496  1.00  0.00    +0.000 H 
ATOM    126  H32 UNL A   1      12.645  27.603  -1.612  1.00  0.00    +0.000 H 
ATOM     23  C20 UNL A   1      12.370  26.624  -1.278  1.00  0.00    +0.000 C 
BRANCH   23   22
ATOM    124  H30 UNL A   1      13.008  24.719  -1.802  1.00  0.00    +0.000 H 
ATOM     22  N1  UNL A   1      13.208  25.667  -1.978  1.00  0.00    +0.000 N 
BRANCH   22   20
ATOM     20  C19 UNL A   1      14.230  25.899  -2.843  1.00  0.00    +0.000 C 
ATOM     21  O1  UNL A   1      14.036  25.575  -4.020  1.00  0.00    +0.000 O 
BRANCH   20   19
ATOM    122  H28 UNL A   1      15.572  27.507  -2.752  1.00  0.00    +0.000 H 
ATOM     19  C18 UNL A   1      15.575  26.482  -2.445  1.00  0.00    +0.000 C 
ATOM    123  H29 UNL A   1      15.629  26.287  -1.395  1.00  0.00    +0.000 H 
BRANCH   19   18
ATOM    121  H27 UNL A   1      17.338  26.693  -3.456  1.00  0.00    +0.000 H 
ATOM     18  C17 UNL A   1      16.848  25.867  -2.983  1.00  0.00    +0.000 C 
ATOM    120  H26 UNL A   1      16.556  25.046  -3.601  1.00  0.00    +0.000 H 
BRANCH   18   17
ATOM     17  C16 UNL A   1      17.909  25.338  -2.022  1.00  0.00    +0.000 C 
ATOM    118  H24 UNL A   1      17.363  25.048  -1.149  1.00  0.00    +0.000 H 
ATOM    119  H25 UNL A   1      18.401  24.659  -2.687  1.00  0.00    +0.000 H 
BRANCH   17   16
ATOM     16  S1  UNL A   1      19.400  26.216  -1.371  1.00  0.00    +0.000 S 
BRANCH   16   15
ATOM    116  H22 UNL A   1      18.507  28.171  -2.425  1.00  0.00    +0.000 H 
ATOM    117  H23 UNL A   1      19.327  28.511  -0.848  1.00  0.00    +0.000 H 
ATOM     15  C15 UNL A   1      19.356  28.011  -1.795  1.00  0.00    +0.000 C 
BRANCH   15   14
ATOM    114  H20 UNL A   1      21.460  28.364  -1.946  1.00  0.00    +0.000 H 
ATOM    115  H21 UNL A   1      20.580  28.196  -3.504  1.00  0.00    +0.000 H 
ATOM     14  C14 UNL A   1      20.592  28.615  -2.518  1.00  0.00    +0.000 C 
BRANCH   14   13
ATOM    113  H19 UNL A   1      20.002  30.461  -3.490  1.00  0.00    +0.000 H 
ATOM     13  C13 UNL A   1      20.582  30.108  -2.712  1.00  0.00    +0.000 C 
BRANCH   13   12
ATOM     12  C12 UNL A   1      21.240  31.036  -1.994  1.00  0.00    +0.000 C 
ATOM    112  H18 UNL A   1      22.270  31.058  -2.042  1.00  0.00    +0.000 H 
BRANCH   12   11
ATOM     11  C11 UNL A   1      20.533  32.053  -1.115  1.00  0.00    +0.000 C 
ATOM    110  H16 UNL A   1      21.279  32.640  -0.622  1.00  0.00    +0.000 H 
ATOM    111  H17 UNL A   1      19.903  32.622  -1.767  1.00  0.00    +0.000 H 
BRANCH   11   10
ATOM     10  C10 UNL A   1      19.631  31.472  -0.066  1.00  0.00    +0.000 C 
ATOM    109  H15 UNL A   1      20.061  31.009   0.749  1.00  0.00    +0.000 H 
BRANCH   10    9
ATOM      9  C9  UNL A   1      18.290  31.528  -0.136  1.00  0.00    +0.000 C 
ATOM    108  H14 UNL A   1      17.853  32.434  -0.367  1.00  0.00    +0.000 H 
BRANCH    9    8
ATOM    106  H12 UNL A   1      17.972  29.457   0.193  1.00  0.00    +0.000 H 
ATOM    107  H13 UNL A   1      16.831  30.488   1.006  1.00  0.00    +0.000 H 
ATOM      8  C8  UNL A   1      17.387  30.349   0.103  1.00  0.00    +0.000 C 
BRANCH    8    7
ATOM    105  H11 UNL A   1      16.864  30.258  -2.011  1.00  0.00    +0.000 H 
ATOM      7  C7  UNL A   1      16.454  30.227  -1.064  1.00  0.00    +0.000 C 
BRANCH    7    6
ATOM      6  C6  UNL A   1      15.125  30.082  -0.965  1.00  0.00    +0.000 C 
ATOM    104  H10 UNL A   1      14.676  29.307  -1.477  1.00  0.00    +0.000 H 
BRANCH    6    5
ATOM      5  C5  UNL A   1      14.258  30.991  -0.142  1.00  0.00    +0.000 C 
ATOM    102  H8  UNL A   1      13.418  30.445   0.230  1.00  0.00    +0.000 H 
ATOM    103  H9  UNL A   1      14.820  31.377   0.683  1.00  0.00    +0.000 H 
BRANCH    5    4
ATOM      4  C4  UNL A   1      13.782  32.123  -1.008  1.00  0.00    +0.000 C 
ATOM    101  H7  UNL A   1      13.894  33.084  -0.651  1.00  0.00    +0.000 H 
BRANCH    4    3
ATOM      3  C3  UNL A   1      13.218  31.964  -2.215  1.00  0.00    +0.000 C 
ATOM    100  H6  UNL A   1      12.479  31.252  -2.318  1.00  0.00    +0.000 H 
BRANCH    3    2
ATOM      2  C2  UNL A   1      13.606  32.765  -3.423  1.00  0.00    +0.000 C 
ATOM     99  H5  UNL A   1      14.497  33.314  -3.201  1.00  0.00    +0.000 H 
ATOM     98  H4  UNL A   1      12.810  33.435  -3.671  1.00  0.00    +0.000 H 
BRANCH    2    1
ATOM      1  C1  UNL A   1      13.875  31.847  -4.607  1.00  0.00    +0.000 C 
ATOM     97  H3  UNL A   1      13.082  31.134  -4.692  1.00  0.00    +0.000 H 
ATOM     95  H1  UNL A   1      14.802  31.335  -4.457  1.00  0.00    +0.000 H 
ATOM     96  H2  UNL A   1      13.930  32.428  -5.503  1.00  0.00    +0.000 H 
ENDBRANCH    2    1
ENDBRANCH    3    2
ENDBRANCH    4    3
ENDBRANCH    5    4
ENDBRANCH    6    5
ENDBRANCH    7    6
ENDBRANCH    8    7
ENDBRANCH    9    8
ENDBRANCH   10    9
ENDBRANCH   11   10
ENDBRANCH   12   11
ENDBRANCH   13   12
ENDBRANCH   14   13
ENDBRANCH   15   14
ENDBRANCH   16   15
ENDBRANCH   17   16
ENDBRANCH   18   17
ENDBRANCH   19   18
ENDBRANCH   20   19
ENDBRANCH   22   20
ENDBRANCH   23   22
ENDBRANCH   24   23
ENDBRANCH   25   24
ENDBRANCH   26   25
ENDBRANCH   27   26
ENDBRANCH   28   27
ENDBRANCH   29   28
ENDBRANCH   30   29
ENDBRANCH   32   30
ENDBRANCH   36   35
BRANCH   40   41
ATOM     41  C35 UNL A   1      15.376  16.979   9.781  1.00  0.00    +0.000 C 
ATOM     42  C36 UNL A   1      15.519  17.331  11.132  1.00  0.00    +0.000 C 
ATOM     43  F1  UNL A   1      16.368  18.307  11.489  1.00  0.00    +0.000 F 
ATOM     44  C37 UNL A   1      14.815  16.659  12.129  1.00  0.00    +0.000 C 
ATOM     45  F2  UNL A   1      15.001  16.985  13.415  1.00  0.00    +0.000 F 
ATOM     46  C38 UNL A   1      13.928  15.648  11.792  1.00  0.00    +0.000 C 
ATOM     47  F3  UNL A   1      13.239  15.012  12.750  1.00  0.00    +0.000 F 
ATOM     48  C39 UNL A   1      13.758  15.293  10.463  1.00  0.00    +0.000 C 
ATOM     49  F4  UNL A   1      12.890  14.326  10.134  1.00  0.00    +0.000 F 
ATOM     50  C40 UNL A   1      14.483  15.942   9.466  1.00  0.00    +0.000 C 
ATOM     51  F5  UNL A   1      14.304  15.568   8.191  1.00  0.00    +0.000 F 
ENDBRANCH   40   41
BRANCH   57   58
ATOM     65  C50 UNL A   1      22.149  14.231   4.518  1.00  0.00    +0.000 C 
ATOM     66  F9  UNL A   1      21.999  13.268   3.597  1.00  0.00    +0.000 F 
ATOM     67  C51 UNL A   1      21.140  15.169   4.711  1.00  0.00    +0.000 C 
ATOM     68  F10 UNL A   1      20.035  15.092   3.953  1.00  0.00    +0.000 F 
ATOM     58  C46 UNL A   1      21.264  16.175   5.682  1.00  0.00    +0.000 C 
ATOM     59  C47 UNL A   1      22.436  16.201   6.453  1.00  0.00    +0.000 C 
ATOM     60  F6  UNL A   1      22.612  17.150   7.384  1.00  0.00    +0.000 F 
ATOM     61  C48 UNL A   1      23.460  15.283   6.230  1.00  0.00    +0.000 C 
ATOM     62  F7  UNL A   1      24.598  15.370   6.933  1.00  0.00    +0.000 F 
ATOM     63  C49 UNL A   1      23.314  14.297   5.267  1.00  0.00    +0.000 C 
ATOM     64  F8  UNL A   1      24.300  13.416   5.055  1.00  0.00    +0.000 F 
ENDBRANCH   57   58
BRANCH   72   73
ATOM     73  C55 UNL A   1      19.917  22.286   2.628  1.00  0.00    +0.000 C 
ATOM     74  C56 UNL A   1      19.739  22.024   1.263  1.00  0.00    +0.000 C 
ATOM     75  F11 UNL A   1      18.913  21.041   0.872  1.00  0.00    +0.000 F 
ATOM     76  C57 UNL A   1      20.449  22.729   0.294  1.00  0.00    +0.000 C 
ATOM     77  F12 UNL A   1      20.308  22.412  -1.001  1.00  0.00    +0.000 F 
ATOM     78  C58 UNL A   1      21.322  23.740   0.669  1.00  0.00    +0.000 C 
ATOM     79  F13 UNL A   1      22.006  24.417  -0.263  1.00  0.00    +0.000 F 
ATOM     80  C59 UNL A   1      21.490  24.041   2.011  1.00  0.00    +0.000 C 
ATOM     81  F14 UNL A   1      22.317  25.029   2.377  1.00  0.00    +0.000 F 
ATOM     82  C60 UNL A   1      20.807  23.311   2.982  1.00  0.00    +0.000 C 
ATOM     83  F15 UNL A   1      21.010  23.610   4.273  1.00  0.00    +0.000 F 
ENDBRANCH   72   73
TORSDOF 33
ENDMDL
MODEL 2
REMARK VINA RESULT:      -6.9     51.802     57.837
ROOT
ATOM    140  H46 UNL A   1      47.490   9.173  48.054  1.00  0.00    +0.000 H 
ATOM    141  H47 UNL A   1      48.116   7.308  49.765  1.00  0.00    +0.000 H 
ATOM    142  H48 UNL A   1      45.245   9.744  51.487  1.00  0.00    +0.000 H 
ATOM    143  H49 UNL A   1      41.674  11.338  56.533  1.00  0.00    +0.000 H 
ATOM    144  H50 UNL A   1      41.013  13.105  54.834  1.00  0.00    +0.000 H 
ATOM    145  H51 UNL A   1      43.829  10.622  53.051  1.00  0.00    +0.000 H 
ATOM    146  H52 UNL A   1      44.976   7.134  56.474  1.00  0.00    +0.000 H 
ATOM    147  H53 UNL A   1      46.755   6.301  54.835  1.00  0.00    +0.000 H 
ATOM    148  H54 UNL A   1      43.834  13.107  48.050  1.00  0.00    +0.000 H 
ATOM    149  H55 UNL A   1      42.440  14.289  49.842  1.00  0.00    +0.000 H 
ATOM     36  C31 UNL A   1      42.402  12.927  52.350  1.00  0.00    +0.000 C 
ATOM     37  C32 UNL A   1      43.190  12.572  51.121  1.00  0.00    +0.000 C 
ATOM     38  N3  UNL A   1      44.020  11.578  50.930  1.00  0.00    +0.000 N 
ATOM     39  C33 UNL A   1      44.464  11.699  49.621  1.00  0.00    +0.000 C 
ATOM     40  C34 UNL A   1      45.399  10.963  48.973  1.00  0.00    +0.000 C 
ATOM     52  C41 UNL A   1      46.099   9.848  49.558  1.00  0.00    +0.000 C 
ATOM     53  C42 UNL A   1      47.084   9.054  48.995  1.00  0.00    +0.000 C 
ATOM     54  C43 UNL A   1      47.433   8.066  49.921  1.00  0.00    +0.000 C 
ATOM     55  C44 UNL A   1      46.709   8.278  51.082  1.00  0.00    +0.000 C 
ATOM     56  N4  UNL A   1      45.885   9.367  50.842  1.00  0.00    +0.000 N 
ATOM     57  C45 UNL A   1      46.764   7.543  52.321  1.00  0.00    +0.000 C 
ATOM     69  C52 UNL A   1      46.021   7.819  53.421  1.00  0.00    +0.000 C 
ATOM     70  N5  UNL A   1      45.069   8.813  53.608  1.00  0.00    +0.000 N 
ATOM     71  C53 UNL A   1      44.605   8.642  54.823  1.00  0.00    +0.000 C 
ATOM     72  C54 UNL A   1      43.575   9.446  55.571  1.00  0.00    +0.000 C 
ATOM     84  C61 UNL A   1      43.024  10.517  54.968  1.00  0.00    +0.000 C 
ATOM     85  C62 UNL A   1      42.044  11.414  55.573  1.00  0.00    +0.000 C 
ATOM     86  C63 UNL A   1      41.704  12.355  54.678  1.00  0.00    +0.000 C 
ATOM     87  C64 UNL A   1      42.469  12.147  53.447  1.00  0.00    +0.000 C 
ATOM     88  N6  UNL A   1      43.215  11.024  53.707  1.00  0.00    +0.000 N 
ATOM     89  C65 UNL A   1      45.198   7.502  55.536  1.00  0.00    +0.000 C 
ATOM     90  C66 UNL A   1      46.092   7.072  54.658  1.00  0.00    +0.000 C 
ATOM     91  C67 UNL A   1      43.761  12.821  49.038  1.00  0.00    +0.000 C 
ATOM     92  C68 UNL A   1      43.007  13.432  49.941  1.00  0.00    +0.000 C 
ENDROOT
BRANCH   36   35
ATOM     33  C28 UNL A   1      39.319  15.120  52.177  1.00  0.00    +0.000 C 
ATOM     34  C29 UNL A   1      40.136  13.993  52.243  1.00  0.00    +0.000 C 
ATOM     35  C30 UNL A   1      41.529  14.129  52.372  1.00  0.00    +0.000 C 
ATOM    138  H44 UNL A   1      38.300  15.016  52.048  1.00  0.00    +0.000 H 
ATOM    139  H45 UNL A   1      39.715  13.051  52.196  1.00  0.00    +0.000 H 
ATOM    150  H56 UNL A   1      43.102  15.523  52.596  1.00  0.00    +0.000 H 
ATOM    151  H57 UNL A   1      41.656  17.468  52.694  1.00  0.00    +0.000 H 
ATOM     93  C69 UNL A   1      42.081  15.410  52.506  1.00  0.00    +0.000 C 
ATOM     94  C70 UNL A   1      41.255  16.533  52.516  1.00  0.00    +0.000 C 
ATOM     32  C27 UNL A   1      39.883  16.393  52.287  1.00  0.00    +0.000 C 
BRANCH   32   30
ATOM     30  C26 UNL A   1      38.985  17.565  52.177  1.00  0.00    +0.000 C 
ATOM     31  O2  UNL A   1      37.794  17.443  52.419  1.00  0.00    +0.000 O 
BRANCH   30   29
ATOM    137  H43 UNL A   1      39.607  19.439  52.487  1.00  0.00    +0.000 H 
ATOM     29  N2  UNL A   1      39.481  18.779  51.768  1.00  0.00    +0.000 N 
BRANCH   29   28
ATOM     28  C25 UNL A   1      39.848  19.240  50.441  1.00  0.00    +0.000 C 
ATOM    135  H41 UNL A   1      40.566  18.561  50.030  1.00  0.00    +0.000 H 
ATOM    136  H42 UNL A   1      38.954  19.276  49.854  1.00  0.00    +0.000 H 
BRANCH   28   27
ATOM     27  C24 UNL A   1      40.450  20.642  50.446  1.00  0.00    +0.000 C 
ATOM    133  H39 UNL A   1      39.986  21.203  49.662  1.00  0.00    +0.000 H 
ATOM    134  H40 UNL A   1      40.268  21.036  51.423  1.00  0.00    +0.000 H 
BRANCH   27   26
ATOM     26  C23 UNL A   1      41.966  20.706  50.240  1.00  0.00    +0.000 C 
ATOM    131  H37 UNL A   1      42.146  21.023  49.234  1.00  0.00    +0.000 H 
ATOM    132  H38 UNL A   1      42.331  21.385  50.981  1.00  0.00    +0.000 H 
BRANCH   26   25
ATOM     25  C22 UNL A   1      42.725  19.394  50.464  1.00  0.00    +0.000 C 
ATOM    130  H36 UNL A   1      42.011  18.611  50.317  1.00  0.00    +0.000 H 
ATOM    129  H35 UNL A   1      43.140  19.417  51.450  1.00  0.00    +0.000 H 
BRANCH   25   24
ATOM    128  H34 UNL A   1      44.778  19.054  50.030  1.00  0.00    +0.000 H 
ATOM    127  H33 UNL A   1      43.905  19.916  48.763  1.00  0.00    +0.000 H 
ATOM     24  C21 UNL A   1      43.865  19.119  49.476  1.00  0.00    +0.000 C 
BRANCH   24   23
ATOM    125  H31 UNL A   1      42.625  17.691  48.506  1.00  0.00    +0.000 H 
ATOM    126  H32 UNL A   1      44.259  17.837  47.844  1.00  0.00    +0.000 H 
ATOM     23  C20 UNL A   1      43.665  17.802  48.734  1.00  0.00    +0.000 C 
BRANCH   23   22
ATOM    124  H30 UNL A   1      43.408  15.972  49.681  1.00  0.00    +0.000 H 
ATOM     22  N1  UNL A   1      44.098  16.655  49.511  1.00  0.00    +0.000 N 
BRANCH   22   20
ATOM     20  C19 UNL A   1      45.324  16.392  50.035  1.00  0.00    +0.000 C 
ATOM     21  O1  UNL A   1      46.229  16.161  49.226  1.00  0.00    +0.000 O 
BRANCH   20   19
ATOM    122  H28 UNL A   1      45.567  17.333  51.893  1.00  0.00    +0.000 H 
ATOM     19  C18 UNL A   1      45.624  16.331  51.523  1.00  0.00    +0.000 C 
ATOM    123  H29 UNL A   1      44.905  15.631  51.893  1.00  0.00    +0.000 H 
BRANCH   19   18
ATOM    121  H27 UNL A   1      47.167  16.356  52.862  1.00  0.00    +0.000 H 
ATOM     18  C17 UNL A   1      46.943  15.763  51.999  1.00  0.00    +0.000 C 
ATOM    120  H26 UNL A   1      47.619  15.818  51.172  1.00  0.00    +0.000 H 
BRANCH   18   17
ATOM     17  C16 UNL A   1      47.016  14.335  52.531  1.00  0.00    +0.000 C 
ATOM    118  H24 UNL A   1      47.720  14.382  53.336  1.00  0.00    +0.000 H 
ATOM    119  H25 UNL A   1      45.968  14.154  52.648  1.00  0.00    +0.000 H 
BRANCH   17   16
ATOM     16  S1  UNL A   1      47.461  12.794  51.611  1.00  0.00    +0.000 S 
BRANCH   16   15
ATOM    116  H22 UNL A   1      48.994  13.908  50.148  1.00  0.00    +0.000 H 
ATOM    117  H23 UNL A   1      49.805  12.971  51.467  1.00  0.00    +0.000 H 
ATOM     15  C15 UNL A   1      49.054  12.995  50.703  1.00  0.00    +0.000 C 
BRANCH   15   14
ATOM    114  H20 UNL A   1      48.602  11.277  49.513  1.00  0.00    +0.000 H 
ATOM    115  H21 UNL A   1      49.858  12.380  48.851  1.00  0.00    +0.000 H 
ATOM     14  C14 UNL A   1      49.468  11.874  49.710  1.00  0.00    +0.000 C 
BRANCH   14   13
ATOM    113  H19 UNL A   1      51.518  11.178  49.836  1.00  0.00    +0.000 H 
ATOM     13  C13 UNL A   1      50.567  10.954  50.171  1.00  0.00    +0.000 C 
BRANCH   13   12
ATOM     12  C12 UNL A   1      50.458   9.874  50.967  1.00  0.00    +0.000 C 
ATOM    112  H18 UNL A   1      49.810   9.916  51.768  1.00  0.00    +0.000 H 
BRANCH   12   11
ATOM     11  C11 UNL A   1      51.246   8.597  50.737  1.00  0.00    +0.000 C 
ATOM    110  H16 UNL A   1      50.552   7.785  50.682  1.00  0.00    +0.000 H 
ATOM    111  H17 UNL A   1      51.800   8.747  49.833  1.00  0.00    +0.000 H 
BRANCH   11   10
ATOM     10  C10 UNL A   1      52.259   8.272  51.795  1.00  0.00    +0.000 C 
ATOM    109  H15 UNL A   1      52.786   7.389  51.715  1.00  0.00    +0.000 H 
BRANCH   10    9
ATOM      9  C9  UNL A   1      52.513   9.076  52.842  1.00  0.00    +0.000 C 
ATOM    108  H14 UNL A   1      52.595  10.090  52.667  1.00  0.00    +0.000 H 
BRANCH    9    8
ATOM    106  H12 UNL A   1      51.951   7.841  54.472  1.00  0.00    +0.000 H 
ATOM    107  H13 UNL A   1      53.659   8.157  54.377  1.00  0.00    +0.000 H 
ATOM      8  C8  UNL A   1      52.687   8.586  54.254  1.00  0.00    +0.000 C 
BRANCH    8    7
ATOM    105  H11 UNL A   1      53.360  10.120  55.649  1.00  0.00    +0.000 H 
ATOM      7  C7  UNL A   1      52.517   9.753  55.180  1.00  0.00    +0.000 C 
BRANCH    7    6
ATOM      6  C6  UNL A   1      51.346  10.352  55.443  1.00  0.00    +0.000 C 
ATOM    104  H10 UNL A   1      50.535   9.761  55.684  1.00  0.00    +0.000 H 
BRANCH    6    5
ATOM      5  C5  UNL A   1      51.158  11.841  55.404  1.00  0.00    +0.000 C 
ATOM    102  H8  UNL A   1      50.363  12.120  56.062  1.00  0.00    +0.000 H 
ATOM    103  H9  UNL A   1      52.059  12.328  55.715  1.00  0.00    +0.000 H 
BRANCH    5    4
ATOM      4  C4  UNL A   1      50.818  12.252  53.999  1.00  0.00    +0.000 C 
ATOM    101  H7  UNL A   1      49.872  12.037  53.649  1.00  0.00    +0.000 H 
BRANCH    4    3
ATOM      3  C3  UNL A   1      51.665  12.879  53.170  1.00  0.00    +0.000 C 
ATOM    100  H6  UNL A   1      51.273  13.520  52.463  1.00  0.00    +0.000 H 
BRANCH    3    2
ATOM      2  C2  UNL A   1      53.154  12.697  53.214  1.00  0.00    +0.000 C 
ATOM     99  H5  UNL A   1      53.381  11.845  53.820  1.00  0.00    +0.000 H 
ATOM     98  H4  UNL A   1      53.604  13.575  53.628  1.00  0.00    +0.000 H 
BRANCH    2    1
ATOM      1  C1  UNL A   1      53.704  12.465  51.814  1.00  0.00    +0.000 C 
ATOM     97  H3  UNL A   1      54.600  11.883  51.875  1.00  0.00    +0.000 H 
ATOM     95  H1  UNL A   1      53.920  13.407  51.355  1.00  0.00    +0.000 H 
ATOM     96  H2  UNL A   1      52.978  11.941  51.228  1.00  0.00    +0.000 H 
ENDBRANCH    2    1
ENDBRANCH    3    2
ENDBRANCH    4    3
ENDBRANCH    5    4
ENDBRANCH    6    5
ENDBRANCH    7    6
ENDBRANCH    8    7
ENDBRANCH    9    8
ENDBRANCH   10    9
ENDBRANCH   11   10
ENDBRANCH   12   11
ENDBRANCH   13   12
ENDBRANCH   14   13
ENDBRANCH   15   14
ENDBRANCH   16   15
ENDBRANCH   17   16
ENDBRANCH   18   17
ENDBRANCH   19   18
ENDBRANCH   20   19
ENDBRANCH   22   20
ENDBRANCH   23   22
ENDBRANCH   24   23
ENDBRANCH   25   24
ENDBRANCH   26   25
ENDBRANCH   27   26
ENDBRANCH   28   27
ENDBRANCH   29   28
ENDBRANCH   30   29
ENDBRANCH   32   30
ENDBRANCH   36   35
BRANCH   40   41
ATOM     41  C35 UNL A   1      45.735  11.350  47.561  1.00  0.00    +0.000 C 
ATOM     42  C36 UNL A   1      45.265  10.605  46.468  1.00  0.00    +0.000 C 
ATOM     43  F1  UNL A   1      44.558   9.482  46.671  1.00  0.00    +0.000 F 
ATOM     44  C37 UNL A   1      45.549  10.990  45.160  1.00  0.00    +0.000 C 
ATOM     45  F2  UNL A   1      45.126  10.238  44.135  1.00  0.00    +0.000 F 
ATOM     46  C38 UNL A   1      46.274  12.147  44.918  1.00  0.00    +0.000 C 
ATOM     47  F3  UNL A   1      46.533  12.525  43.659  1.00  0.00    +0.000 F 
ATOM     48  C39 UNL A   1      46.735  12.908  45.981  1.00  0.00    +0.000 C 
ATOM     49  F4  UNL A   1      47.424  14.034  45.748  1.00  0.00    +0.000 F 
ATOM     50  C40 UNL A   1      46.480  12.508  47.291  1.00  0.00    +0.000 C 
ATOM     51  F5  UNL A   1      46.949  13.261  48.297  1.00  0.00    +0.000 F 
ENDBRANCH   40   41
BRANCH   57   58
ATOM     65  C50 UNL A   1      49.929   5.553  53.035  1.00  0.00    +0.000 C 
ATOM     66  F9  UNL A   1      51.162   5.776  53.513  1.00  0.00    +0.000 F 
ATOM     67  C51 UNL A   1      49.023   6.604  52.937  1.00  0.00    +0.000 C 
ATOM     68  F10 UNL A   1      49.406   7.825  53.340  1.00  0.00    +0.000 F 
ATOM     58  C46 UNL A   1      47.733   6.400  52.422  1.00  0.00    +0.000 C 
ATOM     59  C47 UNL A   1      47.390   5.105  52.005  1.00  0.00    +0.000 C 
ATOM     60  F6  UNL A   1      46.166   4.853  51.519  1.00  0.00    +0.000 F 
ATOM     61  C48 UNL A   1      48.288   4.049  52.141  1.00  0.00    +0.000 C 
ATOM     62  F7  UNL A   1      47.913   2.807  51.799  1.00  0.00    +0.000 F 
ATOM     63  C49 UNL A   1      49.558   4.273  52.650  1.00  0.00    +0.000 C 
ATOM     64  F8  UNL A   1      50.418   3.256  52.780  1.00  0.00    +0.000 F 
ENDBRANCH   57   58
BRANCH   72   73
ATOM     73  C55 UNL A   1      43.176   9.077  56.955  1.00  0.00    +0.000 C 
ATOM     74  C56 UNL A   1      42.222   8.078  57.195  1.00  0.00    +0.000 C 
ATOM     75  F11 UNL A   1      41.658   7.429  56.165  1.00  0.00    +0.000 F 
ATOM     76  C57 UNL A   1      41.800   7.780  58.490  1.00  0.00    +0.000 C 
ATOM     77  F12 UNL A   1      40.839   6.867  58.685  1.00  0.00    +0.000 F 
ATOM     78  C58 UNL A   1      42.355   8.446  59.573  1.00  0.00    +0.000 C 
ATOM     79  F13 UNL A   1      41.948   8.160  60.817  1.00  0.00    +0.000 F 
ATOM     80  C59 UNL A   1      43.325   9.414  59.363  1.00  0.00    +0.000 C 
ATOM     81  F14 UNL A   1      43.877  10.046  60.407  1.00  0.00    +0.000 F 
ATOM     82  C60 UNL A   1      43.719   9.738  58.066  1.00  0.00    +0.000 C 
ATOM     83  F15 UNL A   1      44.641  10.696  57.895  1.00  0.00    +0.000 F 
ENDBRANCH   72   73
TORSDOF 33
ENDMDL
MODEL 3
REMARK VINA RESULT:      -6.9      3.782      5.889
ROOT
ATOM    140  H46 UNL A   1      16.850  17.552   8.625  1.00  0.00    +0.000 H 
ATOM    141  H47 UNL A   1      19.268  16.976   9.410  1.00  0.00    +0.000 H 
ATOM    142  H48 UNL A   1      19.523  19.121   5.878  1.00  0.00    +0.000 H 
ATOM    143  H49 UNL A   1      23.055  21.572   1.159  1.00  0.00    +0.000 H 
ATOM    144  H50 UNL A   1      20.701  22.196   0.440  1.00  0.00    +0.000 H 
ATOM    145  H51 UNL A   1      20.424  20.121   4.031  1.00  0.00    +0.000 H 
ATOM    146  H52 UNL A   1      25.135  19.032   5.378  1.00  0.00    +0.000 H 
ATOM    147  H53 UNL A   1      24.131  17.683   7.306  1.00  0.00    +0.000 H 
ATOM    148  H54 UNL A   1      14.879  20.489   4.584  1.00  0.00    +0.000 H 
ATOM    149  H55 UNL A   1      15.806  21.384   2.372  1.00  0.00    +0.000 H 
ATOM     36  C31 UNL A   1      18.651  21.252   2.182  1.00  0.00    +0.000 C 
ATOM     37  C32 UNL A   1      17.776  20.730   3.287  1.00  0.00    +0.000 C 
ATOM     38  N3  UNL A   1      18.117  20.109   4.388  1.00  0.00    +0.000 N 
ATOM     39  C33 UNL A   1      16.932  19.858   5.065  1.00  0.00    +0.000 C 
ATOM     40  C34 UNL A   1      16.745  19.164   6.214  1.00  0.00    +0.000 C 
ATOM     52  C41 UNL A   1      17.809  18.569   6.982  1.00  0.00    +0.000 C 
ATOM     53  C42 UNL A   1      17.722  17.822   8.145  1.00  0.00    +0.000 C 
ATOM     54  C43 UNL A   1      19.019  17.497   8.554  1.00  0.00    +0.000 C 
ATOM     55  C44 UNL A   1      19.912  17.990   7.618  1.00  0.00    +0.000 C 
ATOM     56  N4  UNL A   1      19.157  18.656   6.664  1.00  0.00    +0.000 N 
ATOM     57  C45 UNL A   1      21.347  17.863   7.591  1.00  0.00    +0.000 C 
ATOM     69  C52 UNL A   1      22.154  18.374   6.629  1.00  0.00    +0.000 C 
ATOM     70  N5  UNL A   1      21.816  19.115   5.504  1.00  0.00    +0.000 N 
ATOM     71  C53 UNL A   1      22.949  19.408   4.912  1.00  0.00    +0.000 C 
ATOM     72  C54 UNL A   1      23.187  20.168   3.635  1.00  0.00    +0.000 C 
ATOM     84  C61 UNL A   1      22.126  20.627   2.945  1.00  0.00    +0.000 C 
ATOM     85  C62 UNL A   1      22.191  21.346   1.676  1.00  0.00    +0.000 C 
ATOM     86  C63 UNL A   1      20.946  21.666   1.291  1.00  0.00    +0.000 C 
ATOM     87  C64 UNL A   1      19.991  21.143   2.270  1.00  0.00    +0.000 C 
ATOM     88  N6  UNL A   1      20.783  20.554   3.224  1.00  0.00    +0.000 N 
ATOM     89  C65 UNL A   1      24.139  18.901   5.611  1.00  0.00    +0.000 C 
ATOM     90  C66 UNL A   1      23.595  18.234   6.617  1.00  0.00    +0.000 C 
ATOM     91  C67 UNL A   1      15.867  20.455   4.290  1.00  0.00    +0.000 C 
ATOM     92  C68 UNL A   1      16.328  20.953   3.151  1.00  0.00    +0.000 C 
ENDROOT
BRANCH   36   35
ATOM     33  C28 UNL A   1      17.211  23.908  -0.103  1.00  0.00    +0.000 C 
ATOM     34  C29 UNL A   1      17.844  23.298   0.979  1.00  0.00    +0.000 C 
ATOM     35  C30 UNL A   1      18.057  21.909   0.989  1.00  0.00    +0.000 C 
ATOM    138  H44 UNL A   1      17.026  24.923  -0.090  1.00  0.00    +0.000 H 
ATOM    139  H45 UNL A   1      18.160  23.870   1.779  1.00  0.00    +0.000 H 
ATOM    150  H56 UNL A   1      17.835  20.132  -0.134  1.00  0.00    +0.000 H 
ATOM    151  H57 UNL A   1      16.927  21.229  -2.098  1.00  0.00    +0.000 H 
ATOM     93  C69 UNL A   1      17.689  21.153  -0.132  1.00  0.00    +0.000 C 
ATOM     94  C70 UNL A   1      17.124  21.775  -1.245  1.00  0.00    +0.000 C 
ATOM     32  C27 UNL A   1      16.826  23.140  -1.204  1.00  0.00    +0.000 C 
BRANCH   32   30
ATOM     30  C26 UNL A   1      16.124  23.821  -2.316  1.00  0.00    +0.000 C 
ATOM     31  O2  UNL A   1      16.768  24.389  -3.185  1.00  0.00    +0.000 O 
BRANCH   30   29
ATOM    137  H43 UNL A   1      14.335  24.559  -1.819  1.00  0.00    +0.000 H 
ATOM     29  N2  UNL A   1      14.751  23.846  -2.354  1.00  0.00    +0.000 N 
BRANCH   29   28
ATOM     28  C25 UNL A   1      13.820  22.983  -3.059  1.00  0.00    +0.000 C 
ATOM    135  H41 UNL A   1      14.121  21.966  -2.917  1.00  0.00    +0.000 H 
ATOM    136  H42 UNL A   1      12.844  23.169  -2.661  1.00  0.00    +0.000 H 
BRANCH   28   27
ATOM     27  C24 UNL A   1      13.766  23.270  -4.557  1.00  0.00    +0.000 C 
ATOM    133  H39 UNL A   1      14.363  24.137  -4.748  1.00  0.00    +0.000 H 
ATOM    134  H40 UNL A   1      14.126  22.386  -5.040  1.00  0.00    +0.000 H 
BRANCH   27   26
ATOM     26  C23 UNL A   1      12.369  23.524  -5.127  1.00  0.00    +0.000 C 
ATOM    131  H37 UNL A   1      12.255  22.917  -6.001  1.00  0.00    +0.000 H 
ATOM    132  H38 UNL A   1      11.686  23.283  -4.339  1.00  0.00    +0.000 H 
BRANCH   26   25
ATOM     25  C22 UNL A   1      12.061  24.974  -5.517  1.00  0.00    +0.000 C 
ATOM    130  H36 UNL A   1      11.337  24.921  -6.302  1.00  0.00    +0.000 H 
ATOM    129  H35 UNL A   1      12.980  25.439  -5.809  1.00  0.00    +0.000 H 
BRANCH   25   24
ATOM    128  H34 UNL A   1      11.438  25.264  -3.505  1.00  0.00    +0.000 H 
ATOM    127  H33 UNL A   1      10.426  26.078  -4.699  1.00  0.00    +0.000 H 
ATOM     24  C21 UNL A   1      11.428  25.830  -4.413  1.00  0.00    +0.000 C 
BRANCH   24   23
ATOM    125  H31 UNL A   1      12.347  27.611  -5.119  1.00  0.00    +0.000 H 
ATOM    126  H32 UNL A   1      11.641  27.722  -3.500  1.00  0.00    +0.000 H 
ATOM     23  C20 UNL A   1      12.207  27.119  -4.179  1.00  0.00    +0.000 C 
BRANCH   23   22
ATOM    124  H30 UNL A   1      13.848  25.959  -3.654  1.00  0.00    +0.000 H 
ATOM     22  N1  UNL A   1      13.508  26.880  -3.579  1.00  0.00    +0.000 N 
BRANCH   22   20
ATOM     20  C19 UNL A   1      14.322  27.753  -2.930  1.00  0.00    +0.000 C 
ATOM     21  O1  UNL A   1      15.311  27.269  -2.369  1.00  0.00    +0.000 O 
BRANCH   20   19
ATOM    122  H28 UNL A   1      13.773  29.581  -3.799  1.00  0.00    +0.000 H 
ATOM     19  C18 UNL A   1      14.068  29.247  -2.826  1.00  0.00    +0.000 C 
ATOM    123  H29 UNL A   1      13.343  29.323  -2.043  1.00  0.00    +0.000 H 
BRANCH   19   18
ATOM    121  H27 UNL A   1      14.916  31.106  -2.808  1.00  0.00    +0.000 H 
ATOM     18  C17 UNL A   1      15.177  30.167  -2.366  1.00  0.00    +0.000 C 
ATOM    120  H26 UNL A   1      16.097  29.716  -2.672  1.00  0.00    +0.000 H 
BRANCH   18   17
ATOM     17  C16 UNL A   1      15.326  30.510  -0.886  1.00  0.00    +0.000 C 
ATOM    118  H24 UNL A   1      15.413  29.562  -0.398  1.00  0.00    +0.000 H 
ATOM    119  H25 UNL A   1      16.114  31.228  -0.968  1.00  0.00    +0.000 H 
BRANCH   17   16
ATOM     16  S1  UNL A   1      14.174  31.483   0.182  1.00  0.00    +0.000 S 
BRANCH   16   15
ATOM    116  H22 UNL A   1      14.559  33.088   1.916  1.00  0.00    +0.000 H 
ATOM    117  H23 UNL A   1      14.997  31.396   2.386  1.00  0.00    +0.000 H 
ATOM     15  C15 UNL A   1      15.049  32.174   1.652  1.00  0.00    +0.000 C 
BRANCH   15   14
ATOM    114  H20 UNL A   1      16.903  32.054   0.592  1.00  0.00    +0.000 H 
ATOM    115  H21 UNL A   1      16.646  33.549   1.556  1.00  0.00    +0.000 H 
ATOM     14  C14 UNL A   1      16.565  32.483   1.513  1.00  0.00    +0.000 C 
BRANCH   14   13
ATOM    113  H19 UNL A   1      17.243  32.311   3.565  1.00  0.00    +0.000 H 
ATOM     13  C13 UNL A   1      17.451  31.965   2.615  1.00  0.00    +0.000 C 
BRANCH   13   12
ATOM     12  C12 UNL A   1      18.480  31.105   2.508  1.00  0.00    +0.000 C 
ATOM    112  H18 UNL A   1      19.115  30.994   3.314  1.00  0.00    +0.000 H 
BRANCH   12   11
ATOM     11  C11 UNL A   1      18.749  30.289   1.256  1.00  0.00    +0.000 C 
ATOM    110  H16 UNL A   1      18.668  29.254   1.511  1.00  0.00    +0.000 H 
ATOM    111  H17 UNL A   1      18.027  30.609   0.533  1.00  0.00    +0.000 H 
BRANCH   11   10
ATOM     10  C10 UNL A   1      20.093  30.509   0.627  1.00  0.00    +0.000 C 
ATOM    109  H15 UNL A   1      20.160  31.160  -0.170  1.00  0.00    +0.000 H 
BRANCH   10    9
ATOM      9  C9  UNL A   1      21.213  29.899   1.051  1.00  0.00    +0.000 C 
ATOM    108  H14 UNL A   1      22.116  30.224   0.671  1.00  0.00    +0.000 H 
BRANCH    9    8
ATOM    106  H12 UNL A   1      21.749  29.078   2.931  1.00  0.00    +0.000 H 
ATOM    107  H13 UNL A   1      20.230  28.500   2.311  1.00  0.00    +0.000 H 
ATOM      8  C8  UNL A   1      21.230  28.772   2.047  1.00  0.00    +0.000 C 
BRANCH    8    7
ATOM    105  H11 UNL A   1      22.744  27.803   0.814  1.00  0.00    +0.000 H 
ATOM      7  C7  UNL A   1      21.935  27.605   1.423  1.00  0.00    +0.000 C 
BRANCH    7    6
ATOM      6  C6  UNL A   1      21.587  26.322   1.601  1.00  0.00    +0.000 C 
ATOM    104  H10 UNL A   1      21.708  25.905   2.537  1.00  0.00    +0.000 H 
BRANCH    6    5
ATOM      5  C5  UNL A   1      21.028  25.463   0.504  1.00  0.00    +0.000 C 
ATOM    102  H8  UNL A   1      21.775  24.772   0.173  1.00  0.00    +0.000 H 
ATOM    103  H9  UNL A   1      20.182  24.917   0.867  1.00  0.00    +0.000 H 
BRANCH    5    4
ATOM      4  C4  UNL A   1      20.613  26.343  -0.641  1.00  0.00    +0.000 C 
ATOM    101  H7  UNL A   1      21.347  26.679  -1.283  1.00  0.00    +0.000 H 
BRANCH    4    3
ATOM      3  C3  UNL A   1      19.349  26.722  -0.880  1.00  0.00    +0.000 C 
ATOM    100  H6  UNL A   1      18.585  26.135  -0.511  1.00  0.00    +0.000 H 
BRANCH    3    2
ATOM      2  C2  UNL A   1      18.986  27.953  -1.659  1.00  0.00    +0.000 C 
ATOM     99  H5  UNL A   1      19.774  28.668  -1.561  1.00  0.00    +0.000 H 
ATOM     98  H4  UNL A   1      18.072  28.355  -1.275  1.00  0.00    +0.000 H 
BRANCH    2    1
ATOM      1  C1  UNL A   1      18.805  27.617  -3.132  1.00  0.00    +0.000 C 
ATOM     97  H3  UNL A   1      17.762  27.626  -3.374  1.00  0.00    +0.000 H 
ATOM     95  H1  UNL A   1      19.209  26.646  -3.329  1.00  0.00    +0.000 H 
ATOM     96  H2  UNL A   1      19.315  28.344  -3.729  1.00  0.00    +0.000 H 
ENDBRANCH    2    1
ENDBRANCH    3    2
ENDBRANCH    4    3
ENDBRANCH    5    4
ENDBRANCH    6    5
ENDBRANCH    7    6
ENDBRANCH    8    7
ENDBRANCH    9    8
ENDBRANCH   10    9
ENDBRANCH   11   10
ENDBRANCH   12   11
ENDBRANCH   13   12
ENDBRANCH   14   13
ENDBRANCH   15   14
ENDBRANCH   16   15
ENDBRANCH   17   16
ENDBRANCH   18   17
ENDBRANCH   19   18
ENDBRANCH   20   19
ENDBRANCH   22   20
ENDBRANCH   23   22
ENDBRANCH   24   23
ENDBRANCH   25   24
ENDBRANCH   26   25
ENDBRANCH   27   26
ENDBRANCH   28   27
ENDBRANCH   29   28
ENDBRANCH   30   29
ENDBRANCH   32   30
ENDBRANCH   36   35
BRANCH   40   41
ATOM     41  C35 UNL A   1      15.335  18.992   6.703  1.00  0.00    +0.000 C 
ATOM     42  C36 UNL A   1      14.565  17.878   6.336  1.00  0.00    +0.000 C 
ATOM     43  F1  UNL A   1      15.057  16.971   5.478  1.00  0.00    +0.000 F 
ATOM     44  C37 UNL A   1      13.272  17.705   6.824  1.00  0.00    +0.000 C 
ATOM     45  F2  UNL A   1      12.541  16.655   6.424  1.00  0.00    +0.000 F 
ATOM     46  C38 UNL A   1      12.737  18.624   7.714  1.00  0.00    +0.000 C 
ATOM     47  F3  UNL A   1      11.498  18.449   8.194  1.00  0.00    +0.000 F 
ATOM     48  C39 UNL A   1      13.484  19.724   8.103  1.00  0.00    +0.000 C 
ATOM     49  F4  UNL A   1      12.974  20.605   8.976  1.00  0.00    +0.000 F 
ATOM     50  C40 UNL A   1      14.767  19.915   7.594  1.00  0.00    +0.000 C 
ATOM     51  F5  UNL A   1      15.459  20.996   7.982  1.00  0.00    +0.000 F 
ENDBRANCH   40   41
BRANCH   57   58
ATOM     65  C50 UNL A   1      23.007  15.020   9.503  1.00  0.00    +0.000 C 
ATOM     66  F9  UNL A   1      23.351  13.741   9.291  1.00  0.00    +0.000 F 
ATOM     67  C51 UNL A   1      22.394  15.751   8.489  1.00  0.00    +0.000 C 
ATOM     68  F10 UNL A   1      22.173  15.155   7.308  1.00  0.00    +0.000 F 
ATOM     58  C46 UNL A   1      22.008  17.085   8.693  1.00  0.00    +0.000 C 
ATOM     59  C47 UNL A   1      22.254  17.654   9.951  1.00  0.00    +0.000 C 
ATOM     60  F6  UNL A   1      21.917  18.929  10.194  1.00  0.00    +0.000 F 
ATOM     61  C48 UNL A   1      22.902  16.931  10.950  1.00  0.00    +0.000 C 
ATOM     62  F7  UNL A   1      23.187  17.518  12.121  1.00  0.00    +0.000 F 
ATOM     63  C49 UNL A   1      23.273  15.613  10.727  1.00  0.00    +0.000 C 
ATOM     64  F8  UNL A   1      23.895  14.920  11.689  1.00  0.00    +0.000 F 
ENDBRANCH   57   58
BRANCH   72   73
ATOM     73  C55 UNL A   1      24.567  20.403   3.132  1.00  0.00    +0.000 C 
ATOM     74  C56 UNL A   1      25.252  19.423   2.400  1.00  0.00    +0.000 C 
ATOM     75  F11 UNL A   1      24.659  18.249   2.134  1.00  0.00    +0.000 F 
ATOM     76  C57 UNL A   1      26.568  19.620   1.988  1.00  0.00    +0.000 C 
ATOM     77  F12 UNL A   1      27.221  18.640   1.347  1.00  0.00    +0.000 F 
ATOM     78  C58 UNL A   1      27.212  20.818   2.262  1.00  0.00    +0.000 C 
ATOM     79  F13 UNL A   1      28.478  21.006   1.867  1.00  0.00    +0.000 F 
ATOM     80  C59 UNL A   1      26.543  21.815   2.955  1.00  0.00    +0.000 C 
ATOM     81  F14 UNL A   1      27.155  22.980   3.206  1.00  0.00    +0.000 F 
ATOM     82  C60 UNL A   1      25.240  21.604   3.400  1.00  0.00    +0.000 C 
ATOM     83  F15 UNL A   1      24.629  22.579   4.089  1.00  0.00    +0.000 F 
ENDBRANCH   72   73
TORSDOF 33
ENDMDL
MODEL 4
REMARK VINA RESULT:      -6.9      3.854      7.089
ROOT
ATOM    140  H46 UNL A   1      16.569  18.993   7.403  1.00  0.00    +0.000 H 
ATOM    141  H47 UNL A   1      18.430  17.185   7.656  1.00  0.00    +0.000 H 
ATOM    142  H48 UNL A   1      19.690  19.966   4.859  1.00  0.00    +0.000 H 
ATOM    143  H49 UNL A   1      23.998  21.906   0.568  1.00  0.00    +0.000 H 
ATOM    144  H50 UNL A   1      22.217  23.705   0.383  1.00  0.00    +0.000 H 
ATOM    145  H51 UNL A   1      20.969  20.975   3.258  1.00  0.00    +0.000 H 
ATOM    146  H52 UNL A   1      24.612  17.536   3.586  1.00  0.00    +0.000 H 
ATOM    147  H53 UNL A   1      23.076  16.256   5.182  1.00  0.00    +0.000 H 
ATOM    148  H54 UNL A   1      16.237  23.592   4.650  1.00  0.00    +0.000 H 
ATOM    149  H55 UNL A   1      17.494  24.614   2.668  1.00  0.00    +0.000 H 
ATOM     36  C31 UNL A   1      19.948  23.290   2.059  1.00  0.00    +0.000 C 
ATOM     37  C32 UNL A   1      18.921  22.901   3.084  1.00  0.00    +0.000 C 
ATOM     38  N3  UNL A   1      18.922  21.886   3.911  1.00  0.00    +0.000 N 
ATOM     39  C33 UNL A   1      17.752  21.995   4.649  1.00  0.00    +0.000 C 
ATOM     40  C34 UNL A   1      17.252  21.140   5.573  1.00  0.00    +0.000 C 
ATOM     52  C41 UNL A   1      17.907  19.927   5.992  1.00  0.00    +0.000 C 
ATOM     53  C42 UNL A   1      17.470  18.978   6.901  1.00  0.00    +0.000 C 
ATOM     54  C43 UNL A   1      18.461  17.998   7.022  1.00  0.00    +0.000 C 
ATOM     55  C44 UNL A   1      19.489  18.304   6.145  1.00  0.00    +0.000 C 
ATOM     56  N4  UNL A   1      19.141  19.496   5.528  1.00  0.00    +0.000 N 
ATOM     57  C45 UNL A   1      20.698  17.563   5.887  1.00  0.00    +0.000 C 
ATOM     69  C52 UNL A   1      21.659  17.929   5.003  1.00  0.00    +0.000 C 
ATOM     70  N5  UNL A   1      21.716  19.051   4.187  1.00  0.00    +0.000 N 
ATOM     71  C53 UNL A   1      22.860  18.973   3.549  1.00  0.00    +0.000 C 
ATOM     72  C54 UNL A   1      23.436  19.901   2.513  1.00  0.00    +0.000 C 
ATOM     84  C61 UNL A   1      22.720  20.975   2.131  1.00  0.00    +0.000 C 
ATOM     85  C62 UNL A   1      23.125  21.942   1.116  1.00  0.00    +0.000 C 
ATOM     86  C63 UNL A   1      22.177  22.887   1.011  1.00  0.00    +0.000 C 
ATOM     87  C64 UNL A   1      21.080  22.572   1.927  1.00  0.00    +0.000 C 
ATOM     88  N6  UNL A   1      21.497  21.428   2.561  1.00  0.00    +0.000 N 
ATOM     89  C65 UNL A   1      23.668  17.800   3.908  1.00  0.00    +0.000 C 
ATOM     90  C66 UNL A   1      22.866  17.171   4.754  1.00  0.00    +0.000 C 
ATOM     91  C67 UNL A   1      17.096  23.213   4.225  1.00  0.00    +0.000 C 
ATOM     92  C68 UNL A   1      17.747  23.778   3.217  1.00  0.00    +0.000 C 
ENDROOT
BRANCH   36   35
ATOM     33  C28 UNL A   1      18.937  25.438  -0.893  1.00  0.00    +0.000 C 
ATOM     34  C29 UNL A   1      19.060  24.347  -0.033  1.00  0.00    +0.000 C 
ATOM     35  C30 UNL A   1      19.741  24.476   1.189  1.00  0.00    +0.000 C 
ATOM    138  H44 UNL A   1      18.466  25.329  -1.804  1.00  0.00    +0.000 H 
ATOM    139  H45 UNL A   1      18.647  23.438  -0.296  1.00  0.00    +0.000 H 
ATOM    150  H56 UNL A   1      20.741  25.839   2.459  1.00  0.00    +0.000 H 
ATOM    151  H57 UNL A   1      20.340  27.777   1.057  1.00  0.00    +0.000 H 
ATOM     93  C69 UNL A   1      20.235  25.732   1.567  1.00  0.00    +0.000 C 
ATOM     94  C70 UNL A   1      20.045  26.840   0.741  1.00  0.00    +0.000 C 
ATOM     32  C27 UNL A   1      19.455  26.680  -0.516  1.00  0.00    +0.000 C 
BRANCH   32   30
ATOM     30  C26 UNL A   1      19.335  27.803  -1.473  1.00  0.00    +0.000 C 
ATOM     31  O2  UNL A   1      19.966  27.782  -2.519  1.00  0.00    +0.000 O 
BRANCH   30   29
ATOM    137  H43 UNL A   1      18.889  29.463  -0.453  1.00  0.00    +0.000 H 
ATOM     29  N2  UNL A   1      18.544  28.886  -1.171  1.00  0.00    +0.000 N 
BRANCH   29   28
ATOM     28  C25 UNL A   1      17.280  29.309  -1.746  1.00  0.00    +0.000 C 
ATOM    135  H41 UNL A   1      17.479  29.848  -2.649  1.00  0.00    +0.000 H 
ATOM    136  H42 UNL A   1      16.699  28.429  -1.929  1.00  0.00    +0.000 H 
BRANCH   28   27
ATOM     27  C24 UNL A   1      16.475  30.205  -0.810  1.00  0.00    +0.000 C 
ATOM    133  H39 UNL A   1      16.646  29.873   0.192  1.00  0.00    +0.000 H 
ATOM    134  H40 UNL A   1      16.811  31.203  -0.997  1.00  0.00    +0.000 H 
BRANCH   27   26
ATOM     26  C23 UNL A   1      14.963  30.217  -1.052  1.00  0.00    +0.000 C 
ATOM    131  H37 UNL A   1      14.482  30.384  -0.111  1.00  0.00    +0.000 H 
ATOM    132  H38 UNL A   1      14.790  30.989  -1.772  1.00  0.00    +0.000 H 
BRANCH   26   25
ATOM     25  C22 UNL A   1      14.377  28.939  -1.661  1.00  0.00    +0.000 C 
ATOM    130  H36 UNL A   1      14.784  28.127  -1.096  1.00  0.00    +0.000 H 
ATOM    129  H35 UNL A   1      14.640  28.916  -2.698  1.00  0.00    +0.000 H 
BRANCH   25   24
ATOM    128  H34 UNL A   1      12.534  28.071  -2.270  1.00  0.00    +0.000 H 
ATOM    127  H33 UNL A   1      12.405  29.755  -1.760  1.00  0.00    +0.000 H 
ATOM     24  C21 UNL A   1      12.852  28.803  -1.557  1.00  0.00    +0.000 C 
BRANCH   24   23
ATOM    125  H31 UNL A   1      13.274  28.332   0.471  1.00  0.00    +0.000 H 
ATOM    126  H32 UNL A   1      11.670  29.017   0.179  1.00  0.00    +0.000 H 
ATOM     23  C20 UNL A   1      12.419  28.338  -0.172  1.00  0.00    +0.000 C 
BRANCH   23   22
ATOM    124  H30 UNL A   1      11.967  26.498  -1.021  1.00  0.00    +0.000 H 
ATOM     22  N1  UNL A   1      11.838  27.008  -0.188  1.00  0.00    +0.000 N 
BRANCH   22   20
ATOM     20  C19 UNL A   1      11.140  26.369   0.787  1.00  0.00    +0.000 C 
ATOM     21  O1  UNL A   1      11.802  25.900   1.719  1.00  0.00    +0.000 O 
BRANCH   20   19
ATOM    122  H28 UNL A   1       9.378  25.792  -0.193  1.00  0.00    +0.000 H 
ATOM     19  C18 UNL A   1       9.634  26.171   0.774  1.00  0.00    +0.000 C 
ATOM    123  H29 UNL A   1       9.460  25.530   1.613  1.00  0.00    +0.000 H 
BRANCH   19   18
ATOM    121  H27 UNL A   1       7.835  27.098   0.489  1.00  0.00    +0.000 H 
ATOM     18  C17 UNL A   1       8.720  27.348   1.038  1.00  0.00    +0.000 C 
ATOM    120  H26 UNL A   1       9.254  28.225   0.740  1.00  0.00    +0.000 H 
BRANCH   18   17
ATOM     17  C16 UNL A   1       8.193  27.610   2.446  1.00  0.00    +0.000 C 
ATOM    118  H24 UNL A   1       7.644  28.524   2.362  1.00  0.00    +0.000 H 
ATOM    119  H25 UNL A   1       7.757  26.652   2.634  1.00  0.00    +0.000 H 
BRANCH   17   16
ATOM     16  S1  UNL A   1       9.160  27.786   4.012  1.00  0.00    +0.000 S 
BRANCH   16   15
ATOM    116  H22 UNL A   1      11.014  29.145   4.677  1.00  0.00    +0.000 H 
ATOM    117  H23 UNL A   1      11.393  28.028   3.305  1.00  0.00    +0.000 H 
ATOM     15  C15 UNL A   1      10.715  28.737   3.734  1.00  0.00    +0.000 C 
BRANCH   15   14
ATOM    114  H20 UNL A   1      10.458  29.495   1.750  1.00  0.00    +0.000 H 
ATOM    115  H21 UNL A   1       9.929  30.583   3.080  1.00  0.00    +0.000 H 
ATOM     14  C14 UNL A   1      10.675  29.908   2.713  1.00  0.00    +0.000 C 
BRANCH   14   13
ATOM    113  H19 UNL A   1      12.666  30.538   3.294  1.00  0.00    +0.000 H 
ATOM     13  C13 UNL A   1      11.934  30.724   2.591  1.00  0.00    +0.000 C 
BRANCH   13   12
ATOM     12  C12 UNL A   1      12.218  31.668   1.675  1.00  0.00    +0.000 C 
ATOM    112  H18 UNL A   1      12.979  32.335   1.874  1.00  0.00    +0.000 H 
BRANCH   12   11
ATOM     11  C11 UNL A   1      11.468  31.795   0.360  1.00  0.00    +0.000 C 
ATOM    110  H16 UNL A   1      11.485  30.841  -0.124  1.00  0.00    +0.000 H 
ATOM    111  H17 UNL A   1      10.483  32.129   0.612  1.00  0.00    +0.000 H 
BRANCH   11   10
ATOM     10  C10 UNL A   1      12.021  32.811  -0.595  1.00  0.00    +0.000 C 
ATOM    109  H15 UNL A   1      12.357  33.709  -0.215  1.00  0.00    +0.000 H 
BRANCH   10    9
ATOM      9  C9  UNL A   1      12.102  32.608  -1.921  1.00  0.00    +0.000 C 
ATOM    108  H14 UNL A   1      13.026  32.388  -2.323  1.00  0.00    +0.000 H 
BRANCH    9    8
ATOM    106  H12 UNL A   1      11.219  33.143  -3.773  1.00  0.00    +0.000 H 
ATOM    107  H13 UNL A   1      10.562  31.696  -3.066  1.00  0.00    +0.000 H 
ATOM      8  C8  UNL A   1      10.924  32.680  -2.854  1.00  0.00    +0.000 C 
BRANCH    8    7
ATOM    105  H11 UNL A   1      10.011  34.511  -2.102  1.00  0.00    +0.000 H 
ATOM      7  C7  UNL A   1       9.852  33.495  -2.197  1.00  0.00    +0.000 C 
BRANCH    7    6
ATOM      6  C6  UNL A   1       8.701  32.998  -1.722  1.00  0.00    +0.000 C 
ATOM    104  H10 UNL A   1       8.180  32.323  -2.304  1.00  0.00    +0.000 H 
BRANCH    6    5
ATOM      5  C5  UNL A   1       8.132  33.374  -0.384  1.00  0.00    +0.000 C 
ATOM    102  H8  UNL A   1       8.835  33.982   0.146  1.00  0.00    +0.000 H 
ATOM    103  H9  UNL A   1       7.224  33.924  -0.519  1.00  0.00    +0.000 H 
BRANCH    5    4
ATOM      4  C4  UNL A   1       7.857  32.121   0.397  1.00  0.00    +0.000 C 
ATOM    101  H7  UNL A   1       8.640  31.692   0.913  1.00  0.00    +0.000 H 
BRANCH    4    3
ATOM      3  C3  UNL A   1       6.658  31.524   0.467  1.00  0.00    +0.000 C 
ATOM    100  H6  UNL A   1       6.330  30.990  -0.353  1.00  0.00    +0.000 H 
BRANCH    3    2
ATOM      2  C2  UNL A   1       5.767  31.591   1.672  1.00  0.00    +0.000 C 
ATOM     99  H5  UNL A   1       6.341  31.345   2.540  1.00  0.00    +0.000 H 
ATOM     98  H4  UNL A   1       4.961  30.898   1.554  1.00  0.00    +0.000 H 
BRANCH    2    1
ATOM      1  C1  UNL A   1       5.200  32.994   1.838  1.00  0.00    +0.000 C 
ATOM     97  H3  UNL A   1       4.395  33.137   1.147  1.00  0.00    +0.000 H 
ATOM     95  H1  UNL A   1       5.968  33.713   1.646  1.00  0.00    +0.000 H 
ATOM     96  H2  UNL A   1       4.838  33.116   2.837  1.00  0.00    +0.000 H 
ENDBRANCH    2    1
ENDBRANCH    3    2
ENDBRANCH    4    3
ENDBRANCH    5    4
ENDBRANCH    6    5
ENDBRANCH    7    6
ENDBRANCH    8    7
ENDBRANCH    9    8
ENDBRANCH   10    9
ENDBRANCH   11   10
ENDBRANCH   12   11
ENDBRANCH   13   12
ENDBRANCH   14   13
ENDBRANCH   15   14
ENDBRANCH   16   15
ENDBRANCH   17   16
ENDBRANCH   18   17
ENDBRANCH   19   18
ENDBRANCH   20   19
ENDBRANCH   22   20
ENDBRANCH   23   22
ENDBRANCH   24   23
ENDBRANCH   25   24
ENDBRANCH   26   25
ENDBRANCH   27   26
ENDBRANCH   28   27
ENDBRANCH   29   28
ENDBRANCH   30   29
ENDBRANCH   32   30
ENDBRANCH   36   35
BRANCH   40   41
ATOM     41  C35 UNL A   1      15.921  21.475   6.185  1.00  0.00    +0.000 C 
ATOM     42  C36 UNL A   1      15.829  22.212   7.375  1.00  0.00    +0.000 C 
ATOM     43  F1  UNL A   1      16.942  22.576   8.032  1.00  0.00    +0.000 F 
ATOM     44  C37 UNL A   1      14.592  22.552   7.917  1.00  0.00    +0.000 C 
ATOM     45  F2  UNL A   1      14.530  23.220   9.078  1.00  0.00    +0.000 F 
ATOM     46  C38 UNL A   1      13.424  22.194   7.261  1.00  0.00    +0.000 C 
ATOM     47  F3  UNL A   1      12.234  22.535   7.775  1.00  0.00    +0.000 F 
ATOM     48  C39 UNL A   1      13.490  21.479   6.075  1.00  0.00    +0.000 C 
ATOM     49  F4  UNL A   1      12.362  21.145   5.432  1.00  0.00    +0.000 F 
ATOM     50  C40 UNL A   1      14.725  21.111   5.547  1.00  0.00    +0.000 C 
ATOM     51  F5  UNL A   1      14.754  20.410   4.404  1.00  0.00    +0.000 F 
ENDBRANCH   40   41
BRANCH   57   58
ATOM     65  C50 UNL A   1      21.888  15.051   8.488  1.00  0.00    +0.000 C 
ATOM     66  F9  UNL A   1      22.651  15.041   9.590  1.00  0.00    +0.000 F 
ATOM     67  C51 UNL A   1      21.686  16.240   7.794  1.00  0.00    +0.000 C 
ATOM     68  F10 UNL A   1      22.255  17.363   8.261  1.00  0.00    +0.000 F 
ATOM     58  C46 UNL A   1      20.908  16.273   6.627  1.00  0.00    +0.000 C 
ATOM     59  C47 UNL A   1      20.347  15.068   6.179  1.00  0.00    +0.000 C 
ATOM     60  F6  UNL A   1      19.583  15.046   5.077  1.00  0.00    +0.000 F 
ATOM     61  C48 UNL A   1      20.521  13.887   6.897  1.00  0.00    +0.000 C 
ATOM     62  F7  UNL A   1      19.918  12.762   6.487  1.00  0.00    +0.000 F 
ATOM     63  C49 UNL A   1      21.295  13.878   8.047  1.00  0.00    +0.000 C 
ATOM     64  F8  UNL A   1      21.461  12.741   8.735  1.00  0.00    +0.000 F 
ENDBRANCH   57   58
BRANCH   72   73
ATOM     73  C55 UNL A   1      24.770  19.637   1.910  1.00  0.00    +0.000 C 
ATOM     74  C56 UNL A   1      25.951  19.830   2.642  1.00  0.00    +0.000 C 
ATOM     75  F11 UNL A   1      25.889  20.252   3.914  1.00  0.00    +0.000 F 
ATOM     76  C57 UNL A   1      27.201  19.646   2.054  1.00  0.00    +0.000 C 
ATOM     77  F12 UNL A   1      28.313  19.901   2.758  1.00  0.00    +0.000 F 
ATOM     78  C58 UNL A   1      27.296  19.225   0.736  1.00  0.00    +0.000 C 
ATOM     79  F13 UNL A   1      28.498  19.050   0.172  1.00  0.00    +0.000 F 
ATOM     80  C59 UNL A   1      26.142  18.995   0.003  1.00  0.00    +0.000 C 
ATOM     81  F14 UNL A   1      26.229  18.571  -1.265  1.00  0.00    +0.000 F 
ATOM     82  C60 UNL A   1      24.893  19.215   0.578  1.00  0.00    +0.000 C 
ATOM     83  F15 UNL A   1      23.796  19.007  -0.165  1.00  0.00    +0.000 F 
ENDBRANCH   72   73
TORSDOF 33
ENDMDL
MODEL 5
REMARK VINA RESULT:      -6.9      2.586      8.345
ROOT
ATOM    140  H46 UNL A   1      20.037  19.387   1.865  1.00  0.00    +0.000 H 
ATOM    141  H47 UNL A   1      20.736  17.434   3.444  1.00  0.00    +0.000 H 
ATOM    142  H48 UNL A   1      17.319  19.193   4.983  1.00  0.00    +0.000 H 
ATOM    143  H49 UNL A   1      12.936  19.608   9.606  1.00  0.00    +0.000 H 
ATOM    144  H50 UNL A   1      12.217  21.459   8.024  1.00  0.00    +0.000 H 
ATOM    145  H51 UNL A   1      15.596  19.653   6.412  1.00  0.00    +0.000 H 
ATOM    146  H52 UNL A   1      16.852  15.969   9.582  1.00  0.00    +0.000 H 
ATOM    147  H53 UNL A   1      18.933  15.615   8.136  1.00  0.00    +0.000 H 
ATOM    148  H54 UNL A   1      15.825  22.717   1.749  1.00  0.00    +0.000 H 
ATOM    149  H55 UNL A   1      14.047  23.451   3.437  1.00  0.00    +0.000 H 
ATOM     36  C31 UNL A   1      13.916  21.796   5.759  1.00  0.00    +0.000 C 
ATOM     37  C32 UNL A   1      14.897  21.715   4.624  1.00  0.00    +0.000 C 
ATOM     38  N3  UNL A   1      15.894  20.884   4.451  1.00  0.00    +0.000 N 
ATOM     39  C33 UNL A   1      16.472  21.231   3.239  1.00  0.00    +0.000 C 
ATOM     40  C34 UNL A   1      17.587  20.725   2.658  1.00  0.00    +0.000 C 
ATOM     52  C41 UNL A   1      18.379  19.660   3.217  1.00  0.00    +0.000 C 
ATOM     53  C42 UNL A   1      19.541  19.094   2.721  1.00  0.00    +0.000 C 
ATOM     54  C43 UNL A   1      19.926  18.059   3.579  1.00  0.00    +0.000 C 
ATOM     55  C44 UNL A   1      19.038  18.017   4.641  1.00  0.00    +0.000 C 
ATOM     56  N4  UNL A   1      18.087  18.996   4.400  1.00  0.00    +0.000 N 
ATOM     57  C45 UNL A   1      19.056  17.149   5.791  1.00  0.00    +0.000 C 
ATOM     69  C52 UNL A   1      18.146  17.175   6.797  1.00  0.00    +0.000 C 
ATOM     70  N5  UNL A   1      17.031  17.988   6.949  1.00  0.00    +0.000 N 
ATOM     71  C53 UNL A   1      16.453  17.601   8.061  1.00  0.00    +0.000 C 
ATOM     72  C54 UNL A   1      15.222  18.148   8.734  1.00  0.00    +0.000 C 
ATOM     84  C61 UNL A   1      14.585  19.194   8.174  1.00  0.00    +0.000 C 
ATOM     85  C62 UNL A   1      13.407  19.857   8.722  1.00  0.00    +0.000 C 
ATOM     86  C63 UNL A   1      13.034  20.842   7.891  1.00  0.00    +0.000 C 
ATOM     87  C64 UNL A   1      13.969  20.903   6.767  1.00  0.00    +0.000 C 
ATOM     88  N6  UNL A   1      14.848  19.877   7.012  1.00  0.00    +0.000 N 
ATOM     89  C65 UNL A   1      17.128  16.480   8.729  1.00  0.00    +0.000 C 
ATOM     90  C66 UNL A   1      18.182  16.297   7.948  1.00  0.00    +0.000 C 
ATOM     91  C67 UNL A   1      15.676  22.302   2.681  1.00  0.00    +0.000 C 
ATOM     92  C68 UNL A   1      14.727  22.680   3.526  1.00  0.00    +0.000 C 
ENDROOT
BRANCH   36   35
ATOM     33  C28 UNL A   1      12.095  25.031   6.515  1.00  0.00    +0.000 C 
ATOM     34  C29 UNL A   1      13.105  24.075   6.417  1.00  0.00    +0.000 C 
ATOM     35  C30 UNL A   1      12.864  22.845   5.781  1.00  0.00    +0.000 C 
ATOM    138  H44 UNL A   1      12.267  25.918   7.013  1.00  0.00    +0.000 H 
ATOM    139  H45 UNL A   1      14.038  24.272   6.815  1.00  0.00    +0.000 H 
ATOM    150  H56 UNL A   1      11.426  21.717   4.718  1.00  0.00    +0.000 H 
ATOM    151  H57 UNL A   1       9.745  23.465   4.708  1.00  0.00    +0.000 H 
ATOM     93  C69 UNL A   1      11.617  22.618   5.183  1.00  0.00    +0.000 C 
ATOM     94  C70 UNL A   1      10.632  23.604   5.216  1.00  0.00    +0.000 C 
ATOM     32  C27 UNL A   1      10.847  24.783   5.937  1.00  0.00    +0.000 C 
BRANCH   32   30
ATOM     30  C26 UNL A   1       9.791  25.808   6.094  1.00  0.00    +0.000 C 
ATOM     31  O2  UNL A   1       9.244  25.956   7.176  1.00  0.00    +0.000 O 
BRANCH   30   29
ATOM    137  H43 UNL A   1       8.528  26.320   4.632  1.00  0.00    +0.000 H 
ATOM     29  N2  UNL A   1       9.400  26.567   5.018  1.00  0.00    +0.000 N 
BRANCH   29   28
ATOM     28  C25 UNL A   1      10.071  27.674   4.362  1.00  0.00    +0.000 C 
ATOM    135  H41 UNL A   1       9.349  28.435   4.150  1.00  0.00    +0.000 H 
ATOM    136  H42 UNL A   1      10.835  28.025   5.024  1.00  0.00    +0.000 H 
BRANCH   28   27
ATOM     27  C24 UNL A   1      10.747  27.267   3.056  1.00  0.00    +0.000 C 
ATOM    133  H39 UNL A   1      11.563  26.618   3.296  1.00  0.00    +0.000 H 
ATOM    134  H40 UNL A   1       9.988  26.803   2.464  1.00  0.00    +0.000 H 
BRANCH   27   26
ATOM     26  C23 UNL A   1      11.295  28.421   2.213  1.00  0.00    +0.000 C 
ATOM    131  H37 UNL A   1      12.011  28.951   2.807  1.00  0.00    +0.000 H 
ATOM    132  H38 UNL A   1      11.708  27.969   1.336  1.00  0.00    +0.000 H 
BRANCH   26   25
ATOM     25  C22 UNL A   1      10.257  29.432   1.713  1.00  0.00    +0.000 C 
ATOM    130  H36 UNL A   1       9.478  29.442   2.446  1.00  0.00    +0.000 H 
ATOM    129  H35 UNL A   1       9.930  29.118   0.743  1.00  0.00    +0.000 H 
BRANCH   25   24
ATOM    128  H34 UNL A   1      10.268  31.457   2.360  1.00  0.00    +0.000 H 
ATOM    127  H33 UNL A   1      10.512  31.252   0.625  1.00  0.00    +0.000 H 
ATOM     24  C21 UNL A   1      10.751  30.879   1.600  1.00  0.00    +0.000 C 
BRANCH   24   23
ATOM    125  H31 UNL A   1      12.450  31.118   2.855  1.00  0.00    +0.000 H 
ATOM    126  H32 UNL A   1      12.699  30.076   1.448  1.00  0.00    +0.000 H 
ATOM     23  C20 UNL A   1      12.258  30.980   1.811  1.00  0.00    +0.000 C 
BRANCH   23   22
ATOM    124  H30 UNL A   1      12.298  32.901   1.022  1.00  0.00    +0.000 H 
ATOM     22  N1  UNL A   1      12.848  32.086   1.078  1.00  0.00    +0.000 N 
BRANCH   22   20
ATOM     20  C19 UNL A   1      14.056  32.152   0.458  1.00  0.00    +0.000 C 
ATOM     21  O1  UNL A   1      14.651  33.232   0.530  1.00  0.00    +0.000 O 
BRANCH   20   19
ATOM    122  H28 UNL A   1      15.729  31.034  -0.130  1.00  0.00    +0.000 H 
ATOM     19  C18 UNL A   1      14.679  31.012  -0.329  1.00  0.00    +0.000 C 
ATOM    123  H29 UNL A   1      14.136  30.152   0.007  1.00  0.00    +0.000 H 
BRANCH   19   18
ATOM    121  H27 UNL A   1      14.727  29.939  -2.067  1.00  0.00    +0.000 H 
ATOM     18  C17 UNL A   1      14.519  30.962  -1.832  1.00  0.00    +0.000 C 
ATOM    120  H26 UNL A   1      15.173  31.705  -2.236  1.00  0.00    +0.000 H 
BRANCH   18   17
ATOM     17  C16 UNL A   1      13.150  31.191  -2.466  1.00  0.00    +0.000 C 
ATOM    118  H24 UNL A   1      12.958  32.234  -2.325  1.00  0.00    +0.000 H 
ATOM    119  H25 UNL A   1      13.333  30.728  -3.413  1.00  0.00    +0.000 H 
BRANCH   17   16
ATOM     16  S1  UNL A   1      11.549  30.362  -2.058  1.00  0.00    +0.000 S 
BRANCH   16   15
ATOM    116  H22 UNL A   1      10.722  28.116  -2.077  1.00  0.00    +0.000 H 
ATOM    117  H23 UNL A   1      11.642  28.560  -3.571  1.00  0.00    +0.000 H 
ATOM     15  C15 UNL A   1      11.592  28.572  -2.501  1.00  0.00    +0.000 C 
BRANCH   15   14
ATOM    114  H20 UNL A   1      13.453  28.385  -1.464  1.00  0.00    +0.000 H 
ATOM    115  H21 UNL A   1      12.421  26.914  -1.493  1.00  0.00    +0.000 H 
ATOM     14  C14 UNL A   1      12.822  27.742  -2.041  1.00  0.00    +0.000 C 
BRANCH   14   13
ATOM    113  H19 UNL A   1      14.647  27.431  -3.170  1.00  0.00    +0.000 H 
ATOM     13  C13 UNL A   1      13.659  27.135  -3.135  1.00  0.00    +0.000 C 
BRANCH   13   12
ATOM     12  C12 UNL A   1      13.271  26.252  -4.075  1.00  0.00    +0.000 C 
ATOM    112  H18 UNL A   1      12.627  26.571  -4.814  1.00  0.00    +0.000 H 
BRANCH   12   11
ATOM     11  C11 UNL A   1      13.741  24.809  -4.095  1.00  0.00    +0.000 C 
ATOM    110  H16 UNL A   1      13.269  24.295  -3.284  1.00  0.00    +0.000 H 
ATOM    111  H17 UNL A   1      13.475  24.423  -5.057  1.00  0.00    +0.000 H 
BRANCH   11   10
ATOM     10  C10 UNL A   1      15.223  24.617  -3.965  1.00  0.00    +0.000 C 
ATOM    109  H15 UNL A   1      15.832  24.979  -4.715  1.00  0.00    +0.000 H 
BRANCH   10    9
ATOM      9  C9  UNL A   1      15.797  23.999  -2.920  1.00  0.00    +0.000 C 
ATOM    108  H14 UNL A   1      16.187  23.054  -3.068  1.00  0.00    +0.000 H 
BRANCH    9    8
ATOM    106  H12 UNL A   1      16.830  24.302  -1.092  1.00  0.00    +0.000 H 
ATOM    107  H13 UNL A   1      15.883  25.667  -1.607  1.00  0.00    +0.000 H 
ATOM      8  C8  UNL A   1      15.907  24.599  -1.545  1.00  0.00    +0.000 C 
BRANCH    8    7
ATOM    105  H11 UNL A   1      14.228  24.797  -0.169  1.00  0.00    +0.000 H 
ATOM      7  C7  UNL A   1      14.756  24.104  -0.722  1.00  0.00    +0.000 C 
BRANCH    7    6
ATOM      6  C6  UNL A   1      14.366  22.823  -0.652  1.00  0.00    +0.000 C 
ATOM    104  H10 UNL A   1      15.084  22.097  -0.500  1.00  0.00    +0.000 H 
BRANCH    6    5
ATOM      5  C5  UNL A   1      12.933  22.392  -0.783  1.00  0.00    +0.000 C 
ATOM    102  H8  UNL A   1      12.310  23.252  -0.907  1.00  0.00    +0.000 H 
ATOM    103  H9  UNL A   1      12.824  21.754  -1.635  1.00  0.00    +0.000 H 
BRANCH    5    4
ATOM      4  C4  UNL A   1      12.532  21.652   0.461  1.00  0.00    +0.000 C 
ATOM    101  H7  UNL A   1      12.820  20.666   0.550  1.00  0.00    +0.000 H 
BRANCH    4    3
ATOM      3  C3  UNL A   1      11.821  22.191   1.463  1.00  0.00    +0.000 C 
ATOM    100  H6  UNL A   1      11.398  21.556   2.158  1.00  0.00    +0.000 H 
BRANCH    3    2
ATOM      2  C2  UNL A   1      11.608  23.667   1.628  1.00  0.00    +0.000 C 
ATOM     99  H5  UNL A   1      12.182  24.183   0.888  1.00  0.00    +0.000 H 
ATOM     98  H4  UNL A   1      11.919  23.960   2.608  1.00  0.00    +0.000 H 
BRANCH    2    1
ATOM      1  C1  UNL A   1      10.138  24.016   1.443  1.00  0.00    +0.000 C 
ATOM     97  H3  UNL A   1       9.700  23.349   0.730  1.00  0.00    +0.000 H 
ATOM     95  H1  UNL A   1      10.053  25.023   1.090  1.00  0.00    +0.000 H 
ATOM     96  H2  UNL A   1       9.628  23.922   2.378  1.00  0.00    +0.000 H 
ENDBRANCH    2    1
ENDBRANCH    3    2
ENDBRANCH    4    3
ENDBRANCH    5    4
ENDBRANCH    6    5
ENDBRANCH    7    6
ENDBRANCH    8    7
ENDBRANCH    9    8
ENDBRANCH   10    9
ENDBRANCH   11   10
ENDBRANCH   12   11
ENDBRANCH   13   12
ENDBRANCH   14   13
ENDBRANCH   15   14
ENDBRANCH   16   15
ENDBRANCH   17   16
ENDBRANCH   18   17
ENDBRANCH   19   18
ENDBRANCH   20   19
ENDBRANCH   22   20
ENDBRANCH   23   22
ENDBRANCH   24   23
ENDBRANCH   25   24
ENDBRANCH   26   25
ENDBRANCH   27   26
ENDBRANCH   28   27
ENDBRANCH   29   28
ENDBRANCH   30   29
ENDBRANCH   32   30
ENDBRANCH   36   35
BRANCH   40   41
ATOM     41  C35 UNL A   1      18.030  21.330   1.355  1.00  0.00    +0.000 C 
ATOM     42  C36 UNL A   1      17.476  20.918   0.133  1.00  0.00    +0.000 C 
ATOM     43  F1  UNL A   1      16.582  19.918   0.100  1.00  0.00    +0.000 F 
ATOM     44  C37 UNL A   1      17.864  21.509  -1.067  1.00  0.00    +0.000 C 
ATOM     45  F2  UNL A   1      17.353  21.069  -2.225  1.00  0.00    +0.000 F 
ATOM     46  C38 UNL A   1      18.783  22.547  -1.066  1.00  0.00    +0.000 C 
ATOM     47  F3  UNL A   1      19.144  23.125  -2.219  1.00  0.00    +0.000 F 
ATOM     48  C39 UNL A   1      19.332  22.981   0.131  1.00  0.00    +0.000 C 
ATOM     49  F4  UNL A   1      20.210  23.994   0.135  1.00  0.00    +0.000 F 
ATOM     50  C40 UNL A   1      18.970  22.372   1.330  1.00  0.00    +0.000 C 
ATOM     51  F5  UNL A   1      19.527  22.809   2.469  1.00  0.00    +0.000 F 
ENDBRANCH   40   41
BRANCH   57   58
ATOM     65  C50 UNL A   1      21.072  13.935   5.484  1.00  0.00    +0.000 C 
ATOM     66  F9  UNL A   1      20.912  12.700   4.986  1.00  0.00    +0.000 F 
ATOM     67  C51 UNL A   1      20.041  14.864   5.380  1.00  0.00    +0.000 C 
ATOM     68  F10 UNL A   1      18.906  14.500   4.763  1.00  0.00    +0.000 F 
ATOM     58  C46 UNL A   1      20.176  16.156   5.911  1.00  0.00    +0.000 C 
ATOM     59  C47 UNL A   1      21.380  16.478   6.555  1.00  0.00    +0.000 C 
ATOM     60  F6  UNL A   1      21.566  17.703   7.067  1.00  0.00    +0.000 F 
ATOM     61  C48 UNL A   1      22.423  15.557   6.624  1.00  0.00    +0.000 C 
ATOM     62  F7  UNL A   1      23.589  15.910   7.184  1.00  0.00    +0.000 F 
ATOM     63  C49 UNL A   1      22.267  14.285   6.094  1.00  0.00    +0.000 C 
ATOM     64  F8  UNL A   1      23.271  13.402   6.162  1.00  0.00    +0.000 F 
ENDBRANCH   57   58
BRANCH   72   73
ATOM     73  C55 UNL A   1      14.718  17.555  10.001  1.00  0.00    +0.000 C 
ATOM     74  C56 UNL A   1      15.115  18.056  11.249  1.00  0.00    +0.000 C 
ATOM     75  F11 UNL A   1      15.960  19.097  11.314  1.00  0.00    +0.000 F 
ATOM     76  C57 UNL A   1      14.694  17.457  12.434  1.00  0.00    +0.000 C 
ATOM     77  F12 UNL A   1      15.142  17.917  13.610  1.00  0.00    +0.000 F 
ATOM     78  C58 UNL A   1      13.833  16.371  12.397  1.00  0.00    +0.000 C 
ATOM     79  F13 UNL A   1      13.429  15.794  13.537  1.00  0.00    +0.000 F 
ATOM     80  C59 UNL A   1      13.399  15.878  11.176  1.00  0.00    +0.000 C 
ATOM     81  F14 UNL A   1      12.553  14.840  11.135  1.00  0.00    +0.000 F 
ATOM     82  C60 UNL A   1      13.850  16.454   9.990  1.00  0.00    +0.000 C 
ATOM     83  F15 UNL A   1      13.431  15.938   8.825  1.00  0.00    +0.000 F 
ENDBRANCH   72   73
TORSDOF 33
ENDMDL
MODEL 6
REMARK VINA RESULT:      -6.5     48.035     53.773
ROOT
ATOM    140  H46 UNL A   1      27.702  24.188  53.434  1.00  0.00    +0.000 H 
ATOM    141  H47 UNL A   1      29.183  25.687  51.899  1.00  0.00    +0.000 H 
ATOM    142  H48 UNL A   1      26.682  28.147  54.097  1.00  0.00    +0.000 H 
ATOM    143  H49 UNL A   1      24.461  33.984  55.420  1.00  0.00    +0.000 H 
ATOM    144  H50 UNL A   1      23.077  32.524  56.970  1.00  0.00    +0.000 H 
ATOM    145  H51 UNL A   1      25.639  30.040  54.838  1.00  0.00    +0.000 H 
ATOM    146  H52 UNL A   1      28.369  33.051  51.893  1.00  0.00    +0.000 H 
ATOM    147  H53 UNL A   1      29.358  30.928  50.864  1.00  0.00    +0.000 H 
ATOM    148  H54 UNL A   1      24.095  25.254  57.268  1.00  0.00    +0.000 H 
ATOM    149  H55 UNL A   1      22.711  27.301  57.936  1.00  0.00    +0.000 H 
ATOM     36  C31 UNL A   1      23.600  29.731  56.733  1.00  0.00    +0.000 C 
ATOM     37  C32 UNL A   1      24.115  28.341  56.490  1.00  0.00    +0.000 C 
ATOM     38  N3  UNL A   1      25.067  27.941  55.685  1.00  0.00    +0.000 N 
ATOM     39  C33 UNL A   1      25.152  26.566  55.850  1.00  0.00    +0.000 C 
ATOM     40  C34 UNL A   1      25.926  25.679  55.178  1.00  0.00    +0.000 C 
ATOM     52  C41 UNL A   1      26.866  26.043  54.150  1.00  0.00    +0.000 C 
ATOM     53  C42 UNL A   1      27.678  25.218  53.390  1.00  0.00    +0.000 C 
ATOM     54  C43 UNL A   1      28.458  26.022  52.552  1.00  0.00    +0.000 C 
ATOM     55  C44 UNL A   1      28.093  27.343  52.748  1.00  0.00    +0.000 C 
ATOM     56  N4  UNL A   1      27.124  27.343  53.739  1.00  0.00    +0.000 N 
ATOM     57  C45 UNL A   1      28.588  28.520  52.078  1.00  0.00    +0.000 C 
ATOM     69  C52 UNL A   1      28.171  29.787  52.325  1.00  0.00    +0.000 C 
ATOM     70  N5  UNL A   1      27.229  30.236  53.240  1.00  0.00    +0.000 N 
ATOM     71  C53 UNL A   1      27.211  31.543  53.126  1.00  0.00    +0.000 C 
ATOM     72  C54 UNL A   1      26.358  32.550  53.850  1.00  0.00    +0.000 C 
ATOM     84  C61 UNL A   1      25.454  32.112  54.746  1.00  0.00    +0.000 C 
ATOM     85  C62 UNL A   1      24.533  32.958  55.499  1.00  0.00    +0.000 C 
ATOM     86  C63 UNL A   1      23.793  32.184  56.309  1.00  0.00    +0.000 C 
ATOM     87  C64 UNL A   1      24.165  30.783  56.107  1.00  0.00    +0.000 C 
ATOM     88  N6  UNL A   1      25.169  30.838  55.172  1.00  0.00    +0.000 N 
ATOM     89  C65 UNL A   1      28.161  32.071  52.137  1.00  0.00    +0.000 C 
ATOM     90  C66 UNL A   1      28.678  30.957  51.640  1.00  0.00    +0.000 C 
ATOM     91  C67 UNL A   1      24.204  26.204  56.881  1.00  0.00    +0.000 C 
ATOM     92  C68 UNL A   1      23.495  27.256  57.267  1.00  0.00    +0.000 C 
ENDROOT
BRANCH   36   35
ATOM     33  C28 UNL A   1      21.679  30.308  59.947  1.00  0.00    +0.000 C 
ATOM     34  C29 UNL A   1      22.733  30.166  59.044  1.00  0.00    +0.000 C 
ATOM     35  C30 UNL A   1      22.478  29.972  57.676  1.00  0.00    +0.000 C 
ATOM    138  H44 UNL A   1      21.871  30.416  60.955  1.00  0.00    +0.000 H 
ATOM    139  H45 UNL A   1      23.708  30.205  59.384  1.00  0.00    +0.000 H 
ATOM    150  H56 UNL A   1      20.953  29.846  56.217  1.00  0.00    +0.000 H 
ATOM    151  H57 UNL A   1      19.138  30.303  57.760  1.00  0.00    +0.000 H 
ATOM     93  C69 UNL A   1      21.153  29.993  57.218  1.00  0.00    +0.000 C 
ATOM     94  C70 UNL A   1      20.105  30.210  58.111  1.00  0.00    +0.000 C 
ATOM     32  C27 UNL A   1      20.362  30.302  59.482  1.00  0.00    +0.000 C 
BRANCH   32   30
ATOM     30  C26 UNL A   1      19.272  30.420  60.476  1.00  0.00    +0.000 C 
ATOM     31  O2  UNL A   1      19.217  31.398  61.206  1.00  0.00    +0.000 O 
BRANCH   30   29
ATOM    137  H43 UNL A   1      17.568  29.488  60.005  1.00  0.00    +0.000 H 
ATOM     29  N2  UNL A   1      18.344  29.415  60.606  1.00  0.00    +0.000 N 
BRANCH   29   28
ATOM     28  C25 UNL A   1      18.332  28.263  61.489  1.00  0.00    +0.000 C 
ATOM    135  H41 UNL A   1      17.918  28.558  62.431  1.00  0.00    +0.000 H 
ATOM    136  H42 UNL A   1      17.745  27.502  61.018  1.00  0.00    +0.000 H 
BRANCH   28   27
ATOM     27  C24 UNL A   1      19.723  27.686  61.729  1.00  0.00    +0.000 C 
ATOM    133  H39 UNL A   1      20.388  28.500  61.931  1.00  0.00    +0.000 H 
ATOM    134  H40 UNL A   1      19.622  27.001  62.545  1.00  0.00    +0.000 H 
BRANCH   27   26
ATOM     26  C23 UNL A   1      20.307  26.876  60.569  1.00  0.00    +0.000 C 
ATOM    131  H37 UNL A   1      19.755  25.962  60.496  1.00  0.00    +0.000 H 
ATOM    132  H38 UNL A   1      20.224  27.504  59.706  1.00  0.00    +0.000 H 
BRANCH   26   25
ATOM     25  C22 UNL A   1      21.793  26.521  60.685  1.00  0.00    +0.000 C 
ATOM    130  H36 UNL A   1      22.311  27.451  60.796  1.00  0.00    +0.000 H 
ATOM    129  H35 UNL A   1      22.072  25.975  59.808  1.00  0.00    +0.000 H 
BRANCH   25   24
ATOM    128  H34 UNL A   1      22.620  24.770  61.562  1.00  0.00    +0.000 H 
ATOM    127  H33 UNL A   1      21.287  25.475  62.477  1.00  0.00    +0.000 H 
ATOM     24  C21 UNL A   1      22.172  25.677  61.909  1.00  0.00    +0.000 C 
BRANCH   24   23
ATOM    125  H31 UNL A   1      22.685  27.209  63.289  1.00  0.00    +0.000 H 
ATOM    126  H32 UNL A   1      23.552  25.683  63.507  1.00  0.00    +0.000 H 
ATOM     23  C20 UNL A   1      23.178  26.395  62.801  1.00  0.00    +0.000 C 
BRANCH   23   22
ATOM    124  H30 UNL A   1      24.337  27.893  61.950  1.00  0.00    +0.000 H 
ATOM     22  N1  UNL A   1      24.311  26.914  62.055  1.00  0.00    +0.000 N 
BRANCH   22   20
ATOM     20  C19 UNL A   1      25.340  26.236  61.482  1.00  0.00    +0.000 C 
ATOM     21  O1  UNL A   1      25.911  25.401  62.193  1.00  0.00    +0.000 O 
BRANCH   20   19
ATOM    122  H28 UNL A   1      25.963  25.505  59.619  1.00  0.00    +0.000 H 
ATOM     19  C18 UNL A   1      25.837  26.469  60.066  1.00  0.00    +0.000 C 
ATOM    123  H29 UNL A   1      25.093  27.111  59.644  1.00  0.00    +0.000 H 
BRANCH   19   18
ATOM    121  H27 UNL A   1      27.820  26.458  59.574  1.00  0.00    +0.000 H 
ATOM     18  C17 UNL A   1      27.126  27.228  59.839  1.00  0.00    +0.000 C 
ATOM    120  H26 UNL A   1      27.319  27.782  60.733  1.00  0.00    +0.000 H 
BRANCH   18   17
ATOM     17  C16 UNL A   1      27.241  28.213  58.679  1.00  0.00    +0.000 C 
ATOM    118  H24 UNL A   1      27.026  27.631  57.808  1.00  0.00    +0.000 H 
ATOM    119  H25 UNL A   1      26.612  28.988  59.065  1.00  0.00    +0.000 H 
BRANCH   17   16
ATOM     16  S1  UNL A   1      28.695  29.250  58.202  1.00  0.00    +0.000 S 
BRANCH   16   15
ATOM    116  H22 UNL A   1      27.952  29.306  55.928  1.00  0.00    +0.000 H 
ATOM    117  H23 UNL A   1      29.539  30.136  56.190  1.00  0.00    +0.000 H 
ATOM     15  C15 UNL A   1      28.925  29.278  56.372  1.00  0.00    +0.000 C 
BRANCH   15   14
ATOM    114  H20 UNL A   1      29.289  27.936  54.746  1.00  0.00    +0.000 H 
ATOM    115  H21 UNL A   1      30.727  28.392  55.723  1.00  0.00    +0.000 H 
ATOM     14  C14 UNL A   1      29.698  28.097  55.722  1.00  0.00    +0.000 C 
BRANCH   14   13
ATOM    113  H19 UNL A   1      29.010  26.744  57.270  1.00  0.00    +0.000 H 
ATOM     13  C13 UNL A   1      29.652  26.787  56.463  1.00  0.00    +0.000 C 
BRANCH   13   12
ATOM     12  C12 UNL A   1      30.350  25.667  56.199  1.00  0.00    +0.000 C 
ATOM    112  H18 UNL A   1      30.354  24.912  56.901  1.00  0.00    +0.000 H 
BRANCH   12   11
ATOM     11  C11 UNL A   1      31.130  25.464  54.912  1.00  0.00    +0.000 C 
ATOM    110  H16 UNL A   1      30.663  26.046  54.146  1.00  0.00    +0.000 H 
ATOM    111  H17 UNL A   1      32.136  25.765  55.124  1.00  0.00    +0.000 H 
BRANCH   11   10
ATOM     10  C10 UNL A   1      31.213  24.045  54.432  1.00  0.00    +0.000 C 
ATOM    109  H15 UNL A   1      31.893  23.818  53.691  1.00  0.00    +0.000 H 
BRANCH   10    9
ATOM      9  C9  UNL A   1      30.446  23.056  54.921  1.00  0.00    +0.000 C 
ATOM    108  H14 UNL A   1      29.511  22.917  54.507  1.00  0.00    +0.000 H 
BRANCH    9    8
ATOM    106  H12 UNL A   1      31.836  22.423  56.393  1.00  0.00    +0.000 H 
ATOM    107  H13 UNL A   1      30.171  22.200  56.846  1.00  0.00    +0.000 H 
ATOM      8  C8  UNL A   1      30.868  22.139  56.036  1.00  0.00    +0.000 C 
BRANCH    8    7
ATOM    105  H11 UNL A   1      31.570  20.544  54.728  1.00  0.00    +0.000 H 
ATOM      7  C7  UNL A   1      30.916  20.739  55.501  1.00  0.00    +0.000 C 
BRANCH    7    6
ATOM      6  C6  UNL A   1      30.167  19.725  55.957  1.00  0.00    +0.000 C 
ATOM    104  H10 UNL A   1      30.458  18.760  55.732  1.00  0.00    +0.000 H 
BRANCH    6    5
ATOM      5  C5  UNL A   1      28.926  19.922  56.779  1.00  0.00    +0.000 C 
ATOM    102  H8  UNL A   1      28.660  20.958  56.783  1.00  0.00    +0.000 H 
ATOM    103  H9  UNL A   1      28.121  19.355  56.360  1.00  0.00    +0.000 H 
BRANCH    5    4
ATOM      4  C4  UNL A   1      29.195  19.465  58.184  1.00  0.00    +0.000 C 
ATOM    101  H7  UNL A   1      28.661  19.908  58.947  1.00  0.00    +0.000 H 
BRANCH    4    3
ATOM      3  C3  UNL A   1      30.087  18.517  58.511  1.00  0.00    +0.000 C 
ATOM    100  H6  UNL A   1      29.934  17.560  58.158  1.00  0.00    +0.000 H 
BRANCH    3    2
ATOM      2  C2  UNL A   1      31.295  18.775  59.363  1.00  0.00    +0.000 C 
ATOM     99  H5  UNL A   1      31.436  17.944  60.022  1.00  0.00    +0.000 H 
ATOM     98  H4  UNL A   1      31.144  19.672  59.926  1.00  0.00    +0.000 H 
BRANCH    2    1
ATOM      1  C1  UNL A   1      32.536  18.931  58.496  1.00  0.00    +0.000 C 
ATOM     97  H3  UNL A   1      32.249  19.269  57.522  1.00  0.00    +0.000 H 
ATOM     95  H1  UNL A   1      33.034  17.988  58.414  1.00  0.00    +0.000 H 
ATOM     96  H2  UNL A   1      33.195  19.646  58.942  1.00  0.00    +0.000 H 
ENDBRANCH    2    1
ENDBRANCH    3    2
ENDBRANCH    4    3
ENDBRANCH    5    4
ENDBRANCH    6    5
ENDBRANCH    7    6
ENDBRANCH    8    7
ENDBRANCH    9    8
ENDBRANCH   10    9
ENDBRANCH   11   10
ENDBRANCH   12   11
ENDBRANCH   13   12
ENDBRANCH   14   13
ENDBRANCH   15   14
ENDBRANCH   16   15
ENDBRANCH   17   16
ENDBRANCH   18   17
ENDBRANCH   19   18
ENDBRANCH   20   19
ENDBRANCH   22   20
ENDBRANCH   23   22
ENDBRANCH   24   23
ENDBRANCH   25   24
ENDBRANCH   26   25
ENDBRANCH   27   26
ENDBRANCH   28   27
ENDBRANCH   29   28
ENDBRANCH   30   29
ENDBRANCH   32   30
ENDBRANCH   36   35
BRANCH   40   41
ATOM     41  C35 UNL A   1      25.776  24.224  55.520  1.00  0.00    +0.000 C 
ATOM     42  C36 UNL A   1      26.341  23.686  56.687  1.00  0.00    +0.000 C 
ATOM     43  F1  UNL A   1      27.091  24.456  57.491  1.00  0.00    +0.000 F 
ATOM     44  C37 UNL A   1      26.166  22.344  57.018  1.00  0.00    +0.000 C 
ATOM     45  F2  UNL A   1      26.752  21.844  58.115  1.00  0.00    +0.000 F 
ATOM     46  C38 UNL A   1      25.394  21.524  56.209  1.00  0.00    +0.000 C 
ATOM     47  F3  UNL A   1      25.214  20.237  56.536  1.00  0.00    +0.000 F 
ATOM     48  C39 UNL A   1      24.813  22.037  55.060  1.00  0.00    +0.000 C 
ATOM     49  F4  UNL A   1      24.055  21.249  54.285  1.00  0.00    +0.000 F 
ATOM     50  C40 UNL A   1      25.011  23.371  54.710  1.00  0.00    +0.000 C 
ATOM     51  F5  UNL A   1      24.444  23.833  53.586  1.00  0.00    +0.000 F 
ENDBRANCH   40   41
BRANCH   57   58
ATOM     65  C50 UNL A   1      31.960  28.187  50.343  1.00  0.00    +0.000 C 
ATOM     66  F9  UNL A   1      33.259  28.221  50.671  1.00  0.00    +0.000 F 
ATOM     67  C51 UNL A   1      30.990  28.352  51.327  1.00  0.00    +0.000 C 
ATOM     68  F10 UNL A   1      31.386  28.529  52.598  1.00  0.00    +0.000 F 
ATOM     58  C46 UNL A   1      29.624  28.340  51.006  1.00  0.00    +0.000 C 
ATOM     59  C47 UNL A   1      29.269  28.162  49.661  1.00  0.00    +0.000 C 
ATOM     60  F6  UNL A   1      27.977  28.128  49.302  1.00  0.00    +0.000 F 
ATOM     61  C48 UNL A   1      30.241  27.959  48.684  1.00  0.00    +0.000 C 
ATOM     62  F7  UNL A   1      29.874  27.723  47.417  1.00  0.00    +0.000 F 
ATOM     63  C49 UNL A   1      31.585  27.977  49.024  1.00  0.00    +0.000 C 
ATOM     64  F8  UNL A   1      32.518  27.782  48.083  1.00  0.00    +0.000 F 
ENDBRANCH   57   58
BRANCH   72   73
ATOM     73  C55 UNL A   1      26.500  34.005  53.580  1.00  0.00    +0.000 C 
ATOM     74  C56 UNL A   1      27.542  34.753  54.147  1.00  0.00    +0.000 C 
ATOM     75  F11 UNL A   1      28.440  34.153  54.943  1.00  0.00    +0.000 F 
ATOM     76  C57 UNL A   1      27.635  36.129  53.946  1.00  0.00    +0.000 C 
ATOM     77  F12 UNL A   1      28.603  36.829  54.553  1.00  0.00    +0.000 F 
ATOM     78  C58 UNL A   1      26.712  36.778  53.139  1.00  0.00    +0.000 C 
ATOM     79  F13 UNL A   1      26.800  38.101  52.947  1.00  0.00    +0.000 F 
ATOM     80  C59 UNL A   1      25.692  36.055  52.540  1.00  0.00    +0.000 C 
ATOM     81  F14 UNL A   1      24.809  36.674  51.746  1.00  0.00    +0.000 F 
ATOM     82  C60 UNL A   1      25.578  34.686  52.771  1.00  0.00    +0.000 C 
ATOM     83  F15 UNL A   1      24.566  34.018  52.198  1.00  0.00    +0.000 F 
ENDBRANCH   72   73
TORSDOF 33
ENDMDL
MODEL 7
REMARK VINA RESULT:      -6.4      4.414      9.253
ROOT
ATOM    140  H46 UNL A   1      20.017  19.516   1.849  1.00  0.00    +0.000 H 
ATOM    141  H47 UNL A   1      20.731  17.559   3.417  1.00  0.00    +0.000 H 
ATOM    142  H48 UNL A   1      17.310  19.294   4.976  1.00  0.00    +0.000 H 
ATOM    143  H49 UNL A   1      12.941  19.669   9.615  1.00  0.00    +0.000 H 
ATOM    144  H50 UNL A   1      12.208  21.523   8.043  1.00  0.00    +0.000 H 
ATOM    145  H51 UNL A   1      15.590  19.740   6.412  1.00  0.00    +0.000 H 
ATOM    146  H52 UNL A   1      16.875  16.049   9.562  1.00  0.00    +0.000 H 
ATOM    147  H53 UNL A   1      18.953  15.711   8.106  1.00  0.00    +0.000 H 
ATOM    148  H54 UNL A   1      15.789  22.826   1.762  1.00  0.00    +0.000 H 
ATOM    149  H55 UNL A   1      14.013  23.543   3.460  1.00  0.00    +0.000 H 
ATOM     36  C31 UNL A   1      13.898  21.878   5.774  1.00  0.00    +0.000 C 
ATOM     37  C32 UNL A   1      14.875  21.807   4.636  1.00  0.00    +0.000 C 
ATOM     38  N3  UNL A   1      15.875  20.981   4.456  1.00  0.00    +0.000 N 
ATOM     39  C33 UNL A   1      16.448  21.336   3.243  1.00  0.00    +0.000 C 
ATOM     40  C34 UNL A   1      17.563  20.839   2.656  1.00  0.00    +0.000 C 
ATOM     52  C41 UNL A   1      18.362  19.775   3.208  1.00  0.00    +0.000 C 
ATOM     53  C42 UNL A   1      19.526  19.217   2.705  1.00  0.00    +0.000 C 
ATOM     54  C43 UNL A   1      19.918  18.180   3.558  1.00  0.00    +0.000 C 
ATOM     55  C44 UNL A   1      19.034  18.129   4.622  1.00  0.00    +0.000 C 
ATOM     56  N4  UNL A   1      18.077  19.105   4.389  1.00  0.00    +0.000 N 
ATOM     57  C45 UNL A   1      19.060  17.256   5.769  1.00  0.00    +0.000 C 
ATOM     69  C52 UNL A   1      18.154  17.273   6.778  1.00  0.00    +0.000 C 
ATOM     70  N5  UNL A   1      17.035  18.080   6.937  1.00  0.00    +0.000 N 
ATOM     71  C53 UNL A   1      16.463  17.686   8.049  1.00  0.00    +0.000 C 
ATOM     72  C54 UNL A   1      15.232  18.224   8.728  1.00  0.00    +0.000 C 
ATOM     84  C61 UNL A   1      14.588  19.268   8.175  1.00  0.00    +0.000 C 
ATOM     85  C62 UNL A   1      13.408  19.923   8.731  1.00  0.00    +0.000 C 
ATOM     86  C63 UNL A   1      13.027  20.910   7.905  1.00  0.00    +0.000 C 
ATOM     87  C64 UNL A   1      13.959  20.981   6.778  1.00  0.00    +0.000 C 
ATOM     88  N6  UNL A   1      14.843  19.958   7.015  1.00  0.00    +0.000 N 
ATOM     89  C65 UNL A   1      17.145  16.564   8.710  1.00  0.00    +0.000 C 
ATOM     90  C66 UNL A   1      18.198  16.390   7.924  1.00  0.00    +0.000 C 
ATOM     91  C67 UNL A   1      15.645  22.406   2.693  1.00  0.00    +0.000 C 
ATOM     92  C68 UNL A   1      14.697  22.775   3.543  1.00  0.00    +0.000 C 
ENDROOT
BRANCH   36   35
ATOM     33  C28 UNL A   1      12.005  25.038   6.658  1.00  0.00    +0.000 C 
ATOM     34  C29 UNL A   1      13.026  24.094   6.557  1.00  0.00    +0.000 C 
ATOM     35  C30 UNL A   1      12.841  22.922   5.805  1.00  0.00    +0.000 C 
ATOM    138  H44 UNL A   1      12.134  25.881   7.240  1.00  0.00    +0.000 H 
ATOM    139  H45 UNL A   1      13.925  24.257   7.039  1.00  0.00    +0.000 H 
ATOM    150  H56 UNL A   1      11.494  21.887   4.546  1.00  0.00    +0.000 H 
ATOM    151  H57 UNL A   1       9.807  23.630   4.555  1.00  0.00    +0.000 H 
ATOM     93  C69 UNL A   1      11.644  22.746   5.098  1.00  0.00    +0.000 C 
ATOM     94  C70 UNL A   1      10.653  23.726   5.139  1.00  0.00    +0.000 C 
ATOM     32  C27 UNL A   1      10.807  24.840   5.969  1.00  0.00    +0.000 C 
BRANCH   32   30
ATOM     30  C26 UNL A   1       9.735  25.849   6.131  1.00  0.00    +0.000 C 
ATOM     31  O2  UNL A   1       9.115  25.914   7.182  1.00  0.00    +0.000 O 
BRANCH   30   29
ATOM    137  H43 UNL A   1       8.457  26.701   4.852  1.00  0.00    +0.000 H 
ATOM     29  N2  UNL A   1       9.412  26.686   5.091  1.00  0.00    +0.000 N 
BRANCH   29   28
ATOM     28  C25 UNL A   1      10.260  27.552   4.291  1.00  0.00    +0.000 C 
ATOM    135  H41 UNL A   1      10.088  28.566   4.585  1.00  0.00    +0.000 H 
ATOM    136  H42 UNL A   1      11.274  27.255   4.460  1.00  0.00    +0.000 H 
BRANCH   28   27
ATOM     27  C24 UNL A   1       9.989  27.426   2.794  1.00  0.00    +0.000 C 
ATOM    133  H39 UNL A   1      10.477  26.541   2.444  1.00  0.00    +0.000 H 
ATOM    134  H40 UNL A   1       8.924  27.401   2.689  1.00  0.00    +0.000 H 
BRANCH   27   26
ATOM     26  C23 UNL A   1      10.470  28.600   1.939  1.00  0.00    +0.000 C 
ATOM    131  H37 UNL A   1      11.394  28.950   2.352  1.00  0.00    +0.000 H 
ATOM    132  H38 UNL A   1      10.557  28.218   0.944  1.00  0.00    +0.000 H 
BRANCH   26   25
ATOM     25  C22 UNL A   1       9.514  29.794   1.847  1.00  0.00    +0.000 C 
ATOM    130  H36 UNL A   1       9.332  30.105   2.855  1.00  0.00    +0.000 H 
ATOM    129  H35 UNL A   1       8.633  29.473   1.331  1.00  0.00    +0.000 H 
BRANCH   25   24
ATOM    128  H34 UNL A   1       9.829  31.891   1.698  1.00  0.00    +0.000 H 
ATOM    127  H33 UNL A   1       9.623  31.079   0.145  1.00  0.00    +0.000 H 
ATOM     24  C21 UNL A   1      10.067  31.024   1.118  1.00  0.00    +0.000 C 
BRANCH   24   23
ATOM    125  H31 UNL A   1      12.028  31.647   1.651  1.00  0.00    +0.000 H 
ATOM    126  H32 UNL A   1      11.886  29.951   1.169  1.00  0.00    +0.000 H 
ATOM     23  C20 UNL A   1      11.583  30.956   0.965  1.00  0.00    +0.000 C 
BRANCH   23   22
ATOM    124  H30 UNL A   1      11.310  31.322  -1.061  1.00  0.00    +0.000 H 
ATOM     22  N1  UNL A   1      12.020  31.286  -0.380  1.00  0.00    +0.000 N 
BRANCH   22   20
ATOM     20  C19 UNL A   1      13.275  31.553  -0.828  1.00  0.00    +0.000 C 
ATOM     21  O1  UNL A   1      13.917  32.396  -0.192  1.00  0.00    +0.000 O 
BRANCH   20   19
ATOM    122  H28 UNL A   1      14.936  30.766  -1.837  1.00  0.00    +0.000 H 
ATOM     19  C18 UNL A   1      13.900  30.916  -2.057  1.00  0.00    +0.000 C 
ATOM    123  H29 UNL A   1      13.302  30.043  -2.216  1.00  0.00    +0.000 H 
BRANCH   19   18
ATOM    121  H27 UNL A   1      13.815  30.829  -4.097  1.00  0.00    +0.000 H 
ATOM     18  C17 UNL A   1      13.834  31.632  -3.388  1.00  0.00    +0.000 C 
ATOM    120  H26 UNL A   1      14.669  32.299  -3.421  1.00  0.00    +0.000 H 
BRANCH   18   17
ATOM     17  C16 UNL A   1      12.602  32.452  -3.759  1.00  0.00    +0.000 C 
ATOM    118  H24 UNL A   1      12.629  33.293  -3.098  1.00  0.00    +0.000 H 
ATOM    119  H25 UNL A   1      12.756  32.502  -4.816  1.00  0.00    +0.000 H 
BRANCH   17   16
ATOM     16  S1  UNL A   1      10.832  31.917  -3.762  1.00  0.00    +0.000 S 
BRANCH   16   15
ATOM    116  H22 UNL A   1      11.156  30.398  -5.584  1.00  0.00    +0.000 H 
ATOM    117  H23 UNL A   1       9.415  30.682  -5.181  1.00  0.00    +0.000 H 
ATOM     15  C15 UNL A   1      10.384  31.102  -5.356  1.00  0.00    +0.000 C 
BRANCH   15   14
ATOM    114  H20 UNL A   1      11.077  32.611  -6.705  1.00  0.00    +0.000 H 
ATOM    115  H21 UNL A   1      10.030  31.338  -7.423  1.00  0.00    +0.000 H 
ATOM     14  C14 UNL A   1      10.199  32.008  -6.605  1.00  0.00    +0.000 C 
BRANCH   14   13
ATOM    113  H19 UNL A   1       8.143  32.564  -7.013  1.00  0.00    +0.000 H 
ATOM     13  C13 UNL A   1       9.008  32.929  -6.584  1.00  0.00    +0.000 C 
BRANCH   13   12
ATOM     12  C12 UNL A   1       8.937  34.172  -6.072  1.00  0.00    +0.000 C 
ATOM    112  H18 UNL A   1       8.891  34.281  -5.048  1.00  0.00    +0.000 H 
BRANCH   12   11
ATOM     11  C11 UNL A   1       8.923  35.421  -6.936  1.00  0.00    +0.000 C 
ATOM    110  H16 UNL A   1       9.290  36.235  -6.347  1.00  0.00    +0.000 H 
ATOM    111  H17 UNL A   1       9.534  35.200  -7.787  1.00  0.00    +0.000 H 
BRANCH   11   10
ATOM     10  C10 UNL A   1       7.579  35.807  -7.478  1.00  0.00    +0.000 C 
ATOM    109  H15 UNL A   1       7.474  35.914  -8.498  1.00  0.00    +0.000 H 
BRANCH   10    9
ATOM      9  C9  UNL A   1       6.505  36.021  -6.700  1.00  0.00    +0.000 C 
ATOM    108  H14 UNL A   1       5.600  35.629  -7.003  1.00  0.00    +0.000 H 
BRANCH    9    8
ATOM    106  H12 UNL A   1       6.508  36.126  -4.581  1.00  0.00    +0.000 H 
ATOM    107  H13 UNL A   1       7.444  37.372  -5.355  1.00  0.00    +0.000 H 
ATOM      8  C8  UNL A   1       6.542  36.799  -5.412  1.00  0.00    +0.000 C 
BRANCH    8    7
ATOM    105  H11 UNL A   1       4.982  37.981  -4.453  1.00  0.00    +0.000 H 
ATOM      7  C7  UNL A   1       5.350  37.708  -5.377  1.00  0.00    +0.000 C 
BRANCH    7    6
ATOM      6  C6  UNL A   1       4.728  38.190  -6.463  1.00  0.00    +0.000 C 
ATOM    104  H10 UNL A   1       5.244  38.210  -7.357  1.00  0.00    +0.000 H 
BRANCH    6    5
ATOM      5  C5  UNL A   1       3.316  38.701  -6.442  1.00  0.00    +0.000 C 
ATOM    102  H8  UNL A   1       2.958  38.805  -7.445  1.00  0.00    +0.000 H 
ATOM    103  H9  UNL A   1       2.690  38.012  -5.915  1.00  0.00    +0.000 H 
BRANCH    5    4
ATOM      4  C4  UNL A   1       3.293  40.038  -5.756  1.00  0.00    +0.000 C 
ATOM    101  H7  UNL A   1       2.634  40.167  -4.973  1.00  0.00    +0.000 H 
BRANCH    4    3
ATOM      3  C3  UNL A   1       4.073  41.074  -6.097  1.00  0.00    +0.000 C 
ATOM    100  H6  UNL A   1       5.041  41.094  -5.741  1.00  0.00    +0.000 H 
BRANCH    3    2
ATOM      2  C2  UNL A   1       3.613  42.207  -6.968  1.00  0.00    +0.000 C 
ATOM     99  H5  UNL A   1       3.317  43.023  -6.344  1.00  0.00    +0.000 H 
ATOM     98  H4  UNL A   1       2.788  41.879  -7.565  1.00  0.00    +0.000 H 
BRANCH    2    1
ATOM      1  C1  UNL A   1       4.740  42.669  -7.880  1.00  0.00    +0.000 C 
ATOM     97  H3  UNL A   1       5.463  41.885  -7.979  1.00  0.00    +0.000 H 
ATOM     95  H1  UNL A   1       5.207  43.535  -7.460  1.00  0.00    +0.000 H 
ATOM     96  H2  UNL A   1       4.343  42.910  -8.844  1.00  0.00    +0.000 H 
ENDBRANCH    2    1
ENDBRANCH    3    2
ENDBRANCH    4    3
ENDBRANCH    5    4
ENDBRANCH    6    5
ENDBRANCH    7    6
ENDBRANCH    8    7
ENDBRANCH    9    8
ENDBRANCH   10    9
ENDBRANCH   11   10
ENDBRANCH   12   11
ENDBRANCH   13   12
ENDBRANCH   14   13
ENDBRANCH   15   14
ENDBRANCH   16   15
ENDBRANCH   17   16
ENDBRANCH   18   17
ENDBRANCH   19   18
ENDBRANCH   20   19
ENDBRANCH   22   20
ENDBRANCH   23   22
ENDBRANCH   24   23
ENDBRANCH   25   24
ENDBRANCH   26   25
ENDBRANCH   27   26
ENDBRANCH   28   27
ENDBRANCH   29   28
ENDBRANCH   30   29
ENDBRANCH   32   30
ENDBRANCH   36   35
BRANCH   40   41
ATOM     41  C35 UNL A   1      17.999  21.451   1.355  1.00  0.00    +0.000 C 
ATOM     42  C36 UNL A   1      17.472  21.014   0.130  1.00  0.00    +0.000 C 
ATOM     43  F1  UNL A   1      16.613  19.984   0.093  1.00  0.00    +0.000 F 
ATOM     44  C37 UNL A   1      17.852  21.612  -1.070  1.00  0.00    +0.000 C 
ATOM     45  F2  UNL A   1      17.368  21.148  -2.231  1.00  0.00    +0.000 F 
ATOM     46  C38 UNL A   1      18.735  22.680  -1.065  1.00  0.00    +0.000 C 
ATOM     47  F3  UNL A   1      19.088  23.265  -2.219  1.00  0.00    +0.000 F 
ATOM     48  C39 UNL A   1      19.256  23.140   0.134  1.00  0.00    +0.000 C 
ATOM     49  F4  UNL A   1      20.099  24.182   0.142  1.00  0.00    +0.000 F 
ATOM     50  C40 UNL A   1      18.903  22.524   1.333  1.00  0.00    +0.000 C 
ATOM     51  F5  UNL A   1      19.433  22.986   2.475  1.00  0.00    +0.000 F 
ENDBRANCH   40   41
BRANCH   57   58
ATOM     65  C50 UNL A   1      21.094  14.055   5.433  1.00  0.00    +0.000 C 
ATOM     66  F9  UNL A   1      20.941  12.825   4.923  1.00  0.00    +0.000 F 
ATOM     67  C51 UNL A   1      20.058  14.980   5.336  1.00  0.00    +0.000 C 
ATOM     68  F10 UNL A   1      18.926  14.616   4.714  1.00  0.00    +0.000 F 
ATOM     58  C46 UNL A   1      20.185  16.267   5.880  1.00  0.00    +0.000 C 
ATOM     59  C47 UNL A   1      21.387  16.590   6.528  1.00  0.00    +0.000 C 
ATOM     60  F6  UNL A   1      21.566  17.811   7.053  1.00  0.00    +0.000 F 
ATOM     61  C48 UNL A   1      22.435  15.674   6.590  1.00  0.00    +0.000 C 
ATOM     62  F7  UNL A   1      23.598  16.028   7.155  1.00  0.00    +0.000 F 
ATOM     63  C49 UNL A   1      22.286  14.407   6.048  1.00  0.00    +0.000 C 
ATOM     64  F8  UNL A   1      23.295  13.528   6.109  1.00  0.00    +0.000 F 
ENDBRANCH   57   58
BRANCH   72   73
ATOM     73  C55 UNL A   1      14.735  17.622   9.995  1.00  0.00    +0.000 C 
ATOM     74  C56 UNL A   1      13.832  16.549   9.986  1.00  0.00    +0.000 C 
ATOM     75  F11 UNL A   1      13.409  16.039   8.819  1.00  0.00    +0.000 F 
ATOM     76  C57 UNL A   1      13.317  16.031  11.172  1.00  0.00    +0.000 C 
ATOM     77  F12 UNL A   1      12.406  15.048  11.131  1.00  0.00    +0.000 F 
ATOM     78  C58 UNL A   1      13.725  16.548  12.393  1.00  0.00    +0.000 C 
ATOM     79  F13 UNL A   1      13.227  16.050  13.533  1.00  0.00    +0.000 F 
ATOM     80  C59 UNL A   1      14.642  17.587  12.428  1.00  0.00    +0.000 C 
ATOM     81  F14 UNL A   1      15.053  18.077  13.605  1.00  0.00    +0.000 F 
ATOM     82  C60 UNL A   1      15.129  18.129  11.241  1.00  0.00    +0.000 C 
ATOM     83  F15 UNL A   1      15.996  19.151  11.309  1.00  0.00    +0.000 F 
ENDBRANCH   72   73
TORSDOF 33
ENDMDL
MODEL 8
REMARK VINA RESULT:      -6.3     19.798     26.240
ROOT
ATOM    140  H46 UNL A   1       7.372  23.606  18.195  1.00  0.00    +0.000 H 
ATOM    141  H47 UNL A   1       7.151  25.311  16.236  1.00  0.00    +0.000 H 
ATOM    142  H48 UNL A   1       6.041  27.209  19.743  1.00  0.00    +0.000 H 
ATOM    143  H49 UNL A   1       3.758  32.364  22.739  1.00  0.00    +0.000 H 
ATOM    144  H50 UNL A   1       4.049  30.722  24.653  1.00  0.00    +0.000 H 
ATOM    145  H51 UNL A   1       5.253  28.822  21.158  1.00  0.00    +0.000 H 
ATOM    146  H52 UNL A   1       4.715  32.197  17.481  1.00  0.00    +0.000 H 
ATOM    147  H53 UNL A   1       5.340  30.326  15.852  1.00  0.00    +0.000 H 
ATOM    148  H54 UNL A   1       6.796  24.003  23.520  1.00  0.00    +0.000 H 
ATOM    149  H55 UNL A   1       5.671  25.671  25.103  1.00  0.00    +0.000 H 
ATOM     36  C31 UNL A   1       4.986  28.148  23.862  1.00  0.00    +0.000 C 
ATOM     37  C32 UNL A   1       5.563  26.922  23.214  1.00  0.00    +0.000 C 
ATOM     38  N3  UNL A   1       5.873  26.719  21.958  1.00  0.00    +0.000 N 
ATOM     39  C33 UNL A   1       6.379  25.429  21.895  1.00  0.00    +0.000 C 
ATOM     40  C34 UNL A   1       6.759  24.721  20.803  1.00  0.00    +0.000 C 
ATOM     52  C41 UNL A   1       6.732  25.234  19.458  1.00  0.00    +0.000 C 
ATOM     53  C42 UNL A   1       7.071  24.589  18.280  1.00  0.00    +0.000 C 
ATOM     54  C43 UNL A   1       6.933  25.499  17.227  1.00  0.00    +0.000 C 
ATOM     55  C44 UNL A   1       6.454  26.693  17.739  1.00  0.00    +0.000 C 
ATOM     56  N4  UNL A   1       6.347  26.521  19.110  1.00  0.00    +0.000 N 
ATOM     57  C45 UNL A   1       6.116  27.902  17.031  1.00  0.00    +0.000 C 
ATOM     69  C52 UNL A   1       5.645  29.035  17.608  1.00  0.00    +0.000 C 
ATOM     70  N5  UNL A   1       5.398  29.296  18.950  1.00  0.00    +0.000 N 
ATOM     71  C53 UNL A   1       4.990  30.541  19.004  1.00  0.00    +0.000 C 
ATOM     72  C54 UNL A   1       4.554  31.349  20.198  1.00  0.00    +0.000 C 
ATOM     84  C61 UNL A   1       4.544  30.764  21.410  1.00  0.00    +0.000 C 
ATOM     85  C62 UNL A   1       4.115  31.400  22.651  1.00  0.00    +0.000 C 
ATOM     86  C63 UNL A   1       4.258  30.528  23.661  1.00  0.00    +0.000 C 
ATOM     87  C64 UNL A   1       4.757  29.257  23.132  1.00  0.00    +0.000 C 
ATOM     88  N6  UNL A   1       4.912  29.496  21.789  1.00  0.00    +0.000 N 
ATOM     89  C65 UNL A   1       4.953  31.218  17.700  1.00  0.00    +0.000 C 
ATOM     90  C66 UNL A   1       5.308  30.239  16.880  1.00  0.00    +0.000 C 
ATOM     91  C67 UNL A   1       6.402  24.916  23.248  1.00  0.00    +0.000 C 
ATOM     92  C68 UNL A   1       5.852  25.777  24.092  1.00  0.00    +0.000 C 
ENDROOT
BRANCH   36   35
ATOM     33  C28 UNL A   1       3.095  27.807  27.127  1.00  0.00    +0.000 C 
ATOM     34  C29 UNL A   1       3.425  27.715  25.775  1.00  0.00    +0.000 C 
ATOM     35  C30 UNL A   1       4.674  28.164  25.315  1.00  0.00    +0.000 C 
ATOM    138  H44 UNL A   1       2.164  27.507  27.455  1.00  0.00    +0.000 H 
ATOM    139  H45 UNL A   1       2.747  27.313  25.108  1.00  0.00    +0.000 H 
ATOM    150  H56 UNL A   1       6.531  28.979  25.914  1.00  0.00    +0.000 H 
ATOM    151  H57 UNL A   1       6.029  28.939  28.287  1.00  0.00    +0.000 H 
ATOM     93  C69 UNL A   1       5.612  28.641  26.240  1.00  0.00    +0.000 C 
ATOM     94  C70 UNL A   1       5.310  28.662  27.601  1.00  0.00    +0.000 C 
ATOM     32  C27 UNL A   1       4.030  28.307  28.037  1.00  0.00    +0.000 C 
BRANCH   32   30
ATOM     30  C26 UNL A   1       3.627  28.421  29.457  1.00  0.00    +0.000 C 
ATOM     31  O2  UNL A   1       4.481  28.476  30.328  1.00  0.00    +0.000 O 
BRANCH   30   29
ATOM    137  H43 UNL A   1       1.765  29.143  29.381  1.00  0.00    +0.000 H 
ATOM     29  N2  UNL A   1       2.297  28.428  29.799  1.00  0.00    +0.000 N 
BRANCH   29   28
ATOM     28  C25 UNL A   1       1.554  27.545  30.680  1.00  0.00    +0.000 C 
ATOM    135  H41 UNL A   1       1.914  26.546  30.548  1.00  0.00    +0.000 H 
ATOM    136  H42 UNL A   1       1.702  27.891  31.682  1.00  0.00    +0.000 H 
BRANCH   28   27
ATOM     27  C24 UNL A   1       0.053  27.561  30.406  1.00  0.00    +0.000 C 
ATOM    133  H39 UNL A   1      -0.267  26.551  30.265  1.00  0.00    +0.000 H 
ATOM    134  H40 UNL A   1      -0.395  28.040  31.251  1.00  0.00    +0.000 H 
BRANCH   27   26
ATOM     26  C23 UNL A   1      -0.382  28.370  29.182  1.00  0.00    +0.000 C 
ATOM    131  H37 UNL A   1      -1.220  28.972  29.467  1.00  0.00    +0.000 H 
ATOM    132  H38 UNL A   1       0.478  28.935  28.887  1.00  0.00    +0.000 H 
BRANCH   26   25
ATOM     25  C22 UNL A   1      -0.787  27.551  27.952  1.00  0.00    +0.000 C 
ATOM    130  H36 UNL A   1      -0.038  27.741  27.211  1.00  0.00    +0.000 H 
ATOM    129  H35 UNL A   1      -1.769  27.858  27.659  1.00  0.00    +0.000 H 
BRANCH   25   24
ATOM    128  H34 UNL A   1      -0.460  25.821  29.144  1.00  0.00    +0.000 H 
ATOM    127  H33 UNL A   1      -0.170  25.576  27.421  1.00  0.00    +0.000 H 
ATOM     24  C21 UNL A   1      -0.806  26.031  28.154  1.00  0.00    +0.000 C 
BRANCH   24   23
ATOM    125  H31 UNL A   1      -2.844  26.207  27.579  1.00  0.00    +0.000 H 
ATOM    126  H32 UNL A   1      -2.148  24.592  27.385  1.00  0.00    +0.000 H 
ATOM     23  C20 UNL A   1      -2.212  25.459  28.010  1.00  0.00    +0.000 C 
BRANCH   23   22
ATOM    124  H30 UNL A   1      -2.439  24.194  29.640  1.00  0.00    +0.000 H 
ATOM     22  N1  UNL A   1      -2.777  25.047  29.282  1.00  0.00    +0.000 N 
BRANCH   22   20
ATOM     20  C19 UNL A   1      -3.707  25.676  30.047  1.00  0.00    +0.000 C 
ATOM     21  O1  UNL A   1      -4.672  24.994  30.409  1.00  0.00    +0.000 O 
BRANCH   20   19
ATOM    122  H28 UNL A   1      -2.739  27.535  30.031  1.00  0.00    +0.000 H 
ATOM     19  C18 UNL A   1      -3.646  27.142  30.439  1.00  0.00    +0.000 C 
ATOM    123  H29 UNL A   1      -4.565  27.539  30.060  1.00  0.00    +0.000 H 
BRANCH   19   18
ATOM    121  H27 UNL A   1      -3.288  26.660  32.392  1.00  0.00    +0.000 H 
ATOM     18  C17 UNL A   1      -3.673  27.530  31.901  1.00  0.00    +0.000 C 
ATOM    120  H26 UNL A   1      -4.678  27.819  32.124  1.00  0.00    +0.000 H 
BRANCH   18   17
ATOM     17  C16 UNL A   1      -2.770  28.648  32.415  1.00  0.00    +0.000 C 
ATOM    118  H24 UNL A   1      -2.090  28.836  31.611  1.00  0.00    +0.000 H 
ATOM    119  H25 UNL A   1      -3.528  29.326  32.744  1.00  0.00    +0.000 H 
BRANCH   17   16
ATOM     16  S1  UNL A   1      -1.715  28.656  33.933  1.00  0.00    +0.000 S 
BRANCH   16   15
ATOM    116  H22 UNL A   1      -0.192  29.999  32.665  1.00  0.00    +0.000 H 
ATOM    117  H23 UNL A   1      -0.251  30.434  34.420  1.00  0.00    +0.000 H 
ATOM     15  C15 UNL A   1      -0.190  29.663  33.681  1.00  0.00    +0.000 C 
BRANCH   15   14
ATOM    114  H20 UNL A   1       1.066  28.323  34.778  1.00  0.00    +0.000 H 
ATOM    115  H21 UNL A   1       1.431  28.480  33.025  1.00  0.00    +0.000 H 
ATOM     14  C14 UNL A   1       1.181  28.978  33.940  1.00  0.00    +0.000 C 
BRANCH   14   13
ATOM    113  H19 UNL A   1       2.941  29.633  35.022  1.00  0.00    +0.000 H 
ATOM     13  C13 UNL A   1       2.337  29.898  34.229  1.00  0.00    +0.000 C 
BRANCH   13   12
ATOM     12  C12 UNL A   1       2.676  31.025  33.575  1.00  0.00    +0.000 C 
ATOM    112  H18 UNL A   1       2.533  31.930  34.048  1.00  0.00    +0.000 H 
BRANCH   12   11
ATOM     11  C11 UNL A   1       3.259  31.023  32.174  1.00  0.00    +0.000 C 
ATOM    110  H16 UNL A   1       3.297  30.010  31.832  1.00  0.00    +0.000 H 
ATOM    111  H17 UNL A   1       2.621  31.649  31.585  1.00  0.00    +0.000 H 
BRANCH   11   10
ATOM     10  C10 UNL A   1       4.637  31.605  32.055  1.00  0.00    +0.000 C 
ATOM    109  H15 UNL A   1       5.149  31.833  32.920  1.00  0.00    +0.000 H 
BRANCH   10    9
ATOM      9  C9  UNL A   1       5.236  31.843  30.876  1.00  0.00    +0.000 C 
ATOM    108  H14 UNL A   1       6.267  31.888  30.856  1.00  0.00    +0.000 H 
BRANCH    9    8
ATOM    106  H12 UNL A   1       4.125  31.108  29.226  1.00  0.00    +0.000 H 
ATOM    107  H13 UNL A   1       3.668  32.708  29.733  1.00  0.00    +0.000 H 
ATOM      8  C8  UNL A   1       4.496  32.046  29.583  1.00  0.00    +0.000 C 
BRANCH    8    7
ATOM    105  H11 UNL A   1       5.221  33.555  28.187  1.00  0.00    +0.000 H 
ATOM      7  C7  UNL A   1       5.448  32.629  28.582  1.00  0.00    +0.000 C 
BRANCH    7    6
ATOM      6  C6  UNL A   1       6.572  32.030  28.163  1.00  0.00    +0.000 C 
ATOM    104  H10 UNL A   1       6.772  31.073  28.493  1.00  0.00    +0.000 H 
BRANCH    6    5
ATOM      5  C5  UNL A   1       7.555  32.685  27.236  1.00  0.00    +0.000 C 
ATOM    102  H8  UNL A   1       8.066  33.471  27.751  1.00  0.00    +0.000 H 
ATOM    103  H9  UNL A   1       8.270  31.964  26.899  1.00  0.00    +0.000 H 
BRANCH    5    4
ATOM      4  C4  UNL A   1       6.812  33.251  26.059  1.00  0.00    +0.000 C 
ATOM    101  H7  UNL A   1       5.875  33.649  26.226  1.00  0.00    +0.000 H 
BRANCH    4    3
ATOM      3  C3  UNL A   1       7.288  33.273  24.805  1.00  0.00    +0.000 C 
ATOM    100  H6  UNL A   1       7.598  32.382  24.386  1.00  0.00    +0.000 H 
BRANCH    3    2
ATOM      2  C2  UNL A   1       7.395  34.521  23.980  1.00  0.00    +0.000 C 
ATOM     99  H5  UNL A   1       7.296  35.370  24.624  1.00  0.00    +0.000 H 
ATOM     98  H4  UNL A   1       6.619  34.524  23.243  1.00  0.00    +0.000 H 
BRANCH    2    1
ATOM      1  C1  UNL A   1       8.747  34.586  23.284  1.00  0.00    +0.000 C 
ATOM     97  H3  UNL A   1       9.527  34.567  24.018  1.00  0.00    +0.000 H 
ATOM     95  H1  UNL A   1       8.813  35.489  22.716  1.00  0.00    +0.000 H 
ATOM     96  H2  UNL A   1       8.853  33.745  22.632  1.00  0.00    +0.000 H 
ENDBRANCH    2    1
ENDBRANCH    3    2
ENDBRANCH    4    3
ENDBRANCH    5    4
ENDBRANCH    6    5
ENDBRANCH    7    6
ENDBRANCH    8    7
ENDBRANCH    9    8
ENDBRANCH   10    9
ENDBRANCH   11   10
ENDBRANCH   12   11
ENDBRANCH   13   12
ENDBRANCH   14   13
ENDBRANCH   15   14
ENDBRANCH   16   15
ENDBRANCH   17   16
ENDBRANCH   18   17
ENDBRANCH   19   18
ENDBRANCH   20   19
ENDBRANCH   22   20
ENDBRANCH   23   22
ENDBRANCH   24   23
ENDBRANCH   25   24
ENDBRANCH   26   25
ENDBRANCH   27   26
ENDBRANCH   28   27
ENDBRANCH   29   28
ENDBRANCH   30   29
ENDBRANCH   32   30
ENDBRANCH   36   35
BRANCH   40   41
ATOM     41  C35 UNL A   1       7.221  23.307  21.015  1.00  0.00    +0.000 C 
ATOM     42  C36 UNL A   1       8.562  23.012  21.304  1.00  0.00    +0.000 C 
ATOM     43  F1  UNL A   1       9.478  23.992  21.330  1.00  0.00    +0.000 F 
ATOM     44  C37 UNL A   1       8.976  21.703  21.537  1.00  0.00    +0.000 C 
ATOM     45  F2  UNL A   1      10.270  21.442  21.769  1.00  0.00    +0.000 F 
ATOM     46  C38 UNL A   1       8.052  20.669  21.521  1.00  0.00    +0.000 C 
ATOM     47  F3  UNL A   1       8.449  19.411  21.760  1.00  0.00    +0.000 F 
ATOM     48  C39 UNL A   1       6.719  20.938  21.253  1.00  0.00    +0.000 C 
ATOM     49  F4  UNL A   1       5.823  19.941  21.251  1.00  0.00    +0.000 F 
ATOM     50  C40 UNL A   1       6.307  22.242  20.989  1.00  0.00    +0.000 C 
ATOM     51  F5  UNL A   1       5.012  22.467  20.723  1.00  0.00    +0.000 F 
ENDBRANCH   40   41
BRANCH   57   58
ATOM     65  C50 UNL A   1       7.679  28.137  13.567  1.00  0.00    +0.000 C 
ATOM     66  F9  UNL A   1       8.887  28.361  13.030  1.00  0.00    +0.000 F 
ATOM     67  C51 UNL A   1       7.526  28.125  14.950  1.00  0.00    +0.000 C 
ATOM     68  F10 UNL A   1       8.607  28.326  15.720  1.00  0.00    +0.000 F 
ATOM     58  C46 UNL A   1       6.269  27.912  15.536  1.00  0.00    +0.000 C 
ATOM     59  C47 UNL A   1       5.172  27.718  14.683  1.00  0.00    +0.000 C 
ATOM     60  F6  UNL A   1       3.951  27.497  15.192  1.00  0.00    +0.000 F 
ATOM     61  C48 UNL A   1       5.336  27.693  13.300  1.00  0.00    +0.000 C 
ATOM     62  F7  UNL A   1       4.285  27.438  12.508  1.00  0.00    +0.000 F 
ATOM     63  C49 UNL A   1       6.588  27.908  12.743  1.00  0.00    +0.000 C 
ATOM     64  F8  UNL A   1       6.743  27.883  11.413  1.00  0.00    +0.000 F 
ENDBRANCH   57   58
BRANCH   72   73
ATOM     73  C55 UNL A   1       4.131  32.767  20.047  1.00  0.00    +0.000 C 
ATOM     74  C56 UNL A   1       5.036  33.821  20.238  1.00  0.00    +0.000 C 
ATOM     75  F11 UNL A   1       6.313  33.558  20.554  1.00  0.00    +0.000 F 
ATOM     76  C57 UNL A   1       4.622  35.149  20.161  1.00  0.00    +0.000 C 
ATOM     77  F12 UNL A   1       5.494  36.135  20.413  1.00  0.00    +0.000 F 
ATOM     78  C58 UNL A   1       3.304  35.451  19.850  1.00  0.00    +0.000 C 
ATOM     79  F13 UNL A   1       2.906  36.728  19.779  1.00  0.00    +0.000 F 
ATOM     80  C59 UNL A   1       2.399  34.426  19.624  1.00  0.00    +0.000 C 
ATOM     81  F14 UNL A   1       1.129  34.712  19.306  1.00  0.00    +0.000 F 
ATOM     82  C60 UNL A   1       2.804  33.098  19.737  1.00  0.00    +0.000 C 
ATOM     83  F15 UNL A   1       1.898  32.129  19.537  1.00  0.00    +0.000 F 
ENDBRANCH   72   73
TORSDOF 33
ENDMDL
MODEL 9
REMARK VINA RESULT:      -6.2     19.779     26.245
ROOT
ATOM    140  H46 UNL A   1       7.287  23.743  18.035  1.00  0.00    +0.000 H 
ATOM    141  H47 UNL A   1       6.968  25.402  16.050  1.00  0.00    +0.000 H 
ATOM    142  H48 UNL A   1       6.001  27.372  19.561  1.00  0.00    +0.000 H 
ATOM    143  H49 UNL A   1       3.819  32.579  22.539  1.00  0.00    +0.000 H 
ATOM    144  H50 UNL A   1       4.206  30.982  24.475  1.00  0.00    +0.000 H 
ATOM    145  H51 UNL A   1       5.266  29.011  20.972  1.00  0.00    +0.000 H 
ATOM    146  H52 UNL A   1       4.541  32.300  17.250  1.00  0.00    +0.000 H 
ATOM    147  H53 UNL A   1       5.106  30.396  15.637  1.00  0.00    +0.000 H 
ATOM    148  H54 UNL A   1       6.946  24.256  23.370  1.00  0.00    +0.000 H 
ATOM    149  H55 UNL A   1       5.881  25.952  24.964  1.00  0.00    +0.000 H 
ATOM     36  C31 UNL A   1       5.124  28.397  23.700  1.00  0.00    +0.000 C 
ATOM     37  C32 UNL A   1       5.680  27.160  23.055  1.00  0.00    +0.000 C 
ATOM     38  N3  UNL A   1       5.936  26.931  21.791  1.00  0.00    +0.000 N 
ATOM     39  C33 UNL A   1       6.447  25.642  21.734  1.00  0.00    +0.000 C 
ATOM     40  C34 UNL A   1       6.783  24.913  20.643  1.00  0.00    +0.000 C 
ATOM     52  C41 UNL A   1       6.693  25.395  19.288  1.00  0.00    +0.000 C 
ATOM     53  C42 UNL A   1       6.983  24.725  18.111  1.00  0.00    +0.000 C 
ATOM     54  C43 UNL A   1       6.793  25.611  17.045  1.00  0.00    +0.000 C 
ATOM     55  C44 UNL A   1       6.329  26.813  17.552  1.00  0.00    +0.000 C 
ATOM     56  N4  UNL A   1       6.283  26.671  18.930  1.00  0.00    +0.000 N 
ATOM     57  C45 UNL A   1       5.951  28.004  16.832  1.00  0.00    +0.000 C 
ATOM     69  C52 UNL A   1       5.498  29.146  17.405  1.00  0.00    +0.000 C 
ATOM     70  N5  UNL A   1       5.310  29.437  18.750  1.00  0.00    +0.000 N 
ATOM     71  C53 UNL A   1       4.896  30.680  18.795  1.00  0.00    +0.000 C 
ATOM     72  C54 UNL A   1       4.508  31.512  19.989  1.00  0.00    +0.000 C 
ATOM     84  C61 UNL A   1       4.556  30.954  21.213  1.00  0.00    +0.000 C 
ATOM     85  C62 UNL A   1       4.178  31.615  22.458  1.00  0.00    +0.000 C 
ATOM     86  C63 UNL A   1       4.372  30.767  23.479  1.00  0.00    +0.000 C 
ATOM     87  C64 UNL A   1       4.856  29.488  22.957  1.00  0.00    +0.000 C 
ATOM     88  N6  UNL A   1       4.949  29.697  21.603  1.00  0.00    +0.000 N 
ATOM     89  C65 UNL A   1       4.796  31.327  17.480  1.00  0.00    +0.000 C 
ATOM     90  C66 UNL A   1       5.121  30.332  16.667  1.00  0.00    +0.000 C 
ATOM     91  C67 UNL A   1       6.534  25.160  23.095  1.00  0.00    +0.000 C 
ATOM     92  C68 UNL A   1       6.016  26.037  23.944  1.00  0.00    +0.000 C 
ENDROOT
BRANCH   36   35
ATOM     33  C28 UNL A   1       3.390  28.096  27.055  1.00  0.00    +0.000 C 
ATOM     34  C29 UNL A   1       3.662  27.977  25.693  1.00  0.00    +0.000 C 
ATOM     35  C30 UNL A   1       4.877  28.444  25.165  1.00  0.00    +0.000 C 
ATOM    138  H44 UNL A   1       2.482  27.783  27.432  1.00  0.00    +0.000 H 
ATOM    139  H45 UNL A   1       2.965  27.541  25.067  1.00  0.00    +0.000 H 
ATOM    150  H56 UNL A   1       6.738  29.318  25.658  1.00  0.00    +0.000 H 
ATOM    151  H57 UNL A   1       6.344  29.329  28.052  1.00  0.00    +0.000 H 
ATOM     93  C69 UNL A   1       5.844  28.967  26.035  1.00  0.00    +0.000 C 
ATOM     94  C70 UNL A   1       5.602  29.017  27.407  1.00  0.00    +0.000 C 
ATOM     32  C27 UNL A   1       4.352  28.642  27.909  1.00  0.00    +0.000 C 
BRANCH   32   30
ATOM     30  C26 UNL A   1       4.010  28.784  29.342  1.00  0.00    +0.000 C 
ATOM     31  O2  UNL A   1       4.888  29.032  30.155  1.00  0.00    +0.000 O 
BRANCH   30   29
ATOM    137  H43 UNL A   1       2.039  29.104  29.257  1.00  0.00    +0.000 H 
ATOM     29  N2  UNL A   1       2.716  28.602  29.765  1.00  0.00    +0.000 N 
BRANCH   29   28
ATOM     28  C25 UNL A   1       2.192  27.785  30.844  1.00  0.00    +0.000 C 
ATOM    135  H41 UNL A   1       2.615  26.805  30.768  1.00  0.00    +0.000 H 
ATOM    136  H42 UNL A   1       2.455  28.261  31.766  1.00  0.00    +0.000 H 
BRANCH   28   27
ATOM     27  C24 UNL A   1       0.671  27.662  30.809  1.00  0.00    +0.000 C 
ATOM    133  H39 UNL A   1       0.426  26.623  30.744  1.00  0.00    +0.000 H 
ATOM    134  H40 UNL A   1       0.317  28.133  31.702  1.00  0.00    +0.000 H 
BRANCH   27   26
ATOM     26  C23 UNL A   1      -0.019  28.383  29.649  1.00  0.00    +0.000 C 
ATOM    131  H37 UNL A   1      -0.914  28.831  30.027  1.00  0.00    +0.000 H 
ATOM    132  H38 UNL A   1       0.696  29.088  29.279  1.00  0.00    +0.000 H 
BRANCH   26   25
ATOM     25  C22 UNL A   1      -0.399  27.506  28.451  1.00  0.00    +0.000 C 
ATOM    130  H36 UNL A   1       0.421  27.571  27.766  1.00  0.00    +0.000 H 
ATOM    129  H35 UNL A   1      -1.322  27.872  28.053  1.00  0.00    +0.000 H 
BRANCH   25   24
ATOM    128  H34 UNL A   1      -0.568  25.891  29.823  1.00  0.00    +0.000 H 
ATOM    127  H33 UNL A   1       0.228  25.470  28.306  1.00  0.00    +0.000 H 
ATOM     24  C21 UNL A   1      -0.575  26.014  28.760  1.00  0.00    +0.000 C 
BRANCH   24   23
ATOM    125  H31 UNL A   1      -2.401  26.265  27.703  1.00  0.00    +0.000 H 
ATOM    126  H32 UNL A   1      -1.680  24.654  27.581  1.00  0.00    +0.000 H 
ATOM     23  C20 UNL A   1      -1.899  25.479  28.227  1.00  0.00    +0.000 C 
BRANCH   23   22
ATOM    124  H30 UNL A   1      -2.709  24.029  29.474  1.00  0.00    +0.000 H 
ATOM     22  N1  UNL A   1      -2.768  24.994  29.285  1.00  0.00    +0.000 N 
BRANCH   22   20
ATOM     20  C19 UNL A   1      -3.651  25.688  30.050  1.00  0.00    +0.000 C 
ATOM     21  O1  UNL A   1      -4.663  25.077  30.411  1.00  0.00    +0.000 O 
BRANCH   20   19
ATOM    122  H28 UNL A   1      -2.565  27.481  30.011  1.00  0.00    +0.000 H 
ATOM     19  C18 UNL A   1      -3.485  27.146  30.442  1.00  0.00    +0.000 C 
ATOM    123  H29 UNL A   1      -4.386  27.603  30.088  1.00  0.00    +0.000 H 
BRANCH   19   18
ATOM    121  H27 UNL A   1      -2.996  26.679  32.370  1.00  0.00    +0.000 H 
ATOM     18  C17 UNL A   1      -3.448  27.531  31.904  1.00  0.00    +0.000 C 
ATOM    120  H26 UNL A   1      -4.451  27.772  32.185  1.00  0.00    +0.000 H 
BRANCH   18   17
ATOM     17  C16 UNL A   1      -2.571  28.688  32.372  1.00  0.00    +0.000 C 
ATOM    118  H24 UNL A   1      -1.948  28.912  31.531  1.00  0.00    +0.000 H 
ATOM    119  H25 UNL A   1      -3.340  29.329  32.748  1.00  0.00    +0.000 H 
BRANCH   17   16
ATOM     16  S1  UNL A   1      -1.430  28.742  33.826  1.00  0.00    +0.000 S 
BRANCH   16   15
ATOM    116  H22 UNL A   1      -0.303  30.512  32.674  1.00  0.00    +0.000 H 
ATOM    117  H23 UNL A   1      -0.419  30.772  34.461  1.00  0.00    +0.000 H 
ATOM     15  C15 UNL A   1      -0.195  30.102  33.656  1.00  0.00    +0.000 C 
BRANCH   15   14
ATOM    114  H20 UNL A   1       1.399  29.217  34.774  1.00  0.00    +0.000 H 
ATOM    115  H21 UNL A   1       1.576  29.173  32.986  1.00  0.00    +0.000 H 
ATOM     14  C14 UNL A   1       1.305  29.746  33.848  1.00  0.00    +0.000 C 
BRANCH   14   13
ATOM    113  H19 UNL A   1       2.882  30.962  34.706  1.00  0.00    +0.000 H 
ATOM     13  C13 UNL A   1       2.263  30.906  33.881  1.00  0.00    +0.000 C 
BRANCH   13   12
ATOM     12  C12 UNL A   1       2.408  31.881  32.964  1.00  0.00    +0.000 C 
ATOM    112  H18 UNL A   1       2.228  32.856  33.248  1.00  0.00    +0.000 H 
BRANCH   12   11
ATOM     11  C11 UNL A   1       2.825  31.609  31.530  1.00  0.00    +0.000 C 
ATOM    110  H16 UNL A   1       2.994  30.557  31.428  1.00  0.00    +0.000 H 
ATOM    111  H17 UNL A   1       2.029  31.975  30.915  1.00  0.00    +0.000 H 
BRANCH   11   10
ATOM     10  C10 UNL A   1       4.064  32.324  31.078  1.00  0.00    +0.000 C 
ATOM    109  H15 UNL A   1       4.665  32.762  31.793  1.00  0.00    +0.000 H 
BRANCH   10    9
ATOM      9  C9  UNL A   1       4.429  32.422  29.789  1.00  0.00    +0.000 C 
ATOM    108  H14 UNL A   1       5.424  32.596  29.578  1.00  0.00    +0.000 H 
BRANCH    9    8
ATOM    106  H12 UNL A   1       3.682  31.396  28.090  1.00  0.00    +0.000 H 
ATOM    107  H13 UNL A   1       2.467  32.254  28.992  1.00  0.00    +0.000 H 
ATOM      8  C8  UNL A   1       3.474  32.293  28.633  1.00  0.00    +0.000 C 
BRANCH    8    7
ATOM    105  H11 UNL A   1       2.856  33.769  27.153  1.00  0.00    +0.000 H 
ATOM      7  C7  UNL A   1       3.657  33.481  27.737  1.00  0.00    +0.000 C 
BRANCH    7    6
ATOM      6  C6  UNL A   1       4.787  34.196  27.641  1.00  0.00    +0.000 C 
ATOM    104  H10 UNL A   1       5.096  34.741  28.462  1.00  0.00    +0.000 H 
BRANCH    6    5
ATOM      5  C5  UNL A   1       5.628  34.241  26.398  1.00  0.00    +0.000 C 
ATOM    102  H8  UNL A   1       5.060  34.662  25.596  1.00  0.00    +0.000 H 
ATOM    103  H9  UNL A   1       6.494  34.845  26.569  1.00  0.00    +0.000 H 
BRANCH    5    4
ATOM      4  C4  UNL A   1       6.045  32.842  26.041  1.00  0.00    +0.000 C 
ATOM    101  H7  UNL A   1       5.304  32.142  25.889  1.00  0.00    +0.000 H 
BRANCH    4    3
ATOM      3  C3  UNL A   1       7.320  32.445  25.911  1.00  0.00    +0.000 C 
ATOM    100  H6  UNL A   1       7.770  32.547  24.988  1.00  0.00    +0.000 H 
BRANCH    3    2
ATOM      2  C2  UNL A   1       8.125  31.861  27.033  1.00  0.00    +0.000 C 
ATOM     99  H5  UNL A   1       7.560  31.077  27.492  1.00  0.00    +0.000 H 
ATOM     98  H4  UNL A   1       8.342  32.627  27.748  1.00  0.00    +0.000 H 
BRANCH    2    1
ATOM      1  C1  UNL A   1       9.431  31.282  26.507  1.00  0.00    +0.000 C 
ATOM     97  H3  UNL A   1       9.698  31.776  25.596  1.00  0.00    +0.000 H 
ATOM     95  H1  UNL A   1       9.309  30.235  26.324  1.00  0.00    +0.000 H 
ATOM     96  H2  UNL A   1      10.204  31.430  27.232  1.00  0.00    +0.000 H 
ENDBRANCH    2    1
ENDBRANCH    3    2
ENDBRANCH    4    3
ENDBRANCH    5    4
ENDBRANCH    6    5
ENDBRANCH    7    6
ENDBRANCH    8    7
ENDBRANCH    9    8
ENDBRANCH   10    9
ENDBRANCH   11   10
ENDBRANCH   12   11
ENDBRANCH   13   12
ENDBRANCH   14   13
ENDBRANCH   15   14
ENDBRANCH   16   15
ENDBRANCH   17   16
ENDBRANCH   18   17
ENDBRANCH   19   18
ENDBRANCH   20   19
ENDBRANCH   22   20
ENDBRANCH   23   22
ENDBRANCH   24   23
ENDBRANCH   25   24
ENDBRANCH   26   25
ENDBRANCH   27   26
ENDBRANCH   28   27
ENDBRANCH   29   28
ENDBRANCH   30   29
ENDBRANCH   32   30
ENDBRANCH   36   35
BRANCH   40   41
ATOM     41  C35 UNL A   1       7.264  23.507  20.865  1.00  0.00    +0.000 C 
ATOM     42  C36 UNL A   1       6.397  22.410  20.739  1.00  0.00    +0.000 C 
ATOM     43  F1  UNL A   1       5.094  22.606  20.484  1.00  0.00    +0.000 F 
ATOM     44  C37 UNL A   1       6.857  21.106  20.909  1.00  0.00    +0.000 C 
ATOM     45  F2  UNL A   1       6.000  20.079  20.827  1.00  0.00    +0.000 F 
ATOM     46  C38 UNL A   1       8.198  20.871  21.171  1.00  0.00    +0.000 C 
ATOM     47  F3  UNL A   1       8.643  19.616  21.319  1.00  0.00    +0.000 F 
ATOM     48  C39 UNL A   1       9.076  21.938  21.283  1.00  0.00    +0.000 C 
ATOM     49  F4  UNL A   1      10.376  21.711  21.522  1.00  0.00    +0.000 F 
ATOM     50  C40 UNL A   1       8.613  23.244  21.145  1.00  0.00    +0.000 C 
ATOM     51  F5  UNL A   1       9.488  24.254  21.270  1.00  0.00    +0.000 F 
ENDBRANCH   40   41
BRANCH   57   58
ATOM     65  C50 UNL A   1       4.976  27.643  13.170  1.00  0.00    +0.000 C 
ATOM     66  F9  UNL A   1       3.889  27.322  12.454  1.00  0.00    +0.000 F 
ATOM     67  C51 UNL A   1       4.909  27.667  14.560  1.00  0.00    +0.000 C 
ATOM     68  F10 UNL A   1       3.740  27.380  15.154  1.00  0.00    +0.000 F 
ATOM     58  C46 UNL A   1       6.037  27.981  15.333  1.00  0.00    +0.000 C 
ATOM     59  C47 UNL A   1       7.235  28.263  14.660  1.00  0.00    +0.000 C 
ATOM     60  F6  UNL A   1       8.340  28.583  15.350  1.00  0.00    +0.000 F 
ATOM     61  C48 UNL A   1       7.289  28.274  13.268  1.00  0.00    +0.000 C 
ATOM     62  F7  UNL A   1       8.427  28.614  12.647  1.00  0.00    +0.000 F 
ATOM     63  C49 UNL A   1       6.162  27.959  12.524  1.00  0.00    +0.000 C 
ATOM     64  F8  UNL A   1       6.216  27.971  11.186  1.00  0.00    +0.000 F 
ENDBRANCH   57   58
BRANCH   72   73
ATOM     73  C55 UNL A   1       4.069  32.923  19.825  1.00  0.00    +0.000 C 
ATOM     74  C56 UNL A   1       2.728  33.244  19.570  1.00  0.00    +0.000 C 
ATOM     75  F11 UNL A   1       1.812  32.268  19.478  1.00  0.00    +0.000 F 
ATOM     76  C57 UNL A   1       2.331  34.562  19.352  1.00  0.00    +0.000 C 
ATOM     77  F12 UNL A   1       1.054  34.832  19.045  1.00  0.00    +0.000 F 
ATOM     78  C58 UNL A   1       3.259  35.590  19.426  1.00  0.00    +0.000 C 
ATOM     79  F13 UNL A   1       2.876  36.856  19.213  1.00  0.00    +0.000 F 
ATOM     80  C59 UNL A   1       4.584  35.301  19.710  1.00  0.00    +0.000 C 
ATOM     81  F14 UNL A   1       5.481  36.292  19.800  1.00  0.00    +0.000 F 
ATOM     82  C60 UNL A   1       4.988  33.980  19.892  1.00  0.00    +0.000 C 
ATOM     83  F15 UNL A   1       6.282  33.731  20.141  1.00  0.00    +0.000 F 
ENDBRANCH   72   73
TORSDOF 33
ENDMDL
MODEL 10
REMARK VINA RESULT:      -6.1     47.876     53.962
ROOT
ATOM    140  H46 UNL A   1      27.807  24.258  53.188  1.00  0.00    +0.000 H 
ATOM    141  H47 UNL A   1      29.283  25.769  51.660  1.00  0.00    +0.000 H 
ATOM    142  H48 UNL A   1      26.783  28.211  53.880  1.00  0.00    +0.000 H 
ATOM    143  H49 UNL A   1      24.557  34.036  55.246  1.00  0.00    +0.000 H 
ATOM    144  H50 UNL A   1      23.177  32.564  56.788  1.00  0.00    +0.000 H 
ATOM    145  H51 UNL A   1      25.739  30.097  54.636  1.00  0.00    +0.000 H 
ATOM    146  H52 UNL A   1      28.459  33.132  51.706  1.00  0.00    +0.000 H 
ATOM    147  H53 UNL A   1      29.448  31.017  50.660  1.00  0.00    +0.000 H 
ATOM    148  H54 UNL A   1      24.206  25.294  57.036  1.00  0.00    +0.000 H 
ATOM    149  H55 UNL A   1      22.820  27.334  57.720  1.00  0.00    +0.000 H 
ATOM     36  C31 UNL A   1      23.704  29.774  56.532  1.00  0.00    +0.000 C 
ATOM     37  C32 UNL A   1      24.220  28.386  56.279  1.00  0.00    +0.000 C 
ATOM     38  N3  UNL A   1      25.171  27.993  55.469  1.00  0.00    +0.000 N 
ATOM     39  C33 UNL A   1      25.258  26.616  55.625  1.00  0.00    +0.000 C 
ATOM     40  C34 UNL A   1      26.032  25.735  54.946  1.00  0.00    +0.000 C 
ATOM     52  C41 UNL A   1      26.970  26.107  53.918  1.00  0.00    +0.000 C 
ATOM     53  C42 UNL A   1      27.782  25.289  53.151  1.00  0.00    +0.000 C 
ATOM     54  C43 UNL A   1      28.559  26.099  52.317  1.00  0.00    +0.000 C 
ATOM     55  C44 UNL A   1      28.192  27.419  52.522  1.00  0.00    +0.000 C 
ATOM     56  N4  UNL A   1      27.225  27.411  53.515  1.00  0.00    +0.000 N 
ATOM     57  C45 UNL A   1      28.684  28.600  51.860  1.00  0.00    +0.000 C 
ATOM     69  C52 UNL A   1      28.267  29.865  52.116  1.00  0.00    +0.000 C 
ATOM     70  N5  UNL A   1      27.325  30.307  53.036  1.00  0.00    +0.000 N 
ATOM     71  C53 UNL A   1      27.305  31.614  52.930  1.00  0.00    +0.000 C 
ATOM     72  C54 UNL A   1      26.453  32.615  53.663  1.00  0.00    +0.000 C 
ATOM     84  C61 UNL A   1      25.551  32.170  54.558  1.00  0.00    +0.000 C 
ATOM     85  C62 UNL A   1      24.630  33.009  55.318  1.00  0.00    +0.000 C 
ATOM     86  C63 UNL A   1      23.893  32.229  56.124  1.00  0.00    +0.000 C 
ATOM     87  C64 UNL A   1      24.266  30.830  55.912  1.00  0.00    +0.000 C 
ATOM     88  N6  UNL A   1      25.268  30.892  54.976  1.00  0.00    +0.000 N 
ATOM     89  C65 UNL A   1      28.252  32.150  51.943  1.00  0.00    +0.000 C 
ATOM     90  C66 UNL A   1      28.771  31.040  51.438  1.00  0.00    +0.000 C 
ATOM     91  C67 UNL A   1      24.313  26.246  56.656  1.00  0.00    +0.000 C 
ATOM     92  C68 UNL A   1      23.603  27.294  57.049  1.00  0.00    +0.000 C 
ENDROOT
BRANCH   36   35
ATOM     33  C28 UNL A   1      21.793  30.362  59.750  1.00  0.00    +0.000 C 
ATOM     34  C29 UNL A   1      22.843  30.227  58.842  1.00  0.00    +0.000 C 
ATOM     35  C30 UNL A   1      22.583  30.006  57.479  1.00  0.00    +0.000 C 
ATOM    138  H44 UNL A   1      21.989  30.490  60.754  1.00  0.00    +0.000 H 
ATOM    139  H45 UNL A   1      23.819  30.291  59.174  1.00  0.00    +0.000 H 
ATOM    150  H56 UNL A   1      21.052  29.827  56.032  1.00  0.00    +0.000 H 
ATOM    151  H57 UNL A   1      19.238  30.272  57.580  1.00  0.00    +0.000 H 
ATOM     93  C69 UNL A   1      21.256  29.993  57.030  1.00  0.00    +0.000 C 
ATOM     94  C70 UNL A   1      20.208  30.203  57.926  1.00  0.00    +0.000 C 
ATOM     32  C27 UNL A   1      20.473  30.322  59.294  1.00  0.00    +0.000 C 
BRANCH   32   30
ATOM     30  C26 UNL A   1      19.387  30.433  60.294  1.00  0.00    +0.000 C 
ATOM     31  O2  UNL A   1      19.141  31.514  60.807  1.00  0.00    +0.000 O 
BRANCH   30   29
ATOM    137  H43 UNL A   1      18.083  28.952  59.981  1.00  0.00    +0.000 H 
ATOM     29  N2  UNL A   1      18.680  29.318  60.672  1.00  0.00    +0.000 N 
BRANCH   29   28
ATOM     28  C25 UNL A   1      18.678  28.596  61.932  1.00  0.00    +0.000 C 
ATOM    135  H41 UNL A   1      18.197  29.201  62.672  1.00  0.00    +0.000 H 
ATOM    136  H42 UNL A   1      18.160  27.674  61.774  1.00  0.00    +0.000 H 
BRANCH   28   27
ATOM     27  C24 UNL A   1      20.083  28.254  62.420  1.00  0.00    +0.000 C 
ATOM    133  H39 UNL A   1      20.777  28.549  61.661  1.00  0.00    +0.000 H 
ATOM    134  H40 UNL A   1      20.209  28.778  63.345  1.00  0.00    +0.000 H 
BRANCH   27   26
ATOM     26  C23 UNL A   1      20.327  26.777  62.736  1.00  0.00    +0.000 C 
ATOM    131  H37 UNL A   1      20.260  26.652  63.797  1.00  0.00    +0.000 H 
ATOM    132  H38 UNL A   1      19.584  26.236  62.188  1.00  0.00    +0.000 H 
BRANCH   26   25
ATOM     25  C22 UNL A   1      21.676  26.212  62.279  1.00  0.00    +0.000 C 
ATOM    130  H36 UNL A   1      21.480  25.216  61.941  1.00  0.00    +0.000 H 
ATOM    129  H35 UNL A   1      22.352  26.260  63.107  1.00  0.00    +0.000 H 
BRANCH   25   24
ATOM    128  H34 UNL A   1      23.309  27.240  61.387  1.00  0.00    +0.000 H 
ATOM    127  H33 UNL A   1      21.724  27.790  60.840  1.00  0.00    +0.000 H 
ATOM     24  C21 UNL A   1      22.325  26.940  61.095  1.00  0.00    +0.000 C 
BRANCH   24   23
ATOM    125  H31 UNL A   1      21.482  25.944  59.417  1.00  0.00    +0.000 H 
ATOM    126  H32 UNL A   1      23.153  26.484  59.206  1.00  0.00    +0.000 H 
ATOM     23  C20 UNL A   1      22.446  26.037  59.873  1.00  0.00    +0.000 C 
BRANCH   23   22
ATOM    124  H30 UNL A   1      22.448  24.251  60.932  1.00  0.00    +0.000 H 
ATOM     22  N1  UNL A   1      22.932  24.710  60.209  1.00  0.00    +0.000 N 
BRANCH   22   20
ATOM     20  C19 UNL A   1      23.964  24.016  59.662  1.00  0.00    +0.000 C 
ATOM     21  O1  UNL A   1      23.661  23.069  58.927  1.00  0.00    +0.000 O 
BRANCH   20   19
ATOM    122  H28 UNL A   1      25.984  23.457  59.587  1.00  0.00    +0.000 H 
ATOM     19  C18 UNL A   1      25.431  24.307  59.928  1.00  0.00    +0.000 C 
ATOM    123  H29 UNL A   1      25.597  25.234  59.421  1.00  0.00    +0.000 H 
BRANCH   19   18
ATOM    121  H27 UNL A   1      25.493  23.774  61.900  1.00  0.00    +0.000 H 
ATOM     18  C17 UNL A   1      25.895  24.593  61.340  1.00  0.00    +0.000 C 
ATOM    120  H26 UNL A   1      25.550  25.575  61.584  1.00  0.00    +0.000 H 
BRANCH   18   17
ATOM     17  C16 UNL A   1      27.381  24.552  61.682  1.00  0.00    +0.000 C 
ATOM    118  H24 UNL A   1      27.429  24.031  62.615  1.00  0.00    +0.000 H 
ATOM    119  H25 UNL A   1      27.749  24.172  60.752  1.00  0.00    +0.000 H 
BRANCH   17   16
ATOM     16  S1  UNL A   1      28.547  25.973  61.879  1.00  0.00    +0.000 S 
BRANCH   16   15
ATOM    116  H22 UNL A   1      27.390  26.509  63.905  1.00  0.00    +0.000 H 
ATOM    117  H23 UNL A   1      28.942  27.416  63.698  1.00  0.00    +0.000 H 
ATOM     15  C15 UNL A   1      28.025  27.079  63.260  1.00  0.00    +0.000 C 
BRANCH   15   14
ATOM    114  H20 UNL A   1      27.194  28.981  63.779  1.00  0.00    +0.000 H 
ATOM    115  H21 UNL A   1      27.829  28.834  62.104  1.00  0.00    +0.000 H 
ATOM     14  C14 UNL A   1      27.263  28.384  62.894  1.00  0.00    +0.000 C 
BRANCH   14   13
ATOM    113  H19 UNL A   1      25.200  27.722  62.961  1.00  0.00    +0.000 H 
ATOM     13  C13 UNL A   1      25.872  28.207  62.346  1.00  0.00    +0.000 C 
BRANCH   13   12
ATOM     12  C12 UNL A   1      25.402  28.605  61.149  1.00  0.00    +0.000 C 
ATOM    112  H18 UNL A   1      24.708  29.368  61.122  1.00  0.00    +0.000 H 
BRANCH   12   11
ATOM     11  C11 UNL A   1      25.847  27.982  59.838  1.00  0.00    +0.000 C 
ATOM    110  H16 UNL A   1      26.501  27.167  60.064  1.00  0.00    +0.000 H 
ATOM    111  H17 UNL A   1      24.953  27.685  59.331  1.00  0.00    +0.000 H 
BRANCH   11   10
ATOM     10  C10 UNL A   1      26.567  28.909  58.903  1.00  0.00    +0.000 C 
ATOM    109  H15 UNL A   1      26.690  28.616  57.922  1.00  0.00    +0.000 H 
BRANCH   10    9
ATOM      9  C9  UNL A   1      27.057  30.101  59.280  1.00  0.00    +0.000 C 
ATOM    108  H14 UNL A   1      27.882  30.113  59.901  1.00  0.00    +0.000 H 
BRANCH    9    8
ATOM    106  H12 UNL A   1      25.466  31.286  58.532  1.00  0.00    +0.000 H 
ATOM    107  H13 UNL A   1      26.490  32.111  59.670  1.00  0.00    +0.000 H 
ATOM      8  C8  UNL A   1      26.478  31.422  58.852  1.00  0.00    +0.000 C 
BRANCH    8    7
ATOM    105  H11 UNL A   1      27.606  31.283  56.992  1.00  0.00    +0.000 H 
ATOM      7  C7  UNL A   1      27.302  31.951  57.717  1.00  0.00    +0.000 C 
BRANCH    7    6
ATOM      6  C6  UNL A   1      27.672  33.233  57.579  1.00  0.00    +0.000 C 
ATOM    104  H10 UNL A   1      28.613  33.435  57.205  1.00  0.00    +0.000 H 
BRANCH    6    5
ATOM      5  C5  UNL A   1      26.784  34.389  57.940  1.00  0.00    +0.000 C 
ATOM    102  H8  UNL A   1      25.820  34.253  57.497  1.00  0.00    +0.000 H 
ATOM    103  H9  UNL A   1      26.677  34.443  59.003  1.00  0.00    +0.000 H 
BRANCH    5    4
ATOM      4  C4  UNL A   1      27.403  35.657  57.425  1.00  0.00    +0.000 C 
ATOM    101  H7  UNL A   1      26.965  36.111  56.609  1.00  0.00    +0.000 H 
BRANCH    4    3
ATOM      3  C3  UNL A   1      28.490  36.236  57.957  1.00  0.00    +0.000 C 
ATOM    100  H6  UNL A   1      28.391  36.718  58.864  1.00  0.00    +0.000 H 
BRANCH    3    2
ATOM      2  C2  UNL A   1      29.840  36.223  57.303  1.00  0.00    +0.000 C 
ATOM     99  H5  UNL A   1      30.264  37.203  57.365  1.00  0.00    +0.000 H 
ATOM     98  H4  UNL A   1      29.733  35.930  56.279  1.00  0.00    +0.000 H 
BRANCH    2    1
ATOM      1  C1  UNL A   1      30.764  35.241  58.010  1.00  0.00    +0.000 C 
ATOM     97  H3  UNL A   1      31.185  34.568  57.292  1.00  0.00    +0.000 H 
ATOM     95  H1  UNL A   1      30.207  34.687  58.736  1.00  0.00    +0.000 H 
ATOM     96  H2  UNL A   1      31.550  35.779  58.498  1.00  0.00    +0.000 H 
ENDBRANCH    2    1
ENDBRANCH    3    2
ENDBRANCH    4    3
ENDBRANCH    5    4
ENDBRANCH    6    5
ENDBRANCH    7    6
ENDBRANCH    8    7
ENDBRANCH    9    8
ENDBRANCH   10    9
ENDBRANCH   11   10
ENDBRANCH   12   11
ENDBRANCH   13   12
ENDBRANCH   14   13
ENDBRANCH   15   14
ENDBRANCH   16   15
ENDBRANCH   17   16
ENDBRANCH   18   17
ENDBRANCH   19   18
ENDBRANCH   20   19
ENDBRANCH   22   20
ENDBRANCH   23   22
ENDBRANCH   24   23
ENDBRANCH   25   24
ENDBRANCH   26   25
ENDBRANCH   27   26
ENDBRANCH   28   27
ENDBRANCH   29   28
ENDBRANCH   30   29
ENDBRANCH   32   30
ENDBRANCH   36   35
BRANCH   40   41
ATOM     41  C35 UNL A   1      25.885  24.278  55.278  1.00  0.00    +0.000 C 
ATOM     42  C36 UNL A   1      26.513  23.718  56.401  1.00  0.00    +0.000 C 
ATOM     43  F1  UNL A   1      27.320  24.468  57.167  1.00  0.00    +0.000 F 
ATOM     44  C37 UNL A   1      26.341  22.374  56.725  1.00  0.00    +0.000 C 
ATOM     45  F2  UNL A   1      26.986  21.852  57.778  1.00  0.00    +0.000 F 
ATOM     46  C38 UNL A   1      25.511  21.574  55.955  1.00  0.00    +0.000 C 
ATOM     47  F3  UNL A   1      25.335  20.284  56.277  1.00  0.00    +0.000 F 
ATOM     48  C39 UNL A   1      24.868  22.108  54.850  1.00  0.00    +0.000 C 
ATOM     49  F4  UNL A   1      24.053  21.340  54.113  1.00  0.00    +0.000 F 
ATOM     50  C40 UNL A   1      25.061  23.444  54.506  1.00  0.00    +0.000 C 
ATOM     51  F5  UNL A   1      24.432  23.928  53.424  1.00  0.00    +0.000 F 
ENDBRANCH   40   41
BRANCH   57   58
ATOM     65  C50 UNL A   1      32.053  28.382  50.099  1.00  0.00    +0.000 C 
ATOM     66  F9  UNL A   1      33.351  28.509  50.409  1.00  0.00    +0.000 F 
ATOM     67  C51 UNL A   1      31.085  28.538  51.087  1.00  0.00    +0.000 C 
ATOM     68  F10 UNL A   1      31.482  28.801  52.342  1.00  0.00    +0.000 F 
ATOM     58  C46 UNL A   1      29.719  28.429  50.785  1.00  0.00    +0.000 C 
ATOM     59  C47 UNL A   1      29.361  28.163  49.454  1.00  0.00    +0.000 C 
ATOM     60  F6  UNL A   1      28.070  28.035  49.114  1.00  0.00    +0.000 F 
ATOM     61  C48 UNL A   1      30.334  27.970  48.476  1.00  0.00    +0.000 C 
ATOM     62  F7  UNL A   1      29.969  27.650  47.227  1.00  0.00    +0.000 F 
ATOM     63  C49 UNL A   1      31.678  28.085  48.798  1.00  0.00    +0.000 C 
ATOM     64  F8  UNL A   1      32.611  27.898  47.855  1.00  0.00    +0.000 F 
ENDBRANCH   57   58
BRANCH   72   73
ATOM     73  C55 UNL A   1      26.592  34.073  53.402  1.00  0.00    +0.000 C 
ATOM     74  C56 UNL A   1      27.680  34.801  53.904  1.00  0.00    +0.000 C 
ATOM     75  F11 UNL A   1      28.625  34.181  54.627  1.00  0.00    +0.000 F 
ATOM     76  C57 UNL A   1      27.774  36.179  53.714  1.00  0.00    +0.000 C 
ATOM     77  F12 UNL A   1      28.791  36.859  54.261  1.00  0.00    +0.000 F 
ATOM     78  C58 UNL A   1      26.805  36.849  52.984  1.00  0.00    +0.000 C 
ATOM     79  F13 UNL A   1      26.895  38.173  52.803  1.00  0.00    +0.000 F 
ATOM     80  C59 UNL A   1      25.737  36.144  52.449  1.00  0.00    +0.000 C 
ATOM     81  F14 UNL A   1      24.807  36.784  51.727  1.00  0.00    +0.000 F 
ATOM     82  C60 UNL A   1      25.623  34.774  52.670  1.00  0.00    +0.000 C 
ATOM     83  F15 UNL A   1      24.566  34.125  52.160  1.00  0.00    +0.000 F 
ENDBRANCH   72   73
TORSDOF 33
ENDMDL
