MODEL 1
REMARK VINA RESULT:      -9.4      0.000      0.000
ROOT
ATOM    129  H27 UNL A   1      47.863  24.236  24.432  1.00  0.00    +0.000 H 
ATOM    130  H28 UNL A   1      44.220  25.885  25.046  1.00  0.00    +0.000 H 
ATOM    131  H29 UNL A   1      49.554  30.519  29.199  1.00  0.00    +0.000 H 
ATOM    132  H30 UNL A   1      50.146  28.167  29.969  1.00  0.00    +0.000 H 
ATOM    133  H31 UNL A   1      46.764  27.838  27.591  1.00  0.00    +0.000 H 
ATOM    134  H32 UNL A   1      44.306  29.866  27.382  1.00  0.00    +0.000 H 
ATOM    135  H33 UNL A   1      44.248  27.602  26.141  1.00  0.00    +0.000 H 
ATOM    136  H34 UNL A   1      44.103  23.999  30.240  1.00  0.00    +0.000 H 
ATOM    137  H35 UNL A   1      45.787  25.616  31.337  1.00  0.00    +0.000 H 
ATOM     38  C28 UNL A   1      47.972  26.280  29.565  1.00  0.00    +0.000 C 
ATOM     39  C29 UNL A   1      46.728  25.524  29.273  1.00  0.00    +0.000 C 
ATOM     40  N5  UNL A   1      46.425  24.923  28.170  1.00  0.00    +0.000 N 
ATOM     41  C30 UNL A   1      45.145  24.411  28.349  1.00  0.00    +0.000 C 
ATOM     42  C31 UNL A   1      44.322  24.215  27.282  1.00  0.00    +0.000 C 
ATOM     54  C38 UNL A   1      45.071  24.231  26.047  1.00  0.00    +0.000 C 
ATOM     55  C39 UNL A   1      46.124  23.488  25.549  1.00  0.00    +0.000 C 
ATOM     56  C40 UNL A   1      46.952  24.434  24.875  1.00  0.00    +0.000 C 
ATOM     57  C41 UNL A   1      46.315  25.673  24.920  1.00  0.00    +0.000 C 
ATOM     58  N6  UNL A   1      45.027  25.374  25.285  1.00  0.00    +0.000 N 
ATOM     59  C42 UNL A   1      46.789  27.021  24.721  1.00  0.00    +0.000 C 
ATOM     71  C49 UNL A   1      46.204  28.131  25.259  1.00  0.00    +0.000 C 
ATOM     72  N7  UNL A   1      46.916  29.313  25.409  1.00  0.00    +0.000 N 
ATOM     73  C50 UNL A   1      46.365  29.898  26.440  1.00  0.00    +0.000 C 
ATOM     74  C51 UNL A   1      47.158  30.568  27.506  1.00  0.00    +0.000 C 
ATOM     86  C58 UNL A   1      47.849  29.588  28.143  1.00  0.00    +0.000 C 
ATOM     87  C59 UNL A   1      49.021  29.662  28.982  1.00  0.00    +0.000 C 
ATOM     88  C60 UNL A   1      49.304  28.425  29.432  1.00  0.00    +0.000 C 
ATOM     89  C61 UNL A   1      48.234  27.500  29.046  1.00  0.00    +0.000 C 
ATOM     90  N8  UNL A   1      47.475  28.222  28.152  1.00  0.00    +0.000 N 
ATOM     91  C62 UNL A   1      45.028  29.436  26.783  1.00  0.00    +0.000 C 
ATOM     92  C63 UNL A   1      45.013  28.292  26.092  1.00  0.00    +0.000 C 
ATOM     93  C64 UNL A   1      44.877  24.486  29.761  1.00  0.00    +0.000 C 
ATOM     94  C65 UNL A   1      45.772  25.273  30.364  1.00  0.00    +0.000 C 
ATOM    128  H26 UNL A   1      46.279  22.472  25.644  1.00  0.00    +0.000 H 
ENDROOT
BRANCH   38   37
ATOM     34  C24 UNL A   1      50.086  24.524  32.740  1.00  0.00    +0.000 C 
ATOM     35  C25 UNL A   1      50.670  24.492  31.469  1.00  0.00    +0.000 C 
ATOM     36  C26 UNL A   1      50.022  25.134  30.418  1.00  0.00    +0.000 C 
ATOM     37  C27 UNL A   1      48.775  25.730  30.651  1.00  0.00    +0.000 C 
ATOM    138  H36 UNL A   1      47.235  26.064  32.053  1.00  0.00    +0.000 H 
ATOM    139  H37 UNL A   1      48.599  25.413  33.940  1.00  0.00    +0.000 H 
ATOM    127  H25 UNL A   1      50.453  25.170  29.481  1.00  0.00    +0.000 H 
ATOM    126  H24 UNL A   1      51.564  24.001  31.313  1.00  0.00    +0.000 H 
ATOM     95  C66 UNL A   1      48.197  25.718  31.915  1.00  0.00    +0.000 C 
ATOM     96  C67 UNL A   1      48.918  25.242  32.974  1.00  0.00    +0.000 C 
BRANCH   34   32
ATOM     33  O4  UNL A   1      50.206  23.902  34.997  1.00  0.00    +0.000 O 
ATOM     32  C23 UNL A   1      50.660  23.771  33.866  1.00  0.00    +0.000 C 
BRANCH   32   31
ATOM    125  H23 UNL A   1      52.614  23.312  33.638  1.00  0.00    +0.000 H 
ATOM     31  N4  UNL A   1      51.713  22.915  33.615  1.00  0.00    +0.000 N 
BRANCH   31   30
ATOM    123  H21 UNL A   1      50.622  21.221  33.115  1.00  0.00    +0.000 H 
ATOM    124  H22 UNL A   1      52.260  21.282  32.470  1.00  0.00    +0.000 H 
ATOM     30  C22 UNL A   1      51.640  21.484  33.319  1.00  0.00    +0.000 C 
BRANCH   30   29
ATOM    121  H19 UNL A   1      52.708  19.828  34.100  1.00  0.00    +0.000 H 
ATOM    122  H20 UNL A   1      52.736  21.288  35.104  1.00  0.00    +0.000 H 
ATOM     29  C21 UNL A   1      52.141  20.649  34.486  1.00  0.00    +0.000 C 
BRANCH   29   28
ATOM     28  C20 UNL A   1      51.003  20.095  35.357  1.00  0.00    +0.000 C 
ATOM    119  H17 UNL A   1      50.351  20.907  35.600  1.00  0.00    +0.000 H 
ATOM    120  H18 UNL A   1      50.539  19.326  34.776  1.00  0.00    +0.000 H 
BRANCH   28   27
ATOM     27  C19 UNL A   1      51.437  19.426  36.672  1.00  0.00    +0.000 C 
ATOM    117  H15 UNL A   1      51.819  18.454  36.440  1.00  0.00    +0.000 H 
ATOM    118  H16 UNL A   1      52.167  20.074  37.111  1.00  0.00    +0.000 H 
BRANCH   27   26
ATOM     26  C18 UNL A   1      50.322  19.264  37.713  1.00  0.00    +0.000 C 
ATOM    115  H13 UNL A   1      49.879  18.297  37.592  1.00  0.00    +0.000 H 
ATOM    116  H14 UNL A   1      50.763  19.378  38.681  1.00  0.00    +0.000 H 
BRANCH   26   25
ATOM     25  C17 UNL A   1      49.228  20.325  37.573  1.00  0.00    +0.000 C 
ATOM    114  H12 UNL A   1      49.504  21.021  36.809  1.00  0.00    +0.000 H 
ATOM    113  H11 UNL A   1      49.112  20.840  38.504  1.00  0.00    +0.000 H 
BRANCH   25   24
ATOM    112  H10 UNL A   1      48.084  18.803  36.808  1.00  0.00    +0.000 H 
ATOM     24  N3  UNL A   1      47.975  19.693  37.214  1.00  0.00    +0.000 N 
BRANCH   24   22
ATOM     22  C16 UNL A   1      46.669  20.089  37.328  1.00  0.00    +0.000 C 
ATOM     23  O3  UNL A   1      45.922  19.388  38.011  1.00  0.00    +0.000 O 
BRANCH   22   21
ATOM     97  C68 UNL A   1      45.781  21.263  35.233  1.00  0.00    +0.000 C 
ATOM     98  C69 UNL A   1      45.065  22.321  34.672  1.00  0.00    +0.000 C 
ATOM    140  H38 UNL A   1      46.078  20.475  34.636  1.00  0.00    +0.000 H 
ATOM    141  H39 UNL A   1      44.734  22.267  33.696  1.00  0.00    +0.000 H 
ATOM    110  H8  UNL A   1      45.139  24.400  37.304  1.00  0.00    +0.000 H 
ATOM    111  H9  UNL A   1      46.156  22.453  38.333  1.00  0.00    +0.000 H 
ATOM     18  C12 UNL A   1      44.802  23.452  35.443  1.00  0.00    +0.000 C 
ATOM     19  C13 UNL A   1      45.256  23.529  36.763  1.00  0.00    +0.000 C 
ATOM     20  C14 UNL A   1      45.870  22.419  37.343  1.00  0.00    +0.000 C 
ATOM     21  C15 UNL A   1      46.103  21.255  36.594  1.00  0.00    +0.000 C 
BRANCH   18   17
ATOM     99  N9  UNL A   1      42.907  24.926  35.362  1.00  0.00    +0.000 N 
ATOM    100  N10 UNL A   1      42.531  26.003  34.697  1.00  0.00    +0.000 N 
ATOM    109  H7  UNL A   1      45.297  25.237  33.212  1.00  0.00    +0.000 H 
ATOM     15  C10 UNL A   1      43.466  26.278  33.732  1.00  0.00    +0.000 C 
ATOM     16  C11 UNL A   1      44.465  25.332  33.815  1.00  0.00    +0.000 C 
ATOM     17  N2  UNL A   1      44.105  24.540  34.884  1.00  0.00    +0.000 N 
BRANCH   15   14
ATOM    107  H5  UNL A   1      44.185  27.799  32.494  1.00  0.00    +0.000 H 
ATOM    108  H6  UNL A   1      42.726  26.925  31.921  1.00  0.00    +0.000 H 
ATOM     14  C9  UNL A   1      43.234  27.377  32.747  1.00  0.00    +0.000 C 
BRANCH   14   13
ATOM     13  O2  UNL A   1      42.381  28.446  33.195  1.00  0.00    +0.000 O 
BRANCH   13   12
ATOM    101  C70 UNL A   1      41.209  29.602  31.369  1.00  0.00    +0.000 C 
ATOM    102  C71 UNL A   1      40.065  29.659  30.570  1.00  0.00    +0.000 C 
ATOM      9  C5  UNL A   1      38.935  28.910  30.899  1.00  0.00    +0.000 C 
ATOM     10  C6  UNL A   1      38.937  28.157  32.076  1.00  0.00    +0.000 C 
ATOM    105  H3  UNL A   1      38.081  27.665  32.376  1.00  0.00    +0.000 H 
ATOM     11  C7  UNL A   1      40.101  28.070  32.849  1.00  0.00    +0.000 C 
ATOM    106  H4  UNL A   1      40.101  27.505  33.711  1.00  0.00    +0.000 H 
ATOM     12  C8  UNL A   1      41.264  28.742  32.462  1.00  0.00    +0.000 C 
ATOM    143  H41 UNL A   1      40.056  30.260  29.732  1.00  0.00    +0.000 H 
ATOM    142  H40 UNL A   1      42.020  30.201  31.146  1.00  0.00    +0.000 H 
BRANCH    9    8
ATOM    104  H2  UNL A   1      37.589  28.061  29.457  1.00  0.00    +0.000 H 
ATOM      8  C4  UNL A   1      37.776  28.915  30.005  1.00  0.00    +0.000 C 
BRANCH    8    7
ATOM      1  O1  UNL A   1      36.000  29.290  27.734  1.00  0.00    +0.000 O 
ATOM      2  C1  UNL A   1      36.051  30.070  28.658  1.00  0.00    +0.000 C 
ATOM      3  N1  UNL A   1      35.283  31.200  28.775  1.00  0.00    +0.000 N 
ATOM      4  C2  UNL A   1      35.450  31.980  29.877  1.00  0.00    +0.000 C 
ATOM      5  S1  UNL A   1      34.596  33.373  30.149  1.00  0.00    +0.000 S 
ATOM      6  S2  UNL A   1      36.675  31.288  30.913  1.00  0.00    +0.000 S 
ATOM      7  C3  UNL A   1      36.938  29.950  29.849  1.00  0.00    +0.000 C 
ATOM    103  H1  UNL A   1      34.629  31.440  28.081  1.00  0.00    +0.000 H 
ENDBRANCH    8    7
ENDBRANCH    9    8
ENDBRANCH   13   12
ENDBRANCH   14   13
ENDBRANCH   15   14
ENDBRANCH   18   17
ENDBRANCH   22   21
ENDBRANCH   24   22
ENDBRANCH   25   24
ENDBRANCH   26   25
ENDBRANCH   27   26
ENDBRANCH   28   27
ENDBRANCH   29   28
ENDBRANCH   30   29
ENDBRANCH   31   30
ENDBRANCH   32   31
ENDBRANCH   34   32
ENDBRANCH   38   37
BRANCH   42   43
ATOM     43  C32 UNL A   1      42.824  24.404  27.302  1.00  0.00    +0.000 C 
ATOM     44  C33 UNL A   1      42.301  25.615  27.801  1.00  0.00    +0.000 C 
ATOM     45  F1  UNL A   1      43.096  26.681  27.982  1.00  0.00    +0.000 F 
ATOM     46  C34 UNL A   1      40.974  25.728  28.223  1.00  0.00    +0.000 C 
ATOM     47  F2  UNL A   1      40.560  26.855  28.820  1.00  0.00    +0.000 F 
ATOM     48  C35 UNL A   1      40.105  24.660  28.097  1.00  0.00    +0.000 C 
ATOM     49  F3  UNL A   1      38.853  24.743  28.563  1.00  0.00    +0.000 F 
ATOM     50  C36 UNL A   1      40.556  23.488  27.531  1.00  0.00    +0.000 C 
ATOM     51  F4  UNL A   1      39.734  22.436  27.414  1.00  0.00    +0.000 F 
ATOM     52  C37 UNL A   1      41.893  23.354  27.160  1.00  0.00    +0.000 C 
ATOM     53  F5  UNL A   1      42.250  22.126  26.767  1.00  0.00    +0.000 F 
ENDBRANCH   42   43
BRANCH   59   60
ATOM     65  C46 UNL A   1      50.728  27.684  23.085  1.00  0.00    +0.000 C 
ATOM     66  F8  UNL A   1      51.959  27.947  22.623  1.00  0.00    +0.000 F 
ATOM     67  C47 UNL A   1      50.555  27.221  24.379  1.00  0.00    +0.000 C 
ATOM     68  F9  UNL A   1      51.618  27.058  25.179  1.00  0.00    +0.000 F 
ATOM     69  C48 UNL A   1      49.278  26.954  24.864  1.00  0.00    +0.000 C 
ATOM     70  F10 UNL A   1      49.146  26.532  26.132  1.00  0.00    +0.000 F 
ATOM     60  C43 UNL A   1      48.140  27.171  24.077  1.00  0.00    +0.000 C 
ATOM     61  C44 UNL A   1      48.341  27.675  22.780  1.00  0.00    +0.000 C 
ATOM     62  F6  UNL A   1      47.303  28.012  22.006  1.00  0.00    +0.000 F 
ATOM     63  C45 UNL A   1      49.622  27.903  22.281  1.00  0.00    +0.000 C 
ATOM     64  F7  UNL A   1      49.785  28.374  21.036  1.00  0.00    +0.000 F 
ENDBRANCH   59   60
BRANCH   74   75
ATOM     75  C52 UNL A   1      46.930  31.971  27.932  1.00  0.00    +0.000 C 
ATOM     76  C53 UNL A   1      47.470  33.045  27.206  1.00  0.00    +0.000 C 
ATOM     77  F11 UNL A   1      48.380  32.823  26.247  1.00  0.00    +0.000 F 
ATOM     78  C54 UNL A   1      47.031  34.361  27.400  1.00  0.00    +0.000 C 
ATOM     79  F12 UNL A   1      47.522  35.349  26.639  1.00  0.00    +0.000 F 
ATOM     80  C55 UNL A   1      46.046  34.640  28.333  1.00  0.00    +0.000 C 
ATOM     81  F13 UNL A   1      45.576  35.888  28.472  1.00  0.00    +0.000 F 
ATOM     82  C56 UNL A   1      45.520  33.612  29.090  1.00  0.00    +0.000 C 
ATOM     83  F14 UNL A   1      44.542  33.862  29.973  1.00  0.00    +0.000 F 
ATOM     84  C57 UNL A   1      45.951  32.300  28.892  1.00  0.00    +0.000 C 
ATOM     85  F15 UNL A   1      45.322  31.346  29.592  1.00  0.00    +0.000 F 
ENDBRANCH   74   75
TORSDOF 21
ENDMDL
MODEL 2
REMARK VINA RESULT:      -9.2     28.599     34.787
ROOT
ATOM    129  H27 UNL A   1      18.635  38.666  46.550  1.00  0.00    +0.000 H 
ATOM    130  H28 UNL A   1      19.083  34.678  47.065  1.00  0.00    +0.000 H 
ATOM    131  H29 UNL A   1      24.509  38.251  52.063  1.00  0.00    +0.000 H 
ATOM    132  H30 UNL A   1      24.954  39.410  49.842  1.00  0.00    +0.000 H 
ATOM    133  H31 UNL A   1      22.183  36.414  49.101  1.00  0.00    +0.000 H 
ATOM    134  H32 UNL A   1      22.022  33.516  50.431  1.00  0.00    +0.000 H 
ATOM    135  H33 UNL A   1      20.435  34.162  48.499  1.00  0.00    +0.000 H 
ATOM    136  H34 UNL A   1      23.860  34.731  44.285  1.00  0.00    +0.000 H 
ATOM    137  H35 UNL A   1      25.388  35.831  46.049  1.00  0.00    +0.000 H 
ATOM     38  C28 UNL A   1      24.007  37.866  47.567  1.00  0.00    +0.000 C 
ATOM     39  C29 UNL A   1      23.457  36.898  46.585  1.00  0.00    +0.000 C 
ATOM     40  N5  UNL A   1      22.244  36.846  46.141  1.00  0.00    +0.000 N 
ATOM     41  C30 UNL A   1      22.192  35.745  45.294  1.00  0.00    +0.000 C 
ATOM     42  C31 UNL A   1      21.019  35.081  45.094  1.00  0.00    +0.000 C 
ATOM     54  C38 UNL A   1      19.897  35.879  45.530  1.00  0.00    +0.000 C 
ATOM     55  C39 UNL A   1      19.411  37.126  45.188  1.00  0.00    +0.000 C 
ATOM     56  C40 UNL A   1      18.996  37.708  46.422  1.00  0.00    +0.000 C 
ATOM     57  C41 UNL A   1      19.166  36.755  47.426  1.00  0.00    +0.000 C 
ATOM     58  N6  UNL A   1      19.328  35.576  46.743  1.00  0.00    +0.000 N 
ATOM     59  C42 UNL A   1      19.241  36.855  48.863  1.00  0.00    +0.000 C 
ATOM     71  C49 UNL A   1      19.879  35.954  49.666  1.00  0.00    +0.000 C 
ATOM     72  N7  UNL A   1      20.298  36.305  50.942  1.00  0.00    +0.000 N 
ATOM     73  C50 UNL A   1      21.339  35.547  51.165  1.00  0.00    +0.000 C 
ATOM     74  C51 UNL A   1      22.583  36.053  51.807  1.00  0.00    +0.000 C 
ATOM     86  C58 UNL A   1      23.128  36.941  50.937  1.00  0.00    +0.000 C 
ATOM     87  C59 UNL A   1      24.098  37.989  51.154  1.00  0.00    +0.000 C 
ATOM     88  C60 UNL A   1      24.373  38.567  49.969  1.00  0.00    +0.000 C 
ATOM     89  C61 UNL A   1      23.723  37.819  48.889  1.00  0.00    +0.000 C 
ATOM     90  N8  UNL A   1      22.876  36.954  49.544  1.00  0.00    +0.000 N 
ATOM     91  C62 UNL A   1      21.448  34.367  50.320  1.00  0.00    +0.000 C 
ATOM     92  C63 UNL A   1      20.586  34.712  49.359  1.00  0.00    +0.000 C 
ATOM     93  C64 UNL A   1      23.557  35.372  45.035  1.00  0.00    +0.000 C 
ATOM     94  C65 UNL A   1      24.377  35.975  45.899  1.00  0.00    +0.000 C 
ATOM    128  H26 UNL A   1      19.358  37.545  44.246  1.00  0.00    +0.000 H 
ENDROOT
BRANCH   38   37
ATOM     34  C24 UNL A   1      27.148  40.109  45.913  1.00  0.00    +0.000 C 
ATOM     35  C25 UNL A   1      25.854  40.632  45.825  1.00  0.00    +0.000 C 
ATOM     36  C26 UNL A   1      24.809  39.942  46.433  1.00  0.00    +0.000 C 
ATOM     37  C27 UNL A   1      25.075  38.713  47.051  1.00  0.00    +0.000 C 
ATOM    138  H36 UNL A   1      26.532  37.244  47.458  1.00  0.00    +0.000 H 
ATOM    139  H37 UNL A   1      28.379  38.687  46.865  1.00  0.00    +0.000 H 
ATOM    127  H25 UNL A   1      23.852  40.330  46.427  1.00  0.00    +0.000 H 
ATOM    126  H24 UNL A   1      25.676  41.514  45.318  1.00  0.00    +0.000 H 
ATOM     95  C66 UNL A   1      26.364  38.195  47.096  1.00  0.00    +0.000 C 
ATOM     96  C67 UNL A   1      27.407  38.960  46.653  1.00  0.00    +0.000 C 
BRANCH   34   32
ATOM     33  O4  UNL A   1      29.096  40.032  44.613  1.00  0.00    +0.000 O 
ATOM     32  C23 UNL A   1      28.275  40.728  45.198  1.00  0.00    +0.000 C 
BRANCH   32   31
ATOM    125  H23 UNL A   1      28.015  42.570  44.412  1.00  0.00    +0.000 H 
ATOM     31  N4  UNL A   1      28.378  42.104  45.200  1.00  0.00    +0.000 N 
BRANCH   31   30
ATOM    123  H21 UNL A   1      29.506  42.327  46.929  1.00  0.00    +0.000 H 
ATOM    124  H22 UNL A   1      29.621  43.653  45.775  1.00  0.00    +0.000 H 
ATOM     30  C22 UNL A   1      28.967  42.947  46.242  1.00  0.00    +0.000 C 
BRANCH   30   29
ATOM    121  H19 UNL A   1      28.253  44.709  47.179  1.00  0.00    +0.000 H 
ATOM    122  H20 UNL A   1      27.012  43.708  46.404  1.00  0.00    +0.000 H 
ATOM     29  C21 UNL A   1      27.899  43.715  47.003  1.00  0.00    +0.000 C 
BRANCH   29   28
ATOM     28  C20 UNL A   1      27.548  43.072  48.353  1.00  0.00    +0.000 C 
ATOM    119  H17 UNL A   1      27.852  42.047  48.318  1.00  0.00    +0.000 H 
ATOM    120  H18 UNL A   1      28.059  43.651  49.093  1.00  0.00    +0.000 H 
BRANCH   28   27
ATOM     27  C19 UNL A   1      26.061  43.110  48.742  1.00  0.00    +0.000 C 
ATOM    117  H15 UNL A   1      25.875  44.031  49.255  1.00  0.00    +0.000 H 
ATOM    118  H16 UNL A   1      25.510  43.015  47.830  1.00  0.00    +0.000 H 
BRANCH   27   26
ATOM     26  C18 UNL A   1      25.600  41.960  49.647  1.00  0.00    +0.000 C 
ATOM    115  H13 UNL A   1      24.659  41.598  49.287  1.00  0.00    +0.000 H 
ATOM    116  H14 UNL A   1      26.353  41.201  49.615  1.00  0.00    +0.000 H 
BRANCH   26   25
ATOM     25  C17 UNL A   1      25.435  42.390  51.107  1.00  0.00    +0.000 C 
ATOM    114  H12 UNL A   1      26.400  42.570  51.534  1.00  0.00    +0.000 H 
ATOM    113  H11 UNL A   1      24.939  41.614  51.651  1.00  0.00    +0.000 H 
BRANCH   25   24
ATOM    112  H10 UNL A   1      25.085  44.382  50.759  1.00  0.00    +0.000 H 
ATOM     24  N3  UNL A   1      24.648  43.603  51.174  1.00  0.00    +0.000 N 
BRANCH   24   22
ATOM     22  C16 UNL A   1      23.414  43.882  51.702  1.00  0.00    +0.000 C 
ATOM     23  O3  UNL A   1      23.172  45.055  51.985  1.00  0.00    +0.000 O 
BRANCH   22   21
ATOM     97  C68 UNL A   1      22.614  41.456  51.874  1.00  0.00    +0.000 C 
ATOM     98  C69 UNL A   1      21.708  40.534  52.400  1.00  0.00    +0.000 C 
ATOM    140  H38 UNL A   1      23.445  41.120  51.362  1.00  0.00    +0.000 H 
ATOM    141  H39 UNL A   1      21.921  39.524  52.379  1.00  0.00    +0.000 H 
ATOM    110  H8  UNL A   1      19.299  42.688  53.302  1.00  0.00    +0.000 H 
ATOM    111  H9  UNL A   1      20.993  44.283  52.616  1.00  0.00    +0.000 H 
ATOM     18  C12 UNL A   1      20.513  40.990  52.953  1.00  0.00    +0.000 C 
ATOM     19  C13 UNL A   1      20.221  42.357  52.975  1.00  0.00    +0.000 C 
ATOM     20  C14 UNL A   1      21.185  43.272  52.549  1.00  0.00    +0.000 C 
ATOM     21  C15 UNL A   1      22.412  42.831  52.031  1.00  0.00    +0.000 C 
BRANCH   18   17
ATOM     99  N9  UNL A   1      18.355  40.467  53.868  1.00  0.00    +0.000 N 
ATOM    100  N10 UNL A   1      17.675  39.393  54.226  1.00  0.00    +0.000 N 
ATOM    109  H7  UNL A   1      20.564  38.142  53.494  1.00  0.00    +0.000 H 
ATOM     15  C10 UNL A   1      18.490  38.296  54.112  1.00  0.00    +0.000 C 
ATOM     16  C11 UNL A   1      19.721  38.715  53.655  1.00  0.00    +0.000 C 
ATOM     17  N2  UNL A   1      19.575  40.071  53.462  1.00  0.00    +0.000 N 
BRANCH   15   14
ATOM    107  H5  UNL A   1      16.947  36.964  54.569  1.00  0.00    +0.000 H 
ATOM    108  H6  UNL A   1      18.444  36.247  53.888  1.00  0.00    +0.000 H 
ATOM     14  C9  UNL A   1      18.018  36.954  54.569  1.00  0.00    +0.000 C 
BRANCH   14   13
ATOM     13  O2  UNL A   1      18.456  36.551  55.879  1.00  0.00    +0.000 O 
BRANCH   13   12
ATOM    101  C70 UNL A   1      16.628  34.991  56.394  1.00  0.00    +0.000 C 
ATOM    102  C71 UNL A   1      16.274  33.693  56.768  1.00  0.00    +0.000 C 
ATOM      9  C5  UNL A   1      17.244  32.800  57.226  1.00  0.00    +0.000 C 
ATOM     10  C6  UNL A   1      18.560  33.243  57.375  1.00  0.00    +0.000 C 
ATOM    105  H3  UNL A   1      19.271  32.620  57.791  1.00  0.00    +0.000 H 
ATOM     11  C7  UNL A   1      18.916  34.531  56.959  1.00  0.00    +0.000 C 
ATOM    106  H4  UNL A   1      19.891  34.851  57.061  1.00  0.00    +0.000 H 
ATOM     12  C8  UNL A   1      17.961  35.389  56.406  1.00  0.00    +0.000 C 
ATOM    143  H41 UNL A   1      15.290  33.392  56.704  1.00  0.00    +0.000 H 
ATOM    142  H40 UNL A   1      15.895  35.659  56.108  1.00  0.00    +0.000 H 
BRANCH    9    8
ATOM    104  H2  UNL A   1      16.482  30.846  56.766  1.00  0.00    +0.000 H 
ATOM      8  C4  UNL A   1      16.871  31.417  57.531  1.00  0.00    +0.000 C 
BRANCH    8    7
ATOM      1  O1  UNL A   1      15.040  31.789  59.759  1.00  0.00    +0.000 O 
ATOM      2  C1  UNL A   1      16.015  31.075  59.828  1.00  0.00    +0.000 C 
ATOM      3  N1  UNL A   1      16.374  30.339  60.928  1.00  0.00    +0.000 N 
ATOM      4  C2  UNL A   1      17.498  29.576  60.854  1.00  0.00    +0.000 C 
ATOM      5  S1  UNL A   1      18.053  28.642  62.103  1.00  0.00    +0.000 S 
ATOM      6  S2  UNL A   1      18.228  29.750  59.276  1.00  0.00    +0.000 S 
ATOM      7  C3  UNL A   1      17.000  30.841  58.734  1.00  0.00    +0.000 C 
ATOM    103  H1  UNL A   1      15.833  30.362  61.749  1.00  0.00    +0.000 H 
ENDBRANCH    8    7
ENDBRANCH    9    8
ENDBRANCH   13   12
ENDBRANCH   14   13
ENDBRANCH   15   14
ENDBRANCH   18   17
ENDBRANCH   22   21
ENDBRANCH   24   22
ENDBRANCH   25   24
ENDBRANCH   26   25
ENDBRANCH   27   26
ENDBRANCH   28   27
ENDBRANCH   29   28
ENDBRANCH   30   29
ENDBRANCH   31   30
ENDBRANCH   32   31
ENDBRANCH   34   32
ENDBRANCH   38   37
BRANCH   42   43
ATOM     43  C32 UNL A   1      20.898  33.591  44.885  1.00  0.00    +0.000 C 
ATOM     44  C33 UNL A   1      19.895  33.107  44.020  1.00  0.00    +0.000 C 
ATOM     45  F1  UNL A   1      19.256  33.939  43.182  1.00  0.00    +0.000 F 
ATOM     46  C34 UNL A   1      19.453  31.783  44.068  1.00  0.00    +0.000 C 
ATOM     47  F2  UNL A   1      18.402  31.406  43.326  1.00  0.00    +0.000 F 
ATOM     48  C35 UNL A   1      20.042  30.878  44.931  1.00  0.00    +0.000 C 
ATOM     49  F3  UNL A   1      19.576  29.628  45.029  1.00  0.00    +0.000 F 
ATOM     50  C36 UNL A   1      21.087  31.291  45.730  1.00  0.00    +0.000 C 
ATOM     51  F4  UNL A   1      21.661  30.433  46.583  1.00  0.00    +0.000 F 
ATOM     52  C37 UNL A   1      21.493  32.624  45.724  1.00  0.00    +0.000 C 
ATOM     53  F5  UNL A   1      22.407  32.940  46.647  1.00  0.00    +0.000 F 
ENDBRANCH   42   43
BRANCH   59   60
ATOM     65  C46 UNL A   1      17.711  40.591  50.391  1.00  0.00    +0.000 C 
ATOM     66  F8  UNL A   1      17.188  41.753  50.810  1.00  0.00    +0.000 F 
ATOM     67  C47 UNL A   1      16.955  39.431  50.440  1.00  0.00    +0.000 C 
ATOM     68  F9  UNL A   1      15.692  39.473  50.883  1.00  0.00    +0.000 F 
ATOM     69  C48 UNL A   1      17.493  38.225  49.999  1.00  0.00    +0.000 C 
ATOM     70  F10 UNL A   1      16.723  37.126  50.035  1.00  0.00    +0.000 F 
ATOM     60  C43 UNL A   1      18.789  38.154  49.472  1.00  0.00    +0.000 C 
ATOM     61  C44 UNL A   1      19.521  39.352  49.401  1.00  0.00    +0.000 C 
ATOM     62  F6  UNL A   1      20.722  39.389  48.812  1.00  0.00    +0.000 F 
ATOM     63  C45 UNL A   1      18.997  40.552  49.880  1.00  0.00    +0.000 C 
ATOM     64  F7  UNL A   1      19.722  41.678  49.810  1.00  0.00    +0.000 F 
ENDBRANCH   59   60
BRANCH   74   75
ATOM     75  C52 UNL A   1      23.198  35.422  53.000  1.00  0.00    +0.000 C 
ATOM     76  C53 UNL A   1      22.491  35.315  54.210  1.00  0.00    +0.000 C 
ATOM     77  F11 UNL A   1      21.335  35.974  54.376  1.00  0.00    +0.000 F 
ATOM     78  C54 UNL A   1      22.920  34.473  55.242  1.00  0.00    +0.000 C 
ATOM     79  F12 UNL A   1      22.181  34.347  56.353  1.00  0.00    +0.000 F 
ATOM     80  C55 UNL A   1      24.074  33.720  55.099  1.00  0.00    +0.000 C 
ATOM     81  F13 UNL A   1      24.449  32.862  56.058  1.00  0.00    +0.000 F 
ATOM     82  C56 UNL A   1      24.813  33.829  53.937  1.00  0.00    +0.000 C 
ATOM     83  F14 UNL A   1      25.914  33.082  53.770  1.00  0.00    +0.000 F 
ATOM     84  C57 UNL A   1      24.382  34.663  52.904  1.00  0.00    +0.000 C 
ATOM     85  F15 UNL A   1      25.097  34.638  51.771  1.00  0.00    +0.000 F 
ENDBRANCH   74   75
TORSDOF 21
ENDMDL
MODEL 3
REMARK VINA RESULT:      -9.0     28.696     34.959
ROOT
ATOM    129  H27 UNL A   1      18.599  38.628  46.565  1.00  0.00    +0.000 H 
ATOM    130  H28 UNL A   1      19.123  34.651  47.088  1.00  0.00    +0.000 H 
ATOM    131  H29 UNL A   1      24.483  38.335  52.076  1.00  0.00    +0.000 H 
ATOM    132  H30 UNL A   1      24.906  39.497  49.851  1.00  0.00    +0.000 H 
ATOM    133  H31 UNL A   1      22.190  36.449  49.118  1.00  0.00    +0.000 H 
ATOM    134  H32 UNL A   1      22.085  33.550  50.455  1.00  0.00    +0.000 H 
ATOM    135  H33 UNL A   1      20.485  34.163  48.522  1.00  0.00    +0.000 H 
ATOM    136  H34 UNL A   1      23.897  34.787  44.305  1.00  0.00    +0.000 H 
ATOM    137  H35 UNL A   1      25.404  35.919  46.065  1.00  0.00    +0.000 H 
ATOM     38  C28 UNL A   1      23.986  37.931  47.581  1.00  0.00    +0.000 C 
ATOM     39  C29 UNL A   1      23.454  36.951  46.601  1.00  0.00    +0.000 C 
ATOM     40  N5  UNL A   1      22.242  36.875  46.158  1.00  0.00    +0.000 N 
ATOM     41  C30 UNL A   1      22.210  35.772  45.313  1.00  0.00    +0.000 C 
ATOM     42  C31 UNL A   1      21.050  35.086  45.115  1.00  0.00    +0.000 C 
ATOM     54  C38 UNL A   1      19.913  35.863  45.550  1.00  0.00    +0.000 C 
ATOM     55  C39 UNL A   1      19.403  37.100  45.206  1.00  0.00    +0.000 C 
ATOM     56  C40 UNL A   1      18.978  37.677  46.439  1.00  0.00    +0.000 C 
ATOM     57  C41 UNL A   1      19.167  36.729  47.445  1.00  0.00    +0.000 C 
ATOM     58  N6  UNL A   1      19.351  35.552  46.764  1.00  0.00    +0.000 N 
ATOM     59  C42 UNL A   1      19.241  36.833  48.881  1.00  0.00    +0.000 C 
ATOM     71  C49 UNL A   1      19.896  35.946  49.686  1.00  0.00    +0.000 C 
ATOM     72  N7  UNL A   1      20.309  36.307  50.961  1.00  0.00    +0.000 N 
ATOM     73  C50 UNL A   1      21.364  35.569  51.185  1.00  0.00    +0.000 C 
ATOM     74  C51 UNL A   1      22.599  36.100  51.825  1.00  0.00    +0.000 C 
ATOM     86  C58 UNL A   1      23.127  36.996  50.953  1.00  0.00    +0.000 C 
ATOM     87  C59 UNL A   1      24.077  38.063  51.167  1.00  0.00    +0.000 C 
ATOM     88  C60 UNL A   1      24.341  38.644  49.981  1.00  0.00    +0.000 C 
ATOM     89  C61 UNL A   1      23.704  37.882  48.902  1.00  0.00    +0.000 C 
ATOM     90  N8  UNL A   1      22.873  37.002  49.560  1.00  0.00    +0.000 N 
ATOM     91  C62 UNL A   1      21.495  34.390  50.342  1.00  0.00    +0.000 C 
ATOM     92  C63 UNL A   1      20.626  34.717  49.381  1.00  0.00    +0.000 C 
ATOM     93  C64 UNL A   1      23.582  35.424  45.053  1.00  0.00    +0.000 C 
ATOM     94  C65 UNL A   1      24.390  36.044  45.916  1.00  0.00    +0.000 C 
ATOM    128  H26 UNL A   1      19.342  37.517  44.263  1.00  0.00    +0.000 H 
ENDROOT
BRANCH   38   37
ATOM     34  C24 UNL A   1      27.077  40.233  45.914  1.00  0.00    +0.000 C 
ATOM     35  C25 UNL A   1      25.779  40.750  45.867  1.00  0.00    +0.000 C 
ATOM     36  C26 UNL A   1      24.751  40.039  46.480  1.00  0.00    +0.000 C 
ATOM     37  C27 UNL A   1      25.038  38.797  47.062  1.00  0.00    +0.000 C 
ATOM    138  H36 UNL A   1      26.512  37.327  47.401  1.00  0.00    +0.000 H 
ATOM    139  H37 UNL A   1      28.337  38.796  46.803  1.00  0.00    +0.000 H 
ATOM    127  H25 UNL A   1      23.793  40.421  46.505  1.00  0.00    +0.000 H 
ATOM    126  H24 UNL A   1      25.585  41.643  45.386  1.00  0.00    +0.000 H 
ATOM     95  C66 UNL A   1      26.331  38.286  47.066  1.00  0.00    +0.000 C 
ATOM     96  C67 UNL A   1      27.359  39.068  46.619  1.00  0.00    +0.000 C 
BRANCH   34   32
ATOM     33  O4  UNL A   1      28.915  40.216  44.458  1.00  0.00    +0.000 O 
ATOM     32  C23 UNL A   1      28.185  40.876  45.190  1.00  0.00    +0.000 C 
BRANCH   32   31
ATOM    125  H23 UNL A   1      27.921  42.817  44.701  1.00  0.00    +0.000 H 
ATOM     31  N4  UNL A   1      28.375  42.233  45.350  1.00  0.00    +0.000 N 
BRANCH   31   30
ATOM    123  H21 UNL A   1      29.722  42.162  46.928  1.00  0.00    +0.000 H 
ATOM    124  H22 UNL A   1      29.844  43.583  45.895  1.00  0.00    +0.000 H 
ATOM     30  C22 UNL A   1      29.177  42.900  46.378  1.00  0.00    +0.000 C 
BRANCH   30   29
ATOM    121  H19 UNL A   1      28.835  44.559  47.652  1.00  0.00    +0.000 H 
ATOM    122  H20 UNL A   1      27.399  43.935  46.822  1.00  0.00    +0.000 H 
ATOM     29  C21 UNL A   1      28.301  43.686  47.340  1.00  0.00    +0.000 C 
BRANCH   29   28
ATOM     28  C20 UNL A   1      27.909  42.879  48.587  1.00  0.00    +0.000 C 
ATOM    119  H17 UNL A   1      27.915  41.842  48.322  1.00  0.00    +0.000 H 
ATOM    120  H18 UNL A   1      28.623  43.139  49.339  1.00  0.00    +0.000 H 
BRANCH   28   27
ATOM     27  C19 UNL A   1      26.530  43.206  49.184  1.00  0.00    +0.000 C 
ATOM    117  H15 UNL A   1      26.678  43.837  50.035  1.00  0.00    +0.000 H 
ATOM    118  H16 UNL A   1      25.968  43.673  48.403  1.00  0.00    +0.000 H 
BRANCH   27   26
ATOM     26  C18 UNL A   1      25.715  41.986  49.633  1.00  0.00    +0.000 C 
ATOM    115  H13 UNL A   1      24.775  41.995  49.120  1.00  0.00    +0.000 H 
ATOM    116  H14 UNL A   1      26.284  41.111  49.397  1.00  0.00    +0.000 H 
BRANCH   26   25
ATOM     25  C17 UNL A   1      25.451  41.976  51.140  1.00  0.00    +0.000 C 
ATOM    114  H12 UNL A   1      26.369  41.791  51.659  1.00  0.00    +0.000 H 
ATOM    113  H11 UNL A   1      24.744  41.207  51.372  1.00  0.00    +0.000 H 
BRANCH   25   24
ATOM    112  H10 UNL A   1      25.536  44.010  51.400  1.00  0.00    +0.000 H 
ATOM     24  N3  UNL A   1      24.919  43.258  51.553  1.00  0.00    +0.000 N 
BRANCH   24   22
ATOM     22  C16 UNL A   1      23.726  43.632  52.114  1.00  0.00    +0.000 C 
ATOM     23  O3  UNL A   1      23.635  44.785  52.535  1.00  0.00    +0.000 O 
BRANCH   22   21
ATOM     97  C68 UNL A   1      22.639  41.315  52.069  1.00  0.00    +0.000 C 
ATOM     98  C69 UNL A   1      21.605  40.474  52.484  1.00  0.00    +0.000 C 
ATOM    140  H38 UNL A   1      23.450  40.916  51.569  1.00  0.00    +0.000 H 
ATOM    141  H39 UNL A   1      21.698  39.450  52.397  1.00  0.00    +0.000 H 
ATOM    110  H8  UNL A   1      19.422  42.836  53.441  1.00  0.00    +0.000 H 
ATOM    111  H9  UNL A   1      21.325  44.258  52.951  1.00  0.00    +0.000 H 
ATOM     18  C12 UNL A   1      20.444  41.032  53.018  1.00  0.00    +0.000 C 
ATOM     19  C13 UNL A   1      20.314  42.420  53.130  1.00  0.00    +0.000 C 
ATOM     20  C14 UNL A   1      21.399  43.238  52.816  1.00  0.00    +0.000 C 
ATOM     21  C15 UNL A   1      22.592  42.689  52.320  1.00  0.00    +0.000 C 
BRANCH   18   17
ATOM     99  N9  UNL A   1      19.418  38.870  53.217  1.00  0.00    +0.000 N 
ATOM    100  N10 UNL A   1      18.328  38.347  53.749  1.00  0.00    +0.000 N 
ATOM    109  H7  UNL A   1      17.849  41.508  54.222  1.00  0.00    +0.000 H 
ATOM     15  C10 UNL A   1      17.545  39.360  54.239  1.00  0.00    +0.000 C 
ATOM     16  C11 UNL A   1      18.187  40.557  54.005  1.00  0.00    +0.000 C 
ATOM     17  N2  UNL A   1      19.380  40.201  53.416  1.00  0.00    +0.000 N 
BRANCH   15   14
ATOM    107  H5  UNL A   1      16.192  38.059  55.156  1.00  0.00    +0.000 H 
ATOM    108  H6  UNL A   1      16.014  39.802  55.546  1.00  0.00    +0.000 H 
ATOM     14  C9  UNL A   1      16.188  39.065  54.790  1.00  0.00    +0.000 C 
BRANCH   14   13
ATOM     13  O2  UNL A   1      15.096  39.192  53.861  1.00  0.00    +0.000 O 
BRANCH   13   12
ATOM    101  C70 UNL A   1      13.265  38.208  55.172  1.00  0.00    +0.000 C 
ATOM    102  C71 UNL A   1      12.055  37.511  55.144  1.00  0.00    +0.000 C 
ATOM      9  C5  UNL A   1      11.615  36.906  53.966  1.00  0.00    +0.000 C 
ATOM     10  C6  UNL A   1      12.432  36.946  52.834  1.00  0.00    +0.000 C 
ATOM    105  H3  UNL A   1      12.159  36.433  51.981  1.00  0.00    +0.000 H 
ATOM     11  C7  UNL A   1      13.623  37.682  52.857  1.00  0.00    +0.000 C 
ATOM    106  H4  UNL A   1      14.218  37.717  52.016  1.00  0.00    +0.000 H 
ATOM     12  C8  UNL A   1      14.011  38.371  54.009  1.00  0.00    +0.000 C 
ATOM    143  H41 UNL A   1      11.484  37.442  56.000  1.00  0.00    +0.000 H 
ATOM    142  H40 UNL A   1      13.606  38.605  56.062  1.00  0.00    +0.000 H 
BRANCH    9    8
ATOM    104  H2  UNL A   1       9.468  36.854  53.985  1.00  0.00    +0.000 H 
ATOM      8  C4  UNL A   1      10.305  36.253  53.931  1.00  0.00    +0.000 C 
BRANCH    8    7
ATOM      1  O1  UNL A   1      10.122  34.427  56.186  1.00  0.00    +0.000 O 
ATOM      2  C1  UNL A   1      10.025  34.057  55.038  1.00  0.00    +0.000 C 
ATOM      3  N1  UNL A   1       9.797  32.763  54.645  1.00  0.00    +0.000 N 
ATOM      4  C2  UNL A   1       9.706  32.500  53.314  1.00  0.00    +0.000 C 
ATOM      5  S1  UNL A   1       9.438  30.987  52.696  1.00  0.00    +0.000 S 
ATOM      6  S2  UNL A   1       9.918  33.977  52.403  1.00  0.00    +0.000 S 
ATOM      7  C3  UNL A   1      10.115  34.930  53.833  1.00  0.00    +0.000 C 
ATOM    103  H1  UNL A   1       9.701  32.044  55.310  1.00  0.00    +0.000 H 
ENDBRANCH    8    7
ENDBRANCH    9    8
ENDBRANCH   13   12
ENDBRANCH   14   13
ENDBRANCH   15   14
ENDBRANCH   18   17
ENDBRANCH   22   21
ENDBRANCH   24   22
ENDBRANCH   25   24
ENDBRANCH   26   25
ENDBRANCH   27   26
ENDBRANCH   28   27
ENDBRANCH   29   28
ENDBRANCH   30   29
ENDBRANCH   31   30
ENDBRANCH   32   31
ENDBRANCH   34   32
ENDBRANCH   38   37
BRANCH   42   43
ATOM     43  C32 UNL A   1      20.956  33.593  44.909  1.00  0.00    +0.000 C 
ATOM     44  C33 UNL A   1      19.972  33.090  44.034  1.00  0.00    +0.000 C 
ATOM     45  F1  UNL A   1      19.330  33.908  43.185  1.00  0.00    +0.000 F 
ATOM     46  C34 UNL A   1      19.552  31.758  44.080  1.00  0.00    +0.000 C 
ATOM     47  F2  UNL A   1      18.517  31.361  43.327  1.00  0.00    +0.000 F 
ATOM     48  C35 UNL A   1      20.146  30.866  44.953  1.00  0.00    +0.000 C 
ATOM     49  F3  UNL A   1      19.700  29.608  45.049  1.00  0.00    +0.000 F 
ATOM     50  C36 UNL A   1      21.174  31.299  45.763  1.00  0.00    +0.000 C 
ATOM     51  F4  UNL A   1      21.753  30.453  46.626  1.00  0.00    +0.000 F 
ATOM     52  C37 UNL A   1      21.558  32.638  45.758  1.00  0.00    +0.000 C 
ATOM     53  F5  UNL A   1      22.455  32.973  46.691  1.00  0.00    +0.000 F 
ENDBRANCH   42   43
BRANCH   59   60
ATOM     65  C46 UNL A   1      17.642  40.544  50.403  1.00  0.00    +0.000 C 
ATOM     66  F8  UNL A   1      17.097  41.696  50.820  1.00  0.00    +0.000 F 
ATOM     67  C47 UNL A   1      16.908  39.369  50.455  1.00  0.00    +0.000 C 
ATOM     68  F9  UNL A   1      15.645  39.388  50.899  1.00  0.00    +0.000 F 
ATOM     69  C48 UNL A   1      17.468  38.172  50.016  1.00  0.00    +0.000 C 
ATOM     70  F10 UNL A   1      16.719  37.059  50.056  1.00  0.00    +0.000 F 
ATOM     60  C43 UNL A   1      18.764  38.125  49.488  1.00  0.00    +0.000 C 
ATOM     61  C44 UNL A   1      19.474  39.337  49.414  1.00  0.00    +0.000 C 
ATOM     62  F6  UNL A   1      20.673  39.395  48.823  1.00  0.00    +0.000 F 
ATOM     63  C45 UNL A   1      18.928  40.528  49.891  1.00  0.00    +0.000 C 
ATOM     64  F7  UNL A   1      19.631  41.666  49.817  1.00  0.00    +0.000 F 
ENDBRANCH   59   60
BRANCH   74   75
ATOM     75  C52 UNL A   1      23.226  35.483  53.019  1.00  0.00    +0.000 C 
ATOM     76  C53 UNL A   1      22.536  35.400  54.240  1.00  0.00    +0.000 C 
ATOM     77  F11 UNL A   1      21.387  36.069  54.412  1.00  0.00    +0.000 F 
ATOM     78  C54 UNL A   1      22.974  34.571  55.279  1.00  0.00    +0.000 C 
ATOM     79  F12 UNL A   1      22.250  34.466  56.402  1.00  0.00    +0.000 F 
ATOM     80  C55 UNL A   1      24.121  33.808  55.131  1.00  0.00    +0.000 C 
ATOM     81  F13 UNL A   1      24.503  32.962  56.099  1.00  0.00    +0.000 F 
ATOM     82  C56 UNL A   1      24.844  33.894  53.958  1.00  0.00    +0.000 C 
ATOM     83  F14 UNL A   1      25.937  33.136  53.787  1.00  0.00    +0.000 F 
ATOM     84  C57 UNL A   1      24.404  34.714  52.918  1.00  0.00    +0.000 C 
ATOM     85  F15 UNL A   1      25.103  34.667  51.776  1.00  0.00    +0.000 F 
ENDBRANCH   74   75
TORSDOF 21
ENDMDL
MODEL 4
REMARK VINA RESULT:      -9.0     41.948     48.832
ROOT
ATOM    129  H27 UNL A   1      11.001  32.697  -3.604  1.00  0.00    +0.000 H 
ATOM    130  H28 UNL A   1      14.450  32.073  -1.583  1.00  0.00    +0.000 H 
ATOM    131  H29 UNL A   1      10.890  24.730  -2.352  1.00  0.00    +0.000 H 
ATOM    132  H30 UNL A   1       9.001  26.169  -1.437  1.00  0.00    +0.000 H 
ATOM    133  H31 UNL A   1      12.417  28.522  -1.431  1.00  0.00    +0.000 H 
ATOM    134  H32 UNL A   1      15.417  27.625  -0.805  1.00  0.00    +0.000 H 
ATOM    135  H33 UNL A   1      14.842  30.116  -1.173  1.00  0.00    +0.000 H 
ATOM    136  H34 UNL A   1      11.683  31.257   3.133  1.00  0.00    +0.000 H 
ATOM    137  H35 UNL A   1      10.714  28.910   2.678  1.00  0.00    +0.000 H 
ATOM     38  C28 UNL A   1       9.969  28.558  -0.092  1.00  0.00    +0.000 C 
ATOM     39  C29 UNL A   1      10.701  29.683   0.543  1.00  0.00    +0.000 C 
ATOM     40  N5  UNL A   1      11.066  30.787  -0.019  1.00  0.00    +0.000 N 
ATOM     41  C30 UNL A   1      11.768  31.497   0.949  1.00  0.00    +0.000 C 
ATOM     42  C31 UNL A   1      12.726  32.395   0.590  1.00  0.00    +0.000 C 
ATOM     54  C38 UNL A   1      12.605  32.745  -0.806  1.00  0.00    +0.000 C 
ATOM     55  C39 UNL A   1      11.600  33.298  -1.577  1.00  0.00    +0.000 C 
ATOM     56  C40 UNL A   1      11.652  32.585  -2.811  1.00  0.00    +0.000 C 
ATOM     57  C41 UNL A   1      12.736  31.709  -2.757  1.00  0.00    +0.000 C 
ATOM     58  N6  UNL A   1      13.475  32.158  -1.692  1.00  0.00    +0.000 N 
ATOM     59  C42 UNL A   1      13.083  30.540  -3.526  1.00  0.00    +0.000 C 
ATOM     71  C49 UNL A   1      13.878  29.526  -3.072  1.00  0.00    +0.000 C 
ATOM     72  N7  UNL A   1      13.825  28.264  -3.645  1.00  0.00    +0.000 N 
ATOM     73  C50 UNL A   1      14.155  27.450  -2.677  1.00  0.00    +0.000 C 
ATOM     74  C51 UNL A   1      13.448  26.164  -2.428  1.00  0.00    +0.000 C 
ATOM     86  C58 UNL A   1      12.191  26.490  -2.034  1.00  0.00    +0.000 C 
ATOM     87  C59 UNL A   1      10.982  25.700  -2.013  1.00  0.00    +0.000 C 
ATOM     88  C60 UNL A   1       9.994  26.444  -1.480  1.00  0.00    +0.000 C 
ATOM     89  C61 UNL A   1      10.543  27.705  -0.970  1.00  0.00    +0.000 C 
ATOM     90  N8  UNL A   1      11.827  27.735  -1.466  1.00  0.00    +0.000 N 
ATOM     91  C62 UNL A   1      14.864  28.058  -1.561  1.00  0.00    +0.000 C 
ATOM     92  C63 UNL A   1      14.585  29.342  -1.805  1.00  0.00    +0.000 C 
ATOM     93  C64 UNL A   1      11.485  30.852   2.204  1.00  0.00    +0.000 C 
ATOM     94  C65 UNL A   1      10.927  29.656   1.997  1.00  0.00    +0.000 C 
ATOM    128  H26 UNL A   1      10.954  34.060  -1.318  1.00  0.00    +0.000 H 
ENDROOT
BRANCH   38   37
ATOM     34  C24 UNL A   1       6.276  27.898   1.795  1.00  0.00    +0.000 C 
ATOM     35  C25 UNL A   1       6.273  28.575   0.571  1.00  0.00    +0.000 C 
ATOM     36  C26 UNL A   1       7.477  28.738  -0.108  1.00  0.00    +0.000 C 
ATOM     37  C27 UNL A   1       8.660  28.281   0.488  1.00  0.00    +0.000 C 
ATOM    138  H36 UNL A   1       9.527  27.407   2.201  1.00  0.00    +0.000 H 
ATOM    139  H37 UNL A   1       7.402  26.683   3.098  1.00  0.00    +0.000 H 
ATOM    127  H25 UNL A   1       7.497  29.188  -1.037  1.00  0.00    +0.000 H 
ATOM    126  H24 UNL A   1       5.394  28.947   0.178  1.00  0.00    +0.000 H 
ATOM     95  C66 UNL A   1       8.643  27.643   1.723  1.00  0.00    +0.000 C 
ATOM     96  C67 UNL A   1       7.442  27.332   2.297  1.00  0.00    +0.000 C 
BRANCH   34   32
ATOM     33  O4  UNL A   1       5.123  27.882   3.836  1.00  0.00    +0.000 O 
ATOM     32  C23 UNL A   1       5.059  27.792   2.616  1.00  0.00    +0.000 C 
BRANCH   32   31
ATOM    125  H23 UNL A   1       3.732  26.731   1.524  1.00  0.00    +0.000 H 
ATOM     31  N4  UNL A   1       3.851  27.597   1.977  1.00  0.00    +0.000 N 
BRANCH   31   30
ATOM    123  H21 UNL A   1       1.862  28.074   2.328  1.00  0.00    +0.000 H 
ATOM    124  H22 UNL A   1       2.992  29.421   2.434  1.00  0.00    +0.000 H 
ATOM     30  C22 UNL A   1       2.729  28.533   1.899  1.00  0.00    +0.000 C 
BRANCH   30   29
ATOM    121  H19 UNL A   1       3.074  28.360  -0.185  1.00  0.00    +0.000 H 
ATOM    122  H20 UNL A   1       1.395  28.689   0.279  1.00  0.00    +0.000 H 
ATOM     29  C21 UNL A   1       2.425  28.914   0.460  1.00  0.00    +0.000 C 
BRANCH   29   28
ATOM     28  C20 UNL A   1       2.623  30.413   0.184  1.00  0.00    +0.000 C 
ATOM    119  H17 UNL A   1       2.834  30.529  -0.858  1.00  0.00    +0.000 H 
ATOM    120  H18 UNL A   1       1.719  30.890   0.499  1.00  0.00    +0.000 H 
BRANCH   28   27
ATOM     27  C19 UNL A   1       3.755  31.091   0.974  1.00  0.00    +0.000 C 
ATOM    117  H15 UNL A   1       3.597  30.896   2.015  1.00  0.00    +0.000 H 
ATOM    118  H16 UNL A   1       4.670  30.680   0.600  1.00  0.00    +0.000 H 
BRANCH   27   26
ATOM     26  C18 UNL A   1       3.855  32.610   0.785  1.00  0.00    +0.000 C 
ATOM    115  H13 UNL A   1       3.653  32.841  -0.241  1.00  0.00    +0.000 H 
ATOM    116  H14 UNL A   1       3.142  33.066   1.439  1.00  0.00    +0.000 H 
BRANCH   26   25
ATOM     25  C17 UNL A   1       5.237  33.158   1.148  1.00  0.00    +0.000 C 
ATOM    114  H12 UNL A   1       5.292  33.307   2.207  1.00  0.00    +0.000 H 
ATOM    113  H11 UNL A   1       5.393  34.090   0.645  1.00  0.00    +0.000 H 
BRANCH   25   24
ATOM    112  H10 UNL A   1       6.115  31.304   1.087  1.00  0.00    +0.000 H 
ATOM     24  N3  UNL A   1       6.259  32.216   0.745  1.00  0.00    +0.000 N 
BRANCH   24   22
ATOM     22  C16 UNL A   1       7.389  32.342  -0.021  1.00  0.00    +0.000 C 
ATOM     23  O3  UNL A   1       8.453  32.538   0.567  1.00  0.00    +0.000 O 
BRANCH   22   21
ATOM     97  C68 UNL A   1       6.545  33.167  -2.292  1.00  0.00    +0.000 C 
ATOM     98  C69 UNL A   1       6.734  33.264  -3.672  1.00  0.00    +0.000 C 
ATOM    140  H38 UNL A   1       5.785  33.703  -1.843  1.00  0.00    +0.000 H 
ATOM    141  H39 UNL A   1       6.198  33.951  -4.225  1.00  0.00    +0.000 H 
ATOM    110  H8  UNL A   1       8.991  30.806  -4.020  1.00  0.00    +0.000 H 
ATOM    111  H9  UNL A   1       8.830  30.829  -1.599  1.00  0.00    +0.000 H 
ATOM     18  C12 UNL A   1       7.655  32.423  -4.295  1.00  0.00    +0.000 C 
ATOM     19  C13 UNL A   1       8.376  31.488  -3.548  1.00  0.00    +0.000 C 
ATOM     20  C14 UNL A   1       8.258  31.481  -2.158  1.00  0.00    +0.000 C 
ATOM     21  C15 UNL A   1       7.368  32.352  -1.510  1.00  0.00    +0.000 C 
BRANCH   18   17
ATOM     99  N9  UNL A   1       7.080  31.762  -6.532  1.00  0.00    +0.000 N 
ATOM    100  N10 UNL A   1       7.426  32.077  -7.767  1.00  0.00    +0.000 N 
ATOM    109  H7  UNL A   1       9.518  33.819  -6.024  1.00  0.00    +0.000 H 
ATOM     15  C10 UNL A   1       8.467  32.969  -7.721  1.00  0.00    +0.000 C 
ATOM     16  C11 UNL A   1       8.767  33.219  -6.399  1.00  0.00    +0.000 C 
ATOM     17  N2  UNL A   1       7.839  32.489  -5.689  1.00  0.00    +0.000 N 
BRANCH   15   14
ATOM    107  H5  UNL A   1       9.043  32.617  -9.698  1.00  0.00    +0.000 H 
ATOM    108  H6  UNL A   1       8.663  34.317  -9.268  1.00  0.00    +0.000 H 
ATOM     14  C9  UNL A   1       9.143  33.405  -8.980  1.00  0.00    +0.000 C 
BRANCH   14   13
ATOM     13  O2  UNL A   1      10.542  33.718  -8.861  1.00  0.00    +0.000 O 
BRANCH   13   12
ATOM    101  C70 UNL A   1      12.346  33.979 -10.510  1.00  0.00    +0.000 C 
ATOM    102  C71 UNL A   1      12.764  34.592 -11.693  1.00  0.00    +0.000 C 
ATOM      9  C5  UNL A   1      12.035  35.650 -12.237  1.00  0.00    +0.000 C 
ATOM     10  C6  UNL A   1      10.922  36.135 -11.546  1.00  0.00    +0.000 C 
ATOM    105  H3  UNL A   1      10.423  36.970 -11.892  1.00  0.00    +0.000 H 
ATOM     11  C7  UNL A   1      10.484  35.489 -10.384  1.00  0.00    +0.000 C 
ATOM    106  H4  UNL A   1       9.656  35.844  -9.883  1.00  0.00    +0.000 H 
ATOM     12  C8  UNL A   1      11.158  34.366  -9.897  1.00  0.00    +0.000 C 
ATOM    143  H41 UNL A   1      13.617  34.259 -12.168  1.00  0.00    +0.000 H 
ATOM    142  H40 UNL A   1      12.922  33.233 -10.089  1.00  0.00    +0.000 H 
BRANCH    9    8
ATOM    104  H2  UNL A   1      11.901  35.951 -14.359  1.00  0.00    +0.000 H 
ATOM      8  C4  UNL A   1      12.438  36.224 -13.522  1.00  0.00    +0.000 C 
BRANCH    8    7
ATOM      1  O1  UNL A   1      15.116  35.483 -14.378  1.00  0.00    +0.000 O 
ATOM      2  C1  UNL A   1      14.801  36.627 -14.137  1.00  0.00    +0.000 C 
ATOM      3  N1  UNL A   1      15.633  37.711 -14.252  1.00  0.00    +0.000 N 
ATOM      4  C2  UNL A   1      15.134  38.940 -13.950  1.00  0.00    +0.000 C 
ATOM      5  S1  UNL A   1      16.022  40.335 -14.040  1.00  0.00    +0.000 S 
ATOM      6  S2  UNL A   1      13.461  38.797 -13.464  1.00  0.00    +0.000 S 
ATOM      7  C3  UNL A   1      13.455  37.082 -13.688  1.00  0.00    +0.000 C 
ATOM    103  H1  UNL A   1      16.565  37.603 -14.547  1.00  0.00    +0.000 H 
ENDBRANCH    8    7
ENDBRANCH    9    8
ENDBRANCH   13   12
ENDBRANCH   14   13
ENDBRANCH   15   14
ENDBRANCH   18   17
ENDBRANCH   22   21
ENDBRANCH   24   22
ENDBRANCH   25   24
ENDBRANCH   26   25
ENDBRANCH   27   26
ENDBRANCH   28   27
ENDBRANCH   29   28
ENDBRANCH   30   29
ENDBRANCH   31   30
ENDBRANCH   32   31
ENDBRANCH   34   32
ENDBRANCH   38   37
BRANCH   42   43
ATOM     43  C32 UNL A   1      13.996  32.656   1.364  1.00  0.00    +0.000 C 
ATOM     44  C33 UNL A   1      14.065  33.797   2.190  1.00  0.00    +0.000 C 
ATOM     45  F1  UNL A   1      12.952  34.474   2.513  1.00  0.00    +0.000 F 
ATOM     46  C34 UNL A   1      15.285  34.328   2.616  1.00  0.00    +0.000 C 
ATOM     47  F2  UNL A   1      15.307  35.492   3.281  1.00  0.00    +0.000 F 
ATOM     48  C35 UNL A   1      16.474  33.702   2.293  1.00  0.00    +0.000 C 
ATOM     49  F3  UNL A   1      17.646  34.245   2.641  1.00  0.00    +0.000 F 
ATOM     50  C36 UNL A   1      16.442  32.533   1.562  1.00  0.00    +0.000 C 
ATOM     51  F4  UNL A   1      17.585  31.919   1.225  1.00  0.00    +0.000 F 
ATOM     52  C37 UNL A   1      15.232  32.031   1.088  1.00  0.00    +0.000 C 
ATOM     53  F5  UNL A   1      15.338  30.983   0.264  1.00  0.00    +0.000 F 
ENDBRANCH   42   43
BRANCH   59   60
ATOM     65  C46 UNL A   1      10.879  30.250  -7.227  1.00  0.00    +0.000 C 
ATOM     66  F8  UNL A   1      10.185  30.233  -8.374  1.00  0.00    +0.000 F 
ATOM     67  C47 UNL A   1      12.117  30.871  -7.173  1.00  0.00    +0.000 C 
ATOM     68  F9  UNL A   1      12.610  31.476  -8.262  1.00  0.00    +0.000 F 
ATOM     69  C48 UNL A   1      12.838  30.897  -5.982  1.00  0.00    +0.000 C 
ATOM     70  F10 UNL A   1      14.021  31.530  -5.960  1.00  0.00    +0.000 F 
ATOM     60  C43 UNL A   1      12.326  30.328  -4.809  1.00  0.00    +0.000 C 
ATOM     61  C44 UNL A   1      11.054  29.736  -4.882  1.00  0.00    +0.000 C 
ATOM     62  F6  UNL A   1      10.449  29.268  -3.784  1.00  0.00    +0.000 F 
ATOM     63  C45 UNL A   1      10.350  29.674  -6.085  1.00  0.00    +0.000 C 
ATOM     64  F7  UNL A   1       9.142  29.094  -6.128  1.00  0.00    +0.000 F 
ENDBRANCH   59   60
BRANCH   74   75
ATOM     75  C52 UNL A   1      14.143  24.858  -2.333  1.00  0.00    +0.000 C 
ATOM     76  C53 UNL A   1      14.712  24.255  -3.468  1.00  0.00    +0.000 C 
ATOM     77  F11 UNL A   1      14.449  24.736  -4.691  1.00  0.00    +0.000 F 
ATOM     78  C54 UNL A   1      15.619  23.194  -3.362  1.00  0.00    +0.000 C 
ATOM     79  F12 UNL A   1      16.192  22.691  -4.464  1.00  0.00    +0.000 F 
ATOM     80  C55 UNL A   1      15.976  22.698  -2.119  1.00  0.00    +0.000 C 
ATOM     81  F13 UNL A   1      16.896  21.728  -2.013  1.00  0.00    +0.000 F 
ATOM     82  C56 UNL A   1      15.408  23.243  -0.984  1.00  0.00    +0.000 C 
ATOM     83  F14 UNL A   1      15.769  22.797   0.228  1.00  0.00    +0.000 F 
ATOM     84  C57 UNL A   1      14.509  24.306  -1.088  1.00  0.00    +0.000 C 
ATOM     85  F15 UNL A   1      14.079  24.846   0.060  1.00  0.00    +0.000 F 
ENDBRANCH   74   75
TORSDOF 21
ENDMDL
MODEL 5
REMARK VINA RESULT:      -9.0     43.507     49.474
ROOT
ATOM    129  H27 UNL A   1       5.946  32.401  -6.637  1.00  0.00    +0.000 H 
ATOM    130  H28 UNL A   1       5.357  33.765  -2.873  1.00  0.00    +0.000 H 
ATOM    131  H29 UNL A   1      12.070  29.071  -2.577  1.00  0.00    +0.000 H 
ATOM    132  H30 UNL A   1      10.397  27.572  -3.774  1.00  0.00    +0.000 H 
ATOM    133  H31 UNL A   1       8.333  30.968  -2.585  1.00  0.00    +0.000 H 
ATOM    134  H32 UNL A   1       8.716  32.661   0.096  1.00  0.00    +0.000 H 
ATOM    135  H33 UNL A   1       6.800  33.216  -1.544  1.00  0.00    +0.000 H 
ATOM    136  H34 UNL A   1       3.622  28.789  -1.206  1.00  0.00    +0.000 H 
ATOM    137  H35 UNL A   1       5.874  27.533  -1.142  1.00  0.00    +0.000 H 
ATOM     38  C28 UNL A   1       7.641  28.355  -3.276  1.00  0.00    +0.000 C 
ATOM     39  C29 UNL A   1       6.338  28.936  -2.865  1.00  0.00    +0.000 C 
ATOM     40  N5  UNL A   1       5.687  29.880  -3.460  1.00  0.00    +0.000 N 
ATOM     41  C30 UNL A   1       4.563  30.123  -2.679  1.00  0.00    +0.000 C 
ATOM     42  C31 UNL A   1       3.971  31.350  -2.680  1.00  0.00    +0.000 C 
ATOM     54  C38 UNL A   1       4.408  32.130  -3.814  1.00  0.00    +0.000 C 
ATOM     55  C39 UNL A   1       4.360  31.951  -5.183  1.00  0.00    +0.000 C 
ATOM     56  C40 UNL A   1       5.614  32.435  -5.660  1.00  0.00    +0.000 C 
ATOM     57  C41 UNL A   1       6.312  32.963  -4.574  1.00  0.00    +0.000 C 
ATOM     58  N6  UNL A   1       5.359  33.098  -3.597  1.00  0.00    +0.000 N 
ATOM     59  C42 UNL A   1       7.705  33.275  -4.370  1.00  0.00    +0.000 C 
ATOM     71  C49 UNL A   1       8.315  33.317  -3.149  1.00  0.00    +0.000 C 
ATOM     72  N7  UNL A   1       9.692  33.184  -3.033  1.00  0.00    +0.000 N 
ATOM     73  C50 UNL A   1       9.870  32.649  -1.853  1.00  0.00    +0.000 C 
ATOM     74  C51 UNL A   1      10.845  31.553  -1.604  1.00  0.00    +0.000 C 
ATOM     86  C58 UNL A   1      10.383  30.469  -2.277  1.00  0.00    +0.000 C 
ATOM     87  C59 UNL A   1      11.064  29.269  -2.701  1.00  0.00    +0.000 C 
ATOM     88  C60 UNL A   1      10.168  28.453  -3.287  1.00  0.00    +0.000 C 
ATOM     89  C61 UNL A   1       8.818  29.004  -3.131  1.00  0.00    +0.000 C 
ATOM     90  N8  UNL A   1       9.031  30.278  -2.654  1.00  0.00    +0.000 N 
ATOM     91  C62 UNL A   1       8.754  32.784  -0.928  1.00  0.00    +0.000 C 
ATOM     92  C63 UNL A   1       7.795  33.114  -1.798  1.00  0.00    +0.000 C 
ATOM     93  C64 UNL A   1       4.458  29.012  -1.770  1.00  0.00    +0.000 C 
ATOM     94  C65 UNL A   1       5.593  28.309  -1.761  1.00  0.00    +0.000 C 
ATOM    128  H26 UNL A   1       3.587  31.554  -5.740  1.00  0.00    +0.000 H 
ENDROOT
BRANCH   38   37
ATOM     34  C24 UNL A   1       7.664  24.322  -4.449  1.00  0.00    +0.000 C 
ATOM     35  C25 UNL A   1       8.158  24.637  -3.179  1.00  0.00    +0.000 C 
ATOM     36  C26 UNL A   1       8.090  25.956  -2.740  1.00  0.00    +0.000 C 
ATOM     37  C27 UNL A   1       7.594  26.936  -3.610  1.00  0.00    +0.000 C 
ATOM    138  H36 UNL A   1       6.879  27.346  -5.552  1.00  0.00    +0.000 H 
ATOM    139  H37 UNL A   1       6.527  25.014  -6.084  1.00  0.00    +0.000 H 
ATOM    127  H25 UNL A   1       8.400  26.208  -1.789  1.00  0.00    +0.000 H 
ATOM    126  H24 UNL A   1       8.566  23.904  -2.577  1.00  0.00    +0.000 H 
ATOM     95  C66 UNL A   1       7.142  26.606  -4.883  1.00  0.00    +0.000 C 
ATOM     96  C67 UNL A   1       7.049  25.289  -5.237  1.00  0.00    +0.000 C 
BRANCH   34   32
ATOM     33  O4  UNL A   1       6.914  22.145  -4.887  1.00  0.00    +0.000 O 
ATOM     32  C23 UNL A   1       7.809  22.973  -5.016  1.00  0.00    +0.000 C 
BRANCH   32   31
ATOM    125  H23 UNL A   1       9.187  21.711  -5.783  1.00  0.00    +0.000 H 
ATOM     31  N4  UNL A   1       8.970  22.668  -5.697  1.00  0.00    +0.000 N 
BRANCH   31   30
ATOM    123  H21 UNL A   1      10.158  23.269  -7.290  1.00  0.00    +0.000 H 
ATOM    124  H22 UNL A   1       9.454  24.573  -6.339  1.00  0.00    +0.000 H 
ATOM     30  C22 UNL A   1       9.913  23.607  -6.304  1.00  0.00    +0.000 C 
BRANCH   30   29
ATOM    121  H19 UNL A   1      11.982  24.037  -6.133  1.00  0.00    +0.000 H 
ATOM    122  H20 UNL A   1      11.010  24.415  -4.700  1.00  0.00    +0.000 H 
ATOM     29  C21 UNL A   1      11.191  23.715  -5.488  1.00  0.00    +0.000 C 
BRANCH   29   28
ATOM     28  C20 UNL A   1      11.599  22.385  -4.838  1.00  0.00    +0.000 C 
ATOM    119  H17 UNL A   1      10.844  21.662  -5.067  1.00  0.00    +0.000 H 
ATOM    120  H18 UNL A   1      12.562  22.147  -5.238  1.00  0.00    +0.000 H 
BRANCH   28   27
ATOM     27  C19 UNL A   1      11.773  22.416  -3.310  1.00  0.00    +0.000 C 
ATOM    117  H15 UNL A   1      11.494  23.390  -2.964  1.00  0.00    +0.000 H 
ATOM    118  H16 UNL A   1      11.154  21.635  -2.921  1.00  0.00    +0.000 H 
BRANCH   27   26
ATOM     26  C18 UNL A   1      13.196  22.125  -2.816  1.00  0.00    +0.000 C 
ATOM    115  H13 UNL A   1      13.204  22.176  -1.746  1.00  0.00    +0.000 H 
ATOM    116  H14 UNL A   1      13.468  21.152  -3.166  1.00  0.00    +0.000 H 
BRANCH   26   25
ATOM     25  C17 UNL A   1      14.224  23.119  -3.362  1.00  0.00    +0.000 C 
ATOM    114  H12 UNL A   1      13.925  23.436  -4.340  1.00  0.00    +0.000 H 
ATOM    113  H11 UNL A   1      15.182  22.646  -3.415  1.00  0.00    +0.000 H 
BRANCH   25   24
ATOM    112  H10 UNL A   1      14.884  24.135  -1.706  1.00  0.00    +0.000 H 
ATOM     24  N3  UNL A   1      14.303  24.271  -2.489  1.00  0.00    +0.000 N 
BRANCH   24   22
ATOM     22  C16 UNL A   1      13.730  25.515  -2.538  1.00  0.00    +0.000 C 
ATOM     23  O3  UNL A   1      14.100  26.275  -3.433  1.00  0.00    +0.000 O 
BRANCH   22   21
ATOM     97  C68 UNL A   1      11.488  25.491  -1.302  1.00  0.00    +0.000 C 
ATOM     98  C69 UNL A   1      10.735  25.872  -0.190  1.00  0.00    +0.000 C 
ATOM    140  H38 UNL A   1      11.094  24.817  -1.978  1.00  0.00    +0.000 H 
ATOM    141  H39 UNL A   1       9.841  25.401   0.020  1.00  0.00    +0.000 H 
ATOM    110  H8  UNL A   1      12.712  28.352   0.902  1.00  0.00    +0.000 H 
ATOM    111  H9  UNL A   1      14.121  27.506  -0.882  1.00  0.00    +0.000 H 
ATOM     18  C12 UNL A   1      11.203  26.895   0.634  1.00  0.00    +0.000 C 
ATOM     19  C13 UNL A   1      12.410  27.537   0.346  1.00  0.00    +0.000 C 
ATOM     20  C14 UNL A   1      13.204  27.069  -0.702  1.00  0.00    +0.000 C 
ATOM     21  C15 UNL A   1      12.769  26.011  -1.514  1.00  0.00    +0.000 C 
BRANCH   18   17
ATOM     99  N9  UNL A   1      10.936  27.252   2.994  1.00  0.00    +0.000 N 
ATOM    100  N10 UNL A   1      10.037  27.767   3.812  1.00  0.00    +0.000 N 
ATOM    109  H7  UNL A   1       8.498  27.884   0.973  1.00  0.00    +0.000 H 
ATOM     15  C10 UNL A   1       8.921  28.102   3.090  1.00  0.00    +0.000 C 
ATOM     16  C11 UNL A   1       9.150  27.786   1.767  1.00  0.00    +0.000 C 
ATOM     17  N2  UNL A   1      10.442  27.310   1.743  1.00  0.00    +0.000 N 
BRANCH   15   14
ATOM    107  H5  UNL A   1       7.257  27.772   4.307  1.00  0.00    +0.000 H 
ATOM    108  H6  UNL A   1       8.019  29.393   4.420  1.00  0.00    +0.000 H 
ATOM     14  C9  UNL A   1       7.694  28.597   3.783  1.00  0.00    +0.000 C 
BRANCH   14   13
ATOM     13  O2  UNL A   1       6.682  29.164   2.931  1.00  0.00    +0.000 O 
BRANCH   13   12
ATOM    101  C70 UNL A   1       4.941  27.718   3.890  1.00  0.00    +0.000 C 
ATOM    102  C71 UNL A   1       3.585  27.386   3.915  1.00  0.00    +0.000 C 
ATOM      9  C5  UNL A   1       2.718  27.884   2.942  1.00  0.00    +0.000 C 
ATOM     10  C6  UNL A   1       3.234  28.661   1.903  1.00  0.00    +0.000 C 
ATOM    105  H3  UNL A   1       2.621  28.967   1.132  1.00  0.00    +0.000 H 
ATOM     11  C7  UNL A   1       4.586  29.025   1.908  1.00  0.00    +0.000 C 
ATOM    106  H4  UNL A   1       4.962  29.607   1.144  1.00  0.00    +0.000 H 
ATOM     12  C8  UNL A   1       5.432  28.607   2.939  1.00  0.00    +0.000 C 
ATOM    143  H41 UNL A   1       3.223  26.768   4.657  1.00  0.00    +0.000 H 
ATOM    142  H40 UNL A   1       5.583  27.300   4.582  1.00  0.00    +0.000 H 
BRANCH    9    8
ATOM    104  H2  UNL A   1       1.002  26.695   3.445  1.00  0.00    +0.000 H 
ATOM      8  C4  UNL A   1       1.285  27.597   3.032  1.00  0.00    +0.000 C 
BRANCH    8    7
ATOM      1  O1  UNL A   1      -0.186  27.316   0.540  1.00  0.00    +0.000 O 
ATOM      2  C1  UNL A   1      -0.401  28.209   1.327  1.00  0.00    +0.000 C 
ATOM      3  N1  UNL A   1      -1.359  29.178   1.173  1.00  0.00    +0.000 N 
ATOM      4  C2  UNL A   1      -1.487  30.118   2.148  1.00  0.00    +0.000 C 
ATOM      5  S1  UNL A   1      -2.596  31.347   2.094  1.00  0.00    +0.000 S 
ATOM      6  S2  UNL A   1      -0.322  29.819   3.416  1.00  0.00    +0.000 S 
ATOM      7  C3  UNL A   1       0.314  28.422   2.617  1.00  0.00    +0.000 C 
ATOM    103  H1  UNL A   1      -1.939  29.193   0.378  1.00  0.00    +0.000 H 
ENDBRANCH    8    7
ENDBRANCH    9    8
ENDBRANCH   13   12
ENDBRANCH   14   13
ENDBRANCH   15   14
ENDBRANCH   18   17
ENDBRANCH   22   21
ENDBRANCH   24   22
ENDBRANCH   25   24
ENDBRANCH   26   25
ENDBRANCH   27   26
ENDBRANCH   28   27
ENDBRANCH   29   28
ENDBRANCH   30   29
ENDBRANCH   31   30
ENDBRANCH   32   31
ENDBRANCH   34   32
ENDBRANCH   38   37
BRANCH   42   43
ATOM     43  C32 UNL A   1       3.322  31.994  -1.479  1.00  0.00    +0.000 C 
ATOM     44  C33 UNL A   1       2.057  32.598  -1.635  1.00  0.00    +0.000 C 
ATOM     45  F1  UNL A   1       1.317  32.362  -2.730  1.00  0.00    +0.000 F 
ATOM     46  C34 UNL A   1       1.569  33.537  -0.723  1.00  0.00    +0.000 C 
ATOM     47  F2  UNL A   1       0.427  34.188  -0.986  1.00  0.00    +0.000 F 
ATOM     48  C35 UNL A   1       2.292  33.855   0.411  1.00  0.00    +0.000 C 
ATOM     49  F3  UNL A   1       1.861  34.803   1.251  1.00  0.00    +0.000 F 
ATOM     50  C36 UNL A   1       3.493  33.219   0.644  1.00  0.00    +0.000 C 
ATOM     51  F4  UNL A   1       4.216  33.523   1.730  1.00  0.00    +0.000 F 
ATOM     52  C37 UNL A   1       4.008  32.323  -0.290  1.00  0.00    +0.000 C 
ATOM     53  F5  UNL A   1       5.246  31.887  -0.032  1.00  0.00    +0.000 F 
ENDBRANCH   42   43
BRANCH   59   60
ATOM     65  C46 UNL A   1       9.932  33.492  -8.062  1.00  0.00    +0.000 C 
ATOM     66  F8  UNL A   1      10.560  33.573  -9.245  1.00  0.00    +0.000 F 
ATOM     67  C47 UNL A   1       9.341  34.618  -7.511  1.00  0.00    +0.000 C 
ATOM     68  F9  UNL A   1       9.376  35.783  -8.171  1.00  0.00    +0.000 F 
ATOM     69  C48 UNL A   1       8.682  34.537  -6.288  1.00  0.00    +0.000 C 
ATOM     70  F10 UNL A   1       8.098  35.642  -5.797  1.00  0.00    +0.000 F 
ATOM     60  C43 UNL A   1       8.572  33.322  -5.599  1.00  0.00    +0.000 C 
ATOM     61  C44 UNL A   1       9.149  32.189  -6.197  1.00  0.00    +0.000 C 
ATOM     62  F6  UNL A   1       8.994  30.973  -5.658  1.00  0.00    +0.000 F 
ATOM     63  C45 UNL A   1       9.845  32.278  -7.403  1.00  0.00    +0.000 C 
ATOM     64  F7  UNL A   1      10.394  31.183  -7.945  1.00  0.00    +0.000 F 
ENDBRANCH   59   60
BRANCH   74   75
ATOM     75  C52 UNL A   1      11.895  31.619  -0.558  1.00  0.00    +0.000 C 
ATOM     76  C53 UNL A   1      13.030  32.431  -0.721  1.00  0.00    +0.000 C 
ATOM     77  F11 UNL A   1      13.296  32.988  -1.911  1.00  0.00    +0.000 F 
ATOM     78  C54 UNL A   1      13.873  32.744   0.352  1.00  0.00    +0.000 C 
ATOM     79  F12 UNL A   1      14.906  33.578   0.170  1.00  0.00    +0.000 F 
ATOM     80  C55 UNL A   1      13.609  32.247   1.618  1.00  0.00    +0.000 C 
ATOM     81  F13 UNL A   1      14.375  32.603   2.660  1.00  0.00    +0.000 F 
ATOM     82  C56 UNL A   1      12.522  31.417   1.806  1.00  0.00    +0.000 C 
ATOM     83  F14 UNL A   1      12.235  30.955   3.032  1.00  0.00    +0.000 F 
ATOM     84  C57 UNL A   1      11.678  31.110   0.739  1.00  0.00    +0.000 C 
ATOM     85  F15 UNL A   1      10.590  30.381   1.021  1.00  0.00    +0.000 F 
ENDBRANCH   74   75
TORSDOF 21
ENDMDL
MODEL 6
REMARK VINA RESULT:      -8.9     41.877     47.260
ROOT
ATOM    129  H27 UNL A   1      14.401  31.080  -2.467  1.00  0.00    +0.000 H 
ATOM    130  H28 UNL A   1      11.750  32.863  -4.949  1.00  0.00    +0.000 H 
ATOM    131  H29 UNL A   1       7.300  28.831   0.629  1.00  0.00    +0.000 H 
ATOM    132  H30 UNL A   1       8.943  27.054  -0.160  1.00  0.00    +0.000 H 
ATOM    133  H31 UNL A   1       9.535  30.388  -2.555  1.00  0.00    +0.000 H 
ATOM    134  H32 UNL A   1       7.342  32.438  -3.644  1.00  0.00    +0.000 H 
ATOM    135  H33 UNL A   1       9.800  32.614  -4.416  1.00  0.00    +0.000 H 
ATOM    136  H34 UNL A   1      10.480  28.014  -7.279  1.00  0.00    +0.000 H 
ATOM    137  H35 UNL A   1       9.066  26.972  -5.390  1.00  0.00    +0.000 H 
ATOM     38  C28 UNL A   1      10.073  27.659  -2.770  1.00  0.00    +0.000 C 
ATOM     39  C29 UNL A   1      10.491  28.176  -4.097  1.00  0.00    +0.000 C 
ATOM     40  N5  UNL A   1      11.474  28.977  -4.343  1.00  0.00    +0.000 N 
ATOM     41  C30 UNL A   1      11.437  29.222  -5.711  1.00  0.00    +0.000 C 
ATOM     42  C31 UNL A   1      11.934  30.384  -6.220  1.00  0.00    +0.000 C 
ATOM     54  C38 UNL A   1      12.781  31.046  -5.256  1.00  0.00    +0.000 C 
ATOM     55  C39 UNL A   1      13.931  30.689  -4.577  1.00  0.00    +0.000 C 
ATOM     56  C40 UNL A   1      13.757  31.212  -3.262  1.00  0.00    +0.000 C 
ATOM     57  C41 UNL A   1      12.563  31.933  -3.240  1.00  0.00    +0.000 C 
ATOM     58  N6  UNL A   1      12.256  32.111  -4.565  1.00  0.00    +0.000 N 
ATOM     59  C42 UNL A   1      11.718  32.385  -2.163  1.00  0.00    +0.000 C 
ATOM     71  C49 UNL A   1      10.381  32.635  -2.285  1.00  0.00    +0.000 C 
ATOM     72  N7  UNL A   1       9.549  32.635  -1.174  1.00  0.00    +0.000 N 
ATOM     73  C50 UNL A   1       8.382  32.274  -1.639  1.00  0.00    +0.000 C 
ATOM     74  C51 UNL A   1       7.498  31.305  -0.935  1.00  0.00    +0.000 C 
ATOM     86  C58 UNL A   1       8.137  30.108  -0.970  1.00  0.00    +0.000 C 
ATOM     87  C59 UNL A   1       7.956  28.925  -0.162  1.00  0.00    +0.000 C 
ATOM     88  C60 UNL A   1       8.788  27.968  -0.614  1.00  0.00    +0.000 C 
ATOM     89  C61 UNL A   1       9.440  28.418  -1.847  1.00  0.00    +0.000 C 
ATOM     90  N8  UNL A   1       9.125  29.757  -1.922  1.00  0.00    +0.000 N 
ATOM     91  C62 UNL A   1       8.203  32.431  -3.074  1.00  0.00    +0.000 C 
ATOM     92  C63 UNL A   1       9.482  32.565  -3.436  1.00  0.00    +0.000 C 
ATOM     93  C64 UNL A   1      10.556  28.233  -6.273  1.00  0.00    +0.000 C 
ATOM     94  C65 UNL A   1       9.852  27.636  -5.308  1.00  0.00    +0.000 C 
ATOM    128  H26 UNL A   1      14.738  30.160  -4.942  1.00  0.00    +0.000 H 
ENDROOT
BRANCH   38   37
ATOM     34  C24 UNL A   1      10.578  23.518  -2.284  1.00  0.00    +0.000 C 
ATOM     35  C25 UNL A   1       9.592  24.151  -1.519  1.00  0.00    +0.000 C 
ATOM     36  C26 UNL A   1       9.356  25.508  -1.719  1.00  0.00    +0.000 C 
ATOM     37  C27 UNL A   1      10.160  26.210  -2.628  1.00  0.00    +0.000 C 
ATOM    138  H36 UNL A   1      11.812  26.111  -3.936  1.00  0.00    +0.000 H 
ATOM    139  H37 UNL A   1      11.851  23.694  -3.955  1.00  0.00    +0.000 H 
ATOM    127  H25 UNL A   1       8.601  25.990  -1.206  1.00  0.00    +0.000 H 
ATOM    126  H24 UNL A   1       9.049  23.621  -0.819  1.00  0.00    +0.000 H 
ATOM     95  C66 UNL A   1      11.158  25.567  -3.351  1.00  0.00    +0.000 C 
ATOM     96  C67 UNL A   1      11.265  24.207  -3.278  1.00  0.00    +0.000 C 
BRANCH   34   32
ATOM     33  O4  UNL A   1      10.236  21.389  -1.367  1.00  0.00    +0.000 O 
ATOM     32  C23 UNL A   1      10.954  22.116  -2.042  1.00  0.00    +0.000 C 
BRANCH   32   31
ATOM    125  H23 UNL A   1      12.962  21.977  -2.199  1.00  0.00    +0.000 H 
ATOM     31  N4  UNL A   1      12.126  21.645  -2.598  1.00  0.00    +0.000 N 
BRANCH   31   30
ATOM    123  H21 UNL A   1      11.326  20.215  -3.872  1.00  0.00    +0.000 H 
ATOM    124  H22 UNL A   1      12.551  21.260  -4.584  1.00  0.00    +0.000 H 
ATOM     30  C22 UNL A   1      12.262  20.709  -3.714  1.00  0.00    +0.000 C 
BRANCH   30   29
ATOM    121  H19 UNL A   1      12.983  19.021  -2.652  1.00  0.00    +0.000 H 
ATOM    122  H20 UNL A   1      13.502  19.128  -4.343  1.00  0.00    +0.000 H 
ATOM     29  C21 UNL A   1      13.330  19.664  -3.433  1.00  0.00    +0.000 C 
BRANCH   29   28
ATOM     28  C20 UNL A   1      14.670  20.280  -3.003  1.00  0.00    +0.000 C 
ATOM    119  H17 UNL A   1      14.478  20.950  -2.191  1.00  0.00    +0.000 H 
ATOM    120  H18 UNL A   1      15.301  19.456  -2.744  1.00  0.00    +0.000 H 
BRANCH   28   27
ATOM     27  C19 UNL A   1      15.424  21.061  -4.092  1.00  0.00    +0.000 C 
ATOM    117  H15 UNL A   1      16.436  20.711  -4.111  1.00  0.00    +0.000 H 
ATOM    118  H16 UNL A   1      14.897  20.885  -5.006  1.00  0.00    +0.000 H 
BRANCH   27   26
ATOM     26  C18 UNL A   1      15.450  22.583  -3.895  1.00  0.00    +0.000 C 
ATOM    115  H13 UNL A   1      16.181  23.001  -4.556  1.00  0.00    +0.000 H 
ATOM    116  H14 UNL A   1      14.470  22.953  -4.107  1.00  0.00    +0.000 H 
BRANCH   26   25
ATOM     25  C17 UNL A   1      15.799  22.985  -2.460  1.00  0.00    +0.000 C 
ATOM    114  H12 UNL A   1      16.656  23.625  -2.470  1.00  0.00    +0.000 H 
ATOM    113  H11 UNL A   1      16.012  22.106  -1.887  1.00  0.00    +0.000 H 
BRANCH   25   24
ATOM    112  H10 UNL A   1      13.982  23.094  -1.512  1.00  0.00    +0.000 H 
ATOM     24  N3  UNL A   1      14.683  23.689  -1.864  1.00  0.00    +0.000 N 
BRANCH   24   22
ATOM     22  C16 UNL A   1      14.409  25.021  -1.694  1.00  0.00    +0.000 C 
ATOM     23  O3  UNL A   1      14.999  25.818  -2.423  1.00  0.00    +0.000 O 
BRANCH   22   21
ATOM     97  C68 UNL A   1      13.182  26.884  -0.439  1.00  0.00    +0.000 C 
ATOM     98  C69 UNL A   1      12.183  27.259   0.461  1.00  0.00    +0.000 C 
ATOM    140  H38 UNL A   1      13.677  27.610  -0.981  1.00  0.00    +0.000 H 
ATOM    141  H39 UNL A   1      11.861  28.238   0.505  1.00  0.00    +0.000 H 
ATOM    110  H8  UNL A   1      11.720  24.278   1.931  1.00  0.00    +0.000 H 
ATOM    111  H9  UNL A   1      13.269  23.603   0.190  1.00  0.00    +0.000 H 
ATOM     18  C12 UNL A   1      11.626  26.296   1.302  1.00  0.00    +0.000 C 
ATOM     19  C13 UNL A   1      12.068  24.971   1.249  1.00  0.00    +0.000 C 
ATOM     20  C14 UNL A   1      12.983  24.592   0.267  1.00  0.00    +0.000 C 
ATOM     21  C15 UNL A   1      13.521  25.539  -0.617  1.00  0.00    +0.000 C 
BRANCH   18   17
ATOM     99  N9  UNL A   1      10.679  27.847   2.873  1.00  0.00    +0.000 N 
ATOM    100  N10 UNL A   1       9.598  27.944   3.625  1.00  0.00    +0.000 N 
ATOM    109  H7  UNL A   1       9.293  24.969   2.400  1.00  0.00    +0.000 H 
ATOM     15  C10 UNL A   1       8.883  26.778   3.524  1.00  0.00    +0.000 C 
ATOM     16  C11 UNL A   1       9.550  25.933   2.664  1.00  0.00    +0.000 C 
ATOM     17  N2  UNL A   1      10.638  26.662   2.236  1.00  0.00    +0.000 N 
BRANCH   15   14
ATOM    107  H5  UNL A   1       7.740  27.210   5.218  1.00  0.00    +0.000 H 
ATOM    108  H6  UNL A   1       6.832  26.767   3.735  1.00  0.00    +0.000 H 
ATOM     14  C9  UNL A   1       7.670  26.562   4.369  1.00  0.00    +0.000 C 
BRANCH   14   13
ATOM     13  O2  UNL A   1       7.477  25.220   4.851  1.00  0.00    +0.000 O 
BRANCH   13   12
ATOM    101  C70 UNL A   1       7.929  24.640   7.197  1.00  0.00    +0.000 C 
ATOM    102  C71 UNL A   1       7.483  24.700   8.519  1.00  0.00    +0.000 C 
ATOM      9  C5  UNL A   1       6.176  25.094   8.807  1.00  0.00    +0.000 C 
ATOM     10  C6  UNL A   1       5.298  25.358   7.754  1.00  0.00    +0.000 C 
ATOM    105  H3  UNL A   1       4.306  25.569   7.949  1.00  0.00    +0.000 H 
ATOM     11  C7  UNL A   1       5.762  25.338   6.434  1.00  0.00    +0.000 C 
ATOM    106  H4  UNL A   1       5.113  25.543   5.660  1.00  0.00    +0.000 H 
ATOM     12  C8  UNL A   1       7.099  25.041   6.154  1.00  0.00    +0.000 C 
ATOM    143  H41 UNL A   1       8.125  24.452   9.287  1.00  0.00    +0.000 H 
ATOM    142  H40 UNL A   1       8.881  24.295   6.992  1.00  0.00    +0.000 H 
BRANCH    9    8
ATOM    104  H2  UNL A   1       4.887  24.751  10.490  1.00  0.00    +0.000 H 
ATOM      8  C4  UNL A   1       5.752  25.234  10.201  1.00  0.00    +0.000 C 
BRANCH    8    7
ATOM      1  O1  UNL A   1       5.556  28.116  10.533  1.00  0.00    +0.000 O 
ATOM      2  C1  UNL A   1       6.250  27.423  11.243  1.00  0.00    +0.000 C 
ATOM      3  N1  UNL A   1       7.005  27.881  12.292  1.00  0.00    +0.000 N 
ATOM      4  C2  UNL A   1       7.732  26.979  13.004  1.00  0.00    +0.000 C 
ATOM      5  S1  UNL A   1       8.690  27.389  14.291  1.00  0.00    +0.000 S 
ATOM      6  S2  UNL A   1       7.494  25.377  12.349  1.00  0.00    +0.000 S 
ATOM      7  C3  UNL A   1       6.406  25.945  11.130  1.00  0.00    +0.000 C 
ATOM    103  H1  UNL A   1       7.019  28.837  12.523  1.00  0.00    +0.000 H 
ENDBRANCH    8    7
ENDBRANCH    9    8
ENDBRANCH   13   12
ENDBRANCH   14   13
ENDBRANCH   15   14
ENDBRANCH   18   17
ENDBRANCH   22   21
ENDBRANCH   24   22
ENDBRANCH   25   24
ENDBRANCH   26   25
ENDBRANCH   27   26
ENDBRANCH   28   27
ENDBRANCH   29   28
ENDBRANCH   30   29
ENDBRANCH   31   30
ENDBRANCH   32   31
ENDBRANCH   34   32
ENDBRANCH   38   37
BRANCH   42   43
ATOM     43  C32 UNL A   1      11.359  31.121  -7.406  1.00  0.00    +0.000 C 
ATOM     44  C33 UNL A   1      12.195  31.385  -8.510  1.00  0.00    +0.000 C 
ATOM     45  F1  UNL A   1      13.374  30.756  -8.640  1.00  0.00    +0.000 F 
ATOM     46  C34 UNL A   1      11.890  32.372  -9.450  1.00  0.00    +0.000 C 
ATOM     47  F2  UNL A   1      12.781  32.683 -10.401  1.00  0.00    +0.000 F 
ATOM     48  C35 UNL A   1      10.707  33.083  -9.360  1.00  0.00    +0.000 C 
ATOM     49  F3  UNL A   1      10.443  34.076 -10.217  1.00  0.00    +0.000 F 
ATOM     50  C36 UNL A   1       9.821  32.792  -8.345  1.00  0.00    +0.000 C 
ATOM     51  F4  UNL A   1       8.677  33.480  -8.232  1.00  0.00    +0.000 F 
ATOM     52  C37 UNL A   1      10.148  31.846  -7.375  1.00  0.00    +0.000 C 
ATOM     53  F5  UNL A   1       9.285  31.758  -6.358  1.00  0.00    +0.000 F 
ENDBRANCH   42   43
BRANCH   59   60
ATOM     65  C46 UNL A   1      13.125  32.205   1.914  1.00  0.00    +0.000 C 
ATOM     66  F8  UNL A   1      13.493  32.139   3.202  1.00  0.00    +0.000 F 
ATOM     67  C47 UNL A   1      12.620  31.083   1.277  1.00  0.00    +0.000 C 
ATOM     68  F9  UNL A   1      12.475  29.937   1.956  1.00  0.00    +0.000 F 
ATOM     69  C48 UNL A   1      12.231  31.149  -0.057  1.00  0.00    +0.000 C 
ATOM     70  F10 UNL A   1      11.720  30.050  -0.634  1.00  0.00    +0.000 F 
ATOM     60  C43 UNL A   1      12.310  32.346  -0.780  1.00  0.00    +0.000 C 
ATOM     61  C44 UNL A   1      12.793  33.478  -0.100  1.00  0.00    +0.000 C 
ATOM     62  F6  UNL A   1      12.798  34.681  -0.686  1.00  0.00    +0.000 F 
ATOM     63  C45 UNL A   1      13.221  33.401   1.224  1.00  0.00    +0.000 C 
ATOM     64  F7  UNL A   1      13.687  34.494   1.845  1.00  0.00    +0.000 F 
ENDBRANCH   59   60
BRANCH   74   75
ATOM     75  C52 UNL A   1       6.084  31.594  -0.590  1.00  0.00    +0.000 C 
ATOM     76  C53 UNL A   1       5.752  32.275   0.593  1.00  0.00    +0.000 C 
ATOM     77  F11 UNL A   1       6.681  32.482   1.537  1.00  0.00    +0.000 F 
ATOM     78  C54 UNL A   1       4.478  32.820   0.796  1.00  0.00    +0.000 C 
ATOM     79  F12 UNL A   1       4.220  33.522   1.908  1.00  0.00    +0.000 F 
ATOM     80  C55 UNL A   1       3.498  32.691  -0.174  1.00  0.00    +0.000 C 
ATOM     81  F13 UNL A   1       2.300  33.271  -0.011  1.00  0.00    +0.000 F 
ATOM     82  C56 UNL A   1       3.780  31.996  -1.334  1.00  0.00    +0.000 C 
ATOM     83  F14 UNL A   1       2.852  31.891  -2.296  1.00  0.00    +0.000 F 
ATOM     84  C57 UNL A   1       5.052  31.459  -1.540  1.00  0.00    +0.000 C 
ATOM     85  F15 UNL A   1       5.278  30.887  -2.731  1.00  0.00    +0.000 F 
ENDBRANCH   74   75
TORSDOF 21
ENDMDL
MODEL 7
REMARK VINA RESULT:      -8.9     39.441     46.699
ROOT
ATOM    129  H27 UNL A   1      14.494  30.904  -2.127  1.00  0.00    +0.000 H 
ATOM    130  H28 UNL A   1      11.989  32.800  -4.677  1.00  0.00    +0.000 H 
ATOM    131  H29 UNL A   1       7.221  28.770   0.634  1.00  0.00    +0.000 H 
ATOM    132  H30 UNL A   1       8.852  26.969  -0.125  1.00  0.00    +0.000 H 
ATOM    133  H31 UNL A   1       9.621  30.334  -2.425  1.00  0.00    +0.000 H 
ATOM    134  H32 UNL A   1       7.523  32.459  -3.558  1.00  0.00    +0.000 H 
ATOM    135  H33 UNL A   1      10.014  32.589  -4.228  1.00  0.00    +0.000 H 
ATOM    136  H34 UNL A   1      10.700  28.031  -7.155  1.00  0.00    +0.000 H 
ATOM    137  H35 UNL A   1       9.185  26.987  -5.347  1.00  0.00    +0.000 H 
ATOM     38  C28 UNL A   1      10.101  27.597  -2.675  1.00  0.00    +0.000 C 
ATOM     39  C29 UNL A   1      10.585  28.129  -3.973  1.00  0.00    +0.000 C 
ATOM     40  N5  UNL A   1      11.596  28.911  -4.163  1.00  0.00    +0.000 N 
ATOM     41  C30 UNL A   1      11.621  29.184  -5.526  1.00  0.00    +0.000 C 
ATOM     42  C31 UNL A   1      12.165  30.343  -5.990  1.00  0.00    +0.000 C 
ATOM     54  C38 UNL A   1      12.988  30.964  -4.980  1.00  0.00    +0.000 C 
ATOM     55  C39 UNL A   1      14.101  30.566  -4.263  1.00  0.00    +0.000 C 
ATOM     56  C40 UNL A   1      13.886  31.067  -2.945  1.00  0.00    +0.000 C 
ATOM     57  C41 UNL A   1      12.710  31.817  -2.956  1.00  0.00    +0.000 C 
ATOM     58  N6  UNL A   1      12.461  32.028  -4.288  1.00  0.00    +0.000 N 
ATOM     59  C42 UNL A   1      11.832  32.268  -1.904  1.00  0.00    +0.000 C 
ATOM     71  C49 UNL A   1      10.508  32.554  -2.075  1.00  0.00    +0.000 C 
ATOM     72  N7  UNL A   1       9.632  32.552  -0.998  1.00  0.00    +0.000 N 
ATOM     73  C50 UNL A   1       8.477  32.229  -1.517  1.00  0.00    +0.000 C 
ATOM     74  C51 UNL A   1       7.542  31.269  -0.869  1.00  0.00    +0.000 C 
ATOM     86  C58 UNL A   1       8.153  30.058  -0.904  1.00  0.00    +0.000 C 
ATOM     87  C59 UNL A   1       7.911  28.864  -0.128  1.00  0.00    +0.000 C 
ATOM     88  C60 UNL A   1       8.737  27.895  -0.566  1.00  0.00    +0.000 C 
ATOM     89  C61 UNL A   1       9.450  28.353  -1.762  1.00  0.00    +0.000 C 
ATOM     90  N8  UNL A   1       9.170  29.701  -1.822  1.00  0.00    +0.000 N 
ATOM     91  C62 UNL A   1       8.359  32.419  -2.955  1.00  0.00    +0.000 C 
ATOM     92  C63 UNL A   1       9.656  32.528  -3.262  1.00  0.00    +0.000 C 
ATOM     93  C64 UNL A   1      10.740  28.228  -6.143  1.00  0.00    +0.000 C 
ATOM     94  C65 UNL A   1       9.983  27.629  -5.220  1.00  0.00    +0.000 C 
ATOM    128  H26 UNL A   1      14.909  30.024  -4.606  1.00  0.00    +0.000 H 
ENDROOT
BRANCH   38   37
ATOM     34  C24 UNL A   1      10.501  23.432  -2.313  1.00  0.00    +0.000 C 
ATOM     35  C25 UNL A   1       9.701  24.096  -1.377  1.00  0.00    +0.000 C 
ATOM     36  C26 UNL A   1       9.494  25.465  -1.522  1.00  0.00    +0.000 C 
ATOM     37  C27 UNL A   1      10.147  26.144  -2.559  1.00  0.00    +0.000 C 
ATOM    138  H36 UNL A   1      11.525  25.992  -4.149  1.00  0.00    +0.000 H 
ATOM    139  H37 UNL A   1      11.451  23.576  -4.189  1.00  0.00    +0.000 H 
ATOM    127  H25 UNL A   1       8.869  25.971  -0.876  1.00  0.00    +0.000 H 
ATOM    126  H24 UNL A   1       9.273  23.581  -0.591  1.00  0.00    +0.000 H 
ATOM     95  C66 UNL A   1      10.966  25.469  -3.457  1.00  0.00    +0.000 C 
ATOM     96  C67 UNL A   1      11.023  24.104  -3.413  1.00  0.00    +0.000 C 
BRANCH   34   32
ATOM     33  O4  UNL A   1      10.005  21.200  -1.798  1.00  0.00    +0.000 O 
ATOM     32  C23 UNL A   1      10.851  22.012  -2.152  1.00  0.00    +0.000 C 
BRANCH   32   31
ATOM    125  H23 UNL A   1      12.838  21.954  -1.797  1.00  0.00    +0.000 H 
ATOM     31  N4  UNL A   1      12.148  21.622  -2.416  1.00  0.00    +0.000 N 
BRANCH   31   30
ATOM    123  H21 UNL A   1      11.831  20.090  -3.779  1.00  0.00    +0.000 H 
ATOM    124  H22 UNL A   1      12.867  21.398  -4.341  1.00  0.00    +0.000 H 
ATOM     30  C22 UNL A   1      12.612  20.771  -3.513  1.00  0.00    +0.000 C 
BRANCH   30   29
ATOM    121  H19 UNL A   1      13.628  19.432  -2.221  1.00  0.00    +0.000 H 
ATOM    122  H20 UNL A   1      14.085  19.328  -3.931  1.00  0.00    +0.000 H 
ATOM     29  C21 UNL A   1      13.846  19.978  -3.115  1.00  0.00    +0.000 C 
BRANCH   29   28
ATOM     28  C20 UNL A   1      15.072  20.867  -2.860  1.00  0.00    +0.000 C 
ATOM    119  H17 UNL A   1      14.811  21.577  -2.103  1.00  0.00    +0.000 H 
ATOM    120  H18 UNL A   1      15.861  20.203  -2.579  1.00  0.00    +0.000 H 
BRANCH   28   27
ATOM     27  C19 UNL A   1      15.593  21.648  -4.079  1.00  0.00    +0.000 C 
ATOM    117  H15 UNL A   1      16.642  21.457  -4.171  1.00  0.00    +0.000 H 
ATOM    118  H16 UNL A   1      15.025  21.306  -4.919  1.00  0.00    +0.000 H 
BRANCH   27   26
ATOM     26  C18 UNL A   1      15.389  23.167  -4.009  1.00  0.00    +0.000 C 
ATOM    115  H13 UNL A   1      16.073  23.635  -4.686  1.00  0.00    +0.000 H 
ATOM    116  H14 UNL A   1      14.372  23.369  -4.273  1.00  0.00    +0.000 H 
BRANCH   26   25
ATOM     25  C17 UNL A   1      15.625  23.728  -2.605  1.00  0.00    +0.000 C 
ATOM    114  H12 UNL A   1      16.342  24.521  -2.657  1.00  0.00    +0.000 H 
ATOM    113  H11 UNL A   1      15.992  22.951  -1.969  1.00  0.00    +0.000 H 
BRANCH   25   24
ATOM    112  H10 UNL A   1      13.686  23.556  -1.954  1.00  0.00    +0.000 H 
ATOM     24  N3  UNL A   1      14.382  24.243  -2.069  1.00  0.00    +0.000 N 
BRANCH   24   22
ATOM     22  C16 UNL A   1      13.984  25.498  -1.688  1.00  0.00    +0.000 C 
ATOM     23  O3  UNL A   1      14.356  26.445  -2.382  1.00  0.00    +0.000 O 
BRANCH   22   21
ATOM     97  C68 UNL A   1      12.807  27.033  -0.011  1.00  0.00    +0.000 C 
ATOM     98  C69 UNL A   1      11.919  27.175   1.056  1.00  0.00    +0.000 C 
ATOM    140  H38 UNL A   1      13.166  27.874  -0.491  1.00  0.00    +0.000 H 
ATOM    141  H39 UNL A   1      11.533  28.102   1.293  1.00  0.00    +0.000 H 
ATOM    110  H8  UNL A   1      11.892  23.982   2.086  1.00  0.00    +0.000 H 
ATOM    111  H9  UNL A   1      13.229  23.719   0.079  1.00  0.00    +0.000 H 
ATOM     18  C12 UNL A   1      11.560  26.052   1.799  1.00  0.00    +0.000 C 
ATOM     19  C13 UNL A   1      12.088  24.797   1.483  1.00  0.00    +0.000 C 
ATOM     20  C14 UNL A   1      12.883  24.654   0.346  1.00  0.00    +0.000 C 
ATOM     21  C15 UNL A   1      13.218  25.767  -0.439  1.00  0.00    +0.000 C 
BRANCH   18   17
ATOM     99  N9  UNL A   1       9.506  26.817   2.782  1.00  0.00    +0.000 N 
ATOM    100  N10 UNL A   1       8.877  26.722   3.939  1.00  0.00    +0.000 N 
ATOM    109  H7  UNL A   1      11.699  25.289   4.593  1.00  0.00    +0.000 H 
ATOM     15  C10 UNL A   1       9.691  26.075   4.833  1.00  0.00    +0.000 C 
ATOM     16  C11 UNL A   1      10.868  25.751   4.192  1.00  0.00    +0.000 C 
ATOM     17  N2  UNL A   1      10.687  26.182   2.896  1.00  0.00    +0.000 N 
BRANCH   15   14
ATOM    107  H5  UNL A   1       9.803  26.681   6.829  1.00  0.00    +0.000 H 
ATOM    108  H6  UNL A   1       8.218  26.048   6.275  1.00  0.00    +0.000 H 
ATOM     14  C9  UNL A   1       9.282  25.936   6.263  1.00  0.00    +0.000 C 
BRANCH   14   13
ATOM     13  O2  UNL A   1       9.548  24.657   6.867  1.00  0.00    +0.000 O 
BRANCH   13   12
ATOM    101  C70 UNL A   1      11.783  25.254   7.699  1.00  0.00    +0.000 C 
ATOM    102  C71 UNL A   1      12.991  24.794   8.226  1.00  0.00    +0.000 C 
ATOM      9  C5  UNL A   1      13.296  23.433   8.213  1.00  0.00    +0.000 C 
ATOM     10  C6  UNL A   1      12.409  22.543   7.601  1.00  0.00    +0.000 C 
ATOM    105  H3  UNL A   1      12.659  21.546   7.509  1.00  0.00    +0.000 H 
ATOM     11  C7  UNL A   1      11.181  23.005   7.113  1.00  0.00    +0.000 C 
ATOM    106  H4  UNL A   1      10.526  22.343   6.671  1.00  0.00    +0.000 H 
ATOM     12  C8  UNL A   1      10.836  24.355   7.218  1.00  0.00    +0.000 C 
ATOM    143  H41 UNL A   1      13.663  25.466   8.629  1.00  0.00    +0.000 H 
ATOM    142  H40 UNL A   1      11.592  26.268   7.665  1.00  0.00    +0.000 H 
BRANCH    9    8
ATOM    104  H2  UNL A   1      14.754  23.322   9.786  1.00  0.00    +0.000 H 
ATOM      8  C4  UNL A   1      14.527  22.958   8.848  1.00  0.00    +0.000 C 
BRANCH    8    7
ATOM      1  O1  UNL A   1      16.064  20.978  10.322  1.00  0.00    +0.000 O 
ATOM      2  C1  UNL A   1      16.129  21.091   9.118  1.00  0.00    +0.000 C 
ATOM      3  N1  UNL A   1      16.898  20.308   8.296  1.00  0.00    +0.000 N 
ATOM      4  C2  UNL A   1      16.865  20.552   6.959  1.00  0.00    +0.000 C 
ATOM      5  S1  UNL A   1      17.743  19.690   5.850  1.00  0.00    +0.000 S 
ATOM      6  S2  UNL A   1      15.782  21.883   6.626  1.00  0.00    +0.000 S 
ATOM      7  C3  UNL A   1      15.381  22.084   8.296  1.00  0.00    +0.000 C 
ATOM    103  H1  UNL A   1      17.459  19.589   8.665  1.00  0.00    +0.000 H 
ENDBRANCH    8    7
ENDBRANCH    9    8
ENDBRANCH   13   12
ENDBRANCH   14   13
ENDBRANCH   15   14
ENDBRANCH   18   17
ENDBRANCH   22   21
ENDBRANCH   24   22
ENDBRANCH   25   24
ENDBRANCH   26   25
ENDBRANCH   27   26
ENDBRANCH   28   27
ENDBRANCH   29   28
ENDBRANCH   30   29
ENDBRANCH   31   30
ENDBRANCH   32   31
ENDBRANCH   34   32
ENDBRANCH   38   37
BRANCH   42   43
ATOM     43  C32 UNL A   1      11.657  31.116  -7.183  1.00  0.00    +0.000 C 
ATOM     44  C33 UNL A   1      10.301  31.504  -7.212  1.00  0.00    +0.000 C 
ATOM     45  F1  UNL A   1       9.551  31.450  -6.100  1.00  0.00    +0.000 F 
ATOM     46  C34 UNL A   1       9.658  31.855  -8.401  1.00  0.00    +0.000 C 
ATOM     47  F2  UNL A   1       8.337  32.080  -8.401  1.00  0.00    +0.000 F 
ATOM     48  C35 UNL A   1      10.360  31.900  -9.591  1.00  0.00    +0.000 C 
ATOM     49  F3  UNL A   1       9.733  32.169 -10.742  1.00  0.00    +0.000 F 
ATOM     50  C36 UNL A   1      11.709  31.615  -9.589  1.00  0.00    +0.000 C 
ATOM     51  F4  UNL A   1      12.404  31.638 -10.734  1.00  0.00    +0.000 F 
ATOM     52  C37 UNL A   1      12.341  31.211  -8.414  1.00  0.00    +0.000 C 
ATOM     53  F5  UNL A   1      13.609  30.812  -8.563  1.00  0.00    +0.000 F 
ENDBRANCH   42   43
BRANCH   59   60
ATOM     65  C46 UNL A   1      13.064  32.013   2.225  1.00  0.00    +0.000 C 
ATOM     66  F8  UNL A   1      13.376  31.935   3.527  1.00  0.00    +0.000 F 
ATOM     67  C47 UNL A   1      12.426  30.955   1.598  1.00  0.00    +0.000 C 
ATOM     68  F9  UNL A   1      12.098  29.862   2.299  1.00  0.00    +0.000 F 
ATOM     69  C48 UNL A   1      12.095  31.036   0.248  1.00  0.00    +0.000 C 
ATOM     70  F10 UNL A   1      11.453  30.003  -0.320  1.00  0.00    +0.000 F 
ATOM     60  C43 UNL A   1      12.367  32.188  -0.500  1.00  0.00    +0.000 C 
ATOM     61  C44 UNL A   1      12.983  33.260   0.168  1.00  0.00    +0.000 C 
ATOM     62  F6  UNL A   1      13.178  34.433  -0.446  1.00  0.00    +0.000 F 
ATOM     63  C45 UNL A   1      13.352  33.163   1.510  1.00  0.00    +0.000 C 
ATOM     64  F7  UNL A   1      13.947  34.198   2.120  1.00  0.00    +0.000 F 
ENDBRANCH   59   60
BRANCH   74   75
ATOM     75  C52 UNL A   1       6.123  31.586  -0.576  1.00  0.00    +0.000 C 
ATOM     76  C53 UNL A   1       5.083  30.778  -1.066  1.00  0.00    +0.000 C 
ATOM     77  F11 UNL A   1       5.337  29.836  -1.986  1.00  0.00    +0.000 F 
ATOM     78  C54 UNL A   1       3.779  30.872  -0.567  1.00  0.00    +0.000 C 
ATOM     79  F12 UNL A   1       2.830  30.036  -1.012  1.00  0.00    +0.000 F 
ATOM     80  C55 UNL A   1       3.474  31.784   0.430  1.00  0.00    +0.000 C 
ATOM     81  F13 UNL A   1       2.242  31.828   0.957  1.00  0.00    +0.000 F 
ATOM     82  C56 UNL A   1       4.464  32.619   0.909  1.00  0.00    +0.000 C 
ATOM     83  F14 UNL A   1       4.193  33.484   1.897  1.00  0.00    +0.000 F 
ATOM     84  C57 UNL A   1       5.767  32.521   0.417  1.00  0.00    +0.000 C 
ATOM     85  F15 UNL A   1       6.691  33.295   1.002  1.00  0.00    +0.000 F 
ENDBRANCH   74   75
TORSDOF 21
ENDMDL
MODEL 8
REMARK VINA RESULT:      -8.8     38.264     44.163
ROOT
ATOM    129  H27 UNL A   1      30.683  18.604 -10.437  1.00  0.00    +0.000 H 
ATOM    130  H28 UNL A   1      28.713  20.680  -7.577  1.00  0.00    +0.000 H 
ATOM    131  H29 UNL A   1      27.002  24.392 -14.682  1.00  0.00    +0.000 H 
ATOM    132  H30 UNL A   1      29.540  24.211 -14.748  1.00  0.00    +0.000 H 
ATOM    133  H31 UNL A   1      28.336  22.886 -11.006  1.00  0.00    +0.000 H 
ATOM    134  H32 UNL A   1      25.946  23.999  -9.205  1.00  0.00    +0.000 H 
ATOM    135  H33 UNL A   1      27.549  22.194  -8.288  1.00  0.00    +0.000 H 
ATOM    136  H34 UNL A   1      32.298  24.868  -7.970  1.00  0.00    +0.000 H 
ATOM    137  H35 UNL A   1      31.540  25.892 -10.214  1.00  0.00    +0.000 H 
ATOM     38  C28 UNL A   1      30.704  23.873 -12.104  1.00  0.00    +0.000 C 
ATOM     39  C29 UNL A   1      31.052  23.722 -10.669  1.00  0.00    +0.000 C 
ATOM     40  N5  UNL A   1      31.142  22.618 -10.004  1.00  0.00    +0.000 N 
ATOM     41  C30 UNL A   1      31.432  22.982  -8.693  1.00  0.00    +0.000 C 
ATOM     42  C31 UNL A   1      31.067  22.179  -7.656  1.00  0.00    +0.000 C 
ATOM     54  C38 UNL A   1      30.746  20.850  -8.123  1.00  0.00    +0.000 C 
ATOM     55  C39 UNL A   1      31.442  19.877  -8.814  1.00  0.00    +0.000 C 
ATOM     56  C40 UNL A   1      30.491  19.321  -9.720  1.00  0.00    +0.000 C 
ATOM     57  C41 UNL A   1      29.256  19.918  -9.467  1.00  0.00    +0.000 C 
ATOM     58  N6  UNL A   1      29.418  20.518  -8.244  1.00  0.00    +0.000 N 
ATOM     59  C42 UNL A   1      28.044  20.016 -10.243  1.00  0.00    +0.000 C 
ATOM     71  C49 UNL A   1      27.116  21.008 -10.101  1.00  0.00    +0.000 C 
ATOM     72  N7  UNL A   1      26.227  21.307 -11.124  1.00  0.00    +0.000 N 
ATOM     73  C50 UNL A   1      25.964  22.578 -10.968  1.00  0.00    +0.000 C 
ATOM     74  C51 UNL A   1      25.890  23.532 -12.107  1.00  0.00    +0.000 C 
ATOM     86  C58 UNL A   1      27.145  23.621 -12.614  1.00  0.00    +0.000 C 
ATOM     87  C59 UNL A   1      27.605  24.082 -13.903  1.00  0.00    +0.000 C 
ATOM     88  C60 UNL A   1      28.950  24.036 -13.919  1.00  0.00    +0.000 C 
ATOM     89  C61 UNL A   1      29.451  23.699 -12.583  1.00  0.00    +0.000 C 
ATOM     90  N8  UNL A   1      28.324  23.316 -11.891  1.00  0.00    +0.000 N 
ATOM     91  C62 UNL A   1      26.257  23.121  -9.650  1.00  0.00    +0.000 C 
ATOM     92  C63 UNL A   1      27.046  22.147  -9.188  1.00  0.00    +0.000 C 
ATOM     93  C64 UNL A   1      31.826  24.365  -8.738  1.00  0.00    +0.000 C 
ATOM     94  C65 UNL A   1      31.496  24.905  -9.914  1.00  0.00    +0.000 C 
ATOM    128  H26 UNL A   1      32.432  19.611  -8.700  1.00  0.00    +0.000 H 
ENDROOT
BRANCH   38   37
ATOM     34  C24 UNL A   1      33.778  25.755 -14.258  1.00  0.00    +0.000 C 
ATOM     35  C25 UNL A   1      33.882  24.378 -14.039  1.00  0.00    +0.000 C 
ATOM     36  C26 UNL A   1      32.838  23.721 -13.394  1.00  0.00    +0.000 C 
ATOM     37  C27 UNL A   1      31.752  24.470 -12.924  1.00  0.00    +0.000 C 
ATOM    138  H36 UNL A   1      30.938  26.401 -12.680  1.00  0.00    +0.000 H 
ATOM    139  H37 UNL A   1      32.484  27.419 -14.235  1.00  0.00    +0.000 H 
ATOM    127  H25 UNL A   1      32.865  22.697 -13.264  1.00  0.00    +0.000 H 
ATOM    126  H24 UNL A   1      34.718  23.857 -14.350  1.00  0.00    +0.000 H 
ATOM     95  C66 UNL A   1      31.687  25.845 -13.121  1.00  0.00    +0.000 C 
ATOM     96  C67 UNL A   1      32.627  26.452 -13.906  1.00  0.00    +0.000 C 
BRANCH   34   32
ATOM     33  O4  UNL A   1      34.923  26.778 -16.029  1.00  0.00    +0.000 O 
ATOM     32  C23 UNL A   1      34.893  26.527 -14.831  1.00  0.00    +0.000 C 
BRANCH   32   31
ATOM    125  H23 UNL A   1      36.704  26.405 -13.945  1.00  0.00    +0.000 H 
ATOM     31  N4  UNL A   1      35.893  26.962 -13.985  1.00  0.00    +0.000 N 
BRANCH   31   30
ATOM    123  H21 UNL A   1      36.067  29.017 -13.753  1.00  0.00    +0.000 H 
ATOM    124  H22 UNL A   1      34.925  28.229 -12.669  1.00  0.00    +0.000 H 
ATOM     30  C22 UNL A   1      35.882  28.158 -13.142  1.00  0.00    +0.000 C 
BRANCH   30   29
ATOM    121  H19 UNL A   1      37.751  28.736 -12.325  1.00  0.00    +0.000 H 
ATOM    122  H20 UNL A   1      36.486  28.372 -11.138  1.00  0.00    +0.000 H 
ATOM     29  C21 UNL A   1      36.946  28.083 -12.059  1.00  0.00    +0.000 C 
BRANCH   29   28
ATOM     28  C20 UNL A   1      37.506  26.665 -11.870  1.00  0.00    +0.000 C 
ATOM    119  H17 UNL A   1      36.928  26.000 -12.476  1.00  0.00    +0.000 H 
ATOM    120  H18 UNL A   1      38.537  26.720 -12.148  1.00  0.00    +0.000 H 
BRANCH   28   27
ATOM     27  C19 UNL A   1      37.487  26.129 -10.428  1.00  0.00    +0.000 C 
ATOM    117  H15 UNL A   1      37.729  26.937  -9.770  1.00  0.00    +0.000 H 
ATOM    118  H16 UNL A   1      36.505  25.733 -10.269  1.00  0.00    +0.000 H 
BRANCH   27   26
ATOM     26  C18 UNL A   1      38.466  24.981 -10.153  1.00  0.00    +0.000 C 
ATOM    115  H13 UNL A   1      38.715  24.985  -9.112  1.00  0.00    +0.000 H 
ATOM    116  H14 UNL A   1      37.984  24.069 -10.439  1.00  0.00    +0.000 H 
BRANCH   26   25
ATOM     25  C17 UNL A   1      39.756  25.099 -10.967  1.00  0.00    +0.000 C 
ATOM    114  H12 UNL A   1      39.638  25.861 -11.709  1.00  0.00    +0.000 H 
ATOM    113  H11 UNL A   1      39.964  24.163 -11.442  1.00  0.00    +0.000 H 
BRANCH   25   24
ATOM    112  H10 UNL A   1      41.168  26.377 -10.202  1.00  0.00    +0.000 H 
ATOM     24  N3  UNL A   1      40.856  25.450 -10.093  1.00  0.00    +0.000 N 
BRANCH   24   22
ATOM     22  C16 UNL A   1      41.548  24.746  -9.142  1.00  0.00    +0.000 C 
ATOM     23  O3  UNL A   1      42.235  25.389  -8.349  1.00  0.00    +0.000 O 
BRANCH   22   21
ATOM     97  C68 UNL A   1      40.635  22.457  -8.446  1.00  0.00    +0.000 C 
ATOM     98  C69 UNL A   1      40.624  21.073  -8.624  1.00  0.00    +0.000 C 
ATOM    140  H38 UNL A   1      39.936  22.897  -7.827  1.00  0.00    +0.000 H 
ATOM    141  H39 UNL A   1      39.857  20.504  -8.234  1.00  0.00    +0.000 H 
ATOM    110  H8  UNL A   1      43.516  20.783 -10.301  1.00  0.00    +0.000 H 
ATOM    111  H9  UNL A   1      43.382  23.203 -10.198  1.00  0.00    +0.000 H 
ATOM     18  C12 UNL A   1      41.661  20.468  -9.333  1.00  0.00    +0.000 C 
ATOM     19  C13 UNL A   1      42.704  21.238  -9.854  1.00  0.00    +0.000 C 
ATOM     20  C14 UNL A   1      42.641  22.629  -9.765  1.00  0.00    +0.000 C 
ATOM     21  C15 UNL A   1      41.582  23.257  -9.094  1.00  0.00    +0.000 C 
BRANCH   18   17
ATOM     99  N9  UNL A   1      40.552  18.376  -9.737  1.00  0.00    +0.000 N 
ATOM    100  N10 UNL A   1      40.881  17.110  -9.916  1.00  0.00    +0.000 N 
ATOM    109  H7  UNL A   1      43.734  18.445  -9.194  1.00  0.00    +0.000 H 
ATOM     15  C10 UNL A   1      42.232  16.973  -9.724  1.00  0.00    +0.000 C 
ATOM     16  C11 UNL A   1      42.756  18.212  -9.423  1.00  0.00    +0.000 C 
ATOM     17  N2  UNL A   1      41.680  19.070  -9.498  1.00  0.00    +0.000 N 
BRANCH   15   14
ATOM    107  H5  UNL A   1      42.754  15.190  -8.770  1.00  0.00    +0.000 H 
ATOM    108  H6  UNL A   1      42.362  15.075 -10.518  1.00  0.00    +0.000 H 
ATOM     14  C9  UNL A   1      42.864  15.619  -9.745  1.00  0.00    +0.000 C 
BRANCH   14   13
ATOM     13  O2  UNL A   1      44.261  15.588 -10.087  1.00  0.00    +0.000 O 
BRANCH   13   12
ATOM    101  C70 UNL A   1      46.228  14.147  -9.775  1.00  0.00    +0.000 C 
ATOM    102  C71 UNL A   1      46.708  12.842  -9.641  1.00  0.00    +0.000 C 
ATOM      9  C5  UNL A   1      45.882  11.753  -9.923  1.00  0.00    +0.000 C 
ATOM     10  C6  UNL A   1      44.593  11.984 -10.408  1.00  0.00    +0.000 C 
ATOM    105  H3  UNL A   1      44.000  11.191 -10.700  1.00  0.00    +0.000 H 
ATOM     11  C7  UNL A   1      44.104  13.293 -10.499  1.00  0.00    +0.000 C 
ATOM    106  H4  UNL A   1      43.148  13.459 -10.848  1.00  0.00    +0.000 H 
ATOM     12  C8  UNL A   1      44.900  14.378 -10.120  1.00  0.00    +0.000 C 
ATOM    143  H41 UNL A   1      47.679  12.683  -9.332  1.00  0.00    +0.000 H 
ATOM    142  H40 UNL A   1      46.864  14.945  -9.616  1.00  0.00    +0.000 H 
BRANCH    9    8
ATOM    104  H2  UNL A   1      47.145  10.056 -10.290  1.00  0.00    +0.000 H 
ATOM      8  C4  UNL A   1      46.373  10.392  -9.695  1.00  0.00    +0.000 C 
BRANCH    8    7
ATOM      1  O1  UNL A   1      47.103  10.426  -6.881  1.00  0.00    +0.000 O 
ATOM      2  C1  UNL A   1      46.308   9.637  -7.340  1.00  0.00    +0.000 C 
ATOM      3  N1  UNL A   1      45.638   8.686  -6.614  1.00  0.00    +0.000 N 
ATOM      4  C2  UNL A   1      44.768   7.870  -7.269  1.00  0.00    +0.000 C 
ATOM      5  S1  UNL A   1      43.895   6.677  -6.523  1.00  0.00    +0.000 S 
ATOM      6  S2  UNL A   1      44.738   8.279  -8.968  1.00  0.00    +0.000 S 
ATOM      7  C3  UNL A   1      45.890   9.554  -8.768  1.00  0.00    +0.000 C 
ATOM    103  H1  UNL A   1      45.782   8.597  -5.645  1.00  0.00    +0.000 H 
ENDBRANCH    8    7
ENDBRANCH    9    8
ENDBRANCH   13   12
ENDBRANCH   14   13
ENDBRANCH   15   14
ENDBRANCH   18   17
ENDBRANCH   22   21
ENDBRANCH   24   22
ENDBRANCH   25   24
ENDBRANCH   26   25
ENDBRANCH   27   26
ENDBRANCH   28   27
ENDBRANCH   29   28
ENDBRANCH   30   29
ENDBRANCH   31   30
ENDBRANCH   32   31
ENDBRANCH   34   32
ENDBRANCH   38   37
BRANCH   42   43
ATOM     43  C32 UNL A   1      30.618  22.672  -6.301  1.00  0.00    +0.000 C 
ATOM     44  C33 UNL A   1      31.462  22.464  -5.190  1.00  0.00    +0.000 C 
ATOM     45  F1  UNL A   1      32.745  22.106  -5.364  1.00  0.00    +0.000 F 
ATOM     46  C34 UNL A   1      30.985  22.516  -3.879  1.00  0.00    +0.000 C 
ATOM     47  F2  UNL A   1      31.790  22.174  -2.863  1.00  0.00    +0.000 F 
ATOM     48  C35 UNL A   1      29.666  22.846  -3.625  1.00  0.00    +0.000 C 
ATOM     49  F3  UNL A   1      29.188  22.830  -2.376  1.00  0.00    +0.000 F 
ATOM     50  C36 UNL A   1      28.832  23.144  -4.682  1.00  0.00    +0.000 C 
ATOM     51  F4  UNL A   1      27.547  23.451  -4.458  1.00  0.00    +0.000 F 
ATOM     52  C37 UNL A   1      29.291  23.039  -5.993  1.00  0.00    +0.000 C 
ATOM     53  F5  UNL A   1      28.354  23.200  -6.934  1.00  0.00    +0.000 F 
ENDBRANCH   42   43
BRANCH   59   60
ATOM     65  C46 UNL A   1      27.591  17.633 -13.814  1.00  0.00    +0.000 C 
ATOM     66  F8  UNL A   1      27.418  16.950 -14.955  1.00  0.00    +0.000 F 
ATOM     67  C47 UNL A   1      28.458  18.713 -13.775  1.00  0.00    +0.000 C 
ATOM     68  F9  UNL A   1      29.106  19.092 -14.885  1.00  0.00    +0.000 F 
ATOM     69  C48 UNL A   1      28.635  19.428 -12.594  1.00  0.00    +0.000 C 
ATOM     70  F10 UNL A   1      29.462  20.486 -12.600  1.00  0.00    +0.000 F 
ATOM     60  C43 UNL A   1      27.928  19.099 -11.430  1.00  0.00    +0.000 C 
ATOM     61  C44 UNL A   1      27.030  18.021 -11.506  1.00  0.00    +0.000 C 
ATOM     62  F6  UNL A   1      26.238  17.713 -10.472  1.00  0.00    +0.000 F 
ATOM     63  C45 UNL A   1      26.883  17.280 -12.678  1.00  0.00    +0.000 C 
ATOM     64  F7  UNL A   1      26.026  16.250 -12.719  1.00  0.00    +0.000 F 
ENDBRANCH   59   60
BRANCH   74   75
ATOM     75  C52 UNL A   1      24.721  24.411 -12.359  1.00  0.00    +0.000 C 
ATOM     76  C53 UNL A   1      23.514  23.888 -12.851  1.00  0.00    +0.000 C 
ATOM     77  F11 UNL A   1      23.461  22.630 -13.310  1.00  0.00    +0.000 F 
ATOM     78  C54 UNL A   1      22.323  24.623 -12.813  1.00  0.00    +0.000 C 
ATOM     79  F12 UNL A   1      21.178  24.064 -13.230  1.00  0.00    +0.000 F 
ATOM     80  C55 UNL A   1      22.307  25.906 -12.290  1.00  0.00    +0.000 C 
ATOM     81  F13 UNL A   1      21.155  26.584 -12.190  1.00  0.00    +0.000 F 
ATOM     82  C56 UNL A   1      23.484  26.464 -11.831  1.00  0.00    +0.000 C 
ATOM     83  F14 UNL A   1      23.478  27.691 -11.291  1.00  0.00    +0.000 F 
ATOM     84  C57 UNL A   1      24.670  25.729 -11.861  1.00  0.00    +0.000 C 
ATOM     85  F15 UNL A   1      25.747  26.301 -11.306  1.00  0.00    +0.000 F 
ENDBRANCH   74   75
TORSDOF 21
ENDMDL
MODEL 9
REMARK VINA RESULT:      -8.8     42.581     48.314
ROOT
ATOM    129  H27 UNL A   1       3.185   5.456  37.178  1.00  0.00    +0.000 H 
ATOM    130  H28 UNL A   1       2.011   8.808  35.239  1.00  0.00    +0.000 H 
ATOM    131  H29 UNL A   1       4.693  11.241  42.593  1.00  0.00    +0.000 H 
ATOM    132  H30 UNL A   1       3.084   9.360  43.184  1.00  0.00    +0.000 H 
ATOM    133  H31 UNL A   1       2.776   9.965  39.092  1.00  0.00    +0.000 H 
ATOM    134  H32 UNL A   1       2.929  12.728  37.499  1.00  0.00    +0.000 H 
ATOM    135  H33 UNL A   1       2.347  10.534  36.267  1.00  0.00    +0.000 H 
ATOM    136  H34 UNL A   1      -2.498   9.213  38.410  1.00  0.00    +0.000 H 
ATOM    137  H35 UNL A   1      -1.422  10.027  40.609  1.00  0.00    +0.000 H 
ATOM     38  C28 UNL A   1       1.166   8.825  41.065  1.00  0.00    +0.000 C 
ATOM     39  C29 UNL A   1       0.301   8.752  39.861  1.00  0.00    +0.000 C 
ATOM     40  N5  UNL A   1       0.503   8.041  38.801  1.00  0.00    +0.000 N 
ATOM     41  C30 UNL A   1      -0.536   8.346  37.929  1.00  0.00    +0.000 C 
ATOM     42  C31 UNL A   1      -0.367   8.229  36.583  1.00  0.00    +0.000 C 
ATOM     54  C38 UNL A   1       0.796   7.428  36.279  1.00  0.00    +0.000 C 
ATOM     55  C39 UNL A   1       1.182   6.136  36.581  1.00  0.00    +0.000 C 
ATOM     56  C40 UNL A   1       2.578   6.227  36.858  1.00  0.00    +0.000 C 
ATOM     57  C41 UNL A   1       2.980   7.542  36.620  1.00  0.00    +0.000 C 
ATOM     58  N6  UNL A   1       1.944   8.083  35.902  1.00  0.00    +0.000 N 
ATOM     59  C42 UNL A   1       4.140   8.295  37.029  1.00  0.00    +0.000 C 
ATOM     71  C49 UNL A   1       4.173   9.655  37.146  1.00  0.00    +0.000 C 
ATOM     72  N7  UNL A   1       5.126  10.281  37.938  1.00  0.00    +0.000 N 
ATOM     73  C50 UNL A   1       4.547  11.384  38.335  1.00  0.00    +0.000 C 
ATOM     74  C51 UNL A   1       4.648  11.889  39.732  1.00  0.00    +0.000 C 
ATOM     86  C58 UNL A   1       3.990  10.993  40.511  1.00  0.00    +0.000 C 
ATOM     87  C59 UNL A   1       4.063  10.757  41.933  1.00  0.00    +0.000 C 
ATOM     88  C60 UNL A   1       3.174   9.798  42.254  1.00  0.00    +0.000 C 
ATOM     89  C61 UNL A   1       2.353   9.472  41.084  1.00  0.00    +0.000 C 
ATOM     90  N8  UNL A   1       2.989  10.108  40.042  1.00  0.00    +0.000 N 
ATOM     91  C62 UNL A   1       3.406  11.815  37.542  1.00  0.00    +0.000 C 
ATOM     92  C63 UNL A   1       3.160  10.676  36.887  1.00  0.00    +0.000 C 
ATOM     93  C64 UNL A   1      -1.526   9.039  38.711  1.00  0.00    +0.000 C 
ATOM     94  C65 UNL A   1      -1.011   9.421  39.882  1.00  0.00    +0.000 C 
ATOM    128  H26 UNL A   1       0.591   5.291  36.601  1.00  0.00    +0.000 H 
ENDROOT
BRANCH   38   37
ATOM     34  C24 UNL A   1      -0.878   7.658  44.543  1.00  0.00    +0.000 C 
ATOM     35  C25 UNL A   1      -0.467   6.655  43.659  1.00  0.00    +0.000 C 
ATOM     36  C26 UNL A   1       0.277   7.013  42.539  1.00  0.00    +0.000 C 
ATOM     37  C27 UNL A   1       0.531   8.370  42.296  1.00  0.00    +0.000 C 
ATOM    138  H36 UNL A   1       0.180  10.351  42.930  1.00  0.00    +0.000 H 
ATOM    139  H37 UNL A   1      -0.642   9.677  45.101  1.00  0.00    +0.000 H 
ATOM    127  H25 UNL A   1       0.637   6.290  41.896  1.00  0.00    +0.000 H 
ATOM    126  H24 UNL A   1      -0.712   5.668  43.833  1.00  0.00    +0.000 H 
ATOM     95  C66 UNL A   1       0.082   9.353  43.171  1.00  0.00    +0.000 C 
ATOM     96  C67 UNL A   1      -0.493   8.981  44.354  1.00  0.00    +0.000 C 
BRANCH   34   32
ATOM     33  O4  UNL A   1      -1.438   7.683  46.819  1.00  0.00    +0.000 O 
ATOM     32  C23 UNL A   1      -1.761   7.361  45.682  1.00  0.00    +0.000 C 
BRANCH   32   31
ATOM    125  H23 UNL A   1      -3.037   5.798  45.767  1.00  0.00    +0.000 H 
ATOM     31  N4  UNL A   1      -2.959   6.722  45.435  1.00  0.00    +0.000 N 
BRANCH   31   30
ATOM    123  H21 UNL A   1      -4.026   7.064  43.687  1.00  0.00    +0.000 H 
ATOM    124  H22 UNL A   1      -5.002   6.796  45.128  1.00  0.00    +0.000 H 
ATOM     30  C22 UNL A   1      -4.124   7.263  44.734  1.00  0.00    +0.000 C 
BRANCH   30   29
ATOM    121  H19 UNL A   1      -5.239   8.983  45.279  1.00  0.00    +0.000 H 
ATOM    122  H20 UNL A   1      -3.509   9.050  45.660  1.00  0.00    +0.000 H 
ATOM     29  C21 UNL A   1      -4.247   8.764  44.941  1.00  0.00    +0.000 C 
BRANCH   29   28
ATOM     28  C20 UNL A   1      -3.977   9.568  43.660  1.00  0.00    +0.000 C 
ATOM    119  H17 UNL A   1      -2.919   9.705  43.575  1.00  0.00    +0.000 H 
ATOM    120  H18 UNL A   1      -4.406   8.999  42.862  1.00  0.00    +0.000 H 
BRANCH   28   27
ATOM     27  C19 UNL A   1      -4.640  10.955  43.592  1.00  0.00    +0.000 C 
ATOM    117  H15 UNL A   1      -5.426  10.912  42.867  1.00  0.00    +0.000 H 
ATOM    118  H16 UNL A   1      -4.987  11.169  44.582  1.00  0.00    +0.000 H 
BRANCH   27   26
ATOM     26  C18 UNL A   1      -3.698  12.103  43.207  1.00  0.00    +0.000 C 
ATOM    115  H13 UNL A   1      -4.288  12.945  42.912  1.00  0.00    +0.000 H 
ATOM    116  H14 UNL A   1      -3.092  12.325  44.060  1.00  0.00    +0.000 H 
BRANCH   26   25
ATOM     25  C17 UNL A   1      -2.760  11.733  42.055  1.00  0.00    +0.000 C 
ATOM    114  H12 UNL A   1      -3.332  11.602  41.160  1.00  0.00    +0.000 H 
ATOM    113  H11 UNL A   1      -2.248  10.824  42.292  1.00  0.00    +0.000 H 
BRANCH   25   24
ATOM    112  H10 UNL A   1      -2.195  13.686  41.776  1.00  0.00    +0.000 H 
ATOM     24  N3  UNL A   1      -1.792  12.791  41.853  1.00  0.00    +0.000 N 
BRANCH   24   22
ATOM     22  C16 UNL A   1      -0.426  12.793  41.749  1.00  0.00    +0.000 C 
ATOM     23  O3  UNL A   1       0.060  12.479  40.662  1.00  0.00    +0.000 O 
BRANCH   22   21
ATOM     97  C68 UNL A   1       0.124  12.915  44.246  1.00  0.00    +0.000 C 
ATOM     98  C69 UNL A   1       1.088  12.980  45.254  1.00  0.00    +0.000 C 
ATOM    140  H38 UNL A   1      -0.866  12.761  44.497  1.00  0.00    +0.000 H 
ATOM    141  H39 UNL A   1       0.836  12.763  46.230  1.00  0.00    +0.000 H 
ATOM    110  H8  UNL A   1       3.676  13.996  43.376  1.00  0.00    +0.000 H 
ATOM    111  H9  UNL A   1       2.051  13.632  41.612  1.00  0.00    +0.000 H 
ATOM     18  C12 UNL A   1       2.394  13.342  44.926  1.00  0.00    +0.000 C 
ATOM     19  C13 UNL A   1       2.733  13.643  43.604  1.00  0.00    +0.000 C 
ATOM     20  C14 UNL A   1       1.787  13.464  42.595  1.00  0.00    +0.000 C 
ATOM     21  C15 UNL A   1       0.480  13.057  42.901  1.00  0.00    +0.000 C 
BRANCH   18   17
ATOM     99  N9  UNL A   1       4.678  13.567  45.634  1.00  0.00    +0.000 N 
ATOM    100  N10 UNL A   1       5.345  13.706  46.765  1.00  0.00    +0.000 N 
ATOM    109  H7  UNL A   1       2.326  13.246  47.824  1.00  0.00    +0.000 H 
ATOM     15  C10 UNL A   1       4.466  13.600  47.813  1.00  0.00    +0.000 C 
ATOM     16  C11 UNL A   1       3.203  13.397  47.301  1.00  0.00    +0.000 C 
ATOM     17  N2  UNL A   1       3.372  13.439  45.934  1.00  0.00    +0.000 N 
BRANCH   15   14
ATOM    107  H5  UNL A   1       5.827  14.233  49.265  1.00  0.00    +0.000 H 
ATOM    108  H6  UNL A   1       4.148  13.933  49.822  1.00  0.00    +0.000 H 
ATOM     14  C9  UNL A   1       4.967  13.597  49.220  1.00  0.00    +0.000 C 
BRANCH   14   13
ATOM     13  O2  UNL A   1       5.340  12.311  49.747  1.00  0.00    +0.000 O 
BRANCH   13   12
ATOM    101  C70 UNL A   1       4.331  12.176  51.984  1.00  0.00    +0.000 C 
ATOM    102  C71 UNL A   1       4.497  11.792  53.316  1.00  0.00    +0.000 C 
ATOM      9  C5  UNL A   1       5.761  11.452  53.802  1.00  0.00    +0.000 C 
ATOM     10  C6  UNL A   1       6.868  11.569  52.958  1.00  0.00    +0.000 C 
ATOM    105  H3  UNL A   1       7.818  11.402  53.326  1.00  0.00    +0.000 H 
ATOM     11  C7  UNL A   1       6.688  11.913  51.613  1.00  0.00    +0.000 C 
ATOM    106  H4  UNL A   1       7.508  11.989  50.991  1.00  0.00    +0.000 H 
ATOM     12  C8  UNL A   1       5.410  12.155  51.105  1.00  0.00    +0.000 C 
ATOM    143  H41 UNL A   1       3.681  11.759  53.946  1.00  0.00    +0.000 H 
ATOM    142  H40 UNL A   1       3.402  12.477  51.651  1.00  0.00    +0.000 H 
BRANCH    9    8
ATOM    104  H2  UNL A   1       5.433  10.086  55.426  1.00  0.00    +0.000 H 
ATOM      8  C4  UNL A   1       5.904  10.969  55.177  1.00  0.00    +0.000 C 
BRANCH    8    7
ATOM      1  O1  UNL A   1       8.518  10.132  56.135  1.00  0.00    +0.000 O 
ATOM      2  C1  UNL A   1       7.946  11.106  56.568  1.00  0.00    +0.000 C 
ATOM      3  N1  UNL A   1       8.444  11.946  57.531  1.00  0.00    +0.000 N 
ATOM      4  C2  UNL A   1       7.684  13.007  57.915  1.00  0.00    +0.000 C 
ATOM      5  S1  UNL A   1       8.156  14.100  59.067  1.00  0.00    +0.000 S 
ATOM      6  S2  UNL A   1       6.182  13.014  57.022  1.00  0.00    +0.000 S 
ATOM      7  C3  UNL A   1       6.606  11.592  56.134  1.00  0.00    +0.000 C 
ATOM    103  H1  UNL A   1       9.328  11.786  57.932  1.00  0.00    +0.000 H 
ENDBRANCH    8    7
ENDBRANCH    9    8
ENDBRANCH   13   12
ENDBRANCH   14   13
ENDBRANCH   15   14
ENDBRANCH   18   17
ENDBRANCH   22   21
ENDBRANCH   24   22
ENDBRANCH   25   24
ENDBRANCH   26   25
ENDBRANCH   27   26
ENDBRANCH   28   27
ENDBRANCH   29   28
ENDBRANCH   30   29
ENDBRANCH   31   30
ENDBRANCH   32   31
ENDBRANCH   34   32
ENDBRANCH   38   37
BRANCH   42   43
ATOM     43  C32 UNL A   1      -0.991   9.140  35.553  1.00  0.00    +0.000 C 
ATOM     44  C33 UNL A   1      -0.814  10.533  35.684  1.00  0.00    +0.000 C 
ATOM     45  F1  UNL A   1       0.114  11.029  36.517  1.00  0.00    +0.000 F 
ATOM     46  C34 UNL A   1      -1.652  11.448  35.043  1.00  0.00    +0.000 C 
ATOM     47  F2  UNL A   1      -1.534  12.757  35.307  1.00  0.00    +0.000 F 
ATOM     48  C35 UNL A   1      -2.652  11.009  34.195  1.00  0.00    +0.000 C 
ATOM     49  F3  UNL A   1      -3.500  11.878  33.633  1.00  0.00    +0.000 F 
ATOM     50  C36 UNL A   1      -2.799   9.656  33.971  1.00  0.00    +0.000 C 
ATOM     51  F4  UNL A   1      -3.772   9.210  33.165  1.00  0.00    +0.000 F 
ATOM     52  C37 UNL A   1      -2.001   8.739  34.652  1.00  0.00    +0.000 C 
ATOM     53  F5  UNL A   1      -2.336   7.457  34.474  1.00  0.00    +0.000 F 
ENDBRANCH   42   43
BRANCH   59   60
ATOM     65  C46 UNL A   1       7.396   5.808  38.389  1.00  0.00    +0.000 C 
ATOM     66  F8  UNL A   1       8.387   4.985  38.762  1.00  0.00    +0.000 F 
ATOM     67  C47 UNL A   1       7.403   6.375  37.124  1.00  0.00    +0.000 C 
ATOM     68  F9  UNL A   1       8.387   6.080  36.264  1.00  0.00    +0.000 F 
ATOM     69  C48 UNL A   1       6.373   7.224  36.730  1.00  0.00    +0.000 C 
ATOM     70  F10 UNL A   1       6.398   7.733  35.488  1.00  0.00    +0.000 F 
ATOM     60  C43 UNL A   1       5.296   7.505  37.580  1.00  0.00    +0.000 C 
ATOM     61  C44 UNL A   1       5.296   6.890  38.844  1.00  0.00    +0.000 C 
ATOM     62  F6  UNL A   1       4.252   7.021  39.671  1.00  0.00    +0.000 F 
ATOM     63  C45 UNL A   1       6.348   6.072  39.254  1.00  0.00    +0.000 C 
ATOM     64  F7  UNL A   1       6.326   5.507  40.469  1.00  0.00    +0.000 F 
ENDBRANCH   59   60
BRANCH   74   75
ATOM     75  C52 UNL A   1       5.100  13.260  40.071  1.00  0.00    +0.000 C 
ATOM     76  C53 UNL A   1       6.461  13.545  40.274  1.00  0.00    +0.000 C 
ATOM     77  F11 UNL A   1       7.351  12.547  40.382  1.00  0.00    +0.000 F 
ATOM     78  C54 UNL A   1       6.944  14.859  40.296  1.00  0.00    +0.000 C 
ATOM     79  F12 UNL A   1       8.258  15.086  40.423  1.00  0.00    +0.000 F 
ATOM     80  C55 UNL A   1       6.078  15.926  40.125  1.00  0.00    +0.000 C 
ATOM     81  F13 UNL A   1       6.548  17.181  40.077  1.00  0.00    +0.000 F 
ATOM     82  C56 UNL A   1       4.729  15.683  39.960  1.00  0.00    +0.000 C 
ATOM     83  F14 UNL A   1       3.883  16.705  39.760  1.00  0.00    +0.000 F 
ATOM     84  C57 UNL A   1       4.247  14.374  39.931  1.00  0.00    +0.000 C 
ATOM     85  F15 UNL A   1       2.943  14.217  39.666  1.00  0.00    +0.000 F 
ENDBRANCH   74   75
TORSDOF 21
ENDMDL
MODEL 10
REMARK VINA RESULT:      -8.8     40.415     46.849
ROOT
ATOM    129  H27 UNL A   1      14.528  30.814  -2.077  1.00  0.00    +0.000 H 
ATOM    130  H28 UNL A   1      12.139  32.774  -4.688  1.00  0.00    +0.000 H 
ATOM    131  H29 UNL A   1       7.147  29.255   0.777  1.00  0.00    +0.000 H 
ATOM    132  H30 UNL A   1       8.655  27.327   0.082  1.00  0.00    +0.000 H 
ATOM    133  H31 UNL A   1       9.627  30.549  -2.342  1.00  0.00    +0.000 H 
ATOM    134  H32 UNL A   1       7.665  32.762  -3.548  1.00  0.00    +0.000 H 
ATOM    135  H33 UNL A   1      10.156  32.706  -4.228  1.00  0.00    +0.000 H 
ATOM    136  H34 UNL A   1      10.534  28.010  -6.987  1.00  0.00    +0.000 H 
ATOM    137  H35 UNL A   1       8.964  27.133  -5.138  1.00  0.00    +0.000 H 
ATOM     38  C28 UNL A   1       9.930  27.779  -2.492  1.00  0.00    +0.000 C 
ATOM     39  C29 UNL A   1      10.441  28.232  -3.810  1.00  0.00    +0.000 C 
ATOM     40  N5  UNL A   1      11.500  28.939  -4.031  1.00  0.00    +0.000 N 
ATOM     41  C30 UNL A   1      11.535  29.160  -5.404  1.00  0.00    +0.000 C 
ATOM     42  C31 UNL A   1      12.150  30.264  -5.911  1.00  0.00    +0.000 C 
ATOM     54  C38 UNL A   1      13.017  30.868  -4.926  1.00  0.00    +0.000 C 
ATOM     55  C39 UNL A   1      14.104  30.425  -4.198  1.00  0.00    +0.000 C 
ATOM     56  C40 UNL A   1      13.929  30.987  -2.898  1.00  0.00    +0.000 C 
ATOM     57  C41 UNL A   1      12.802  31.809  -2.934  1.00  0.00    +0.000 C 
ATOM     58  N6  UNL A   1      12.561  31.988  -4.273  1.00  0.00    +0.000 N 
ATOM     59  C42 UNL A   1      11.961  32.355  -1.898  1.00  0.00    +0.000 C 
ATOM     71  C49 UNL A   1      10.657  32.718  -2.076  1.00  0.00    +0.000 C 
ATOM     72  N7  UNL A   1       9.788  32.812  -0.998  1.00  0.00    +0.000 N 
ATOM     73  C50 UNL A   1       8.611  32.545  -1.502  1.00  0.00    +0.000 C 
ATOM     74  C51 UNL A   1       7.620  31.672  -0.817  1.00  0.00    +0.000 C 
ATOM     86  C58 UNL A   1       8.152  30.423  -0.808  1.00  0.00    +0.000 C 
ATOM     87  C59 UNL A   1       7.837  29.277   0.011  1.00  0.00    +0.000 C 
ATOM     88  C60 UNL A   1       8.598  28.241  -0.393  1.00  0.00    +0.000 C 
ATOM     89  C61 UNL A   1       9.333  28.609  -1.607  1.00  0.00    +0.000 C 
ATOM     90  N8  UNL A   1       9.140  29.968  -1.715  1.00  0.00    +0.000 N 
ATOM     91  C62 UNL A   1       8.500  32.690  -2.946  1.00  0.00    +0.000 C 
ATOM     92  C63 UNL A   1       9.799  32.704  -3.259  1.00  0.00    +0.000 C 
ATOM     93  C64 UNL A   1      10.591  28.241  -5.983  1.00  0.00    +0.000 C 
ATOM     94  C65 UNL A   1       9.802  27.726  -5.037  1.00  0.00    +0.000 C 
ATOM    128  H26 UNL A   1      14.875  29.820  -4.522  1.00  0.00    +0.000 H 
ENDROOT
BRANCH   38   37
ATOM     34  C24 UNL A   1      10.059  23.616  -1.956  1.00  0.00    +0.000 C 
ATOM     35  C25 UNL A   1       9.224  24.358  -1.114  1.00  0.00    +0.000 C 
ATOM     36  C26 UNL A   1       9.109  25.729  -1.323  1.00  0.00    +0.000 C 
ATOM     37  C27 UNL A   1       9.883  26.332  -2.324  1.00  0.00    +0.000 C 
ATOM    138  H36 UNL A   1      11.377  26.044  -3.785  1.00  0.00    +0.000 H 
ATOM    139  H37 UNL A   1      11.169  23.635  -3.748  1.00  0.00    +0.000 H 
ATOM    127  H25 UNL A   1       8.462  26.294  -0.750  1.00  0.00    +0.000 H 
ATOM    126  H24 UNL A   1       8.704  23.898  -0.351  1.00  0.00    +0.000 H 
ATOM     95  C66 UNL A   1      10.734  25.579  -3.126  1.00  0.00    +0.000 C 
ATOM     96  C67 UNL A   1      10.709  24.216  -3.030  1.00  0.00    +0.000 C 
BRANCH   34   32
ATOM     33  O4  UNL A   1       9.430  21.465  -1.273  1.00  0.00    +0.000 O 
ATOM     32  C23 UNL A   1      10.314  22.187  -1.718  1.00  0.00    +0.000 C 
BRANCH   32   31
ATOM    125  H23 UNL A   1      12.324  22.103  -1.548  1.00  0.00    +0.000 H 
ATOM     31  N4  UNL A   1      11.564  21.684  -2.013  1.00  0.00    +0.000 N 
BRANCH   31   30
ATOM    123  H21 UNL A   1      11.163  19.817  -2.827  1.00  0.00    +0.000 H 
ATOM    124  H22 UNL A   1      11.870  20.988  -3.936  1.00  0.00    +0.000 H 
ATOM     30  C22 UNL A   1      11.886  20.598  -2.940  1.00  0.00    +0.000 C 
BRANCH   30   29
ATOM    121  H19 UNL A   1      13.282  19.609  -1.688  1.00  0.00    +0.000 H 
ATOM    122  H20 UNL A   1      13.469  19.297  -3.423  1.00  0.00    +0.000 H 
ATOM     29  C21 UNL A   1      13.271  20.032  -2.671  1.00  0.00    +0.000 C 
BRANCH   29   28
ATOM     28  C20 UNL A   1      14.378  21.093  -2.761  1.00  0.00    +0.000 C 
ATOM    119  H17 UNL A   1      14.226  21.794  -1.967  1.00  0.00    +0.000 H 
ATOM    120  H18 UNL A   1      15.302  20.557  -2.695  1.00  0.00    +0.000 H 
BRANCH   28   27
ATOM     27  C19 UNL A   1      14.441  21.879  -4.081  1.00  0.00    +0.000 C 
ATOM    117  H15 UNL A   1      15.315  21.566  -4.613  1.00  0.00    +0.000 H 
ATOM    118  H16 UNL A   1      13.530  21.666  -4.600  1.00  0.00    +0.000 H 
BRANCH   27   26
ATOM     26  C18 UNL A   1      14.500  23.404  -3.922  1.00  0.00    +0.000 C 
ATOM    115  H13 UNL A   1      15.141  23.802  -4.682  1.00  0.00    +0.000 H 
ATOM    116  H14 UNL A   1      13.502  23.778  -4.012  1.00  0.00    +0.000 H 
BRANCH   26   25
ATOM     25  C17 UNL A   1      15.036  23.833  -2.554  1.00  0.00    +0.000 C 
ATOM    114  H12 UNL A   1      15.800  24.570  -2.688  1.00  0.00    +0.000 H 
ATOM    113  H11 UNL A   1      15.441  22.981  -2.048  1.00  0.00    +0.000 H 
BRANCH   25   24
ATOM    112  H10 UNL A   1      13.257  23.748  -1.534  1.00  0.00    +0.000 H 
ATOM     24  N3  UNL A   1      13.962  24.396  -1.763  1.00  0.00    +0.000 N 
BRANCH   24   22
ATOM     22  C16 UNL A   1      13.733  25.654  -1.269  1.00  0.00    +0.000 C 
ATOM     23  O3  UNL A   1      14.300  26.593  -1.826  1.00  0.00    +0.000 O 
BRANCH   22   21
ATOM     97  C68 UNL A   1      12.507  27.180   0.381  1.00  0.00    +0.000 C 
ATOM     98  C69 UNL A   1      11.579  27.319   1.414  1.00  0.00    +0.000 C 
ATOM    140  H38 UNL A   1      12.895  28.023  -0.072  1.00  0.00    +0.000 H 
ATOM    141  H39 UNL A   1      11.194  28.247   1.649  1.00  0.00    +0.000 H 
ATOM    110  H8  UNL A   1      11.474  24.113   2.397  1.00  0.00    +0.000 H 
ATOM    111  H9  UNL A   1      12.887  23.860   0.442  1.00  0.00    +0.000 H 
ATOM     18  C12 UNL A   1      11.177  26.190   2.126  1.00  0.00    +0.000 C 
ATOM     19  C13 UNL A   1      11.703  24.933   1.814  1.00  0.00    +0.000 C 
ATOM     20  C14 UNL A   1      12.541  24.795   0.708  1.00  0.00    +0.000 C 
ATOM     21  C15 UNL A   1      12.921  25.915  -0.048  1.00  0.00    +0.000 C 
BRANCH   18   17
ATOM     99  N9  UNL A   1       9.559  27.447   3.379  1.00  0.00    +0.000 N 
ATOM    100  N10 UNL A   1       8.739  27.252   4.396  1.00  0.00    +0.000 N 
ATOM    109  H7  UNL A   1      10.382  24.470   4.322  1.00  0.00    +0.000 H 
ATOM     15  C10 UNL A   1       8.963  26.002   4.912  1.00  0.00    +0.000 C 
ATOM     16  C11 UNL A   1       9.959  25.400   4.173  1.00  0.00    +0.000 C 
ATOM     17  N2  UNL A   1      10.262  26.315   3.189  1.00  0.00    +0.000 N 
BRANCH   15   14
ATOM    107  H5  UNL A   1       7.464  26.252   6.345  1.00  0.00    +0.000 H 
ATOM    108  H6  UNL A   1       7.925  24.561   5.959  1.00  0.00    +0.000 H 
ATOM     14  C9  UNL A   1       8.258  25.559   6.153  1.00  0.00    +0.000 C 
BRANCH   14   13
ATOM     13  O2  UNL A   1       9.071  25.479   7.337  1.00  0.00    +0.000 O 
BRANCH   13   12
ATOM    101  C70 UNL A   1       7.146  25.366   8.862  1.00  0.00    +0.000 C 
ATOM    102  C71 UNL A   1       6.706  25.385  10.187  1.00  0.00    +0.000 C 
ATOM      9  C5  UNL A   1       7.571  25.765  11.214  1.00  0.00    +0.000 C 
ATOM     10  C6  UNL A   1       8.860  26.195  10.892  1.00  0.00    +0.000 C 
ATOM    105  H3  UNL A   1       9.483  26.559  11.631  1.00  0.00    +0.000 H 
ATOM     11  C7  UNL A   1       9.308  26.133   9.567  1.00  0.00    +0.000 C 
ATOM    106  H4  UNL A   1      10.265  26.443   9.336  1.00  0.00    +0.000 H 
ATOM     12  C8  UNL A   1       8.472  25.656   8.555  1.00  0.00    +0.000 C 
ATOM    143  H41 UNL A   1       5.735  25.116  10.408  1.00  0.00    +0.000 H 
ATOM    142  H40 UNL A   1       6.482  25.135   8.106  1.00  0.00    +0.000 H 
BRANCH    9    8
ATOM    104  H2  UNL A   1       6.541  24.890  12.882  1.00  0.00    +0.000 H 
ATOM      8  C4  UNL A   1       7.120  25.697  12.605  1.00  0.00    +0.000 C 
BRANCH    8    7
ATOM      1  O1  UNL A   1       9.587  25.781  14.142  1.00  0.00    +0.000 O 
ATOM      2  C1  UNL A   1       8.699  26.591  14.288  1.00  0.00    +0.000 C 
ATOM      3  N1  UNL A   1       8.738  27.650  15.158  1.00  0.00    +0.000 N 
ATOM      4  C2  UNL A   1       7.662  28.482  15.208  1.00  0.00    +0.000 C 
ATOM      5  S1  UNL A   1       7.568  29.795  16.212  1.00  0.00    +0.000 S 
ATOM      6  S2  UNL A   1       6.444  27.942  14.078  1.00  0.00    +0.000 S 
ATOM      7  C3  UNL A   1       7.408  26.608  13.545  1.00  0.00    +0.000 C 
ATOM    103  H1  UNL A   1       9.523  27.804  15.731  1.00  0.00    +0.000 H 
ENDBRANCH    8    7
ENDBRANCH    9    8
ENDBRANCH   13   12
ENDBRANCH   14   13
ENDBRANCH   15   14
ENDBRANCH   18   17
ENDBRANCH   22   21
ENDBRANCH   24   22
ENDBRANCH   25   24
ENDBRANCH   26   25
ENDBRANCH   27   26
ENDBRANCH   28   27
ENDBRANCH   29   28
ENDBRANCH   30   29
ENDBRANCH   31   30
ENDBRANCH   32   31
ENDBRANCH   34   32
ENDBRANCH   38   37
BRANCH   42   43
ATOM     43  C32 UNL A   1      11.687  31.025  -7.130  1.00  0.00    +0.000 C 
ATOM     44  C33 UNL A   1      10.370  31.526  -7.156  1.00  0.00    +0.000 C 
ATOM     45  F1  UNL A   1       9.639  31.587  -6.031  1.00  0.00    +0.000 F 
ATOM     46  C34 UNL A   1       9.736  31.879  -8.350  1.00  0.00    +0.000 C 
ATOM     47  F2  UNL A   1       8.439  32.216  -8.340  1.00  0.00    +0.000 F 
ATOM     48  C35 UNL A   1      10.416  31.809  -9.552  1.00  0.00    +0.000 C 
ATOM     49  F3  UNL A   1       9.792  32.080 -10.704  1.00  0.00    +0.000 F 
ATOM     50  C36 UNL A   1      11.735  31.409  -9.557  1.00  0.00    +0.000 C 
ATOM     51  F4  UNL A   1      12.407  31.321 -10.713  1.00  0.00    +0.000 F 
ATOM     52  C37 UNL A   1      12.353  31.004  -8.375  1.00  0.00    +0.000 C 
ATOM     53  F5  UNL A   1      13.579  30.492  -8.524  1.00  0.00    +0.000 F 
ENDBRANCH   42   43
BRANCH   59   60
ATOM     65  C46 UNL A   1      13.193  32.180   2.236  1.00  0.00    +0.000 C 
ATOM     66  F8  UNL A   1      13.505  32.133   3.539  1.00  0.00    +0.000 F 
ATOM     67  C47 UNL A   1      12.460  31.154   1.659  1.00  0.00    +0.000 C 
ATOM     68  F9  UNL A   1      12.042  30.127   2.410  1.00  0.00    +0.000 F 
ATOM     69  C48 UNL A   1      12.128  31.203   0.308  1.00  0.00    +0.000 C 
ATOM     70  F10 UNL A   1      11.395  30.206  -0.210  1.00  0.00    +0.000 F 
ATOM     60  C43 UNL A   1      12.496  32.291  -0.493  1.00  0.00    +0.000 C 
ATOM     61  C44 UNL A   1      13.208  33.334   0.124  1.00  0.00    +0.000 C 
ATOM     62  F6  UNL A   1      13.501  34.456  -0.544  1.00  0.00    +0.000 F 
ATOM     63  C45 UNL A   1      13.576  33.266   1.468  1.00  0.00    +0.000 C 
ATOM     64  F7  UNL A   1      14.264  34.271   2.028  1.00  0.00    +0.000 F 
ENDBRANCH   59   60
BRANCH   74   75
ATOM     75  C52 UNL A   1       6.225  32.090  -0.532  1.00  0.00    +0.000 C 
ATOM     76  C53 UNL A   1       5.149  31.578  -1.276  1.00  0.00    +0.000 C 
ATOM     77  F11 UNL A   1       5.375  30.874  -2.395  1.00  0.00    +0.000 F 
ATOM     78  C54 UNL A   1       3.824  31.715  -0.845  1.00  0.00    +0.000 C 
ATOM     79  F12 UNL A   1       2.831  31.153  -1.547  1.00  0.00    +0.000 F 
ATOM     80  C55 UNL A   1       3.537  32.377   0.338  1.00  0.00    +0.000 C 
ATOM     81  F13 UNL A   1       2.275  32.449   0.787  1.00  0.00    +0.000 F 
ATOM     82  C56 UNL A   1       4.569  32.924   1.074  1.00  0.00    +0.000 C 
ATOM     83  F14 UNL A   1       4.310  33.539   2.238  1.00  0.00    +0.000 F 
ATOM     84  C57 UNL A   1       5.890  32.782   0.650  1.00  0.00    +0.000 C 
ATOM     85  F15 UNL A   1       6.841  33.252   1.468  1.00  0.00    +0.000 F 
ENDBRANCH   74   75
TORSDOF 21
ENDMDL
