MODEL 1
REMARK VINA RESULT:     -11.7      0.000      0.000
ROOT
ATOM     28  C19 UNL A   1      53.188  20.044  11.581  1.00  0.00    +0.000 C 
ATOM     29  C20 UNL A   1      52.936  20.655  12.932  1.00  0.00    +0.000 C 
ATOM     30  N5  UNL A   1      53.759  20.801  13.941  1.00  0.00    +0.000 N 
ATOM     31  C21 UNL A   1      53.038  21.463  14.926  1.00  0.00    +0.000 C 
ATOM     32  C22 UNL A   1      53.427  21.795  16.180  1.00  0.00    +0.000 C 
ATOM     44  C29 UNL A   1      54.722  21.492  16.733  1.00  0.00    +0.000 C 
ATOM     45  C30 UNL A   1      55.185  21.719  18.018  1.00  0.00    +0.000 C 
ATOM     46  C31 UNL A   1      56.520  21.307  18.081  1.00  0.00    +0.000 C 
ATOM     47  C32 UNL A   1      56.873  20.774  16.851  1.00  0.00    +0.000 C 
ATOM     48  N6  UNL A   1      55.761  20.899  16.033  1.00  0.00    +0.000 N 
ATOM     49  C33 UNL A   1      58.129  20.195  16.452  1.00  0.00    +0.000 C 
ATOM     61  C40 UNL A   1      58.392  19.684  15.224  1.00  0.00    +0.000 C 
ATOM     62  N7  UNL A   1      57.560  19.599  14.116  1.00  0.00    +0.000 N 
ATOM     63  C41 UNL A   1      58.276  19.046  13.168  1.00  0.00    +0.000 C 
ATOM     64  C42 UNL A   1      57.876  18.684  11.764  1.00  0.00    +0.000 C 
ATOM     76  C49 UNL A   1      56.610  18.907  11.362  1.00  0.00    +0.000 C 
ATOM     77  C50 UNL A   1      56.072  18.591  10.043  1.00  0.00    +0.000 C 
ATOM     78  C51 UNL A   1      54.791  18.985   9.987  1.00  0.00    +0.000 C 
ATOM     79  C52 UNL A   1      54.406  19.553  11.280  1.00  0.00    +0.000 C 
ATOM     80  N8  UNL A   1      55.548  19.462  12.036  1.00  0.00    +0.000 N 
ATOM     81  C53 UNL A   1      59.658  18.741  13.562  1.00  0.00    +0.000 C 
ATOM     82  C54 UNL A   1      59.663  19.109  14.835  1.00  0.00    +0.000 C 
ATOM     83  C55 UNL A   1      51.726  21.735  14.377  1.00  0.00    +0.000 C 
ATOM     84  C56 UNL A   1      51.591  21.199  13.173  1.00  0.00    +0.000 C 
ATOM    117  H22 UNL A   1      54.639  22.122  18.795  1.00  0.00    +0.000 H 
ATOM    118  H23 UNL A   1      57.138  21.385  18.904  1.00  0.00    +0.000 H 
ATOM    119  H24 UNL A   1      55.716  20.609  15.093  1.00  0.00    +0.000 H 
ATOM    120  H25 UNL A   1      56.594  18.138   9.277  1.00  0.00    +0.000 H 
ATOM    121  H26 UNL A   1      54.175  18.901   9.163  1.00  0.00    +0.000 H 
ATOM    122  H27 UNL A   1      55.601  19.764  12.971  1.00  0.00    +0.000 H 
ATOM    123  H28 UNL A   1      60.425  18.344  12.997  1.00  0.00    +0.000 H 
ATOM    124  H29 UNL A   1      60.469  18.999  15.469  1.00  0.00    +0.000 H 
ATOM    125  H30 UNL A   1      50.992  22.276  14.862  1.00  0.00    +0.000 H 
ATOM    126  H31 UNL A   1      50.759  21.171  12.563  1.00  0.00    +0.000 H 
ENDROOT
BRANCH   28   27
ATOM    115  H20 UNL A   1      50.686  21.964   8.205  1.00  0.00    +0.000 H 
ATOM    116  H21 UNL A   1      52.522  21.958   9.791  1.00  0.00    +0.000 H 
ATOM     85  C57 UNL A   1      51.302  18.894  10.405  1.00  0.00    +0.000 C 
ATOM     86  C58 UNL A   1      50.301  18.868   9.435  1.00  0.00    +0.000 C 
ATOM     24  C15 UNL A   1      50.039  20.008   8.670  1.00  0.00    +0.000 C 
ATOM     25  C16 UNL A   1      50.856  21.135   8.795  1.00  0.00    +0.000 C 
ATOM     26  C17 UNL A   1      51.902  21.137   9.719  1.00  0.00    +0.000 C 
ATOM     27  C18 UNL A   1      52.117  20.027  10.552  1.00  0.00    +0.000 C 
ATOM    127  H32 UNL A   1      51.445  18.075  11.018  1.00  0.00    +0.000 H 
ATOM    128  H33 UNL A   1      49.754  18.005   9.281  1.00  0.00    +0.000 H 
BRANCH   24   22
ATOM     22  C14 UNL A   1      48.926  20.046   7.695  1.00  0.00    +0.000 C 
ATOM     23  O4  UNL A   1      48.395  21.118   7.420  1.00  0.00    +0.000 O 
BRANCH   22   21
ATOM    114  H19 UNL A   1      47.559  18.626   7.354  1.00  0.00    +0.000 H 
ATOM     21  N4  UNL A   1      48.475  18.890   7.109  1.00  0.00    +0.000 N 
BRANCH   21   20
ATOM    113  H18 UNL A   1      49.439  17.124   6.724  1.00  0.00    +0.000 H 
ATOM     20  C13 UNL A   1      49.149  18.000   6.182  1.00  0.00    +0.000 C 
ATOM    112  H17 UNL A   1      49.998  18.507   5.775  1.00  0.00    +0.000 H 
BRANCH   20   19
ATOM     19  C12 UNL A   1      48.244  17.561   5.035  1.00  0.00    +0.000 C 
ATOM    110  H15 UNL A   1      48.850  17.449   4.160  1.00  0.00    +0.000 H 
ATOM    111  H16 UNL A   1      47.783  16.650   5.354  1.00  0.00    +0.000 H 
BRANCH   19   18
ATOM     18  C11 UNL A   1      47.100  18.521   4.699  1.00  0.00    +0.000 C 
ATOM    108  H13 UNL A   1      46.307  18.344   5.394  1.00  0.00    +0.000 H 
ATOM    109  H14 UNL A   1      47.519  19.505   4.760  1.00  0.00    +0.000 H 
BRANCH   18   17
ATOM     17  C10 UNL A   1      46.525  18.399   3.285  1.00  0.00    +0.000 C 
ATOM    106  H11 UNL A   1      46.759  19.298   2.754  1.00  0.00    +0.000 H 
ATOM    107  H12 UNL A   1      46.968  17.522   2.861  1.00  0.00    +0.000 H 
BRANCH   17   16
ATOM    105  H10 UNL A   1      44.688  17.966   4.204  1.00  0.00    +0.000 H 
ATOM    104  H9  UNL A   1      44.822  17.394   2.514  1.00  0.00    +0.000 H 
ATOM     16  C9  UNL A   1      45.012  18.187   3.207  1.00  0.00    +0.000 C 
BRANCH   16   15
ATOM    103  H8  UNL A   1      44.700  19.837   1.907  1.00  0.00    +0.000 H 
ATOM    102  H7  UNL A   1      44.174  20.115   3.563  1.00  0.00    +0.000 H 
ATOM     15  C8  UNL A   1      44.214  19.409   2.759  1.00  0.00    +0.000 C 
BRANCH   15   14
ATOM    101  H6  UNL A   1      42.722  19.052   1.410  1.00  0.00    +0.000 H 
ATOM     14  N3  UNL A   1      42.865  19.042   2.383  1.00  0.00    +0.000 N 
BRANCH   14   12
ATOM     12  C7  UNL A   1      41.740  18.681   3.082  1.00  0.00    +0.000 C 
ATOM     13  O3  UNL A   1      41.864  17.814   3.945  1.00  0.00    +0.000 O 
BRANCH   12   11
ATOM    129  H34 UNL A   1      39.121  18.688   4.460  1.00  0.00    +0.000 H 
ATOM    130  H35 UNL A   1      38.927  17.656   3.135  1.00  0.00    +0.000 H 
ATOM    131  H36 UNL A   1      37.365  19.189   2.173  1.00  0.00    +0.000 H 
ATOM      9  N1  UNL A   1      38.878  20.668   2.136  1.00  0.00    +0.000 N 
ATOM     10  N2  UNL A   1      40.193  20.284   2.053  1.00  0.00    +0.000 N 
ATOM     11  C6  UNL A   1      40.352  19.248   2.819  1.00  0.00    +0.000 C 
ATOM     87  C59 UNL A   1      39.103  18.680   3.389  1.00  0.00    +0.000 C 
ATOM     88  C60 UNL A   1      38.061  19.656   2.838  1.00  0.00    +0.000 C 
BRANCH    9    8
ATOM     99  H4  UNL A   1      38.810  23.365  -1.564  1.00  0.00    +0.000 H 
ATOM    100  H5  UNL A   1      39.823  22.580   0.501  1.00  0.00    +0.000 H 
ATOM      5  C2  UNL A   1      37.088  22.152  -1.382  1.00  0.00    +0.000 C 
ATOM      6  C3  UNL A   1      38.331  22.656  -0.987  1.00  0.00    +0.000 C 
ATOM      7  C4  UNL A   1      38.917  22.193   0.196  1.00  0.00    +0.000 C 
ATOM    136  H41 UNL A   1      35.515  20.826  -0.903  1.00  0.00    +0.000 H 
ATOM    135  H40 UNL A   1      36.551  20.022   1.134  1.00  0.00    +0.000 H 
ATOM      8  C5  UNL A   1      38.289  21.208   0.974  1.00  0.00    +0.000 C 
ATOM     94  C65 UNL A   1      37.037  20.730   0.560  1.00  0.00    +0.000 C 
ATOM     95  C66 UNL A   1      36.435  21.191  -0.610  1.00  0.00    +0.000 C 
BRANCH    5    2
ATOM      2  S1  UNL A   1      36.346  22.716  -2.893  1.00  0.00    +0.000 S 
ATOM      3  O1  UNL A   1      36.835  21.868  -3.967  1.00  0.00    +0.000 O 
ATOM      4  O2  UNL A   1      36.529  24.152  -2.939  1.00  0.00    +0.000 O 
BRANCH    2    1
ATOM      1  C1  UNL A   1      34.618  22.373  -2.698  1.00  0.00    +0.000 C 
ATOM     98  H3  UNL A   1      34.279  21.771  -3.515  1.00  0.00    +0.000 H 
ATOM     97  H2  UNL A   1      34.460  21.848  -1.779  1.00  0.00    +0.000 H 
ATOM     96  H1  UNL A   1      34.071  23.293  -2.681  1.00  0.00    +0.000 H 
ENDBRANCH    2    1
ENDBRANCH    5    2
ENDBRANCH    9    8
BRANCH   88   89
ATOM    132  H37 UNL A   1      37.361  22.309   3.736  1.00  0.00    +0.000 H 
ATOM    133  H38 UNL A   1      35.619  22.618   5.603  1.00  0.00    +0.000 H 
ATOM    134  H39 UNL A   1      34.635  20.410   6.355  1.00  0.00    +0.000 H 
ATOM     89  C61 UNL A   1      37.092  20.195   3.881  1.00  0.00    +0.000 C 
ATOM     90  C62 UNL A   1      36.872  21.526   4.197  1.00  0.00    +0.000 C 
ATOM     91  C63 UNL A   1      35.901  21.701   5.225  1.00  0.00    +0.000 C 
ATOM     92  C64 UNL A   1      35.385  20.500   5.651  1.00  0.00    +0.000 C 
ATOM     93  S2  UNL A   1      36.135  19.176   4.882  1.00  0.00    +0.000 S 
ENDBRANCH   88   89
ENDBRANCH   12   11
ENDBRANCH   14   12
ENDBRANCH   15   14
ENDBRANCH   16   15
ENDBRANCH   17   16
ENDBRANCH   18   17
ENDBRANCH   19   18
ENDBRANCH   20   19
ENDBRANCH   21   20
ENDBRANCH   22   21
ENDBRANCH   24   22
ENDBRANCH   28   27
BRANCH   32   33
ATOM     33  C23 UNL A   1      52.442  22.522  17.048  1.00  0.00    +0.000 C 
ATOM     34  C24 UNL A   1      51.697  21.856  18.034  1.00  0.00    +0.000 C 
ATOM     35  F1  UNL A   1      51.806  20.527  18.181  1.00  0.00    +0.000 F 
ATOM     36  C25 UNL A   1      50.809  22.550  18.852  1.00  0.00    +0.000 C 
ATOM     37  F2  UNL A   1      50.077  21.886  19.757  1.00  0.00    +0.000 F 
ATOM     38  C26 UNL A   1      50.674  23.924  18.727  1.00  0.00    +0.000 C 
ATOM     39  F3  UNL A   1      49.829  24.592  19.523  1.00  0.00    +0.000 F 
ATOM     40  C27 UNL A   1      51.414  24.606  17.772  1.00  0.00    +0.000 C 
ATOM     41  F4  UNL A   1      51.295  25.936  17.657  1.00  0.00    +0.000 F 
ATOM     42  C28 UNL A   1      52.280  23.911  16.932  1.00  0.00    +0.000 C 
ATOM     43  F5  UNL A   1      52.973  24.597  16.011  1.00  0.00    +0.000 F 
ENDBRANCH   32   33
BRANCH   49   50
ATOM     50  C34 UNL A   1      59.226  20.127  17.473  1.00  0.00    +0.000 C 
ATOM     51  C35 UNL A   1      60.016  21.244  17.781  1.00  0.00    +0.000 C 
ATOM     52  F6  UNL A   1      59.832  22.402  17.128  1.00  0.00    +0.000 F 
ATOM     53  C36 UNL A   1      61.028  21.164  18.734  1.00  0.00    +0.000 C 
ATOM     54  F7  UNL A   1      61.804  22.229  18.975  1.00  0.00    +0.000 F 
ATOM     55  C37 UNL A   1      61.246  19.979  19.421  1.00  0.00    +0.000 C 
ATOM     56  F8  UNL A   1      62.218  19.906  20.341  1.00  0.00    +0.000 F 
ATOM     57  C38 UNL A   1      60.463  18.868  19.148  1.00  0.00    +0.000 C 
ATOM     58  F9  UNL A   1      60.663  17.727  19.821  1.00  0.00    +0.000 F 
ATOM     59  C39 UNL A   1      59.471  18.936  18.174  1.00  0.00    +0.000 C 
ATOM     60  F10 UNL A   1      58.739  17.840  17.923  1.00  0.00    +0.000 F 
ENDBRANCH   49   50
BRANCH   64   65
ATOM     65  C43 UNL A   1      58.854  18.068  10.829  1.00  0.00    +0.000 C 
ATOM     66  C44 UNL A   1      59.635  18.860   9.976  1.00  0.00    +0.000 C 
ATOM     67  F11 UNL A   1      59.496  20.193   9.989  1.00  0.00    +0.000 F 
ATOM     68  C45 UNL A   1      60.527  18.284   9.074  1.00  0.00    +0.000 C 
ATOM     69  F12 UNL A   1      61.222  19.062   8.235  1.00  0.00    +0.000 F 
ATOM     70  C46 UNL A   1      60.679  16.906   9.031  1.00  0.00    +0.000 C 
ATOM     71  F13 UNL A   1      61.539  16.352   8.164  1.00  0.00    +0.000 F 
ATOM     72  C47 UNL A   1      59.935  16.103   9.881  1.00  0.00    +0.000 C 
ATOM     73  F14 UNL A   1      60.091  14.773   9.853  1.00  0.00    +0.000 F 
ATOM     74  C48 UNL A   1      59.021  16.677  10.763  1.00  0.00    +0.000 C 
ATOM     75  F15 UNL A   1      58.303  15.874  11.562  1.00  0.00    +0.000 F 
ENDBRANCH   64   65
TORSDOF 19
ENDMDL
MODEL 2
REMARK VINA RESULT:     -11.1     37.052     47.398
ROOT
ATOM     28  C19 UNL A   1       6.805  26.343  21.547  1.00  0.00    +0.000 C 
ATOM     29  C20 UNL A   1       6.573  26.774  20.124  1.00  0.00    +0.000 C 
ATOM     30  N5  UNL A   1       6.117  27.913  19.669  1.00  0.00    +0.000 N 
ATOM     31  C21 UNL A   1       6.141  27.806  18.284  1.00  0.00    +0.000 C 
ATOM     32  C22 UNL A   1       5.714  28.698  17.359  1.00  0.00    +0.000 C 
ATOM     44  C29 UNL A   1       5.124  29.973  17.675  1.00  0.00    +0.000 C 
ATOM     45  C30 UNL A   1       4.590  30.914  16.811  1.00  0.00    +0.000 C 
ATOM     46  C31 UNL A   1       4.179  32.018  17.566  1.00  0.00    +0.000 C 
ATOM     47  C32 UNL A   1       4.407  31.743  18.905  1.00  0.00    +0.000 C 
ATOM     48  N6  UNL A   1       4.991  30.486  18.956  1.00  0.00    +0.000 N 
ATOM     49  C33 UNL A   1       4.114  32.563  20.052  1.00  0.00    +0.000 C 
ATOM     61  C40 UNL A   1       4.362  32.214  21.338  1.00  0.00    +0.000 C 
ATOM     62  N7  UNL A   1       4.924  31.046  21.834  1.00  0.00    +0.000 N 
ATOM     63  C41 UNL A   1       4.970  31.192  23.136  1.00  0.00    +0.000 C 
ATOM     64  C42 UNL A   1       5.455  30.227  24.183  1.00  0.00    +0.000 C 
ATOM     76  C49 UNL A   1       5.895  29.012  23.805  1.00  0.00    +0.000 C 
ATOM     77  C50 UNL A   1       6.375  27.967  24.705  1.00  0.00    +0.000 C 
ATOM     78  C51 UNL A   1       6.766  26.909  23.978  1.00  0.00    +0.000 C 
ATOM     79  C52 UNL A   1       6.532  27.189  22.560  1.00  0.00    +0.000 C 
ATOM     80  N8  UNL A   1       6.010  28.457  22.553  1.00  0.00    +0.000 N 
ATOM     81  C53 UNL A   1       4.464  32.486  23.612  1.00  0.00    +0.000 C 
ATOM     82  C54 UNL A   1       4.066  33.052  22.481  1.00  0.00    +0.000 C 
ATOM     83  C55 UNL A   1       6.704  26.509  17.972  1.00  0.00    +0.000 C 
ATOM     84  C56 UNL A   1       6.927  25.807  19.073  1.00  0.00    +0.000 C 
ATOM    117  H22 UNL A   1       4.510  30.818  15.787  1.00  0.00    +0.000 H 
ATOM    118  H23 UNL A   1       3.774  32.890  17.190  1.00  0.00    +0.000 H 
ATOM    119  H24 UNL A   1       5.271  30.027  19.781  1.00  0.00    +0.000 H 
ATOM    120  H25 UNL A   1       6.408  28.032  25.734  1.00  0.00    +0.000 H 
ATOM    121  H26 UNL A   1       7.166  26.038  24.358  1.00  0.00    +0.000 H 
ATOM    122  H27 UNL A   1       5.743  28.926  21.730  1.00  0.00    +0.000 H 
ATOM    123  H28 UNL A   1       4.427  32.858  24.573  1.00  0.00    +0.000 H 
ATOM    124  H29 UNL A   1       3.603  33.972  22.423  1.00  0.00    +0.000 H 
ATOM    125  H30 UNL A   1       6.904  26.176  17.016  1.00  0.00    +0.000 H 
ATOM    126  H31 UNL A   1       7.261  24.835  19.169  1.00  0.00    +0.000 H 
ENDROOT
BRANCH   28   27
ATOM    115  H20 UNL A   1      10.245  23.259  21.566  1.00  0.00    +0.000 H 
ATOM    116  H21 UNL A   1       9.345  25.482  21.198  1.00  0.00    +0.000 H 
ATOM     85  C57 UNL A   1       6.585  24.002  22.401  1.00  0.00    +0.000 C 
ATOM     86  C58 UNL A   1       7.127  22.750  22.690  1.00  0.00    +0.000 C 
ATOM     24  C15 UNL A   1       8.447  22.460  22.334  1.00  0.00    +0.000 C 
ATOM     25  C16 UNL A   1       9.260  23.462  21.795  1.00  0.00    +0.000 C 
ATOM     26  C17 UNL A   1       8.737  24.736  21.569  1.00  0.00    +0.000 C 
ATOM     27  C18 UNL A   1       7.387  25.009  21.843  1.00  0.00    +0.000 C 
ATOM    127  H32 UNL A   1       5.589  24.188  22.599  1.00  0.00    +0.000 H 
ATOM    128  H33 UNL A   1       6.553  22.037  23.169  1.00  0.00    +0.000 H 
BRANCH   24   22
ATOM     22  C14 UNL A   1       9.028  21.115  22.544  1.00  0.00    +0.000 C 
ATOM     23  O4  UNL A   1       8.368  20.251  23.114  1.00  0.00    +0.000 O 
BRANCH   22   21
ATOM    114  H19 UNL A   1      10.364  20.412  21.232  1.00  0.00    +0.000 H 
ATOM     21  N4  UNL A   1      10.301  20.833  22.119  1.00  0.00    +0.000 N 
BRANCH   21   20
ATOM    113  H18 UNL A   1      12.062  20.117  22.885  1.00  0.00    +0.000 H 
ATOM     20  C13 UNL A   1      11.570  21.062  22.786  1.00  0.00    +0.000 C 
ATOM    112  H17 UNL A   1      11.380  21.506  23.740  1.00  0.00    +0.000 H 
BRANCH   20   19
ATOM     19  C12 UNL A   1      12.487  21.984  21.989  1.00  0.00    +0.000 C 
ATOM    110  H15 UNL A   1      12.305  21.813  20.948  1.00  0.00    +0.000 H 
ATOM    111  H16 UNL A   1      12.254  22.979  22.305  1.00  0.00    +0.000 H 
BRANCH   19   18
ATOM     18  C11 UNL A   1      13.985  21.798  22.244  1.00  0.00    +0.000 C 
ATOM    108  H13 UNL A   1      14.348  22.679  22.731  1.00  0.00    +0.000 H 
ATOM    109  H14 UNL A   1      14.071  20.909  22.835  1.00  0.00    +0.000 H 
BRANCH   18   17
ATOM     17  C10 UNL A   1      14.845  21.557  21.000  1.00  0.00    +0.000 C 
ATOM    106  H11 UNL A   1      15.441  20.686  21.175  1.00  0.00    +0.000 H 
ATOM    107  H12 UNL A   1      14.162  21.454  20.184  1.00  0.00    +0.000 H 
BRANCH   17   16
ATOM    105  H10 UNL A   1      16.527  22.751  21.393  1.00  0.00    +0.000 H 
ATOM    104  H9  UNL A   1      15.204  23.596  20.536  1.00  0.00    +0.000 H 
ATOM     16  C9  UNL A   1      15.786  22.702  20.621  1.00  0.00    +0.000 C 
BRANCH   16   15
ATOM    103  H8  UNL A   1      16.692  23.462  18.857  1.00  0.00    +0.000 H 
ATOM    102  H7  UNL A   1      15.973  21.868  18.668  1.00  0.00    +0.000 H 
ATOM     15  C8  UNL A   1      16.545  22.505  19.311  1.00  0.00    +0.000 C 
BRANCH   15   14
ATOM    101  H6  UNL A   1      18.579  22.552  19.503  1.00  0.00    +0.000 H 
ATOM     14  N3  UNL A   1      17.841  21.902  19.545  1.00  0.00    +0.000 N 
BRANCH   14   12
ATOM     12  C7  UNL A   1      18.270  20.626  19.812  1.00  0.00    +0.000 C 
ATOM     13  O3  UNL A   1      18.753  19.986  18.881  1.00  0.00    +0.000 O 
BRANCH   12   11
ATOM    129  H34 UNL A   1      19.029  18.024  20.999  1.00  0.00    +0.000 H 
ATOM    130  H35 UNL A   1      17.349  17.964  20.828  1.00  0.00    +0.000 H 
ATOM    131  H36 UNL A   1      17.110  17.912  23.206  1.00  0.00    +0.000 H 
ATOM      9  N1  UNL A   1      18.086  19.787  23.319  1.00  0.00    +0.000 N 
ATOM     10  N2  UNL A   1      18.014  20.648  22.253  1.00  0.00    +0.000 N 
ATOM     11  C6  UNL A   1      18.136  19.946  21.167  1.00  0.00    +0.000 C 
ATOM     87  C59 UNL A   1      18.126  18.472  21.358  1.00  0.00    +0.000 C 
ATOM     88  C60 UNL A   1      18.018  18.377  22.882  1.00  0.00    +0.000 C 
BRANCH    9    8
ATOM     99  H4  UNL A   1      17.483  21.250  27.616  1.00  0.00    +0.000 H 
ATOM    100  H5  UNL A   1      18.896  20.602  25.748  1.00  0.00    +0.000 H 
ATOM      5  C2  UNL A   1      15.672  20.791  26.626  1.00  0.00    +0.000 C 
ATOM      6  C3  UNL A   1      17.060  20.904  26.740  1.00  0.00    +0.000 C 
ATOM      7  C4  UNL A   1      17.870  20.542  25.658  1.00  0.00    +0.000 C 
ATOM    136  H41 UNL A   1      14.067  20.240  25.369  1.00  0.00    +0.000 H 
ATOM    135  H40 UNL A   1      15.482  19.634  23.499  1.00  0.00    +0.000 H 
ATOM      8  C5  UNL A   1      17.307  20.098  24.452  1.00  0.00    +0.000 C 
ATOM     94  C65 UNL A   1      15.911  19.982  24.371  1.00  0.00    +0.000 C 
ATOM     95  C66 UNL A   1      15.092  20.327  25.446  1.00  0.00    +0.000 C 
BRANCH    5    2
ATOM      2  S1  UNL A   1      14.632  21.269  27.985  1.00  0.00    +0.000 S 
ATOM      3  O1  UNL A   1      13.262  21.296  27.502  1.00  0.00    +0.000 O 
ATOM      4  O2  UNL A   1      15.234  22.446  28.578  1.00  0.00    +0.000 O 
BRANCH    2    1
ATOM      1  C1  UNL A   1      14.758  19.930  29.138  1.00  0.00    +0.000 C 
ATOM     98  H3  UNL A   1      13.882  19.903  29.751  1.00  0.00    +0.000 H 
ATOM     97  H2  UNL A   1      14.848  19.006  28.604  1.00  0.00    +0.000 H 
ATOM     96  H1  UNL A   1      15.622  20.069  29.755  1.00  0.00    +0.000 H 
ENDBRANCH    2    1
ENDBRANCH    5    2
ENDBRANCH    9    8
BRANCH   88   89
ATOM    132  H37 UNL A   1      18.213  15.505  23.106  1.00  0.00    +0.000 H 
ATOM    133  H38 UNL A   1      20.189  14.443  24.363  1.00  0.00    +0.000 H 
ATOM    134  H39 UNL A   1      21.834  16.183  25.184  1.00  0.00    +0.000 H 
ATOM     89  C61 UNL A   1      19.027  17.435  23.524  1.00  0.00    +0.000 C 
ATOM     90  C62 UNL A   1      18.971  16.050  23.544  1.00  0.00    +0.000 C 
ATOM     91  C63 UNL A   1      20.069  15.459  24.232  1.00  0.00    +0.000 C 
ATOM     92  C64 UNL A   1      20.950  16.406  24.700  1.00  0.00    +0.000 C 
ATOM     93  S2  UNL A   1      20.405  17.991  24.391  1.00  0.00    +0.000 S 
ENDBRANCH   88   89
ENDBRANCH   12   11
ENDBRANCH   14   12
ENDBRANCH   15   14
ENDBRANCH   16   15
ENDBRANCH   17   16
ENDBRANCH   18   17
ENDBRANCH   19   18
ENDBRANCH   20   19
ENDBRANCH   21   20
ENDBRANCH   22   21
ENDBRANCH   24   22
ENDBRANCH   28   27
BRANCH   32   33
ATOM     33  C23 UNL A   1       5.863  28.330  15.912  1.00  0.00    +0.000 C 
ATOM     34  C24 UNL A   1       4.786  27.834  15.162  1.00  0.00    +0.000 C 
ATOM     35  F1  UNL A   1       3.599  27.617  15.749  1.00  0.00    +0.000 F 
ATOM     36  C25 UNL A   1       4.932  27.526  13.813  1.00  0.00    +0.000 C 
ATOM     37  F2  UNL A   1       3.901  27.012  13.128  1.00  0.00    +0.000 F 
ATOM     38  C26 UNL A   1       6.146  27.740  13.177  1.00  0.00    +0.000 C 
ATOM     39  F3  UNL A   1       6.282  27.454  11.875  1.00  0.00    +0.000 F 
ATOM     40  C27 UNL A   1       7.221  28.247  13.893  1.00  0.00    +0.000 C 
ATOM     41  F4  UNL A   1       8.391  28.467  13.278  1.00  0.00    +0.000 F 
ATOM     42  C28 UNL A   1       7.085  28.528  15.250  1.00  0.00    +0.000 C 
ATOM     43  F5  UNL A   1       8.146  29.006  15.918  1.00  0.00    +0.000 F 
ENDBRANCH   32   33
BRANCH   49   50
ATOM     50  C34 UNL A   1       3.465  33.895  19.814  1.00  0.00    +0.000 C 
ATOM     51  C35 UNL A   1       2.071  34.040  19.789  1.00  0.00    +0.000 C 
ATOM     52  F6  UNL A   1       1.277  32.968  19.935  1.00  0.00    +0.000 F 
ATOM     53  C36 UNL A   1       1.485  35.283  19.570  1.00  0.00    +0.000 C 
ATOM     54  F7  UNL A   1       0.151  35.390  19.498  1.00  0.00    +0.000 F 
ATOM     55  C37 UNL A   1       2.278  36.410  19.409  1.00  0.00    +0.000 C 
ATOM     56  F8  UNL A   1       1.712  37.607  19.203  1.00  0.00    +0.000 F 
ATOM     57  C38 UNL A   1       3.660  36.293  19.453  1.00  0.00    +0.000 C 
ATOM     58  F9  UNL A   1       4.428  37.382  19.312  1.00  0.00    +0.000 F 
ATOM     59  C39 UNL A   1       4.249  35.046  19.640  1.00  0.00    +0.000 C 
ATOM     60  F10 UNL A   1       5.587  34.963  19.664  1.00  0.00    +0.000 F 
ENDBRANCH   49   50
BRANCH   64   65
ATOM     65  C43 UNL A   1       5.435  30.594  25.624  1.00  0.00    +0.000 C 
ATOM     66  C44 UNL A   1       6.514  31.268  26.212  1.00  0.00    +0.000 C 
ATOM     67  F11 UNL A   1       7.589  31.581  25.475  1.00  0.00    +0.000 F 
ATOM     68  C45 UNL A   1       6.513  31.583  27.569  1.00  0.00    +0.000 C 
ATOM     69  F12 UNL A   1       7.579  32.181  28.116  1.00  0.00    +0.000 F 
ATOM     70  C46 UNL A   1       5.419  31.259  28.357  1.00  0.00    +0.000 C 
ATOM     71  F13 UNL A   1       5.417  31.563  29.663  1.00  0.00    +0.000 F 
ATOM     72  C47 UNL A   1       4.330  30.612  27.793  1.00  0.00    +0.000 C 
ATOM     73  F14 UNL A   1       3.264  30.311  28.548  1.00  0.00    +0.000 F 
ATOM     74  C48 UNL A   1       4.342  30.271  26.442  1.00  0.00    +0.000 C 
ATOM     75  F15 UNL A   1       3.282  29.632  25.927  1.00  0.00    +0.000 F 
ENDBRANCH   64   65
TORSDOF 19
ENDMDL
MODEL 3
REMARK VINA RESULT:     -10.9      1.108      2.311
ROOT
ATOM     28  C19 UNL A   1      53.379  19.260  10.998  1.00  0.00    +0.000 C 
ATOM     29  C20 UNL A   1      53.254  20.075  12.257  1.00  0.00    +0.000 C 
ATOM     30  N5  UNL A   1      54.132  20.267  13.208  1.00  0.00    +0.000 N 
ATOM     31  C21 UNL A   1      53.530  21.132  14.112  1.00  0.00    +0.000 C 
ATOM     32  C22 UNL A   1      54.008  21.589  15.294  1.00  0.00    +0.000 C 
ATOM     44  C29 UNL A   1      55.289  21.226  15.844  1.00  0.00    +0.000 C 
ATOM     45  C30 UNL A   1      55.831  21.575  17.069  1.00  0.00    +0.000 C 
ATOM     46  C31 UNL A   1      57.118  21.033  17.148  1.00  0.00    +0.000 C 
ATOM     47  C32 UNL A   1      57.358  20.302  15.995  1.00  0.00    +0.000 C 
ATOM     48  N6  UNL A   1      56.228  20.433  15.203  1.00  0.00    +0.000 N 
ATOM     49  C33 UNL A   1      58.528  19.541  15.643  1.00  0.00    +0.000 C 
ATOM     61  C40 UNL A   1      58.680  18.841  14.492  1.00  0.00    +0.000 C 
ATOM     62  N7  UNL A   1      57.794  18.696  13.433  1.00  0.00    +0.000 N 
ATOM     63  C41 UNL A   1      58.405  17.944  12.551  1.00  0.00    +0.000 C 
ATOM     64  C42 UNL A   1      57.906  17.438  11.225  1.00  0.00    +0.000 C 
ATOM     76  C49 UNL A   1      56.652  17.741  10.836  1.00  0.00    +0.000 C 
ATOM     77  C50 UNL A   1      56.025  17.307   9.591  1.00  0.00    +0.000 C 
ATOM     78  C51 UNL A   1      54.790  17.826   9.520  1.00  0.00    +0.000 C 
ATOM     79  C52 UNL A   1      54.525  18.604  10.732  1.00  0.00    +0.000 C 
ATOM     80  N8  UNL A   1      55.685  18.494  11.457  1.00  0.00    +0.000 N 
ATOM     81  C53 UNL A   1      59.765  17.548  12.941  1.00  0.00    +0.000 C 
ATOM     82  C54 UNL A   1      59.866  18.084  14.149  1.00  0.00    +0.000 C 
ATOM     83  C55 UNL A   1      52.229  21.468  13.572  1.00  0.00    +0.000 C 
ATOM     84  C56 UNL A   1      51.984  20.789  12.460  1.00  0.00    +0.000 C 
ATOM    117  H22 UNL A   1      55.366  22.137  17.798  1.00  0.00    +0.000 H 
ATOM    118  H23 UNL A   1      57.778  21.156  17.933  1.00  0.00    +0.000 H 
ATOM    119  H24 UNL A   1      56.111  20.024  14.314  1.00  0.00    +0.000 H 
ATOM    120  H25 UNL A   1      56.461  16.699   8.881  1.00  0.00    +0.000 H 
ATOM    121  H26 UNL A   1      54.131  17.698   8.736  1.00  0.00    +0.000 H 
ATOM    122  H27 UNL A   1      55.812  18.913  12.338  1.00  0.00    +0.000 H 
ATOM    123  H28 UNL A   1      60.460  16.997  12.414  1.00  0.00    +0.000 H 
ATOM    124  H29 UNL A   1      60.685  17.975  14.767  1.00  0.00    +0.000 H 
ATOM    125  H30 UNL A   1      51.578  22.146  13.998  1.00  0.00    +0.000 H 
ATOM    126  H31 UNL A   1      51.127  20.768  11.887  1.00  0.00    +0.000 H 
ENDROOT
BRANCH   28   27
ATOM    115  H20 UNL A   1      50.868  21.015   7.539  1.00  0.00    +0.000 H 
ATOM    116  H21 UNL A   1      52.767  21.033   9.050  1.00  0.00    +0.000 H 
ATOM     85  C57 UNL A   1      51.372  18.138  10.012  1.00  0.00    +0.000 C 
ATOM     86  C58 UNL A   1      50.330  18.088   9.087  1.00  0.00    +0.000 C 
ATOM     24  C15 UNL A   1      50.112  19.164   8.222  1.00  0.00    +0.000 C 
ATOM     25  C16 UNL A   1      51.008  20.237   8.203  1.00  0.00    +0.000 C 
ATOM     26  C17 UNL A   1      52.091  20.255   9.084  1.00  0.00    +0.000 C 
ATOM     27  C18 UNL A   1      52.266  19.219  10.016  1.00  0.00    +0.000 C 
ATOM    127  H32 UNL A   1      51.486  17.375  10.699  1.00  0.00    +0.000 H 
ATOM    128  H33 UNL A   1      49.721  17.256   9.040  1.00  0.00    +0.000 H 
BRANCH   24   22
ATOM     22  C14 UNL A   1      48.963  19.185   7.289  1.00  0.00    +0.000 C 
ATOM     23  O4  UNL A   1      48.497  20.260   6.923  1.00  0.00    +0.000 O 
BRANCH   22   21
ATOM    114  H19 UNL A   1      47.532  17.788   7.233  1.00  0.00    +0.000 H 
ATOM     21  N4  UNL A   1      48.408  18.012   6.842  1.00  0.00    +0.000 N 
BRANCH   21   20
ATOM    113  H18 UNL A   1      49.135  16.147   6.406  1.00  0.00    +0.000 H 
ATOM     20  C13 UNL A   1      48.920  17.054   5.880  1.00  0.00    +0.000 C 
ATOM    112  H17 UNL A   1      49.800  17.461   5.427  1.00  0.00    +0.000 H 
BRANCH   20   19
ATOM     19  C12 UNL A   1      47.908  16.730   4.786  1.00  0.00    +0.000 C 
ATOM    110  H15 UNL A   1      48.448  16.552   3.879  1.00  0.00    +0.000 H 
ATOM    111  H16 UNL A   1      47.360  15.879   5.132  1.00  0.00    +0.000 H 
BRANCH   19   18
ATOM     18  C11 UNL A   1      46.869  17.821   4.512  1.00  0.00    +0.000 C 
ATOM    108  H13 UNL A   1      45.976  17.565   5.042  1.00  0.00    +0.000 H 
ATOM    109  H14 UNL A   1      47.317  18.738   4.835  1.00  0.00    +0.000 H 
BRANCH   18   17
ATOM     17  C10 UNL A   1      46.501  18.031   3.040  1.00  0.00    +0.000 C 
ATOM    106  H11 UNL A   1      46.958  18.941   2.713  1.00  0.00    +0.000 H 
ATOM    107  H12 UNL A   1      46.850  17.164   2.522  1.00  0.00    +0.000 H 
BRANCH   17   16
ATOM    105  H10 UNL A   1      44.549  17.282   3.226  1.00  0.00    +0.000 H 
ATOM    104  H9  UNL A   1      44.872  18.127   1.683  1.00  0.00    +0.000 H 
ATOM     16  C9  UNL A   1      45.003  18.124   2.745  1.00  0.00    +0.000 C 
BRANCH   16   15
ATOM    103  H8  UNL A   1      44.791  20.231   2.908  1.00  0.00    +0.000 H 
ATOM    102  H7  UNL A   1      44.390  19.351   4.377  1.00  0.00    +0.000 H 
ATOM     15  C8  UNL A   1      44.312  19.363   3.310  1.00  0.00    +0.000 C 
BRANCH   15   14
ATOM    101  H6  UNL A   1      42.733  19.991   2.175  1.00  0.00    +0.000 H 
ATOM     14  N3  UNL A   1      42.913  19.395   2.938  1.00  0.00    +0.000 N 
BRANCH   14   12
ATOM     12  C7  UNL A   1      41.781  18.779   3.410  1.00  0.00    +0.000 C 
ATOM     13  O3  UNL A   1      41.931  17.781   4.112  1.00  0.00    +0.000 O 
BRANCH   12   11
ATOM    129  H34 UNL A   1      39.140  18.728   4.744  1.00  0.00    +0.000 H 
ATOM    130  H35 UNL A   1      39.042  17.573   3.514  1.00  0.00    +0.000 H 
ATOM    131  H36 UNL A   1      37.401  18.905   2.397  1.00  0.00    +0.000 H 
ATOM      9  N1  UNL A   1      38.812  20.475   2.250  1.00  0.00    +0.000 N 
ATOM     10  N2  UNL A   1      40.151  20.176   2.220  1.00  0.00    +0.000 N 
ATOM     11  C6  UNL A   1      40.364  19.225   3.078  1.00  0.00    +0.000 C 
ATOM     87  C59 UNL A   1      39.144  18.625   3.679  1.00  0.00    +0.000 C 
ATOM     88  C60 UNL A   1      38.051  19.475   3.027  1.00  0.00    +0.000 C 
BRANCH    9    8
ATOM     99  H4  UNL A   1      35.394  20.598  -0.794  1.00  0.00    +0.000 H 
ATOM    100  H5  UNL A   1      36.421  19.771   1.247  1.00  0.00    +0.000 H 
ATOM      5  C2  UNL A   1      37.053  21.784  -1.352  1.00  0.00    +0.000 C 
ATOM      6  C3  UNL A   1      36.344  20.904  -0.530  1.00  0.00    +0.000 C 
ATOM      7  C4  UNL A   1      36.933  20.439   0.650  1.00  0.00    +0.000 C 
ATOM    136  H41 UNL A   1      38.858  22.850  -1.613  1.00  0.00    +0.000 H 
ATOM    135  H40 UNL A   1      39.858  22.049   0.443  1.00  0.00    +0.000 H 
ATOM      8  C5  UNL A   1      38.212  20.869   1.036  1.00  0.00    +0.000 C 
ATOM     94  C65 UNL A   1      38.906  21.742   0.186  1.00  0.00    +0.000 C 
ATOM     95  C66 UNL A   1      38.336  22.204  -1.001  1.00  0.00    +0.000 C 
BRANCH    5    2
ATOM      2  S1  UNL A   1      36.306  22.399  -2.841  1.00  0.00    +0.000 S 
ATOM      3  O1  UNL A   1      34.961  21.856  -2.915  1.00  0.00    +0.000 O 
ATOM      4  O2  UNL A   1      37.258  22.174  -3.910  1.00  0.00    +0.000 O 
BRANCH    2    1
ATOM      1  C1  UNL A   1      36.155  24.145  -2.579  1.00  0.00    +0.000 C 
ATOM     98  H3  UNL A   1      36.754  24.667  -3.295  1.00  0.00    +0.000 H 
ATOM     97  H2  UNL A   1      35.131  24.435  -2.691  1.00  0.00    +0.000 H 
ATOM     96  H1  UNL A   1      36.488  24.388  -1.591  1.00  0.00    +0.000 H 
ENDBRANCH    2    1
ENDBRANCH    5    2
ENDBRANCH    9    8
BRANCH   88   89
ATOM    132  H37 UNL A   1      36.101  18.278   4.789  1.00  0.00    +0.000 H 
ATOM    133  H38 UNL A   1      34.583  19.769   6.233  1.00  0.00    +0.000 H 
ATOM    134  H39 UNL A   1      35.129  22.225   5.955  1.00  0.00    +0.000 H 
ATOM     89  C61 UNL A   1      37.027  20.036   4.004  1.00  0.00    +0.000 C 
ATOM     90  C62 UNL A   1      36.146  19.308   4.789  1.00  0.00    +0.000 C 
ATOM     91  C63 UNL A   1      35.310  20.132   5.597  1.00  0.00    +0.000 C 
ATOM     92  C64 UNL A   1      35.589  21.468   5.427  1.00  0.00    +0.000 C 
ATOM     93  S2  UNL A   1      36.783  21.723   4.237  1.00  0.00    +0.000 S 
ENDBRANCH   88   89
ENDBRANCH   12   11
ENDBRANCH   14   12
ENDBRANCH   15   14
ENDBRANCH   16   15
ENDBRANCH   17   16
ENDBRANCH   18   17
ENDBRANCH   19   18
ENDBRANCH   20   19
ENDBRANCH   21   20
ENDBRANCH   22   21
ENDBRANCH   24   22
ENDBRANCH   28   27
BRANCH   32   33
ATOM     33  C23 UNL A   1      53.144  22.530  16.082  1.00  0.00    +0.000 C 
ATOM     34  C24 UNL A   1      53.056  23.893  15.762  1.00  0.00    +0.000 C 
ATOM     35  F1  UNL A   1      53.802  24.403  14.770  1.00  0.00    +0.000 F 
ATOM     36  C25 UNL A   1      52.226  24.747  16.483  1.00  0.00    +0.000 C 
ATOM     37  F2  UNL A   1      52.192  26.054  16.187  1.00  0.00    +0.000 F 
ATOM     38  C26 UNL A   1      51.441  24.251  17.513  1.00  0.00    +0.000 C 
ATOM     39  F3  UNL A   1      50.634  25.071  18.198  1.00  0.00    +0.000 F 
ATOM     40  C27 UNL A   1      51.498  22.903  17.835  1.00  0.00    +0.000 C 
ATOM     41  F4  UNL A   1      50.731  22.418  18.822  1.00  0.00    +0.000 F 
ATOM     42  C28 UNL A   1      52.349  22.052  17.135  1.00  0.00    +0.000 C 
ATOM     43  F5  UNL A   1      52.390  20.756  17.479  1.00  0.00    +0.000 F 
ENDBRANCH   32   33
BRANCH   49   50
ATOM     50  C34 UNL A   1      59.658  19.494  16.629  1.00  0.00    +0.000 C 
ATOM     51  C35 UNL A   1      59.781  18.451  17.558  1.00  0.00    +0.000 C 
ATOM     52  F6  UNL A   1      58.854  17.483  17.614  1.00  0.00    +0.000 F 
ATOM     53  C36 UNL A   1      60.838  18.422  18.464  1.00  0.00    +0.000 C 
ATOM     54  F7  UNL A   1      60.908  17.444  19.378  1.00  0.00    +0.000 F 
ATOM     55  C37 UNL A   1      61.809  19.412  18.436  1.00  0.00    +0.000 C 
ATOM     56  F8  UNL A   1      62.827  19.379  19.306  1.00  0.00    +0.000 F 
ATOM     57  C38 UNL A   1      61.718  20.441  17.510  1.00  0.00    +0.000 C 
ATOM     58  F9  UNL A   1      62.663  21.391  17.472  1.00  0.00    +0.000 F 
ATOM     59  C39 UNL A   1      60.647  20.490  16.624  1.00  0.00    +0.000 C 
ATOM     60  F10 UNL A   1      60.580  21.505  15.750  1.00  0.00    +0.000 F 
ENDBRANCH   49   50
BRANCH   64   65
ATOM     65  C43 UNL A   1      58.771  16.598  10.356  1.00  0.00    +0.000 C 
ATOM     66  C44 UNL A   1      58.840  15.209  10.534  1.00  0.00    +0.000 C 
ATOM     67  F11 UNL A   1      58.127  14.623  11.507  1.00  0.00    +0.000 F 
ATOM     68  C45 UNL A   1      59.677  14.423   9.745  1.00  0.00    +0.000 C 
ATOM     69  F12 UNL A   1      59.762  13.106   9.970  1.00  0.00    +0.000 F 
ATOM     70  C46 UNL A   1      60.435  15.006   8.740  1.00  0.00    +0.000 C 
ATOM     71  F13 UNL A   1      61.239  14.249   7.980  1.00  0.00    +0.000 F 
ATOM     72  C47 UNL A   1      60.365  16.374   8.530  1.00  0.00    +0.000 C 
ATOM     73  F14 UNL A   1      61.085  16.939   7.551  1.00  0.00    +0.000 F 
ATOM     74  C48 UNL A   1      59.551  17.165   9.338  1.00  0.00    +0.000 C 
ATOM     75  F15 UNL A   1      59.516  18.489   9.123  1.00  0.00    +0.000 F 
ENDBRANCH   64   65
TORSDOF 19
ENDMDL
MODEL 4
REMARK VINA RESULT:     -10.7     45.301     52.969
ROOT
ATOM     28  C19 UNL A   1      24.161  39.727  47.550  1.00  0.00    +0.000 C 
ATOM     29  C20 UNL A   1      23.583  38.362  47.298  1.00  0.00    +0.000 C 
ATOM     30  N5  UNL A   1      22.393  37.900  47.591  1.00  0.00    +0.000 N 
ATOM     31  C21 UNL A   1      22.359  36.601  47.103  1.00  0.00    +0.000 C 
ATOM     32  C22 UNL A   1      21.367  35.684  47.207  1.00  0.00    +0.000 C 
ATOM     44  C29 UNL A   1      20.119  35.914  47.886  1.00  0.00    +0.000 C 
ATOM     45  C30 UNL A   1      19.083  35.024  48.112  1.00  0.00    +0.000 C 
ATOM     46  C31 UNL A   1      18.053  35.708  48.767  1.00  0.00    +0.000 C 
ATOM     47  C32 UNL A   1      18.469  37.010  48.997  1.00  0.00    +0.000 C 
ATOM     48  N6  UNL A   1      19.736  37.123  48.447  1.00  0.00    +0.000 N 
ATOM     49  C33 UNL A   1      17.763  38.071  49.667  1.00  0.00    +0.000 C 
ATOM     61  C40 UNL A   1      18.247  39.323  49.861  1.00  0.00    +0.000 C 
ATOM     62  N7  UNL A   1      19.472  39.855  49.482  1.00  0.00    +0.000 N 
ATOM     63  C41 UNL A   1      19.461  41.104  49.875  1.00  0.00    +0.000 C 
ATOM     64  C42 UNL A   1      20.538  42.148  49.757  1.00  0.00    +0.000 C 
ATOM     76  C49 UNL A   1      21.718  41.814  49.200  1.00  0.00    +0.000 C 
ATOM     77  C50 UNL A   1      22.859  42.710  49.035  1.00  0.00    +0.000 C 
ATOM     78  C51 UNL A   1      23.846  42.050  48.409  1.00  0.00    +0.000 C 
ATOM     79  C52 UNL A   1      23.418  40.672  48.158  1.00  0.00    +0.000 C 
ATOM     80  N8  UNL A   1      22.144  40.622  48.664  1.00  0.00    +0.000 N 
ATOM     81  C53 UNL A   1      18.210  41.515  50.529  1.00  0.00    +0.000 C 
ATOM     82  C54 UNL A   1      17.524  40.381  50.534  1.00  0.00    +0.000 C 
ATOM     83  C55 UNL A   1      23.629  36.361  46.450  1.00  0.00    +0.000 C 
ATOM     84  C56 UNL A   1      24.445  37.395  46.600  1.00  0.00    +0.000 C 
ATOM    117  H22 UNL A   1      19.072  34.028  47.843  1.00  0.00    +0.000 H 
ATOM    118  H23 UNL A   1      17.139  35.310  49.034  1.00  0.00    +0.000 H 
ATOM    119  H24 UNL A   1      20.283  37.942  48.453  1.00  0.00    +0.000 H 
ATOM    120  H25 UNL A   1      22.900  43.691  49.349  1.00  0.00    +0.000 H 
ATOM    121  H26 UNL A   1      24.760  42.449  48.147  1.00  0.00    +0.000 H 
ATOM    122  H27 UNL A   1      21.587  39.811  48.646  1.00  0.00    +0.000 H 
ATOM    123  H28 UNL A   1      17.938  42.442  50.891  1.00  0.00    +0.000 H 
ATOM    124  H29 UNL A   1      16.592  40.267  50.962  1.00  0.00    +0.000 H 
ATOM    125  H30 UNL A   1      23.867  35.498  45.937  1.00  0.00    +0.000 H 
ATOM    126  H31 UNL A   1      25.428  37.496  46.304  1.00  0.00    +0.000 H 
ENDROOT
BRANCH   28   27
ATOM    115  H20 UNL A   1      27.194  41.204  44.393  1.00  0.00    +0.000 H 
ATOM    116  H21 UNL A   1      24.940  40.787  45.187  1.00  0.00    +0.000 H 
ATOM     85  C57 UNL A   1      26.632  39.848  47.927  1.00  0.00    +0.000 C 
ATOM     86  C58 UNL A   1      27.920  40.167  47.499  1.00  0.00    +0.000 C 
ATOM     24  C15 UNL A   1      28.132  40.609  46.190  1.00  0.00    +0.000 C 
ATOM     25  C16 UNL A   1      27.041  40.843  45.347  1.00  0.00    +0.000 C 
ATOM     26  C17 UNL A   1      25.745  40.588  45.800  1.00  0.00    +0.000 C 
ATOM     27  C18 UNL A   1      25.531  40.061  47.083  1.00  0.00    +0.000 C 
ATOM    127  H32 UNL A   1      26.488  39.453  48.870  1.00  0.00    +0.000 H 
ATOM    128  H33 UNL A   1      28.717  40.079  48.150  1.00  0.00    +0.000 H 
BRANCH   24   22
ATOM     22  C14 UNL A   1      29.494  40.872  45.674  1.00  0.00    +0.000 C 
ATOM     23  O4  UNL A   1      30.048  41.935  45.937  1.00  0.00    +0.000 O 
BRANCH   22   21
ATOM    114  H19 UNL A   1      30.494  40.288  44.043  1.00  0.00    +0.000 H 
ATOM     21  N4  UNL A   1      30.133  39.944  44.892  1.00  0.00    +0.000 N 
BRANCH   21   20
ATOM    113  H18 UNL A   1      30.207  38.348  46.175  1.00  0.00    +0.000 H 
ATOM     20  C13 UNL A   1      30.354  38.529  45.130  1.00  0.00    +0.000 C 
ATOM    112  H17 UNL A   1      31.349  38.282  44.826  1.00  0.00    +0.000 H 
BRANCH   20   19
ATOM     19  C12 UNL A   1      29.372  37.650  44.362  1.00  0.00    +0.000 C 
ATOM    110  H15 UNL A   1      29.123  38.151  43.450  1.00  0.00    +0.000 H 
ATOM    111  H16 UNL A   1      29.868  36.713  44.214  1.00  0.00    +0.000 H 
BRANCH   19   18
ATOM     18  C11 UNL A   1      28.068  37.328  45.097  1.00  0.00    +0.000 C 
ATOM    108  H13 UNL A   1      28.272  37.332  46.147  1.00  0.00    +0.000 H 
ATOM    109  H14 UNL A   1      27.368  38.077  44.788  1.00  0.00    +0.000 H 
BRANCH   18   17
ATOM     17  C10 UNL A   1      27.423  35.984  44.746  1.00  0.00    +0.000 C 
ATOM    106  H11 UNL A   1      27.133  35.509  45.660  1.00  0.00    +0.000 H 
ATOM    107  H12 UNL A   1      26.602  36.210  44.100  1.00  0.00    +0.000 H 
BRANCH   17   16
ATOM    105  H10 UNL A   1      29.320  35.224  44.268  1.00  0.00    +0.000 H 
ATOM    104  H9  UNL A   1      28.140  35.159  42.927  1.00  0.00    +0.000 H 
ATOM     16  C9  UNL A   1      28.314  35.011  43.972  1.00  0.00    +0.000 C 
BRANCH   16   15
ATOM    103  H8  UNL A   1      29.024  33.079  44.496  1.00  0.00    +0.000 H 
ATOM    102  H7  UNL A   1      27.616  33.067  43.442  1.00  0.00    +0.000 H 
ATOM     15  C8  UNL A   1      28.079  33.535  44.286  1.00  0.00    +0.000 C 
BRANCH   15   14
ATOM    101  H6  UNL A   1      26.272  33.519  45.238  1.00  0.00    +0.000 H 
ATOM     14  N3  UNL A   1      27.224  33.377  45.443  1.00  0.00    +0.000 N 
BRANCH   14   12
ATOM     12  C7  UNL A   1      27.444  33.073  46.763  1.00  0.00    +0.000 C 
ATOM     13  O3  UNL A   1      27.645  31.894  47.046  1.00  0.00    +0.000 O 
BRANCH   12   11
ATOM    129  H34 UNL A   1      29.403  34.733  48.235  1.00  0.00    +0.000 H 
ATOM    130  H35 UNL A   1      28.921  33.537  49.327  1.00  0.00    +0.000 H 
ATOM    131  H36 UNL A   1      27.895  35.205  50.698  1.00  0.00    +0.000 H 
ATOM      9  N1  UNL A   1      26.629  35.719  49.081  1.00  0.00    +0.000 N 
ATOM     10  N2  UNL A   1      26.324  34.770  48.138  1.00  0.00    +0.000 N 
ATOM     11  C6  UNL A   1      27.404  34.092  47.893  1.00  0.00    +0.000 C 
ATOM     87  C59 UNL A   1      28.555  34.385  48.787  1.00  0.00    +0.000 C 
ATOM     88  C60 UNL A   1      27.966  35.488  49.668  1.00  0.00    +0.000 C 
BRANCH    9    8
ATOM     99  H4  UNL A   1      23.854  38.640  51.255  1.00  0.00    +0.000 H 
ATOM    100  H5  UNL A   1      25.691  38.148  49.743  1.00  0.00    +0.000 H 
ATOM      5  C2  UNL A   1      23.534  36.621  51.798  1.00  0.00    +0.000 C 
ATOM      6  C3  UNL A   1      24.162  37.665  51.112  1.00  0.00    +0.000 C 
ATOM      7  C4  UNL A   1      25.212  37.377  50.233  1.00  0.00    +0.000 C 
ATOM    136  H41 UNL A   1      23.480  34.535  52.122  1.00  0.00    +0.000 H 
ATOM    135  H40 UNL A   1      25.288  34.052  50.583  1.00  0.00    +0.000 H 
ATOM      8  C5  UNL A   1      25.621  36.054  50.008  1.00  0.00    +0.000 C 
ATOM     94  C65 UNL A   1      24.982  35.028  50.720  1.00  0.00    +0.000 C 
ATOM     95  C66 UNL A   1      23.943  35.301  51.609  1.00  0.00    +0.000 C 
BRANCH    5    2
ATOM      2  S1  UNL A   1      22.186  36.972  52.899  1.00  0.00    +0.000 S 
ATOM      3  O1  UNL A   1      22.348  38.336  53.372  1.00  0.00    +0.000 O 
ATOM      4  O2  UNL A   1      22.109  35.867  53.832  1.00  0.00    +0.000 O 
BRANCH    2    1
ATOM      1  C1  UNL A   1      20.746  36.941  51.867  1.00  0.00    +0.000 C 
ATOM     98  H3  UNL A   1      20.015  37.622  52.252  1.00  0.00    +0.000 H 
ATOM     97  H2  UNL A   1      21.014  37.232  50.872  1.00  0.00    +0.000 H 
ATOM     96  H1  UNL A   1      20.338  35.951  51.851  1.00  0.00    +0.000 H 
ENDBRANCH    2    1
ENDBRANCH    5    2
ENDBRANCH    9    8
BRANCH   88   89
ATOM    132  H37 UNL A   1      29.905  36.761  47.949  1.00  0.00    +0.000 H 
ATOM    133  H38 UNL A   1      31.143  38.870  48.745  1.00  0.00    +0.000 H 
ATOM    134  H39 UNL A   1      30.352  39.628  51.027  1.00  0.00    +0.000 H 
ATOM     89  C61 UNL A   1      28.850  36.720  49.806  1.00  0.00    +0.000 C 
ATOM     90  C62 UNL A   1      29.747  37.204  48.867  1.00  0.00    +0.000 C 
ATOM     91  C63 UNL A   1      30.428  38.377  49.302  1.00  0.00    +0.000 C 
ATOM     92  C64 UNL A   1      30.017  38.775  50.552  1.00  0.00    +0.000 C 
ATOM     93  S2  UNL A   1      28.890  37.688  51.227  1.00  0.00    +0.000 S 
ENDBRANCH   88   89
ENDBRANCH   12   11
ENDBRANCH   14   12
ENDBRANCH   15   14
ENDBRANCH   16   15
ENDBRANCH   17   16
ENDBRANCH   18   17
ENDBRANCH   19   18
ENDBRANCH   20   19
ENDBRANCH   21   20
ENDBRANCH   22   21
ENDBRANCH   24   22
ENDBRANCH   28   27
BRANCH   32   33
ATOM     33  C23 UNL A   1      21.589  34.340  46.577  1.00  0.00    +0.000 C 
ATOM     34  C24 UNL A   1      21.067  34.022  45.314  1.00  0.00    +0.000 C 
ATOM     35  F1  UNL A   1      20.294  34.904  44.661  1.00  0.00    +0.000 F 
ATOM     36  C25 UNL A   1      21.308  32.782  44.729  1.00  0.00    +0.000 C 
ATOM     37  F2  UNL A   1      20.762  32.485  43.542  1.00  0.00    +0.000 F 
ATOM     38  C26 UNL A   1      22.103  31.849  45.377  1.00  0.00    +0.000 C 
ATOM     39  F3  UNL A   1      22.343  30.660  44.808  1.00  0.00    +0.000 F 
ATOM     40  C27 UNL A   1      22.645  32.147  46.619  1.00  0.00    +0.000 C 
ATOM     41  F4  UNL A   1      23.425  31.252  47.241  1.00  0.00    +0.000 F 
ATOM     42  C28 UNL A   1      22.382  33.376  47.219  1.00  0.00    +0.000 C 
ATOM     43  F5  UNL A   1      22.912  33.630  48.425  1.00  0.00    +0.000 F 
ENDBRANCH   32   33
BRANCH   49   50
ATOM     50  C34 UNL A   1      16.400  37.770  50.217  1.00  0.00    +0.000 C 
ATOM     51  C35 UNL A   1      16.171  37.657  51.596  1.00  0.00    +0.000 C 
ATOM     52  F6  UNL A   1      17.189  37.774  52.462  1.00  0.00    +0.000 F 
ATOM     53  C36 UNL A   1      14.899  37.379  52.090  1.00  0.00    +0.000 C 
ATOM     54  F7  UNL A   1      14.713  37.224  53.408  1.00  0.00    +0.000 F 
ATOM     55  C37 UNL A   1      13.827  37.246  51.219  1.00  0.00    +0.000 C 
ATOM     56  F8  UNL A   1      12.603  36.983  51.697  1.00  0.00    +0.000 F 
ATOM     57  C38 UNL A   1      14.027  37.376  49.853  1.00  0.00    +0.000 C 
ATOM     58  F9  UNL A   1      12.990  37.261  49.012  1.00  0.00    +0.000 F 
ATOM     59  C39 UNL A   1      15.303  37.622  49.355  1.00  0.00    +0.000 C 
ATOM     60  F10 UNL A   1      15.466  37.729  48.028  1.00  0.00    +0.000 F 
ENDBRANCH   49   50
BRANCH   64   65
ATOM     65  C43 UNL A   1      20.319  43.528  50.263  1.00  0.00    +0.000 C 
ATOM     66  C44 UNL A   1      19.821  44.535  49.424  1.00  0.00    +0.000 C 
ATOM     67  F11 UNL A   1      19.545  44.259  48.141  1.00  0.00    +0.000 F 
ATOM     68  C45 UNL A   1      19.648  45.837  49.886  1.00  0.00    +0.000 C 
ATOM     69  F12 UNL A   1      19.219  46.790  49.049  1.00  0.00    +0.000 F 
ATOM     70  C46 UNL A   1      19.939  46.152  51.205  1.00  0.00    +0.000 C 
ATOM     71  F13 UNL A   1      19.771  47.405  51.650  1.00  0.00    +0.000 F 
ATOM     72  C47 UNL A   1      20.411  45.168  52.060  1.00  0.00    +0.000 C 
ATOM     73  F14 UNL A   1      20.678  45.464  53.339  1.00  0.00    +0.000 F 
ATOM     74  C48 UNL A   1      20.612  43.871  51.591  1.00  0.00    +0.000 C 
ATOM     75  F15 UNL A   1      21.085  42.944  52.437  1.00  0.00    +0.000 F 
ENDBRANCH   64   65
TORSDOF 19
ENDMDL
MODEL 5
REMARK VINA RESULT:     -10.6     26.253     34.908
ROOT
ATOM     28  C19 UNL A   1      18.360  19.754   4.717  1.00  0.00    +0.000 C 
ATOM     29  C20 UNL A   1      17.154  20.405   5.337  1.00  0.00    +0.000 C 
ATOM     30  N5  UNL A   1      16.435  20.012   6.358  1.00  0.00    +0.000 N 
ATOM     31  C21 UNL A   1      15.471  20.994   6.544  1.00  0.00    +0.000 C 
ATOM     32  C22 UNL A   1      14.453  21.021   7.438  1.00  0.00    +0.000 C 
ATOM     44  C29 UNL A   1      14.183  19.975   8.390  1.00  0.00    +0.000 C 
ATOM     45  C30 UNL A   1      13.132  19.875   9.286  1.00  0.00    +0.000 C 
ATOM     46  C31 UNL A   1      13.311  18.712  10.042  1.00  0.00    +0.000 C 
ATOM     47  C32 UNL A   1      14.444  18.060   9.583  1.00  0.00    +0.000 C 
ATOM     48  N6  UNL A   1      14.971  18.849   8.572  1.00  0.00    +0.000 N 
ATOM     49  C33 UNL A   1      15.005  16.812  10.031  1.00  0.00    +0.000 C 
ATOM     61  C40 UNL A   1      16.119  16.234   9.519  1.00  0.00    +0.000 C 
ATOM     62  N7  UNL A   1      16.942  16.679   8.494  1.00  0.00    +0.000 N 
ATOM     63  C41 UNL A   1      17.894  15.786   8.382  1.00  0.00    +0.000 C 
ATOM     64  C42 UNL A   1      19.044  15.739   7.413  1.00  0.00    +0.000 C 
ATOM     76  C49 UNL A   1      19.161  16.708   6.484  1.00  0.00    +0.000 C 
ATOM     77  C50 UNL A   1      20.207  16.785   5.469  1.00  0.00    +0.000 C 
ATOM     78  C51 UNL A   1      20.031  17.900   4.743  1.00  0.00    +0.000 C 
ATOM     79  C52 UNL A   1      18.837  18.600   5.221  1.00  0.00    +0.000 C 
ATOM     80  N8  UNL A   1      18.384  17.817   6.253  1.00  0.00    +0.000 N 
ATOM     81  C53 UNL A   1      17.795  14.681   9.345  1.00  0.00    +0.000 C 
ATOM     82  C54 UNL A   1      16.673  14.979   9.983  1.00  0.00    +0.000 C 
ATOM     83  C55 UNL A   1      15.726  22.027   5.563  1.00  0.00    +0.000 C 
ATOM     84  C56 UNL A   1      16.714  21.681   4.751  1.00  0.00    +0.000 C 
ATOM    117  H22 UNL A   1      12.351  20.543   9.379  1.00  0.00    +0.000 H 
ATOM    118  H23 UNL A   1      12.702  18.393  10.813  1.00  0.00    +0.000 H 
ATOM    119  H24 UNL A   1      15.786  18.641   8.059  1.00  0.00    +0.000 H 
ATOM    120  H25 UNL A   1      20.961  16.094   5.332  1.00  0.00    +0.000 H 
ATOM    121  H26 UNL A   1      20.639  18.214   3.971  1.00  0.00    +0.000 H 
ATOM    122  H27 UNL A   1      17.579  18.030   6.778  1.00  0.00    +0.000 H 
ATOM    123  H28 UNL A   1      18.432  13.881   9.487  1.00  0.00    +0.000 H 
ATOM    124  H29 UNL A   1      16.248  14.393  10.718  1.00  0.00    +0.000 H 
ATOM    125  H30 UNL A   1      15.205  22.916   5.504  1.00  0.00    +0.000 H 
ATOM    126  H31 UNL A   1      17.080  22.177   3.923  1.00  0.00    +0.000 H 
ENDROOT
BRANCH   28   27
ATOM    115  H20 UNL A   1      19.006  20.646   0.229  1.00  0.00    +0.000 H 
ATOM    116  H21 UNL A   1      17.765  19.683   2.079  1.00  0.00    +0.000 H 
ATOM     85  C57 UNL A   1      20.196  21.202   3.824  1.00  0.00    +0.000 C 
ATOM     86  C58 UNL A   1      20.858  21.823   2.766  1.00  0.00    +0.000 C 
ATOM     24  C15 UNL A   1      20.458  21.575   1.449  1.00  0.00    +0.000 C 
ATOM     25  C16 UNL A   1      19.323  20.799   1.199  1.00  0.00    +0.000 C 
ATOM     26  C17 UNL A   1      18.619  20.232   2.263  1.00  0.00    +0.000 C 
ATOM     27  C18 UNL A   1      19.066  20.405   3.583  1.00  0.00    +0.000 C 
ATOM    127  H32 UNL A   1      20.538  21.329   4.789  1.00  0.00    +0.000 H 
ATOM    128  H33 UNL A   1      21.642  22.467   2.955  1.00  0.00    +0.000 H 
BRANCH   24   22
ATOM     22  C14 UNL A   1      21.193  22.145   0.298  1.00  0.00    +0.000 C 
ATOM     23  O4  UNL A   1      22.368  21.842   0.117  1.00  0.00    +0.000 O 
BRANCH   22   21
ATOM    114  H19 UNL A   1      20.043  22.603  -1.275  1.00  0.00    +0.000 H 
ATOM     21  N4  UNL A   1      20.573  23.021  -0.558  1.00  0.00    +0.000 N 
BRANCH   21   20
ATOM    113  H18 UNL A   1      19.609  24.805  -0.851  1.00  0.00    +0.000 H 
ATOM     20  C13 UNL A   1      20.585  24.472  -0.563  1.00  0.00    +0.000 C 
ATOM    112  H17 UNL A   1      21.332  24.807  -1.251  1.00  0.00    +0.000 H 
BRANCH   20   19
ATOM     19  C12 UNL A   1      20.888  25.056   0.813  1.00  0.00    +0.000 C 
ATOM    110  H15 UNL A   1      20.318  25.955   0.924  1.00  0.00    +0.000 H 
ATOM    111  H16 UNL A   1      20.631  24.296   1.521  1.00  0.00    +0.000 H 
BRANCH   19   18
ATOM     18  C11 UNL A   1      22.359  25.395   1.071  1.00  0.00    +0.000 C 
ATOM    108  H13 UNL A   1      22.950  24.851   0.365  1.00  0.00    +0.000 H 
ATOM    109  H14 UNL A   1      22.435  26.458   0.972  1.00  0.00    +0.000 H 
BRANCH   18   17
ATOM     17  C10 UNL A   1      22.879  25.068   2.474  1.00  0.00    +0.000 C 
ATOM    106  H11 UNL A   1      23.166  25.986   2.941  1.00  0.00    +0.000 H 
ATOM    107  H12 UNL A   1      22.081  24.561   2.973  1.00  0.00    +0.000 H 
BRANCH   17   16
ATOM    105  H10 UNL A   1      24.902  24.696   2.895  1.00  0.00    +0.000 H 
ATOM    104  H9  UNL A   1      24.240  23.734   1.540  1.00  0.00    +0.000 H 
ATOM     16  C9  UNL A   1      24.078  24.119   2.525  1.00  0.00    +0.000 C 
BRANCH   16   15
ATOM    103  H8  UNL A   1      22.938  22.533   3.358  1.00  0.00    +0.000 H 
ATOM    102  H7  UNL A   1      24.072  23.273   4.481  1.00  0.00    +0.000 H 
ATOM     15  C8  UNL A   1      23.922  22.936   3.476  1.00  0.00    +0.000 C 
BRANCH   15   14
ATOM    101  H6  UNL A   1      25.781  22.248   2.981  1.00  0.00    +0.000 H 
ATOM     14  N3  UNL A   1      24.884  21.895   3.177  1.00  0.00    +0.000 N 
BRANCH   14   12
ATOM     12  C7  UNL A   1      24.823  20.526   3.106  1.00  0.00    +0.000 C 
ATOM     13  O3  UNL A   1      24.367  20.033   2.077  1.00  0.00    +0.000 O 
BRANCH   12   11
ATOM    129  H34 UNL A   1      26.423  18.051   3.378  1.00  0.00    +0.000 H 
ATOM    130  H35 UNL A   1      24.817  17.572   3.598  1.00  0.00    +0.000 H 
ATOM    131  H36 UNL A   1      25.298  17.012   5.872  1.00  0.00    +0.000 H 
ATOM      9  N1  UNL A   1      25.849  19.024   6.225  1.00  0.00    +0.000 N 
ATOM     10  N2  UNL A   1      25.292  20.019   5.461  1.00  0.00    +0.000 N 
ATOM     11  C6  UNL A   1      25.236  19.593   4.236  1.00  0.00    +0.000 C 
ATOM     87  C59 UNL A   1      25.590  18.163   4.042  1.00  0.00    +0.000 C 
ATOM     88  C60 UNL A   1      25.954  17.757   5.472  1.00  0.00    +0.000 C 
BRANCH    9    8
ATOM     99  H4  UNL A   1      26.278  19.320  10.774  1.00  0.00    +0.000 H 
ATOM    100  H5  UNL A   1      27.183  19.436   8.521  1.00  0.00    +0.000 H 
ATOM      5  C2  UNL A   1      24.353  18.705  10.154  1.00  0.00    +0.000 C 
ATOM      6  C3  UNL A   1      25.682  19.094   9.963  1.00  0.00    +0.000 C 
ATOM      7  C4  UNL A   1      26.196  19.171   8.664  1.00  0.00    +0.000 C 
ATOM    136  H41 UNL A   1      22.561  18.107   9.210  1.00  0.00    +0.000 H 
ATOM    135  H40 UNL A   1      23.461  18.262   6.966  1.00  0.00    +0.000 H 
ATOM      8  C5  UNL A   1      25.387  18.894   7.550  1.00  0.00    +0.000 C 
ATOM     94  C65 UNL A   1      24.062  18.493   7.773  1.00  0.00    +0.000 C 
ATOM     95  C66 UNL A   1      23.540  18.399   9.063  1.00  0.00    +0.000 C 
BRANCH    5    2
ATOM      2  S1  UNL A   1      23.684  18.625  11.796  1.00  0.00    +0.000 S 
ATOM      3  O1  UNL A   1      22.778  19.749  11.957  1.00  0.00    +0.000 O 
ATOM      4  O2  UNL A   1      24.804  18.440  12.697  1.00  0.00    +0.000 O 
BRANCH    2    1
ATOM      1  C1  UNL A   1      22.700  17.151  11.808  1.00  0.00    +0.000 C 
ATOM     98  H3  UNL A   1      22.520  16.834  10.803  1.00  0.00    +0.000 H 
ATOM     97  H2  UNL A   1      23.220  16.380  12.338  1.00  0.00    +0.000 H 
ATOM     96  H1  UNL A   1      21.766  17.348  12.293  1.00  0.00    +0.000 H 
ENDBRANCH    2    1
ENDBRANCH    5    2
ENDBRANCH    9    8
BRANCH   88   89
ATOM    132  H37 UNL A   1      28.487  17.949   4.099  1.00  0.00    +0.000 H 
ATOM    133  H38 UNL A   1      30.421  16.382   4.741  1.00  0.00    +0.000 H 
ATOM    134  H39 UNL A   1      29.813  14.872   6.680  1.00  0.00    +0.000 H 
ATOM     89  C61 UNL A   1      27.280  17.020   5.597  1.00  0.00    +0.000 C 
ATOM     90  C62 UNL A   1      28.422  17.238   4.843  1.00  0.00    +0.000 C 
ATOM     91  C63 UNL A   1      29.499  16.376   5.203  1.00  0.00    +0.000 C 
ATOM     92  C64 UNL A   1      29.160  15.538   6.239  1.00  0.00    +0.000 C 
ATOM     93  S2  UNL A   1      27.531  15.729   6.706  1.00  0.00    +0.000 S 
ENDBRANCH   88   89
ENDBRANCH   12   11
ENDBRANCH   14   12
ENDBRANCH   15   14
ENDBRANCH   16   15
ENDBRANCH   17   16
ENDBRANCH   18   17
ENDBRANCH   19   18
ENDBRANCH   20   19
ENDBRANCH   21   20
ENDBRANCH   22   21
ENDBRANCH   24   22
ENDBRANCH   28   27
BRANCH   32   33
ATOM     33  C23 UNL A   1      13.548  22.218   7.430  1.00  0.00    +0.000 C 
ATOM     34  C24 UNL A   1      13.806  23.343   8.229  1.00  0.00    +0.000 C 
ATOM     35  F1  UNL A   1      14.848  23.346   9.075  1.00  0.00    +0.000 F 
ATOM     36  C25 UNL A   1      12.974  24.458   8.187  1.00  0.00    +0.000 C 
ATOM     37  F2  UNL A   1      13.215  25.503   8.991  1.00  0.00    +0.000 F 
ATOM     38  C26 UNL A   1      11.890  24.487   7.322  1.00  0.00    +0.000 C 
ATOM     39  F3  UNL A   1      11.097  25.566   7.275  1.00  0.00    +0.000 F 
ATOM     40  C27 UNL A   1      11.626  23.394   6.510  1.00  0.00    +0.000 C 
ATOM     41  F4  UNL A   1      10.587  23.425   5.664  1.00  0.00    +0.000 F 
ATOM     42  C28 UNL A   1      12.439  22.265   6.571  1.00  0.00    +0.000 C 
ATOM     43  F5  UNL A   1      12.151  21.220   5.781  1.00  0.00    +0.000 F 
ENDBRANCH   32   33
BRANCH   49   50
ATOM     50  C34 UNL A   1      14.294  16.079  11.131  1.00  0.00    +0.000 C 
ATOM     51  C35 UNL A   1      14.526  16.374  12.482  1.00  0.00    +0.000 C 
ATOM     52  F6  UNL A   1      15.434  17.302  12.825  1.00  0.00    +0.000 F 
ATOM     53  C36 UNL A   1      13.857  15.686  13.490  1.00  0.00    +0.000 C 
ATOM     54  F7  UNL A   1      14.132  15.948  14.775  1.00  0.00    +0.000 F 
ATOM     55  C37 UNL A   1      12.917  14.717  13.168  1.00  0.00    +0.000 C 
ATOM     56  F8  UNL A   1      12.270  14.059  14.140  1.00  0.00    +0.000 F 
ATOM     57  C38 UNL A   1      12.656  14.425  11.837  1.00  0.00    +0.000 C 
ATOM     58  F9  UNL A   1      11.739  13.499  11.524  1.00  0.00    +0.000 F 
ATOM     59  C39 UNL A   1      13.347  15.089  10.828  1.00  0.00    +0.000 C 
ATOM     60  F10 UNL A   1      13.082  14.774   9.551  1.00  0.00    +0.000 F 
ENDBRANCH   49   50
BRANCH   64   65
ATOM     65  C43 UNL A   1      20.034  14.631   7.459  1.00  0.00    +0.000 C 
ATOM     66  C44 UNL A   1      19.862  13.476   6.683  1.00  0.00    +0.000 C 
ATOM     67  F11 UNL A   1      18.785  13.356   5.894  1.00  0.00    +0.000 F 
ATOM     68  C45 UNL A   1      20.769  12.421   6.751  1.00  0.00    +0.000 C 
ATOM     69  F12 UNL A   1      20.553  11.309   6.038  1.00  0.00    +0.000 F 
ATOM     70  C46 UNL A   1      21.884  12.515   7.570  1.00  0.00    +0.000 C 
ATOM     71  F13 UNL A   1      22.758  11.500   7.634  1.00  0.00    +0.000 F 
ATOM     72  C47 UNL A   1      22.088  13.657   8.329  1.00  0.00    +0.000 C 
ATOM     73  F14 UNL A   1      23.173  13.757   9.110  1.00  0.00    +0.000 F 
ATOM     74  C48 UNL A   1      21.166  14.700   8.284  1.00  0.00    +0.000 C 
ATOM     75  F15 UNL A   1      21.381  15.786   9.042  1.00  0.00    +0.000 F 
ENDBRANCH   64   65
TORSDOF 19
ENDMDL
MODEL 6
REMARK VINA RESULT:     -10.6     41.359     46.812
ROOT
ATOM     28  C19 UNL A   1      10.638   2.885  21.463  1.00  0.00    +0.000 C 
ATOM     29  C20 UNL A   1       9.706   3.830  22.170  1.00  0.00    +0.000 C 
ATOM     30  N5  UNL A   1       9.305   5.022  21.807  1.00  0.00    +0.000 N 
ATOM     31  C21 UNL A   1       8.418   5.441  22.791  1.00  0.00    +0.000 C 
ATOM     32  C22 UNL A   1       7.777   6.629  22.902  1.00  0.00    +0.000 C 
ATOM     44  C29 UNL A   1       7.923   7.718  21.972  1.00  0.00    +0.000 C 
ATOM     45  C30 UNL A   1       7.375   8.988  22.038  1.00  0.00    +0.000 C 
ATOM     46  C31 UNL A   1       7.751   9.687  20.886  1.00  0.00    +0.000 C 
ATOM     47  C32 UNL A   1       8.576   8.872  20.128  1.00  0.00    +0.000 C 
ATOM     48  N6  UNL A   1       8.669   7.665  20.804  1.00  0.00    +0.000 N 
ATOM     49  C33 UNL A   1       9.230   9.170  18.880  1.00  0.00    +0.000 C 
ATOM     61  C40 UNL A   1      10.034   8.315  18.202  1.00  0.00    +0.000 C 
ATOM     62  N7  UNL A   1      10.402   7.016  18.529  1.00  0.00    +0.000 N 
ATOM     63  C41 UNL A   1      11.172   6.603  17.553  1.00  0.00    +0.000 C 
ATOM     64  C42 UNL A   1      11.881   5.285  17.395  1.00  0.00    +0.000 C 
ATOM     76  C49 UNL A   1      11.774   4.360  18.368  1.00  0.00    +0.000 C 
ATOM     77  C50 UNL A   1      12.417   3.050  18.364  1.00  0.00    +0.000 C 
ATOM     78  C51 UNL A   1      12.057   2.383  19.472  1.00  0.00    +0.000 C 
ATOM     79  C52 UNL A   1      11.183   3.233  20.281  1.00  0.00    +0.000 C 
ATOM     80  N8  UNL A   1      11.073   4.389  19.550  1.00  0.00    +0.000 N 
ATOM     81  C53 UNL A   1      11.360   7.589  16.479  1.00  0.00    +0.000 C 
ATOM     82  C54 UNL A   1      10.682   8.627  16.946  1.00  0.00    +0.000 C 
ATOM     83  C55 UNL A   1       8.301   4.356  23.742  1.00  0.00    +0.000 C 
ATOM     84  C56 UNL A   1       9.126   3.364  23.439  1.00  0.00    +0.000 C 
ATOM    117  H22 UNL A   1       6.791   9.355  22.805  1.00  0.00    +0.000 H 
ATOM    118  H23 UNL A   1       7.463  10.648  20.643  1.00  0.00    +0.000 H 
ATOM    119  H24 UNL A   1       9.187   6.885  20.499  1.00  0.00    +0.000 H 
ATOM    120  H25 UNL A   1      13.047   2.694  17.629  1.00  0.00    +0.000 H 
ATOM    121  H26 UNL A   1      12.351   1.424  19.714  1.00  0.00    +0.000 H 
ATOM    122  H27 UNL A   1      10.544   5.165  19.843  1.00  0.00    +0.000 H 
ATOM    123  H28 UNL A   1      11.883   7.497  15.595  1.00  0.00    +0.000 H 
ATOM    124  H29 UNL A   1      10.623   9.543  16.474  1.00  0.00    +0.000 H 
ATOM    125  H30 UNL A   1       7.660   4.356  24.551  1.00  0.00    +0.000 H 
ATOM    126  H31 UNL A   1       9.313   2.491  23.958  1.00  0.00    +0.000 H 
ENDROOT
BRANCH   28   27
ATOM    115  H20 UNL A   1      13.303  -0.180  23.666  1.00  0.00    +0.000 H 
ATOM    116  H21 UNL A   1      12.801   2.052  22.858  1.00  0.00    +0.000 H 
ATOM     85  C57 UNL A   1       9.983   0.508  21.890  1.00  0.00    +0.000 C 
ATOM     86  C58 UNL A   1      10.238  -0.752  22.429  1.00  0.00    +0.000 C 
ATOM     24  C15 UNL A   1      11.472  -1.020  23.028  1.00  0.00    +0.000 C 
ATOM     25  C16 UNL A   1      12.406   0.008  23.192  1.00  0.00    +0.000 C 
ATOM     26  C17 UNL A   1      12.123   1.287  22.712  1.00  0.00    +0.000 C 
ATOM     27  C18 UNL A   1      10.921   1.542  22.032  1.00  0.00    +0.000 C 
ATOM    127  H32 UNL A   1       9.100   0.681  21.385  1.00  0.00    +0.000 H 
ATOM    128  H33 UNL A   1       9.514  -1.487  22.387  1.00  0.00    +0.000 H 
BRANCH   24   22
ATOM     22  C14 UNL A   1      11.811  -2.370  23.531  1.00  0.00    +0.000 C 
ATOM     23  O4  UNL A   1      12.410  -3.157  22.803  1.00  0.00    +0.000 O 
BRANCH   22   21
ATOM    114  H19 UNL A   1      12.037  -3.419  25.219  1.00  0.00    +0.000 H 
ATOM     21  N4  UNL A   1      11.448  -2.753  24.797  1.00  0.00    +0.000 N 
BRANCH   21   20
ATOM    113  H18 UNL A   1       9.651  -3.148  25.699  1.00  0.00    +0.000 H 
ATOM     20  C13 UNL A   1      10.324  -2.320  25.606  1.00  0.00    +0.000 C 
ATOM    112  H17 UNL A   1       9.856  -1.487  25.126  1.00  0.00    +0.000 H 
BRANCH   20   19
ATOM     19  C12 UNL A   1      10.745  -1.904  27.012  1.00  0.00    +0.000 C 
ATOM    110  H15 UNL A   1      10.157  -2.461  27.712  1.00  0.00    +0.000 H 
ATOM    111  H16 UNL A   1      11.793  -2.105  27.079  1.00  0.00    +0.000 H 
BRANCH   19   18
ATOM     18  C11 UNL A   1      10.577  -0.416  27.332  1.00  0.00    +0.000 C 
ATOM    108  H13 UNL A   1       9.585  -0.129  27.052  1.00  0.00    +0.000 H 
ATOM    109  H14 UNL A   1      10.777  -0.319  28.380  1.00  0.00    +0.000 H 
BRANCH   18   17
ATOM     17  C10 UNL A   1      11.558   0.528  26.631  1.00  0.00    +0.000 C 
ATOM    106  H11 UNL A   1      12.364   0.726  27.305  1.00  0.00    +0.000 H 
ATOM    107  H12 UNL A   1      11.859   0.028  25.735  1.00  0.00    +0.000 H 
BRANCH   17   16
ATOM    105  H10 UNL A   1      10.238   1.648  25.443  1.00  0.00    +0.000 H 
ATOM    104  H9  UNL A   1      11.775   2.478  25.824  1.00  0.00    +0.000 H 
ATOM     16  C9  UNL A   1      10.974   1.871  26.189  1.00  0.00    +0.000 C 
BRANCH   16   15
ATOM    103  H8  UNL A   1       9.469   2.033  27.679  1.00  0.00    +0.000 H 
ATOM    102  H7  UNL A   1       9.845   3.547  26.866  1.00  0.00    +0.000 H 
ATOM     15  C8  UNL A   1      10.250   2.650  27.285  1.00  0.00    +0.000 C 
BRANCH   15   14
ATOM    101  H6  UNL A   1      10.958   2.509  29.196  1.00  0.00    +0.000 H 
ATOM     14  N3  UNL A   1      11.153   2.995  28.362  1.00  0.00    +0.000 N 
BRANCH   14   12
ATOM     12  C7  UNL A   1      12.220   3.849  28.482  1.00  0.00    +0.000 C 
ATOM     13  O3  UNL A   1      13.319   3.435  28.118  1.00  0.00    +0.000 O 
BRANCH   12   11
ATOM    129  H34 UNL A   1      12.632   5.082  31.141  1.00  0.00    +0.000 H 
ATOM    130  H35 UNL A   1      10.961   5.110  30.889  1.00  0.00    +0.000 H 
ATOM    131  H36 UNL A   1      11.014   7.499  30.817  1.00  0.00    +0.000 H 
ATOM      9  N1  UNL A   1      12.323   7.395  29.157  1.00  0.00    +0.000 N 
ATOM     10  N2  UNL A   1      12.278   6.299  28.333  1.00  0.00    +0.000 N 
ATOM     11  C6  UNL A   1      12.134   5.246  29.080  1.00  0.00    +0.000 C 
ATOM     87  C59 UNL A   1      11.878   5.518  30.519  1.00  0.00    +0.000 C 
ATOM     88  C60 UNL A   1      11.944   7.047  30.543  1.00  0.00    +0.000 C 
BRANCH    9    8
ATOM     99  H4  UNL A   1      12.519  11.727  27.687  1.00  0.00    +0.000 H 
ATOM    100  H5  UNL A   1      13.532   9.742  28.658  1.00  0.00    +0.000 H 
ATOM      5  C2  UNL A   1      10.575  10.901  27.599  1.00  0.00    +0.000 C 
ATOM      6  C3  UNL A   1      11.943  10.892  27.880  1.00  0.00    +0.000 C 
ATOM      7  C4  UNL A   1      12.526   9.744  28.428  1.00  0.00    +0.000 C 
ATOM    136  H41 UNL A   1       8.779   9.790  27.651  1.00  0.00    +0.000 H 
ATOM    135  H40 UNL A   1       9.805   7.804  28.584  1.00  0.00    +0.000 H 
ATOM      8  C5  UNL A   1      11.760   8.592  28.669  1.00  0.00    +0.000 C 
ATOM     94  C65 UNL A   1      10.386   8.634  28.389  1.00  0.00    +0.000 C 
ATOM     95  C66 UNL A   1       9.791   9.777  27.855  1.00  0.00    +0.000 C 
BRANCH    5    2
ATOM      2  S1  UNL A   1       9.830  12.345  26.883  1.00  0.00    +0.000 S 
ATOM      3  O1  UNL A   1       9.372  13.191  27.972  1.00  0.00    +0.000 O 
ATOM      4  O2  UNL A   1       8.908  11.880  25.867  1.00  0.00    +0.000 O 
BRANCH    2    1
ATOM      1  C1  UNL A   1      11.168  13.191  26.087  1.00  0.00    +0.000 C 
ATOM     98  H3  UNL A   1      11.993  13.272  26.764  1.00  0.00    +0.000 H 
ATOM     97  H2  UNL A   1      11.471  12.642  25.219  1.00  0.00    +0.000 H 
ATOM     96  H1  UNL A   1      10.848  14.171  25.795  1.00  0.00    +0.000 H 
ENDBRANCH    2    1
ENDBRANCH    5    2
ENDBRANCH    9    8
BRANCH   88   89
ATOM    132  H37 UNL A   1      11.453   8.040  33.209  1.00  0.00    +0.000 H 
ATOM    133  H38 UNL A   1      13.402   8.929  34.631  1.00  0.00    +0.000 H 
ATOM    134  H39 UNL A   1      15.625   8.690  33.445  1.00  0.00    +0.000 H 
ATOM     89  C61 UNL A   1      12.836   7.619  31.636  1.00  0.00    +0.000 C 
ATOM     90  C62 UNL A   1      12.432   8.060  32.886  1.00  0.00    +0.000 C 
ATOM     91  C63 UNL A   1      13.512   8.545  33.680  1.00  0.00    +0.000 C 
ATOM     92  C64 UNL A   1      14.716   8.439  33.025  1.00  0.00    +0.000 C 
ATOM     93  S2  UNL A   1      14.529   7.847  31.438  1.00  0.00    +0.000 S 
ENDBRANCH   88   89
ENDBRANCH   12   11
ENDBRANCH   14   12
ENDBRANCH   15   14
ENDBRANCH   16   15
ENDBRANCH   17   16
ENDBRANCH   18   17
ENDBRANCH   19   18
ENDBRANCH   20   19
ENDBRANCH   21   20
ENDBRANCH   22   21
ENDBRANCH   24   22
ENDBRANCH   28   27
BRANCH   32   33
ATOM     33  C23 UNL A   1       6.860   6.821  24.074  1.00  0.00    +0.000 C 
ATOM     34  C24 UNL A   1       5.531   6.369  24.053  1.00  0.00    +0.000 C 
ATOM     35  F1  UNL A   1       5.028   5.803  22.945  1.00  0.00    +0.000 F 
ATOM     36  C25 UNL A   1       4.702   6.527  25.160  1.00  0.00    +0.000 C 
ATOM     37  F2  UNL A   1       3.425   6.127  25.101  1.00  0.00    +0.000 F 
ATOM     38  C26 UNL A   1       5.193   7.107  26.321  1.00  0.00    +0.000 C 
ATOM     39  F3  UNL A   1       4.397   7.247  27.389  1.00  0.00    +0.000 F 
ATOM     40  C27 UNL A   1       6.508   7.544  26.372  1.00  0.00    +0.000 C 
ATOM     41  F4  UNL A   1       6.988   8.092  27.496  1.00  0.00    +0.000 F 
ATOM     42  C28 UNL A   1       7.331   7.414  25.256  1.00  0.00    +0.000 C 
ATOM     43  F5  UNL A   1       8.595   7.858  25.332  1.00  0.00    +0.000 F 
ENDBRANCH   32   33
BRANCH   49   50
ATOM     50  C34 UNL A   1       9.031  10.536  18.293  1.00  0.00    +0.000 C 
ATOM     51  C35 UNL A   1       7.967  10.816  17.424  1.00  0.00    +0.000 C 
ATOM     52  F6  UNL A   1       7.117   9.843  17.060  1.00  0.00    +0.000 F 
ATOM     53  C36 UNL A   1       7.795  12.090  16.890  1.00  0.00    +0.000 C 
ATOM     54  F7  UNL A   1       6.802  12.323  16.021  1.00  0.00    +0.000 F 
ATOM     55  C37 UNL A   1       8.660  13.117  17.242  1.00  0.00    +0.000 C 
ATOM     56  F8  UNL A   1       8.491  14.344  16.730  1.00  0.00    +0.000 F 
ATOM     57  C38 UNL A   1       9.707  12.867  18.117  1.00  0.00    +0.000 C 
ATOM     58  F9  UNL A   1      10.535  13.860  18.469  1.00  0.00    +0.000 F 
ATOM     59  C39 UNL A   1       9.899  11.587  18.628  1.00  0.00    +0.000 C 
ATOM     60  F10 UNL A   1      10.929  11.374  19.461  1.00  0.00    +0.000 F 
ENDBRANCH   49   50
BRANCH   64   65
ATOM     65  C43 UNL A   1      12.709   5.006  16.192  1.00  0.00    +0.000 C 
ATOM     66  C44 UNL A   1      14.055   5.393  16.136  1.00  0.00    +0.000 C 
ATOM     67  F11 UNL A   1      14.610   6.034  17.175  1.00  0.00    +0.000 F 
ATOM     68  C45 UNL A   1      14.824   5.163  14.997  1.00  0.00    +0.000 C 
ATOM     69  F12 UNL A   1      16.092   5.589  14.952  1.00  0.00    +0.000 F 
ATOM     70  C46 UNL A   1      14.270   4.514  13.904  1.00  0.00    +0.000 C 
ATOM     71  F13 UNL A   1      15.010   4.292  12.809  1.00  0.00    +0.000 F 
ATOM     72  C47 UNL A   1      12.947   4.101  13.945  1.00  0.00    +0.000 C 
ATOM     73  F14 UNL A   1      12.413   3.459  12.897  1.00  0.00    +0.000 F 
ATOM     74  C48 UNL A   1      12.170   4.356  15.072  1.00  0.00    +0.000 C 
ATOM     75  F15 UNL A   1      10.888   3.960  15.077  1.00  0.00    +0.000 F 
ENDBRANCH   64   65
TORSDOF 19
ENDMDL
MODEL 7
REMARK VINA RESULT:     -10.6     45.790     52.348
ROOT
ATOM     28  C19 UNL A   1      25.226  38.982  46.620  1.00  0.00    +0.000 C 
ATOM     29  C20 UNL A   1      24.529  37.658  46.472  1.00  0.00    +0.000 C 
ATOM     30  N5  UNL A   1      23.325  37.310  46.851  1.00  0.00    +0.000 N 
ATOM     31  C21 UNL A   1      23.162  35.994  46.435  1.00  0.00    +0.000 C 
ATOM     32  C22 UNL A   1      22.109  35.167  46.640  1.00  0.00    +0.000 C 
ATOM     44  C29 UNL A   1      20.922  35.532  47.370  1.00  0.00    +0.000 C 
ATOM     45  C30 UNL A   1      19.834  34.741  47.696  1.00  0.00    +0.000 C 
ATOM     46  C31 UNL A   1      18.899  35.538  48.366  1.00  0.00    +0.000 C 
ATOM     47  C32 UNL A   1      19.428  36.811  48.504  1.00  0.00    +0.000 C 
ATOM     48  N6  UNL A   1      20.667  36.794  47.884  1.00  0.00    +0.000 N 
ATOM     49  C33 UNL A   1      18.846  37.958  49.152  1.00  0.00    +0.000 C 
ATOM     61  C40 UNL A   1      19.437  39.174  49.252  1.00  0.00    +0.000 C 
ATOM     62  N7  UNL A   1      20.677  39.586  48.783  1.00  0.00    +0.000 N 
ATOM     63  C41 UNL A   1      20.785  40.850  49.109  1.00  0.00    +0.000 C 
ATOM     64  C42 UNL A   1      21.933  41.796  48.878  1.00  0.00    +0.000 C 
ATOM     76  C49 UNL A   1      23.050  41.340  48.280  1.00  0.00    +0.000 C 
ATOM     77  C50 UNL A   1      24.246  42.131  48.008  1.00  0.00    +0.000 C 
ATOM     78  C51 UNL A   1      25.142  41.363  47.368  1.00  0.00    +0.000 C 
ATOM     79  C52 UNL A   1      24.594  40.014  47.214  1.00  0.00    +0.000 C 
ATOM     80  N8  UNL A   1      23.350  40.093  47.787  1.00  0.00    +0.000 N 
ATOM     81  C53 UNL A   1      19.610  41.393  49.803  1.00  0.00    +0.000 C 
ATOM     82  C54 UNL A   1      18.838  40.320  49.904  1.00  0.00    +0.000 C 
ATOM     83  C55 UNL A   1      24.371  35.621  45.732  1.00  0.00    +0.000 C 
ATOM     84  C56 UNL A   1      25.272  36.592  45.783  1.00  0.00    +0.000 C 
ATOM    117  H22 UNL A   1      19.730  33.737  47.482  1.00  0.00    +0.000 H 
ATOM    118  H23 UNL A   1      17.973  35.229  48.702  1.00  0.00    +0.000 H 
ATOM    119  H24 UNL A   1      21.277  37.565  47.818  1.00  0.00    +0.000 H 
ATOM    120  H25 UNL A   1      24.382  43.120  48.266  1.00  0.00    +0.000 H 
ATOM    121  H26 UNL A   1      26.069  41.673  47.038  1.00  0.00    +0.000 H 
ATOM    122  H27 UNL A   1      22.732  39.329  47.842  1.00  0.00    +0.000 H 
ATOM    123  H28 UNL A   1      19.432  42.355  50.128  1.00  0.00    +0.000 H 
ATOM    124  H29 UNL A   1      17.925  40.304  50.386  1.00  0.00    +0.000 H 
ATOM    125  H30 UNL A   1      24.512  34.717  45.254  1.00  0.00    +0.000 H 
ATOM    126  H31 UNL A   1      26.243  36.597  45.432  1.00  0.00    +0.000 H 
ENDROOT
BRANCH   28   27
ATOM    115  H20 UNL A   1      28.372  41.283  44.140  1.00  0.00    +0.000 H 
ATOM    116  H21 UNL A   1      26.178  41.041  45.146  1.00  0.00    +0.000 H 
ATOM     85  C57 UNL A   1      27.591  38.228  46.308  1.00  0.00    +0.000 C 
ATOM     86  C58 UNL A   1      28.876  38.412  45.798  1.00  0.00    +0.000 C 
ATOM     24  C15 UNL A   1      29.147  39.497  44.960  1.00  0.00    +0.000 C 
ATOM     25  C16 UNL A   1      28.162  40.463  44.728  1.00  0.00    +0.000 C 
ATOM     26  C17 UNL A   1      26.895  40.314  45.295  1.00  0.00    +0.000 C 
ATOM     27  C18 UNL A   1      26.590  39.181  46.066  1.00  0.00    +0.000 C 
ATOM    127  H32 UNL A   1      27.376  37.386  46.865  1.00  0.00    +0.000 H 
ATOM    128  H33 UNL A   1      29.627  37.746  46.040  1.00  0.00    +0.000 H 
BRANCH   24   22
ATOM     22  C14 UNL A   1      30.474  39.675  44.329  1.00  0.00    +0.000 C 
ATOM     23  O4  UNL A   1      30.551  39.854  43.117  1.00  0.00    +0.000 O 
BRANCH   22   21
ATOM    114  H19 UNL A   1      32.266  38.935  44.823  1.00  0.00    +0.000 H 
ATOM     21  N4  UNL A   1      31.617  39.627  45.087  1.00  0.00    +0.000 N 
BRANCH   21   20
ATOM    113  H18 UNL A   1      33.077  40.506  46.223  1.00  0.00    +0.000 H 
ATOM     20  C13 UNL A   1      32.009  40.443  46.220  1.00  0.00    +0.000 C 
ATOM    112  H17 UNL A   1      31.642  39.987  47.116  1.00  0.00    +0.000 H 
BRANCH   20   19
ATOM     19  C12 UNL A   1      31.459  41.864  46.133  1.00  0.00    +0.000 C 
ATOM    110  H15 UNL A   1      32.274  42.543  46.272  1.00  0.00    +0.000 H 
ATOM    111  H16 UNL A   1      30.996  41.943  45.171  1.00  0.00    +0.000 H 
BRANCH   19   18
ATOM     18  C11 UNL A   1      30.374  42.210  47.156  1.00  0.00    +0.000 C 
ATOM    108  H13 UNL A   1      30.709  43.058  47.715  1.00  0.00    +0.000 H 
ATOM    109  H14 UNL A   1      29.484  42.389  46.587  1.00  0.00    +0.000 H 
BRANCH   18   17
ATOM     17  C10 UNL A   1      30.020  41.099  48.149  1.00  0.00    +0.000 C 
ATOM    106  H11 UNL A   1      30.204  40.159  47.672  1.00  0.00    +0.000 H 
ATOM    107  H12 UNL A   1      30.628  41.270  49.011  1.00  0.00    +0.000 H 
BRANCH   17   16
ATOM    105  H10 UNL A   1      28.238  40.084  48.595  1.00  0.00    +0.000 H 
ATOM    104  H9  UNL A   1      28.008  41.763  48.025  1.00  0.00    +0.000 H 
ATOM     16  C9  UNL A   1      28.573  41.100  48.646  1.00  0.00    +0.000 C 
BRANCH   16   15
ATOM    103  H8  UNL A   1      28.838  42.504  50.217  1.00  0.00    +0.000 H 
ATOM    102  H7  UNL A   1      28.862  40.824  50.740  1.00  0.00    +0.000 H 
ATOM     15  C8  UNL A   1      28.392  41.538  50.097  1.00  0.00    +0.000 C 
BRANCH   15   14
ATOM    101  H6  UNL A   1      26.524  42.356  49.960  1.00  0.00    +0.000 H 
ATOM     14  N3  UNL A   1      26.988  41.634  50.441  1.00  0.00    +0.000 N 
BRANCH   14   12
ATOM     12  C7  UNL A   1      26.160  40.942  51.289  1.00  0.00    +0.000 C 
ATOM     13  O3  UNL A   1      25.660  41.563  52.223  1.00  0.00    +0.000 O 
BRANCH   12   11
ATOM    129  H34 UNL A   1      24.349  38.993  52.585  1.00  0.00    +0.000 H 
ATOM    130  H35 UNL A   1      25.893  38.623  53.166  1.00  0.00    +0.000 H 
ATOM    131  H36 UNL A   1      25.813  36.520  52.033  1.00  0.00    +0.000 H 
ATOM      9  N1  UNL A   1      25.604  37.546  50.194  1.00  0.00    +0.000 N 
ATOM     10  N2  UNL A   1      26.117  38.812  50.068  1.00  0.00    +0.000 N 
ATOM     11  C6  UNL A   1      25.870  39.452  51.171  1.00  0.00    +0.000 C 
ATOM     87  C59 UNL A   1      25.306  38.628  52.271  1.00  0.00    +0.000 C 
ATOM     88  C60 UNL A   1      25.190  37.265  51.585  1.00  0.00    +0.000 C 
BRANCH    9    8
ATOM     99  H4  UNL A   1      29.379  35.494  48.614  1.00  0.00    +0.000 H 
ATOM    100  H5  UNL A   1      28.218  37.391  49.593  1.00  0.00    +0.000 H 
ATOM      5  C2  UNL A   1      27.632  34.328  48.375  1.00  0.00    +0.000 C 
ATOM      6  C3  UNL A   1      28.358  35.460  48.756  1.00  0.00    +0.000 C 
ATOM      7  C4  UNL A   1      27.688  36.546  49.331  1.00  0.00    +0.000 C 
ATOM    136  H41 UNL A   1      25.719  33.438  48.278  1.00  0.00    +0.000 H 
ATOM    135  H40 UNL A   1      24.576  35.319  49.290  1.00  0.00    +0.000 H 
ATOM      8  C5  UNL A   1      26.303  36.501  49.558  1.00  0.00    +0.000 C 
ATOM     94  C65 UNL A   1      25.598  35.358  49.152  1.00  0.00    +0.000 C 
ATOM     95  C66 UNL A   1      26.251  34.273  48.567  1.00  0.00    +0.000 C 
BRANCH    5    2
ATOM      2  S1  UNL A   1      28.475  32.936  47.665  1.00  0.00    +0.000 S 
ATOM      3  O1  UNL A   1      28.080  31.755  48.414  1.00  0.00    +0.000 O 
ATOM      4  O2  UNL A   1      29.870  33.307  47.546  1.00  0.00    +0.000 O 
BRANCH    2    1
ATOM      1  C1  UNL A   1      27.791  32.780  46.038  1.00  0.00    +0.000 C 
ATOM     98  H3  UNL A   1      28.473  33.189  45.323  1.00  0.00    +0.000 H 
ATOM     97  H2  UNL A   1      27.623  31.745  45.819  1.00  0.00    +0.000 H 
ATOM     96  H1  UNL A   1      26.862  33.309  45.988  1.00  0.00    +0.000 H 
ENDBRANCH    2    1
ENDBRANCH    5    2
ENDBRANCH    9    8
BRANCH   88   89
ATOM    132  H37 UNL A   1      24.265  34.963  53.062  1.00  0.00    +0.000 H 
ATOM    133  H38 UNL A   1      21.793  34.265  52.941  1.00  0.00    +0.000 H 
ATOM    134  H39 UNL A   1      20.425  35.864  51.535  1.00  0.00    +0.000 H 
ATOM     89  C61 UNL A   1      23.834  36.593  51.749  1.00  0.00    +0.000 C 
ATOM     90  C62 UNL A   1      23.554  35.469  52.511  1.00  0.00    +0.000 C 
ATOM     91  C63 UNL A   1      22.184  35.085  52.453  1.00  0.00    +0.000 C 
ATOM     92  C64 UNL A   1      21.445  35.939  51.668  1.00  0.00    +0.000 C 
ATOM     93  S2  UNL A   1      22.417  37.134  50.938  1.00  0.00    +0.000 S 
ENDBRANCH   88   89
ENDBRANCH   12   11
ENDBRANCH   14   12
ENDBRANCH   15   14
ENDBRANCH   16   15
ENDBRANCH   17   16
ENDBRANCH   18   17
ENDBRANCH   19   18
ENDBRANCH   20   19
ENDBRANCH   21   20
ENDBRANCH   22   21
ENDBRANCH   24   22
ENDBRANCH   28   27
BRANCH   32   33
ATOM     33  C23 UNL A   1      22.189  33.780  46.072  1.00  0.00    +0.000 C 
ATOM     34  C24 UNL A   1      22.806  32.732  46.772  1.00  0.00    +0.000 C 
ATOM     35  F1  UNL A   1      23.399  32.965  47.953  1.00  0.00    +0.000 F 
ATOM     36  C25 UNL A   1      22.845  31.443  46.246  1.00  0.00    +0.000 C 
ATOM     37  F2  UNL A   1      23.477  30.468  46.912  1.00  0.00    +0.000 F 
ATOM     38  C26 UNL A   1      22.240  31.170  45.028  1.00  0.00    +0.000 C 
ATOM     39  F3  UNL A   1      22.268  29.927  44.529  1.00  0.00    +0.000 F 
ATOM     40  C27 UNL A   1      21.609  32.186  44.327  1.00  0.00    +0.000 C 
ATOM     41  F4  UNL A   1      21.011  31.921  43.157  1.00  0.00    +0.000 F 
ATOM     42  C28 UNL A   1      21.594  33.482  44.837  1.00  0.00    +0.000 C 
ATOM     43  F5  UNL A   1      20.985  34.446  44.130  1.00  0.00    +0.000 F 
ENDBRANCH   32   33
BRANCH   49   50
ATOM     50  C34 UNL A   1      17.497  37.796  49.787  1.00  0.00    +0.000 C 
ATOM     51  C35 UNL A   1      17.333  37.804  51.180  1.00  0.00    +0.000 C 
ATOM     52  F6  UNL A   1      18.401  37.914  51.986  1.00  0.00    +0.000 F 
ATOM     53  C36 UNL A   1      16.073  37.655  51.753  1.00  0.00    +0.000 C 
ATOM     54  F7  UNL A   1      15.946  37.613  53.086  1.00  0.00    +0.000 F 
ATOM     55  C37 UNL A   1      14.950  37.532  50.947  1.00  0.00    +0.000 C 
ATOM     56  F8  UNL A   1      13.738  37.393  51.501  1.00  0.00    +0.000 F 
ATOM     57  C38 UNL A   1      15.087  37.544  49.567  1.00  0.00    +0.000 C 
ATOM     58  F9  UNL A   1      14.003  37.440  48.787  1.00  0.00    +0.000 F 
ATOM     59  C39 UNL A   1      16.349  37.662  48.992  1.00  0.00    +0.000 C 
ATOM     60  F10 UNL A   1      16.449  37.656  47.654  1.00  0.00    +0.000 F 
ENDBRANCH   49   50
BRANCH   64   65
ATOM     65  C43 UNL A   1      21.852  43.212  49.321  1.00  0.00    +0.000 C 
ATOM     66  C44 UNL A   1      22.233  43.587  50.616  1.00  0.00    +0.000 C 
ATOM     67  F11 UNL A   1      22.669  42.659  51.480  1.00  0.00    +0.000 F 
ATOM     68  C45 UNL A   1      22.126  44.908  51.045  1.00  0.00    +0.000 C 
ATOM     69  F12 UNL A   1      22.449  45.230  52.304  1.00  0.00    +0.000 F 
ATOM     70  C46 UNL A   1      21.665  45.886  50.176  1.00  0.00    +0.000 C 
ATOM     71  F13 UNL A   1      21.563  47.158  50.588  1.00  0.00    +0.000 F 
ATOM     72  C47 UNL A   1      21.304  45.544  48.882  1.00  0.00    +0.000 C 
ATOM     73  F14 UNL A   1      20.873  46.488  48.035  1.00  0.00    +0.000 F 
ATOM     74  C48 UNL A   1      21.384  44.218  48.462  1.00  0.00    +0.000 C 
ATOM     75  F15 UNL A   1      21.012  43.913  47.210  1.00  0.00    +0.000 F 
ENDBRANCH   64   65
TORSDOF 19
ENDMDL
MODEL 8
REMARK VINA RESULT:     -10.5     48.281     54.754
ROOT
ATOM     28  C19 UNL A   1      21.064  39.475  49.118  1.00  0.00    +0.000 C 
ATOM     29  C20 UNL A   1      21.530  40.903  49.046  1.00  0.00    +0.000 C 
ATOM     30  N5  UNL A   1      20.986  41.978  49.559  1.00  0.00    +0.000 N 
ATOM     31  C21 UNL A   1      21.839  43.026  49.238  1.00  0.00    +0.000 C 
ATOM     32  C22 UNL A   1      21.688  44.348  49.493  1.00  0.00    +0.000 C 
ATOM     44  C29 UNL A   1      20.552  44.918  50.170  1.00  0.00    +0.000 C 
ATOM     45  C30 UNL A   1      20.270  46.252  50.409  1.00  0.00    +0.000 C 
ATOM     46  C31 UNL A   1      19.083  46.324  51.144  1.00  0.00    +0.000 C 
ATOM     47  C32 UNL A   1      18.596  45.039  51.317  1.00  0.00    +0.000 C 
ATOM     48  N6  UNL A   1      19.510  44.186  50.719  1.00  0.00    +0.000 N 
ATOM     49  C33 UNL A   1      17.388  44.619  51.980  1.00  0.00    +0.000 C 
ATOM     61  C40 UNL A   1      16.976  43.333  52.099  1.00  0.00    +0.000 C 
ATOM     62  N7  UNL A   1      17.584  42.174  51.636  1.00  0.00    +0.000 N 
ATOM     63  C41 UNL A   1      16.812  41.185  52.016  1.00  0.00    +0.000 C 
ATOM     64  C42 UNL A   1      16.964  39.710  51.763  1.00  0.00    +0.000 C 
ATOM     76  C49 UNL A   1      18.005  39.273  51.028  1.00  0.00    +0.000 C 
ATOM     77  C50 UNL A   1      18.272  37.879  50.684  1.00  0.00    +0.000 C 
ATOM     78  C51 UNL A   1      19.410  37.814  49.976  1.00  0.00    +0.000 C 
ATOM     79  C52 UNL A   1      19.936  39.167  49.788  1.00  0.00    +0.000 C 
ATOM     80  N8  UNL A   1      19.035  39.968  50.442  1.00  0.00    +0.000 N 
ATOM     81  C53 UNL A   1      15.636  41.606  52.789  1.00  0.00    +0.000 C 
ATOM     82  C54 UNL A   1      15.760  42.925  52.772  1.00  0.00    +0.000 C 
ATOM     83  C55 UNL A   1      22.962  42.453  48.527  1.00  0.00    +0.000 C 
ATOM     84  C56 UNL A   1      22.788  41.154  48.326  1.00  0.00    +0.000 C 
ATOM    117  H22 UNL A   1      20.839  47.055  50.098  1.00  0.00    +0.000 H 
ATOM    118  H23 UNL A   1      18.643  47.189  51.497  1.00  0.00    +0.000 H 
ATOM    119  H24 UNL A   1      19.431  43.204  50.688  1.00  0.00    +0.000 H 
ATOM    120  H25 UNL A   1      17.680  37.075  50.943  1.00  0.00    +0.000 H 
ATOM    121  H26 UNL A   1      19.844  36.948  49.621  1.00  0.00    +0.000 H 
ATOM    122  H27 UNL A   1      19.118  40.948  50.488  1.00  0.00    +0.000 H 
ATOM    123  H28 UNL A   1      14.903  41.027  53.228  1.00  0.00    +0.000 H 
ATOM    124  H29 UNL A   1      15.079  43.579  53.186  1.00  0.00    +0.000 H 
ATOM    125  H30 UNL A   1      23.790  42.987  48.218  1.00  0.00    +0.000 H 
ATOM    126  H31 UNL A   1      23.381  40.493  47.801  1.00  0.00    +0.000 H 
ENDROOT
BRANCH   28   27
ATOM    115  H20 UNL A   1      22.168  36.613  45.663  1.00  0.00    +0.000 H 
ATOM    116  H21 UNL A   1      20.933  38.475  46.608  1.00  0.00    +0.000 H 
ATOM     85  C57 UNL A   1      22.874  37.752  49.248  1.00  0.00    +0.000 C 
ATOM     86  C58 UNL A   1      23.640  36.739  48.674  1.00  0.00    +0.000 C 
ATOM     24  C15 UNL A   1      23.346  36.284  47.385  1.00  0.00    +0.000 C 
ATOM     25  C16 UNL A   1      22.361  36.924  46.627  1.00  0.00    +0.000 C 
ATOM     26  C17 UNL A   1      21.640  37.985  47.178  1.00  0.00    +0.000 C 
ATOM     27  C18 UNL A   1      21.870  38.389  48.503  1.00  0.00    +0.000 C 
ATOM    127  H32 UNL A   1      23.047  38.035  50.225  1.00  0.00    +0.000 H 
ATOM    128  H33 UNL A   1      24.426  36.325  49.200  1.00  0.00    +0.000 H 
BRANCH   24   22
ATOM     22  C14 UNL A   1      24.080  35.151  46.778  1.00  0.00    +0.000 C 
ATOM     23  O4  UNL A   1      24.867  35.359  45.860  1.00  0.00    +0.000 O 
BRANCH   22   21
ATOM    114  H19 UNL A   1      24.676  33.411  47.565  1.00  0.00    +0.000 H 
ATOM     21  N4  UNL A   1      23.874  33.870  47.225  1.00  0.00    +0.000 N 
BRANCH   21   20
ATOM    113  H18 UNL A   1      22.907  32.096  47.564  1.00  0.00    +0.000 H 
ATOM     20  C13 UNL A   1      22.650  33.092  47.269  1.00  0.00    +0.000 C 
ATOM    112  H17 UNL A   1      22.198  33.109  46.299  1.00  0.00    +0.000 H 
BRANCH   20   19
ATOM     19  C12 UNL A   1      21.651  33.636  48.285  1.00  0.00    +0.000 C 
ATOM    110  H15 UNL A   1      21.783  33.096  49.200  1.00  0.00    +0.000 H 
ATOM    111  H16 UNL A   1      21.858  34.682  48.373  1.00  0.00    +0.000 H 
BRANCH   19   18
ATOM     18  C11 UNL A   1      20.179  33.526  47.880  1.00  0.00    +0.000 C 
ATOM    108  H13 UNL A   1      20.128  32.960  46.974  1.00  0.00    +0.000 H 
ATOM    109  H14 UNL A   1      19.682  33.064  48.708  1.00  0.00    +0.000 H 
BRANCH   18   17
ATOM     17  C10 UNL A   1      19.455  34.855  47.646  1.00  0.00    +0.000 C 
ATOM    106  H11 UNL A   1      18.636  34.910  48.334  1.00  0.00    +0.000 H 
ATOM    107  H12 UNL A   1      20.188  35.620  47.789  1.00  0.00    +0.000 H 
BRANCH   17   16
ATOM    105  H10 UNL A   1      18.646  34.088  45.868  1.00  0.00    +0.000 H 
ATOM    104  H9  UNL A   1      19.648  35.554  45.652  1.00  0.00    +0.000 H 
ATOM     16  C9  UNL A   1      18.899  35.061  46.236  1.00  0.00    +0.000 C 
BRANCH   16   15
ATOM    103  H8  UNL A   1      17.841  36.811  45.662  1.00  0.00    +0.000 H 
ATOM    102  H7  UNL A   1      17.269  36.081  47.157  1.00  0.00    +0.000 H 
ATOM     15  C8  UNL A   1      17.620  35.892  46.164  1.00  0.00    +0.000 C 
BRANCH   15   14
ATOM    101  H6  UNL A   1      15.707  35.241  45.857  1.00  0.00    +0.000 H 
ATOM     14  N3  UNL A   1      16.588  35.199  45.421  1.00  0.00    +0.000 N 
BRANCH   14   12
ATOM     12  C7  UNL A   1      16.565  34.495  44.242  1.00  0.00    +0.000 C 
ATOM     13  O3  UNL A   1      15.974  35.004  43.292  1.00  0.00    +0.000 O 
BRANCH   12   11
ATOM    129  H34 UNL A   1      19.289  33.359  44.021  1.00  0.00    +0.000 H 
ATOM    130  H35 UNL A   1      18.631  33.249  42.468  1.00  0.00    +0.000 H 
ATOM    131  H36 UNL A   1      18.668  30.864  42.625  1.00  0.00    +0.000 H 
ATOM      9  N1  UNL A   1      17.383  30.979  44.302  1.00  0.00    +0.000 N 
ATOM     10  N2  UNL A   1      16.531  32.048  44.425  1.00  0.00    +0.000 N 
ATOM     11  C6  UNL A   1      17.177  33.113  44.060  1.00  0.00    +0.000 C 
ATOM     87  C59 UNL A   1      18.517  32.872  43.463  1.00  0.00    +0.000 C 
ATOM     88  C60 UNL A   1      18.616  31.349  43.577  1.00  0.00    +0.000 C 
BRANCH    9    8
ATOM     99  H4  UNL A   1      17.169  26.406  44.235  1.00  0.00    +0.000 H 
ATOM    100  H5  UNL A   1      18.273  28.494  44.806  1.00  0.00    +0.000 H 
ATOM      5  C2  UNL A   1      15.567  27.333  43.213  1.00  0.00    +0.000 C 
ATOM      6  C3  UNL A   1      16.756  27.307  43.947  1.00  0.00    +0.000 C 
ATOM      7  C4  UNL A   1      17.383  28.511  44.284  1.00  0.00    +0.000 C 
ATOM    136  H41 UNL A   1      14.126  28.560  42.275  1.00  0.00    +0.000 H 
ATOM    135  H40 UNL A   1      15.214  30.637  42.882  1.00  0.00    +0.000 H 
ATOM      8  C5  UNL A   1      16.817  29.744  43.924  1.00  0.00    +0.000 C 
ATOM     94  C65 UNL A   1      15.630  29.740  43.176  1.00  0.00    +0.000 C 
ATOM     95  C66 UNL A   1      15.001  28.546  42.822  1.00  0.00    +0.000 C 
BRANCH    5    2
ATOM      2  S1  UNL A   1      14.751  25.811  42.799  1.00  0.00    +0.000 S 
ATOM      3  O1  UNL A   1      13.403  25.874  43.337  1.00  0.00    +0.000 O 
ATOM      4  O2  UNL A   1      15.651  24.738  43.172  1.00  0.00    +0.000 O 
BRANCH    2    1
ATOM      1  C1  UNL A   1      14.614  25.843  41.032  1.00  0.00    +0.000 C 
ATOM     98  H3  UNL A   1      14.867  24.881  40.637  1.00  0.00    +0.000 H 
ATOM     97  H2  UNL A   1      13.609  26.088  40.757  1.00  0.00    +0.000 H 
ATOM     96  H1  UNL A   1      15.282  26.579  40.635  1.00  0.00    +0.000 H 
ENDBRANCH    2    1
ENDBRANCH    5    2
ENDBRANCH    9    8
BRANCH   88   89
ATOM    132  H37 UNL A   1      19.345  28.998  45.086  1.00  0.00    +0.000 H 
ATOM    133  H38 UNL A   1      21.766  28.690  45.899  1.00  0.00    +0.000 H 
ATOM    134  H39 UNL A   1      23.273  30.567  45.116  1.00  0.00    +0.000 H 
ATOM     89  C61 UNL A   1      19.918  30.850  44.187  1.00  0.00    +0.000 C 
ATOM     90  C62 UNL A   1      20.102  29.674  44.898  1.00  0.00    +0.000 C 
ATOM     91  C63 UNL A   1      21.444  29.496  45.342  1.00  0.00    +0.000 C 
ATOM     92  C64 UNL A   1      22.258  30.529  44.939  1.00  0.00    +0.000 C 
ATOM     93  S2  UNL A   1      21.387  31.741  44.114  1.00  0.00    +0.000 S 
ENDBRANCH   88   89
ENDBRANCH   12   11
ENDBRANCH   14   12
ENDBRANCH   15   14
ENDBRANCH   16   15
ENDBRANCH   17   16
ENDBRANCH   18   17
ENDBRANCH   19   18
ENDBRANCH   20   19
ENDBRANCH   21   20
ENDBRANCH   22   21
ENDBRANCH   24   22
ENDBRANCH   28   27
BRANCH   32   33
ATOM     33  C23 UNL A   1      22.775  45.276  49.035  1.00  0.00    +0.000 C 
ATOM     34  C24 UNL A   1      22.702  45.946  47.804  1.00  0.00    +0.000 C 
ATOM     35  F1  UNL A   1      21.675  45.718  46.971  1.00  0.00    +0.000 F 
ATOM     36  C25 UNL A   1      23.704  46.828  47.407  1.00  0.00    +0.000 C 
ATOM     37  F2  UNL A   1      23.635  47.422  46.208  1.00  0.00    +0.000 F 
ATOM     38  C26 UNL A   1      24.778  47.085  48.246  1.00  0.00    +0.000 C 
ATOM     39  F3  UNL A   1      25.735  47.943  47.868  1.00  0.00    +0.000 F 
ATOM     40  C27 UNL A   1      24.862  46.449  49.476  1.00  0.00    +0.000 C 
ATOM     41  F4  UNL A   1      25.892  46.706  50.294  1.00  0.00    +0.000 F 
ATOM     42  C28 UNL A   1      23.876  45.544  49.862  1.00  0.00    +0.000 C 
ATOM     43  F5  UNL A   1      23.991  44.936  51.053  1.00  0.00    +0.000 F 
ENDBRANCH   32   33
BRANCH   49   50
ATOM     50  C34 UNL A   1      16.503  45.680  52.563  1.00  0.00    +0.000 C 
ATOM     51  C35 UNL A   1      15.448  46.244  51.830  1.00  0.00    +0.000 C 
ATOM     52  F6  UNL A   1      15.234  45.871  50.559  1.00  0.00    +0.000 F 
ATOM     53  C36 UNL A   1      14.634  47.226  52.387  1.00  0.00    +0.000 C 
ATOM     54  F7  UNL A   1      13.666  47.788  51.651  1.00  0.00    +0.000 F 
ATOM     55  C37 UNL A   1      14.834  47.637  53.697  1.00  0.00    +0.000 C 
ATOM     56  F8  UNL A   1      14.046  48.579  54.233  1.00  0.00    +0.000 F 
ATOM     57  C38 UNL A   1      15.857  47.077  54.448  1.00  0.00    +0.000 C 
ATOM     58  F9  UNL A   1      16.043  47.462  55.718  1.00  0.00    +0.000 F 
ATOM     59  C39 UNL A   1      16.692  46.117  53.883  1.00  0.00    +0.000 C 
ATOM     60  F10 UNL A   1      17.681  45.604  54.630  1.00  0.00    +0.000 F 
ENDBRANCH   49   50
BRANCH   64   65
ATOM     65  C43 UNL A   1      15.973  38.740  52.297  1.00  0.00    +0.000 C 
ATOM     66  C44 UNL A   1      16.105  38.209  53.588  1.00  0.00    +0.000 C 
ATOM     67  F11 UNL A   1      17.145  38.568  54.354  1.00  0.00    +0.000 F 
ATOM     68  C45 UNL A   1      15.197  37.273  54.079  1.00  0.00    +0.000 C 
ATOM     69  F12 UNL A   1      15.377  36.744  55.295  1.00  0.00    +0.000 F 
ATOM     70  C46 UNL A   1      14.120  36.875  53.301  1.00  0.00    +0.000 C 
ATOM     71  F13 UNL A   1      13.245  35.976  53.773  1.00  0.00    +0.000 F 
ATOM     72  C47 UNL A   1      13.955  37.404  52.030  1.00  0.00    +0.000 C 
ATOM     73  F14 UNL A   1      12.907  37.033  51.281  1.00  0.00    +0.000 F 
ATOM     74  C48 UNL A   1      14.879  38.317  51.527  1.00  0.00    +0.000 C 
ATOM     75  F15 UNL A   1      14.703  38.800  50.288  1.00  0.00    +0.000 F 
ENDBRANCH   64   65
TORSDOF 19
ENDMDL
MODEL 9
REMARK VINA RESULT:     -10.4     25.759     33.371
ROOT
ATOM     28  C19 UNL A   1      17.943  17.030   7.066  1.00  0.00    +0.000 C 
ATOM     29  C20 UNL A   1      19.311  17.033   7.692  1.00  0.00    +0.000 C 
ATOM     30  N5  UNL A   1      20.200  16.073   7.741  1.00  0.00    +0.000 N 
ATOM     31  C21 UNL A   1      21.303  16.610   8.392  1.00  0.00    +0.000 C 
ATOM     32  C22 UNL A   1      22.461  15.999   8.739  1.00  0.00    +0.000 C 
ATOM     44  C29 UNL A   1      22.752  14.611   8.485  1.00  0.00    +0.000 C 
ATOM     45  C30 UNL A   1      23.864  13.880   8.865  1.00  0.00    +0.000 C 
ATOM     46  C31 UNL A   1      23.734  12.586   8.352  1.00  0.00    +0.000 C 
ATOM     47  C32 UNL A   1      22.516  12.495   7.697  1.00  0.00    +0.000 C 
ATOM     48  N6  UNL A   1      21.927  13.747   7.783  1.00  0.00    +0.000 N 
ATOM     49  C33 UNL A   1      21.933  11.352   7.042  1.00  0.00    +0.000 C 
ATOM     61  C40 UNL A   1      20.725  11.344   6.428  1.00  0.00    +0.000 C 
ATOM     62  N7  UNL A   1      19.806  12.375   6.292  1.00  0.00    +0.000 N 
ATOM     63  C41 UNL A   1      18.805  11.880   5.606  1.00  0.00    +0.000 C 
ATOM     64  C42 UNL A   1      17.518  12.540   5.191  1.00  0.00    +0.000 C 
ATOM     76  C49 UNL A   1      17.282  13.812   5.564  1.00  0.00    +0.000 C 
ATOM     77  C50 UNL A   1      16.077  14.574   5.254  1.00  0.00    +0.000 C 
ATOM     78  C51 UNL A   1      16.204  15.815   5.751  1.00  0.00    +0.000 C 
ATOM     79  C52 UNL A   1      17.489  15.925   6.444  1.00  0.00    +0.000 C 
ATOM     80  N8  UNL A   1      18.059  14.687   6.285  1.00  0.00    +0.000 N 
ATOM     81  C53 UNL A   1      18.989  10.478   5.206  1.00  0.00    +0.000 C 
ATOM     82  C54 UNL A   1      20.153  10.188   5.769  1.00  0.00    +0.000 C 
ATOM     83  C55 UNL A   1      20.992  17.995   8.676  1.00  0.00    +0.000 C 
ATOM     84  C56 UNL A   1      19.749  18.288   8.322  1.00  0.00    +0.000 C 
ATOM    117  H22 UNL A   1      24.654  14.230   9.430  1.00  0.00    +0.000 H 
ATOM    118  H23 UNL A   1      24.427  11.826   8.445  1.00  0.00    +0.000 H 
ATOM    119  H24 UNL A   1      21.051  13.986   7.401  1.00  0.00    +0.000 H 
ATOM    120  H25 UNL A   1      15.258  14.217   4.738  1.00  0.00    +0.000 H 
ATOM    121  H26 UNL A   1      15.507  16.570   5.660  1.00  0.00    +0.000 H 
ATOM    122  H27 UNL A   1      18.941  14.448   6.651  1.00  0.00    +0.000 H 
ATOM    123  H28 UNL A   1      18.374   9.877   4.637  1.00  0.00    +0.000 H 
ATOM    124  H29 UNL A   1      20.596   9.256   5.742  1.00  0.00    +0.000 H 
ATOM    125  H30 UNL A   1      21.653  18.666   9.099  1.00  0.00    +0.000 H 
ATOM    126  H31 UNL A   1      19.225  19.167   8.454  1.00  0.00    +0.000 H 
ENDROOT
BRANCH   28   27
ATOM    115  H20 UNL A   1      14.662  19.766   8.824  1.00  0.00    +0.000 H 
ATOM    116  H21 UNL A   1      16.109  17.820   8.890  1.00  0.00    +0.000 H 
ATOM     85  C57 UNL A   1      17.238  19.206   6.050  1.00  0.00    +0.000 C 
ATOM     86  C58 UNL A   1      16.464  20.366   6.060  1.00  0.00    +0.000 C 
ATOM     24  C15 UNL A   1      15.485  20.544   7.041  1.00  0.00    +0.000 C 
ATOM     25  C16 UNL A   1      15.360  19.617   8.080  1.00  0.00    +0.000 C 
ATOM     26  C17 UNL A   1      16.182  18.489   8.107  1.00  0.00    +0.000 C 
ATOM     27  C18 UNL A   1      17.109  18.259   7.078  1.00  0.00    +0.000 C 
ATOM    127  H32 UNL A   1      17.910  19.043   5.284  1.00  0.00    +0.000 H 
ATOM    128  H33 UNL A   1      16.616  21.093   5.344  1.00  0.00    +0.000 H 
BRANCH   24   22
ATOM     22  C14 UNL A   1      14.585  21.719   7.031  1.00  0.00    +0.000 C 
ATOM     23  O4  UNL A   1      14.489  22.420   8.034  1.00  0.00    +0.000 O 
BRANCH   22   21
ATOM    114  H19 UNL A   1      13.116  21.393   5.712  1.00  0.00    +0.000 H 
ATOM     21  N4  UNL A   1      13.847  22.021   5.914  1.00  0.00    +0.000 N 
BRANCH   21   20
ATOM    113  H18 UNL A   1      14.936  23.587   5.166  1.00  0.00    +0.000 H 
ATOM     20  C13 UNL A   1      13.986  23.128   4.986  1.00  0.00    +0.000 C 
ATOM    112  H17 UNL A   1      13.182  23.815   5.149  1.00  0.00    +0.000 H 
BRANCH   20   19
ATOM     19  C12 UNL A   1      13.955  22.674   3.530  1.00  0.00    +0.000 C 
ATOM    110  H15 UNL A   1      12.980  22.881   3.139  1.00  0.00    +0.000 H 
ATOM    111  H16 UNL A   1      14.737  23.213   3.036  1.00  0.00    +0.000 H 
BRANCH   19   18
ATOM     18  C11 UNL A   1      14.253  21.190   3.301  1.00  0.00    +0.000 C 
ATOM    108  H13 UNL A   1      14.331  20.719   4.258  1.00  0.00    +0.000 H 
ATOM    109  H14 UNL A   1      13.447  20.821   2.700  1.00  0.00    +0.000 H 
BRANCH   18   17
ATOM     17  C10 UNL A   1      15.532  20.883   2.518  1.00  0.00    +0.000 C 
ATOM    106  H11 UNL A   1      15.923  19.953   2.876  1.00  0.00    +0.000 H 
ATOM    107  H12 UNL A   1      15.249  20.862   1.487  1.00  0.00    +0.000 H 
BRANCH   17   16
ATOM    105  H10 UNL A   1      16.527  22.385   3.595  1.00  0.00    +0.000 H 
ATOM    104  H9  UNL A   1      16.525  22.625   1.823  1.00  0.00    +0.000 H 
ATOM     16  C9  UNL A   1      16.639  21.933   2.631  1.00  0.00    +0.000 C 
BRANCH   16   15
ATOM    103  H8  UNL A   1      18.444  21.518   1.591  1.00  0.00    +0.000 H 
ATOM    102  H7  UNL A   1      18.038  20.337   2.832  1.00  0.00    +0.000 H 
ATOM     15  C8  UNL A   1      18.061  21.378   2.581  1.00  0.00    +0.000 C 
BRANCH   15   14
ATOM    101  H6  UNL A   1      18.443  22.726   4.067  1.00  0.00    +0.000 H 
ATOM     14  N3  UNL A   1      18.925  22.072   3.512  1.00  0.00    +0.000 N 
BRANCH   14   12
ATOM     12  C7  UNL A   1      20.267  22.020   3.795  1.00  0.00    +0.000 C 
ATOM     13  O3  UNL A   1      20.901  23.070   3.723  1.00  0.00    +0.000 O 
BRANCH   12   11
ATOM    129  H34 UNL A   1      19.570  19.203   4.377  1.00  0.00    +0.000 H 
ATOM    130  H35 UNL A   1      20.052  19.859   5.858  1.00  0.00    +0.000 H 
ATOM    131  H36 UNL A   1      21.952  18.409   5.879  1.00  0.00    +0.000 H 
ATOM      9  N1  UNL A   1      22.617  19.293   4.075  1.00  0.00    +0.000 N 
ATOM     10  N2  UNL A   1      22.259  20.586   3.788  1.00  0.00    +0.000 N 
ATOM     11  C6  UNL A   1      21.019  20.742   4.139  1.00  0.00    +0.000 C 
ATOM     87  C59 UNL A   1      20.422  19.604   4.886  1.00  0.00    +0.000 C 
ATOM     88  C60 UNL A   1      21.590  18.616   4.894  1.00  0.00    +0.000 C 
BRANCH    9    8
ATOM     99  H4  UNL A   1      26.691  17.218   3.835  1.00  0.00    +0.000 H 
ATOM    100  H5  UNL A   1      24.364  17.459   3.178  1.00  0.00    +0.000 H 
ATOM      5  C2  UNL A   1      26.620  18.755   5.284  1.00  0.00    +0.000 C 
ATOM      6  C3  UNL A   1      26.096  17.932   4.284  1.00  0.00    +0.000 C 
ATOM      7  C4  UNL A   1      24.759  18.081   3.900  1.00  0.00    +0.000 C 
ATOM    136  H41 UNL A   1      26.213  20.326   6.637  1.00  0.00    +0.000 H 
ATOM    135  H40 UNL A   1      23.905  20.584   5.948  1.00  0.00    +0.000 H 
ATOM      8  C5  UNL A   1      23.948  19.067   4.482  1.00  0.00    +0.000 C 
ATOM     94  C65 UNL A   1      24.496  19.871   5.492  1.00  0.00    +0.000 C 
ATOM     95  C66 UNL A   1      25.823  19.724   5.895  1.00  0.00    +0.000 C 
BRANCH    5    2
ATOM      2  S1  UNL A   1      28.321  18.589   5.765  1.00  0.00    +0.000 S 
ATOM      3  O1  UNL A   1      28.462  17.318   6.453  1.00  0.00    +0.000 O 
ATOM      4  O2  UNL A   1      28.696  19.829   6.412  1.00  0.00    +0.000 O 
BRANCH    2    1
ATOM      1  C1  UNL A   1      29.208  18.460   4.235  1.00  0.00    +0.000 C 
ATOM     98  H3  UNL A   1      30.124  17.931   4.397  1.00  0.00    +0.000 H 
ATOM     97  H2  UNL A   1      28.612  17.930   3.522  1.00  0.00    +0.000 H 
ATOM     96  H1  UNL A   1      29.422  19.441   3.863  1.00  0.00    +0.000 H 
ENDBRANCH    2    1
ENDBRANCH    5    2
ENDBRANCH    9    8
BRANCH   88   89
ATOM    132  H37 UNL A   1      19.303  17.471   3.553  1.00  0.00    +0.000 H 
ATOM    133  H38 UNL A   1      19.217  14.943   3.087  1.00  0.00    +0.000 H 
ATOM    134  H39 UNL A   1      21.335  13.771   3.828  1.00  0.00    +0.000 H 
ATOM     89  C61 UNL A   1      21.220  17.204   4.458  1.00  0.00    +0.000 C 
ATOM     90  C62 UNL A   1      20.057  16.816   3.813  1.00  0.00    +0.000 C 
ATOM     91  C63 UNL A   1      20.011  15.417   3.545  1.00  0.00    +0.000 C 
ATOM     92  C64 UNL A   1      21.150  14.776   3.971  1.00  0.00    +0.000 C 
ATOM     93  S2  UNL A   1      22.219  15.839   4.767  1.00  0.00    +0.000 S 
ENDBRANCH   88   89
ENDBRANCH   12   11
ENDBRANCH   14   12
ENDBRANCH   15   14
ENDBRANCH   16   15
ENDBRANCH   17   16
ENDBRANCH   18   17
ENDBRANCH   19   18
ENDBRANCH   20   19
ENDBRANCH   21   20
ENDBRANCH   22   21
ENDBRANCH   24   22
ENDBRANCH   28   27
BRANCH   32   33
ATOM     33  C23 UNL A   1      23.503  16.821   9.438  1.00  0.00    +0.000 C 
ATOM     34  C24 UNL A   1      24.605  17.354   8.752  1.00  0.00    +0.000 C 
ATOM     35  F1  UNL A   1      24.784  17.083   7.450  1.00  0.00    +0.000 F 
ATOM     36  C25 UNL A   1      25.547  18.142   9.408  1.00  0.00    +0.000 C 
ATOM     37  F2  UNL A   1      26.613  18.603   8.742  1.00  0.00    +0.000 F 
ATOM     38  C26 UNL A   1      25.389  18.441  10.753  1.00  0.00    +0.000 C 
ATOM     39  F3  UNL A   1      26.290  19.208  11.381  1.00  0.00    +0.000 F 
ATOM     40  C27 UNL A   1      24.298  17.940  11.449  1.00  0.00    +0.000 C 
ATOM     41  F4  UNL A   1      24.136  18.239  12.745  1.00  0.00    +0.000 F 
ATOM     42  C28 UNL A   1      23.370  17.128  10.802  1.00  0.00    +0.000 C 
ATOM     43  F5  UNL A   1      22.332  16.650  11.504  1.00  0.00    +0.000 F 
ENDBRANCH   32   33
BRANCH   49   50
ATOM     50  C34 UNL A   1      22.705  10.066   7.056  1.00  0.00    +0.000 C 
ATOM     51  C35 UNL A   1      23.561   9.709   6.003  1.00  0.00    +0.000 C 
ATOM     52  F6  UNL A   1      23.674  10.501   4.926  1.00  0.00    +0.000 F 
ATOM     53  C36 UNL A   1      24.272   8.513   6.033  1.00  0.00    +0.000 C 
ATOM     54  F7  UNL A   1      25.043   8.167   4.994  1.00  0.00    +0.000 F 
ATOM     55  C37 UNL A   1      24.171   7.669   7.131  1.00  0.00    +0.000 C 
ATOM     56  F8  UNL A   1      24.860   6.520   7.160  1.00  0.00    +0.000 F 
ATOM     57  C38 UNL A   1      23.348   8.013   8.193  1.00  0.00    +0.000 C 
ATOM     58  F9  UNL A   1      23.261   7.207   9.259  1.00  0.00    +0.000 F 
ATOM     59  C39 UNL A   1      22.612   9.194   8.151  1.00  0.00    +0.000 C 
ATOM     60  F10 UNL A   1      21.814   9.492   9.187  1.00  0.00    +0.000 F 
ENDBRANCH   49   50
BRANCH   64   65
ATOM     65  C43 UNL A   1      16.505  11.798   4.396  1.00  0.00    +0.000 C 
ATOM     66  C44 UNL A   1      16.502  11.858   2.995  1.00  0.00    +0.000 C 
ATOM     67  F11 UNL A   1      17.416  12.601   2.356  1.00  0.00    +0.000 F 
ATOM     68  C45 UNL A   1      15.532  11.192   2.248  1.00  0.00    +0.000 C 
ATOM     69  F12 UNL A   1      15.522  11.308   0.914  1.00  0.00    +0.000 F 
ATOM     70  C46 UNL A   1      14.567  10.427   2.886  1.00  0.00    +0.000 C 
ATOM     71  F13 UNL A   1      13.635   9.786   2.168  1.00  0.00    +0.000 F 
ATOM     72  C47 UNL A   1      14.564  10.334   4.270  1.00  0.00    +0.000 C 
ATOM     73  F14 UNL A   1      13.642   9.584   4.888  1.00  0.00    +0.000 F 
ATOM     74  C48 UNL A   1      15.515  11.023   5.019  1.00  0.00    +0.000 C 
ATOM     75  F15 UNL A   1      15.478  10.928   6.356  1.00  0.00    +0.000 F 
ENDBRANCH   64   65
TORSDOF 19
ENDMDL
MODEL 10
REMARK VINA RESULT:     -10.4     41.454     47.523
ROOT
ATOM     28  C19 UNL A   1      10.819   2.936  21.513  1.00  0.00    +0.000 C 
ATOM     29  C20 UNL A   1       9.826   3.840  22.192  1.00  0.00    +0.000 C 
ATOM     30  N5  UNL A   1       9.315   4.971  21.773  1.00  0.00    +0.000 N 
ATOM     31  C21 UNL A   1       8.420   5.370  22.757  1.00  0.00    +0.000 C 
ATOM     32  C22 UNL A   1       7.682   6.504  22.819  1.00  0.00    +0.000 C 
ATOM     44  C29 UNL A   1       7.711   7.545  21.824  1.00  0.00    +0.000 C 
ATOM     45  C30 UNL A   1       7.059   8.766  21.834  1.00  0.00    +0.000 C 
ATOM     46  C31 UNL A   1       7.345   9.425  20.634  1.00  0.00    +0.000 C 
ATOM     47  C32 UNL A   1       8.218   8.639  19.900  1.00  0.00    +0.000 C 
ATOM     48  N6  UNL A   1       8.431   7.486  20.640  1.00  0.00    +0.000 N 
ATOM     49  C33 UNL A   1       8.814   8.917  18.619  1.00  0.00    +0.000 C 
ATOM     61  C40 UNL A   1       9.672   8.093  17.968  1.00  0.00    +0.000 C 
ATOM     62  N7  UNL A   1      10.158   6.853  18.357  1.00  0.00    +0.000 N 
ATOM     63  C41 UNL A   1      10.937   6.449  17.384  1.00  0.00    +0.000 C 
ATOM     64  C42 UNL A   1      11.753   5.188  17.281  1.00  0.00    +0.000 C 
ATOM     76  C49 UNL A   1      11.748   4.317  18.307  1.00  0.00    +0.000 C 
ATOM     77  C50 UNL A   1      12.502   3.067  18.359  1.00  0.00    +0.000 C 
ATOM     78  C51 UNL A   1      12.227   2.439  19.513  1.00  0.00    +0.000 C 
ATOM     79  C52 UNL A   1      11.303   3.259  20.298  1.00  0.00    +0.000 C 
ATOM     80  N8  UNL A   1      11.077   4.356  19.505  1.00  0.00    +0.000 N 
ATOM     81  C53 UNL A   1      11.014   7.381  16.251  1.00  0.00    +0.000 C 
ATOM     82  C54 UNL A   1      10.261   8.385  16.677  1.00  0.00    +0.000 C 
ATOM     83  C55 UNL A   1       8.420   4.337  23.772  1.00  0.00    +0.000 C 
ATOM     84  C56 UNL A   1       9.319   3.402  23.501  1.00  0.00    +0.000 C 
ATOM    117  H22 UNL A   1       6.464   9.127  22.596  1.00  0.00    +0.000 H 
ATOM    118  H23 UNL A   1       6.970  10.342  20.345  1.00  0.00    +0.000 H 
ATOM    119  H24 UNL A   1       9.007   6.736  20.366  1.00  0.00    +0.000 H 
ATOM    120  H25 UNL A   1      13.142   2.723  17.627  1.00  0.00    +0.000 H 
ATOM    121  H26 UNL A   1      12.608   1.524  19.801  1.00  0.00    +0.000 H 
ATOM    122  H27 UNL A   1      10.490   5.101  19.769  1.00  0.00    +0.000 H 
ATOM    123  H28 UNL A   1      11.521   7.282  15.358  1.00  0.00    +0.000 H 
ATOM    124  H29 UNL A   1      10.112   9.263  16.156  1.00  0.00    +0.000 H 
ATOM    125  H30 UNL A   1       7.800   4.332  24.597  1.00  0.00    +0.000 H 
ATOM    126  H31 UNL A   1       9.592   2.581  24.064  1.00  0.00    +0.000 H 
ENDROOT
BRANCH   28   27
ATOM    115  H20 UNL A   1      10.268  -1.547  22.486  1.00  0.00    +0.000 H 
ATOM    116  H21 UNL A   1       9.657   0.500  21.335  1.00  0.00    +0.000 H 
ATOM     85  C57 UNL A   1      12.378   1.612  22.954  1.00  0.00    +0.000 C 
ATOM     86  C58 UNL A   1      12.774   0.414  23.547  1.00  0.00    +0.000 C 
ATOM     24  C15 UNL A   1      11.975  -0.726  23.422  1.00  0.00    +0.000 C 
ATOM     25  C16 UNL A   1      10.839  -0.696  22.608  1.00  0.00    +0.000 C 
ATOM     26  C17 UNL A   1      10.479   0.487  21.959  1.00  0.00    +0.000 C 
ATOM     27  C18 UNL A   1      11.229   1.658  22.149  1.00  0.00    +0.000 C 
ATOM    127  H32 UNL A   1      12.932   2.469  23.108  1.00  0.00    +0.000 H 
ATOM    128  H33 UNL A   1      13.660   0.368  24.076  1.00  0.00    +0.000 H 
BRANCH   24   22
ATOM     22  C14 UNL A   1      12.318  -1.990  24.111  1.00  0.00    +0.000 C 
ATOM     23  O4  UNL A   1      11.774  -3.036  23.768  1.00  0.00    +0.000 O 
BRANCH   22   21
ATOM    114  H19 UNL A   1      14.126  -2.319  24.900  1.00  0.00    +0.000 H 
ATOM     21  N4  UNL A   1      13.226  -1.998  25.139  1.00  0.00    +0.000 N 
BRANCH   21   20
ATOM    113  H18 UNL A   1      12.727  -0.587  26.538  1.00  0.00    +0.000 H 
ATOM     20  C13 UNL A   1      13.057  -1.605  26.525  1.00  0.00    +0.000 C 
ATOM    112  H17 UNL A   1      13.993  -1.719  27.031  1.00  0.00    +0.000 H 
BRANCH   20   19
ATOM     19  C12 UNL A   1      12.006  -2.444  27.244  1.00  0.00    +0.000 C 
ATOM    110  H15 UNL A   1      11.682  -3.213  26.574  1.00  0.00    +0.000 H 
ATOM    111  H16 UNL A   1      12.479  -2.819  28.127  1.00  0.00    +0.000 H 
BRANCH   19   18
ATOM     18  C11 UNL A   1      10.768  -1.678  27.718  1.00  0.00    +0.000 C 
ATOM    108  H13 UNL A   1       9.908  -2.274  27.499  1.00  0.00    +0.000 H 
ATOM    109  H14 UNL A   1      10.918  -1.501  28.764  1.00  0.00    +0.000 H 
BRANCH   18   17
ATOM     17  C10 UNL A   1      10.560  -0.298  27.087  1.00  0.00    +0.000 C 
ATOM    106  H11 UNL A   1      10.367   0.399  27.875  1.00  0.00    +0.000 H 
ATOM    107  H12 UNL A   1      11.452  -0.089  26.536  1.00  0.00    +0.000 H 
BRANCH   17   16
ATOM    105  H10 UNL A   1       9.622  -0.920  25.315  1.00  0.00    +0.000 H 
ATOM    104  H9  UNL A   1       9.368   0.803  25.720  1.00  0.00    +0.000 H 
ATOM     16  C9  UNL A   1       9.411  -0.203  26.082  1.00  0.00    +0.000 C 
BRANCH   16   15
ATOM    103  H8  UNL A   1       8.156  -0.883  27.654  1.00  0.00    +0.000 H 
ATOM    102  H7  UNL A   1       7.615  -1.350  26.046  1.00  0.00    +0.000 H 
ATOM     15  C8  UNL A   1       8.036  -0.565  26.639  1.00  0.00    +0.000 C 
BRANCH   15   14
ATOM    101  H6  UNL A   1       7.575   1.403  26.936  1.00  0.00    +0.000 H 
ATOM     14  N3  UNL A   1       7.147   0.577  26.616  1.00  0.00    +0.000 N 
BRANCH   14   12
ATOM     12  C7  UNL A   1       5.838   0.765  26.246  1.00  0.00    +0.000 C 
ATOM     13  O3  UNL A   1       4.975   0.555  27.096  1.00  0.00    +0.000 O 
BRANCH   12   11
ATOM    129  H34 UNL A   1       3.269   1.190  24.841  1.00  0.00    +0.000 H 
ATOM    130  H35 UNL A   1       3.890  -0.250  24.211  1.00  0.00    +0.000 H 
ATOM    131  H36 UNL A   1       4.150   0.797  22.078  1.00  0.00    +0.000 H 
ATOM      9  N1  UNL A   1       5.460   2.206  22.958  1.00  0.00    +0.000 N 
ATOM     10  N2  UNL A   1       6.178   1.854  24.073  1.00  0.00    +0.000 N 
ATOM     11  C6  UNL A   1       5.395   1.163  24.845  1.00  0.00    +0.000 C 
ATOM     87  C59 UNL A   1       4.079   0.802  24.258  1.00  0.00    +0.000 C 
ATOM     88  C60 UNL A   1       4.170   1.489  22.894  1.00  0.00    +0.000 C 
BRANCH    9    8
ATOM     99  H4  UNL A   1       8.186   0.542  19.676  1.00  0.00    +0.000 H 
ATOM    100  H5  UNL A   1       7.116   0.401  21.854  1.00  0.00    +0.000 H 
ATOM      5  C2  UNL A   1       7.441   2.473  19.245  1.00  0.00    +0.000 C 
ATOM      6  C3  UNL A   1       7.605   1.323  20.021  1.00  0.00    +0.000 C 
ATOM      7  C4  UNL A   1       6.978   1.239  21.269  1.00  0.00    +0.000 C 
ATOM    136  H41 UNL A   1       6.541   4.381  19.128  1.00  0.00    +0.000 H 
ATOM    135  H40 UNL A   1       5.448   4.214  21.283  1.00  0.00    +0.000 H 
ATOM      8  C5  UNL A   1       6.162   2.281  21.737  1.00  0.00    +0.000 C 
ATOM     94  C65 UNL A   1       6.026   3.429  20.943  1.00  0.00    +0.000 C 
ATOM     95  C66 UNL A   1       6.655   3.531  19.702  1.00  0.00    +0.000 C 
BRANCH    5    2
ATOM      2  S1  UNL A   1       8.213   2.581  17.650  1.00  0.00    +0.000 S 
ATOM      3  O1  UNL A   1       9.342   1.666  17.645  1.00  0.00    +0.000 O 
ATOM      4  O2  UNL A   1       8.399   3.990  17.368  1.00  0.00    +0.000 O 
BRANCH    2    1
ATOM      1  C1  UNL A   1       7.007   1.934  16.523  1.00  0.00    +0.000 C 
ATOM     98  H3  UNL A   1       7.227   0.908  16.315  1.00  0.00    +0.000 H 
ATOM     97  H2  UNL A   1       6.034   2.008  16.963  1.00  0.00    +0.000 H 
ATOM     96  H1  UNL A   1       7.031   2.497  15.613  1.00  0.00    +0.000 H 
ENDBRANCH    2    1
ENDBRANCH    5    2
ENDBRANCH    9    8
BRANCH   88   89
ATOM    132  H37 UNL A   1       2.509   3.329  24.374  1.00  0.00    +0.000 H 
ATOM    133  H38 UNL A   1       0.525   4.488  23.219  1.00  0.00    +0.000 H 
ATOM    134  H39 UNL A   1       0.374   3.884  20.765  1.00  0.00    +0.000 H 
ATOM     89  C61 UNL A   1       2.957   2.337  22.536  1.00  0.00    +0.000 C 
ATOM     90  C62 UNL A   1       2.261   3.184  23.383  1.00  0.00    +0.000 C 
ATOM     91  C63 UNL A   1       1.167   3.834  22.743  1.00  0.00    +0.000 C 
ATOM     92  C64 UNL A   1       1.069   3.486  21.417  1.00  0.00    +0.000 C 
ATOM     93  S2  UNL A   1       2.230   2.318  20.978  1.00  0.00    +0.000 S 
ENDBRANCH   88   89
ENDBRANCH   12   11
ENDBRANCH   14   12
ENDBRANCH   15   14
ENDBRANCH   16   15
ENDBRANCH   17   16
ENDBRANCH   18   17
ENDBRANCH   19   18
ENDBRANCH   20   19
ENDBRANCH   21   20
ENDBRANCH   22   21
ENDBRANCH   24   22
ENDBRANCH   28   27
BRANCH   32   33
ATOM     33  C23 UNL A   1       6.780   6.687  24.005  1.00  0.00    +0.000 C 
ATOM     34  C24 UNL A   1       5.476   6.171  24.025  1.00  0.00    +0.000 C 
ATOM     35  F1  UNL A   1       4.979   5.548  22.946  1.00  0.00    +0.000 F 
ATOM     36  C25 UNL A   1       4.662   6.323  25.145  1.00  0.00    +0.000 C 
ATOM     37  F2  UNL A   1       3.405   5.860  25.125  1.00  0.00    +0.000 F 
ATOM     38  C26 UNL A   1       5.147   6.961  26.277  1.00  0.00    +0.000 C 
ATOM     39  F3  UNL A   1       4.367   7.095  27.358  1.00  0.00    +0.000 F 
ATOM     40  C27 UNL A   1       6.439   7.463  26.287  1.00  0.00    +0.000 C 
ATOM     41  F4  UNL A   1       6.914   8.068  27.384  1.00  0.00    +0.000 F 
ATOM     42  C28 UNL A   1       7.245   7.339  25.158  1.00  0.00    +0.000 C 
ATOM     43  F5  UNL A   1       8.487   7.845  25.194  1.00  0.00    +0.000 F 
ENDBRANCH   32   33
BRANCH   49   50
ATOM     50  C34 UNL A   1       8.485  10.224  17.961  1.00  0.00    +0.000 C 
ATOM     51  C35 UNL A   1       9.266  11.370  18.169  1.00  0.00    +0.000 C 
ATOM     52  F6  UNL A   1      10.313  11.332  19.007  1.00  0.00    +0.000 F 
ATOM     53  C36 UNL A   1       8.948  12.575  17.548  1.00  0.00    +0.000 C 
ATOM     54  F7  UNL A   1       9.677  13.671  17.802  1.00  0.00    +0.000 F 
ATOM     55  C37 UNL A   1       7.868  12.649  16.681  1.00  0.00    +0.000 C 
ATOM     56  F8  UNL A   1       7.566  13.809  16.081  1.00  0.00    +0.000 F 
ATOM     57  C38 UNL A   1       7.095  11.522  16.443  1.00  0.00    +0.000 C 
ATOM     58  F9  UNL A   1       6.060  11.588  15.595  1.00  0.00    +0.000 F 
ATOM     59  C39 UNL A   1       7.392  10.324  17.086  1.00  0.00    +0.000 C 
ATOM     60  F10 UNL A   1       6.618   9.255  16.846  1.00  0.00    +0.000 F 
ENDBRANCH   49   50
BRANCH   64   65
ATOM     65  C43 UNL A   1      12.572   4.909  16.072  1.00  0.00    +0.000 C 
ATOM     66  C44 UNL A   1      12.035   4.211  14.981  1.00  0.00    +0.000 C 
ATOM     67  F11 UNL A   1      10.768   3.775  15.025  1.00  0.00    +0.000 F 
ATOM     68  C45 UNL A   1      12.810   3.917  13.862  1.00  0.00    +0.000 C 
ATOM     69  F12 UNL A   1      12.287   3.204  12.857  1.00  0.00    +0.000 F 
ATOM     70  C46 UNL A   1      14.128   4.344  13.797  1.00  0.00    +0.000 C 
ATOM     71  F13 UNL A   1      14.874   4.063  12.719  1.00  0.00    +0.000 F 
ATOM     72  C47 UNL A   1      14.674   5.057  14.854  1.00  0.00    +0.000 C 
ATOM     73  F14 UNL A   1      15.943   5.485  14.788  1.00  0.00    +0.000 F 
ATOM     74  C48 UNL A   1      13.909   5.326  15.986  1.00  0.00    +0.000 C 
ATOM     75  F15 UNL A   1      14.468   6.003  16.999  1.00  0.00    +0.000 F 
ENDBRANCH   64   65
TORSDOF 19
ENDMDL
