MODEL 1
REMARK VINA RESULT:      -8.6      0.000      0.000
ROOT
ATOM    145  H37 UNL A   1      18.347  53.043  -0.790  1.00  0.00    +0.000 H 
ATOM    146  H38 UNL A   1      17.784  50.590  -1.472  1.00  0.00    +0.000 H 
ATOM    147  H39 UNL A   1      15.620  51.523   1.934  1.00  0.00    +0.000 H 
ATOM    148  H40 UNL A   1      11.729  49.727   6.648  1.00  0.00    +0.000 H 
ATOM    149  H41 UNL A   1      12.202  52.147   7.256  1.00  0.00    +0.000 H 
ATOM    150  H42 UNL A   1      14.462  51.213   3.894  1.00  0.00    +0.000 H 
ATOM    151  H43 UNL A   1      13.120  46.521   2.609  1.00  0.00    +0.000 H 
ATOM    152  H44 UNL A   1      14.709  46.748   0.613  1.00  0.00    +0.000 H 
ATOM    153  H45 UNL A   1      16.664  56.281   3.134  1.00  0.00    +0.000 H 
ATOM    154  H46 UNL A   1      15.410  55.951   5.343  1.00  0.00    +0.000 H 
ATOM     36  C30 UNL A   1      14.045  53.455   5.517  1.00  0.00    +0.000 C 
ATOM     37  C31 UNL A   1      14.995  53.910   4.444  1.00  0.00    +0.000 C 
ATOM     38  N4  UNL A   1      15.402  53.276   3.373  1.00  0.00    +0.000 N 
ATOM     39  C32 UNL A   1      16.206  54.175   2.685  1.00  0.00    +0.000 C 
ATOM     40  C33 UNL A   1      16.898  53.980   1.538  1.00  0.00    +0.000 C 
ATOM     52  C40 UNL A   1      16.947  52.734   0.821  1.00  0.00    +0.000 C 
ATOM     53  C41 UNL A   1      17.690  52.415  -0.301  1.00  0.00    +0.000 C 
ATOM     54  C42 UNL A   1      17.398  51.096  -0.658  1.00  0.00    +0.000 C 
ATOM     55  C43 UNL A   1      16.502  50.580   0.264  1.00  0.00    +0.000 C 
ATOM     56  N5  UNL A   1      16.230  51.597   1.165  1.00  0.00    +0.000 N 
ATOM     57  C44 UNL A   1      15.933  49.258   0.316  1.00  0.00    +0.000 C 
ATOM     69  C51 UNL A   1      15.077  48.817   1.268  1.00  0.00    +0.000 C 
ATOM     70  N6  UNL A   1      14.580  49.497   2.372  1.00  0.00    +0.000 N 
ATOM     71  C52 UNL A   1      13.794  48.653   2.993  1.00  0.00    +0.000 C 
ATOM     72  C53 UNL A   1      13.002  48.854   4.253  1.00  0.00    +0.000 C 
ATOM     84  C60 UNL A   1      13.089  50.025   4.913  1.00  0.00    +0.000 C 
ATOM     85  C61 UNL A   1      12.351  50.364   6.128  1.00  0.00    +0.000 C 
ATOM     86  C62 UNL A   1      12.613  51.639   6.457  1.00  0.00    +0.000 C 
ATOM     87  C63 UNL A   1      13.575  52.193   5.504  1.00  0.00    +0.000 C 
ATOM     88  N7  UNL A   1      13.821  51.154   4.639  1.00  0.00    +0.000 N 
ATOM     89  C64 UNL A   1      13.686  47.341   2.336  1.00  0.00    +0.000 C 
ATOM     90  C65 UNL A   1      14.505  47.487   1.304  1.00  0.00    +0.000 C 
ATOM     91  C66 UNL A   1      16.203  55.409   3.439  1.00  0.00    +0.000 C 
ATOM     92  C67 UNL A   1      15.529  55.275   4.573  1.00  0.00    +0.000 C 
ENDROOT
BRANCH   36   35
ATOM     33  C27 UNL A   1      13.519  55.482   8.701  1.00  0.00    +0.000 C 
ATOM     34  C28 UNL A   1      14.113  54.627   7.764  1.00  0.00    +0.000 C 
ATOM     35  C29 UNL A   1      13.518  54.432   6.507  1.00  0.00    +0.000 C 
ATOM    143  H35 UNL A   1      13.944  55.604   9.633  1.00  0.00    +0.000 H 
ATOM    144  H36 UNL A   1      14.990  54.139   7.999  1.00  0.00    +0.000 H 
ATOM    155  H47 UNL A   1      11.939  55.050   5.246  1.00  0.00    +0.000 H 
ATOM    156  H48 UNL A   1      11.024  56.660   6.805  1.00  0.00    +0.000 H 
ATOM     93  C68 UNL A   1      12.375  55.172   6.174  1.00  0.00    +0.000 C 
ATOM     94  C69 UNL A   1      11.823  56.069   7.082  1.00  0.00    +0.000 C 
ATOM     32  C26 UNL A   1      12.349  56.169   8.370  1.00  0.00    +0.000 C 
BRANCH   32   30
ATOM     30  C25 UNL A   1      11.683  57.024   9.379  1.00  0.00    +0.000 C 
ATOM     31  O2  UNL A   1      11.492  58.204   9.148  1.00  0.00    +0.000 O 
BRANCH   30   29
ATOM     29  N3  UNL A   1      11.273  56.467  10.575  1.00  0.00    +0.000 N 
ATOM    142  H34 UNL A   1      11.850  56.656  11.350  1.00  0.00    +0.000 H 
BRANCH   29   28
ATOM    141  H33 UNL A   1       9.252  56.122  10.426  1.00  0.00    +0.000 H 
ATOM     28  C24 UNL A   1      10.107  55.639  10.849  1.00  0.00    +0.000 C 
ATOM    140  H32 UNL A   1      10.004  55.526  11.907  1.00  0.00    +0.000 H 
BRANCH   28   27
ATOM    138  H30 UNL A   1      11.215  54.159   9.808  1.00  0.00    +0.000 H 
ATOM     27  C23 UNL A   1      10.229  54.253  10.214  1.00  0.00    +0.000 C 
ATOM    139  H31 UNL A   1      10.023  53.548  10.991  1.00  0.00    +0.000 H 
BRANCH   27   26
ATOM    137  H29 UNL A   1       8.855  54.924   8.784  1.00  0.00    +0.000 H 
ATOM     26  C22 UNL A   1       9.223  53.968   9.093  1.00  0.00    +0.000 C 
ATOM    136  H28 UNL A   1       8.470  53.318   9.486  1.00  0.00    +0.000 H 
BRANCH   26   25
ATOM     25  C21 UNL A   1       9.797  53.314   7.829  1.00  0.00    +0.000 C 
ATOM    134  H26 UNL A   1      10.705  53.821   7.577  1.00  0.00    +0.000 H 
ATOM    135  H27 UNL A   1       9.934  52.280   8.067  1.00  0.00    +0.000 H 
BRANCH   25   24
ATOM    132  H24 UNL A   1       7.881  53.152   6.925  1.00  0.00    +0.000 H 
ATOM    133  H25 UNL A   1       8.998  54.315   6.162  1.00  0.00    +0.000 H 
ATOM     24  C20 UNL A   1       8.881  53.347   6.601  1.00  0.00    +0.000 C 
BRANCH   24   23
ATOM    130  H22 UNL A   1       8.917  52.707   4.565  1.00  0.00    +0.000 H 
ATOM    131  H23 UNL A   1      10.299  52.182   5.530  1.00  0.00    +0.000 H 
ATOM     23  C19 UNL A   1       9.239  52.328   5.511  1.00  0.00    +0.000 C 
BRANCH   23   22
ATOM    129  H21 UNL A   1       9.107  50.283   5.358  1.00  0.00    +0.000 H 
ATOM     22  N2  UNL A   1       8.608  51.041   5.740  1.00  0.00    +0.000 N 
BRANCH   22   20
ATOM     20  C18 UNL A   1       7.462  50.675   6.377  1.00  0.00    +0.000 C 
ATOM     21  O1  UNL A   1       6.423  50.754   5.707  1.00  0.00    +0.000 O 
BRANCH   20   18
ATOM     18  C16 UNL A   1       7.386  50.189   7.837  1.00  0.00    +0.000 C 
ATOM    125  H17 UNL A   1       6.696  49.372   7.824  1.00  0.00    +0.000 H 
BRANCH   18   17
ATOM     14  C12 UNL A   1      10.961  48.343   9.563  1.00  0.00    +0.000 C 
ATOM     15  C13 UNL A   1      10.121  47.666   8.662  1.00  0.00    +0.000 C 
ATOM     16  C14 UNL A   1       9.057  48.287   8.013  1.00  0.00    +0.000 C 
ATOM     17  C15 UNL A   1       8.688  49.582   8.331  1.00  0.00    +0.000 C 
ATOM    123  H15 UNL A   1      10.300  46.667   8.474  1.00  0.00    +0.000 H 
ATOM    124  H16 UNL A   1       8.538  47.774   7.284  1.00  0.00    +0.000 H 
ATOM    157  H49 UNL A   1       9.333  51.294   9.369  1.00  0.00    +0.000 H 
ATOM     95  C70 UNL A   1       9.555  50.308   9.159  1.00  0.00    +0.000 C 
ATOM     96  C71 UNL A   1      10.726  49.737   9.722  1.00  0.00    +0.000 C 
BRANCH   14    6
ATOM    118  H10 UNL A   1      11.976  46.620   9.897  1.00  0.00    +0.000 H 
ATOM      6  C5  UNL A   1      12.117  47.602  10.298  1.00  0.00    +0.000 C 
BRANCH    6    5
ATOM      2  C2  UNL A   1      11.043  45.940  14.099  1.00  0.00    +0.000 C 
ATOM      3  C3  UNL A   1      12.529  45.905  13.755  1.00  0.00    +0.000 C 
ATOM      4  C4  UNL A   1      12.799  46.309  12.301  1.00  0.00    +0.000 C 
ATOM    164  H56 UNL A   1      11.106  48.048  14.400  1.00  0.00    +0.000 H 
ATOM    165  H57 UNL A   1       9.503  47.408  14.092  1.00  0.00    +0.000 H 
ATOM    162  H54 UNL A   1       9.980  47.087  11.797  1.00  0.00    +0.000 H 
ATOM    163  H55 UNL A   1      10.514  48.732  12.253  1.00  0.00    +0.000 H 
ATOM      5  N1  UNL A   1      12.015  47.432  11.784  1.00  0.00    +0.000 N 
ATOM    107  C79 UNL A   1      10.685  47.680  12.342  1.00  0.00    +0.000 C 
ATOM    108  C80 UNL A   1      10.537  47.349  13.823  1.00  0.00    +0.000 C 
ATOM    112  H4  UNL A   1      10.514  45.229  13.500  1.00  0.00    +0.000 H 
ATOM    113  H5  UNL A   1      12.895  44.913  13.910  1.00  0.00    +0.000 H 
ATOM    114  H6  UNL A   1      13.028  46.609  14.388  1.00  0.00    +0.000 H 
ATOM    115  H7  UNL A   1      12.598  45.458  11.685  1.00  0.00    +0.000 H 
ATOM    116  H8  UNL A   1      13.817  46.638  12.281  1.00  0.00    +0.000 H 
ATOM    117  H9  UNL A   1      12.509  48.220  12.200  1.00  0.00    +0.000 H 
BRANCH    2    1
ATOM      1  C1  UNL A   1      10.801  45.557  15.551  1.00  0.00    +0.000 C 
ATOM    109  H1  UNL A   1      11.502  46.070  16.176  1.00  0.00    +0.000 H 
ATOM    110  H2  UNL A   1      10.927  44.500  15.666  1.00  0.00    +0.000 H 
ATOM    111  H3  UNL A   1       9.806  45.830  15.832  1.00  0.00    +0.000 H 
ENDBRANCH    2    1
ENDBRANCH    6    5
BRANCH    6    7
ATOM      7  C6  UNL A   1      13.524  48.125   9.939  1.00  0.00    +0.000 C 
ATOM      8  C7  UNL A   1      14.440  48.541  10.926  1.00  0.00    +0.000 C 
ATOM      9  C8  UNL A   1      15.710  48.999  10.570  1.00  0.00    +0.000 C 
ATOM     10  C9  UNL A   1      16.065  49.058   9.229  1.00  0.00    +0.000 C 
ATOM     11  F1  UNL A   1      17.281  49.508   8.889  1.00  0.00    +0.000 F 
ATOM     12  C10 UNL A   1      15.182  48.658   8.236  1.00  0.00    +0.000 C 
ATOM     13  C11 UNL A   1      13.919  48.178   8.589  1.00  0.00    +0.000 C 
ATOM    119  H11 UNL A   1      14.170  48.508  11.921  1.00  0.00    +0.000 H 
ATOM    120  H12 UNL A   1      16.380  49.290  11.299  1.00  0.00    +0.000 H 
ATOM    121  H13 UNL A   1      15.458  48.713   7.242  1.00  0.00    +0.000 H 
ATOM    122  H14 UNL A   1      13.270  47.860   7.853  1.00  0.00    +0.000 H 
ENDBRANCH    6    7
ENDBRANCH   14    6
BRANCH   96   97
ATOM     97  C72 UNL A   1      11.668  50.649  10.399  1.00  0.00    +0.000 C 
ATOM     98  C73 UNL A   1      12.684  51.311   9.695  1.00  0.00    +0.000 C 
ATOM     99  C74 UNL A   1      13.572  52.169  10.353  1.00  0.00    +0.000 C 
ATOM    161  H53 UNL A   1      10.869  50.344  12.331  1.00  0.00    +0.000 H 
ATOM    100  C75 UNL A   1      13.466  52.385  11.734  1.00  0.00    +0.000 C 
ATOM    101  C76 UNL A   1      14.428  53.310  12.437  1.00  0.00    +0.000 C 
ATOM    102  F17 UNL A   1      15.669  52.765  12.569  1.00  0.00    +0.000 F 
ATOM    103  F18 UNL A   1      14.605  54.489  11.779  1.00  0.00    +0.000 F 
ATOM    105  C77 UNL A   1      12.470  51.706  12.448  1.00  0.00    +0.000 C 
ATOM    106  C78 UNL A   1      11.589  50.845  11.789  1.00  0.00    +0.000 C 
ATOM    104  F19 UNL A   1      14.034  53.646  13.697  1.00  0.00    +0.000 F 
ATOM    158  H50 UNL A   1      12.779  51.162   8.678  1.00  0.00    +0.000 H 
ATOM    159  H51 UNL A   1      14.312  52.648   9.816  1.00  0.00    +0.000 H 
ATOM    160  H52 UNL A   1      12.386  51.843  13.468  1.00  0.00    +0.000 H 
ENDBRANCH   96   97
ENDBRANCH   18   17
BRANCH   18   19
ATOM     19  C17 UNL A   1       6.717  51.166   8.802  1.00  0.00    +0.000 C 
ATOM    126  H18 UNL A   1       7.372  51.357   9.627  1.00  0.00    +0.000 H 
ATOM    127  H19 UNL A   1       5.803  50.742   9.163  1.00  0.00    +0.000 H 
ATOM    128  H20 UNL A   1       6.508  52.084   8.293  1.00  0.00    +0.000 H 
ENDBRANCH   18   19
ENDBRANCH   20   18
ENDBRANCH   22   20
ENDBRANCH   23   22
ENDBRANCH   24   23
ENDBRANCH   25   24
ENDBRANCH   26   25
ENDBRANCH   27   26
ENDBRANCH   28   27
ENDBRANCH   29   28
ENDBRANCH   30   29
ENDBRANCH   32   30
ENDBRANCH   36   35
BRANCH   40   41
ATOM     41  C34 UNL A   1      17.675  55.137   0.984  1.00  0.00    +0.000 C 
ATOM     42  C35 UNL A   1      17.198  55.846  -0.129  1.00  0.00    +0.000 C 
ATOM     43  F2  UNL A   1      16.017  55.526  -0.680  1.00  0.00    +0.000 F 
ATOM     44  C36 UNL A   1      17.942  56.879  -0.694  1.00  0.00    +0.000 C 
ATOM     45  F3  UNL A   1      17.479  57.526  -1.772  1.00  0.00    +0.000 F 
ATOM     46  C37 UNL A   1      19.163  57.238  -0.142  1.00  0.00    +0.000 C 
ATOM     47  F4  UNL A   1      19.871  58.242  -0.676  1.00  0.00    +0.000 F 
ATOM     48  C38 UNL A   1      19.648  56.559   0.966  1.00  0.00    +0.000 C 
ATOM     49  F5  UNL A   1      20.816  56.919   1.514  1.00  0.00    +0.000 F 
ATOM     50  C39 UNL A   1      18.919  55.508   1.514  1.00  0.00    +0.000 C 
ATOM     51  F6  UNL A   1      19.414  54.866   2.584  1.00  0.00    +0.000 F 
ENDBRANCH   40   41
BRANCH   57   58
ATOM     65  C49 UNL A   1      15.941  47.274  -2.931  1.00  0.00    +0.000 C 
ATOM     66  F10 UNL A   1      15.135  47.058  -3.980  1.00  0.00    +0.000 F 
ATOM     67  C50 UNL A   1      15.509  48.072  -1.876  1.00  0.00    +0.000 C 
ATOM     68  F11 UNL A   1      14.285  48.619  -1.932  1.00  0.00    +0.000 F 
ATOM     58  C45 UNL A   1      16.332  48.302  -0.765  1.00  0.00    +0.000 C 
ATOM     59  C46 UNL A   1      17.599  47.699  -0.745  1.00  0.00    +0.000 C 
ATOM     60  F7  UNL A   1      18.424  47.896   0.295  1.00  0.00    +0.000 F 
ATOM     61  C47 UNL A   1      18.036  46.919  -1.810  1.00  0.00    +0.000 C 
ATOM     62  F8  UNL A   1      19.265  46.383  -1.789  1.00  0.00    +0.000 F 
ATOM     63  C48 UNL A   1      17.209  46.708  -2.903  1.00  0.00    +0.000 C 
ATOM     64  F9  UNL A   1      17.632  45.961  -3.932  1.00  0.00    +0.000 F 
ENDBRANCH   57   58
BRANCH   72   73
ATOM     73  C54 UNL A   1      12.150  47.771   4.804  1.00  0.00    +0.000 C 
ATOM     74  C55 UNL A   1      12.693  46.720   5.557  1.00  0.00    +0.000 C 
ATOM     75  F12 UNL A   1      14.006  46.700   5.831  1.00  0.00    +0.000 F 
ATOM     76  C56 UNL A   1      11.893  45.671   6.006  1.00  0.00    +0.000 C 
ATOM     77  F13 UNL A   1      12.442  44.660   6.694  1.00  0.00    +0.000 F 
ATOM     78  C57 UNL A   1      10.534  45.664   5.730  1.00  0.00    +0.000 C 
ATOM     79  F14 UNL A   1       9.765  44.655   6.162  1.00  0.00    +0.000 F 
ATOM     80  C58 UNL A   1       9.972  46.704   5.003  1.00  0.00    +0.000 C 
ATOM     81  F15 UNL A   1       8.656  46.710   4.749  1.00  0.00    +0.000 F 
ATOM     82  C59 UNL A   1      10.774  47.743   4.537  1.00  0.00    +0.000 C 
ATOM     83  F16 UNL A   1      10.209  48.736   3.835  1.00  0.00    +0.000 F 
ENDBRANCH   72   73
TORSDOF 22
ENDMDL
MODEL 2
REMARK VINA RESULT:      -7.7      1.506      2.712
ROOT
ATOM    145  H37 UNL A   1      18.588  53.141  -0.823  1.00  0.00    +0.000 H 
ATOM    146  H38 UNL A   1      18.064  50.635  -1.318  1.00  0.00    +0.000 H 
ATOM    147  H39 UNL A   1      15.903  51.779   2.025  1.00  0.00    +0.000 H 
ATOM    148  H40 UNL A   1      12.071  50.270   6.885  1.00  0.00    +0.000 H 
ATOM    149  H41 UNL A   1      12.505  52.735   7.310  1.00  0.00    +0.000 H 
ATOM    150  H42 UNL A   1      14.762  51.595   4.010  1.00  0.00    +0.000 H 
ATOM    151  H43 UNL A   1      13.495  46.799   3.083  1.00  0.00    +0.000 H 
ATOM    152  H44 UNL A   1      15.069  46.905   1.065  1.00  0.00    +0.000 H 
ATOM    153  H45 UNL A   1      16.871  56.630   2.865  1.00  0.00    +0.000 H 
ATOM    154  H46 UNL A   1      15.635  56.442   5.101  1.00  0.00    +0.000 H 
ATOM     36  C30 UNL A   1      14.315  53.943   5.467  1.00  0.00    +0.000 C 
ATOM     37  C31 UNL A   1      15.251  54.334   4.357  1.00  0.00    +0.000 C 
ATOM     38  N4  UNL A   1      15.663  53.629   3.332  1.00  0.00    +0.000 N 
ATOM     39  C32 UNL A   1      16.447  54.489   2.575  1.00  0.00    +0.000 C 
ATOM     40  C33 UNL A   1      17.136  54.222   1.440  1.00  0.00    +0.000 C 
ATOM     52  C40 UNL A   1      17.203  52.927   0.817  1.00  0.00    +0.000 C 
ATOM     53  C41 UNL A   1      17.945  52.539  -0.284  1.00  0.00    +0.000 C 
ATOM     54  C42 UNL A   1      17.674  51.192  -0.541  1.00  0.00    +0.000 C 
ATOM     55  C43 UNL A   1      16.793  50.731   0.423  1.00  0.00    +0.000 C 
ATOM     56  N5  UNL A   1      16.508  51.807   1.248  1.00  0.00    +0.000 N 
ATOM     57  C44 UNL A   1      16.247  49.407   0.576  1.00  0.00    +0.000 C 
ATOM     69  C51 UNL A   1      15.404  49.023   1.564  1.00  0.00    +0.000 C 
ATOM     70  N6  UNL A   1      14.902  49.774   2.617  1.00  0.00    +0.000 N 
ATOM     71  C52 UNL A   1      14.134  48.964   3.304  1.00  0.00    +0.000 C 
ATOM     72  C53 UNL A   1      13.346  49.244   4.552  1.00  0.00    +0.000 C 
ATOM     84  C60 UNL A   1      13.415  50.462   5.123  1.00  0.00    +0.000 C 
ATOM     85  C61 UNL A   1      12.678  50.877   6.315  1.00  0.00    +0.000 C 
ATOM     86  C62 UNL A   1      12.921  52.177   6.548  1.00  0.00    +0.000 C 
ATOM     87  C63 UNL A   1      13.867  52.675   5.550  1.00  0.00    +0.000 C 
ATOM     88  N7  UNL A   1      14.126  51.580   4.762  1.00  0.00    +0.000 N 
ATOM     89  C64 UNL A   1      14.045  47.606   2.747  1.00  0.00    +0.000 C 
ATOM     90  C65 UNL A   1      14.856  47.690   1.701  1.00  0.00    +0.000 C 
ATOM     91  C66 UNL A   1      16.427  55.775   3.236  1.00  0.00    +0.000 C 
ATOM     92  C67 UNL A   1      15.762  55.713   4.381  1.00  0.00    +0.000 C 
ENDROOT
BRANCH   36   35
ATOM     33  C27 UNL A   1      13.668  56.091   8.548  1.00  0.00    +0.000 C 
ATOM     34  C28 UNL A   1      14.277  55.171   7.684  1.00  0.00    +0.000 C 
ATOM     35  C29 UNL A   1      13.777  54.981   6.386  1.00  0.00    +0.000 C 
ATOM    143  H35 UNL A   1      14.021  56.210   9.510  1.00  0.00    +0.000 H 
ATOM    144  H36 UNL A   1      15.096  54.631   8.004  1.00  0.00    +0.000 H 
ATOM    155  H47 UNL A   1      12.355  55.667   4.982  1.00  0.00    +0.000 H 
ATOM    156  H48 UNL A   1      11.427  57.379   6.420  1.00  0.00    +0.000 H 
ATOM     93  C68 UNL A   1      12.720  55.786   5.940  1.00  0.00    +0.000 C 
ATOM     94  C69 UNL A   1      12.157  56.744   6.778  1.00  0.00    +0.000 C 
ATOM     32  C26 UNL A   1      12.580  56.845   8.103  1.00  0.00    +0.000 C 
BRANCH   32   30
ATOM     30  C25 UNL A   1      11.893  57.771   9.032  1.00  0.00    +0.000 C 
ATOM     31  O2  UNL A   1      12.017  58.975   8.895  1.00  0.00    +0.000 O 
BRANCH   30   29
ATOM     29  N3  UNL A   1      11.106  57.256  10.043  1.00  0.00    +0.000 N 
ATOM    142  H34 UNL A   1      11.415  57.444  10.958  1.00  0.00    +0.000 H 
BRANCH   29   28
ATOM    141  H33 UNL A   1       9.240  56.952   9.234  1.00  0.00    +0.000 H 
ATOM     28  C24 UNL A   1       9.882  56.474   9.944  1.00  0.00    +0.000 C 
ATOM    140  H32 UNL A   1       9.423  56.426  10.909  1.00  0.00    +0.000 H 
BRANCH   28   27
ATOM    138  H30 UNL A   1      11.135  55.025   9.034  1.00  0.00    +0.000 H 
ATOM     27  C23 UNL A   1      10.152  55.051   9.454  1.00  0.00    +0.000 C 
ATOM    139  H31 UNL A   1      10.038  54.413  10.305  1.00  0.00    +0.000 H 
BRANCH   27   26
ATOM    137  H29 UNL A   1       8.869  55.399   7.836  1.00  0.00    +0.000 H 
ATOM     26  C22 UNL A   1       9.169  54.537   8.396  1.00  0.00    +0.000 C 
ATOM    136  H28 UNL A   1       8.365  54.048   8.905  1.00  0.00    +0.000 H 
BRANCH   26   25
ATOM     25  C21 UNL A   1       9.744  53.553   7.369  1.00  0.00    +0.000 C 
ATOM    134  H26 UNL A   1      10.560  54.034   6.871  1.00  0.00    +0.000 H 
ATOM    135  H27 UNL A   1      10.031  52.683   7.921  1.00  0.00    +0.000 H 
BRANCH   25   24
ATOM    132  H24 UNL A   1       7.895  52.678   6.796  1.00  0.00    +0.000 H 
ATOM    133  H25 UNL A   1       8.540  53.916   5.685  1.00  0.00    +0.000 H 
ATOM     24  C20 UNL A   1       8.758  53.070   6.301  1.00  0.00    +0.000 C 
BRANCH   24   23
ATOM    130  H22 UNL A   1       8.943  52.158   4.379  1.00  0.00    +0.000 H 
ATOM    131  H23 UNL A   1      10.379  52.032   5.399  1.00  0.00    +0.000 H 
ATOM     23  C19 UNL A   1       9.310  51.983   5.368  1.00  0.00    +0.000 C 
BRANCH   23   22
ATOM    129  H21 UNL A   1       9.588  49.960   5.599  1.00  0.00    +0.000 H 
ATOM     22  N2  UNL A   1       8.912  50.652   5.786  1.00  0.00    +0.000 N 
BRANCH   22   20
ATOM     20  C18 UNL A   1       7.789  50.170   6.387  1.00  0.00    +0.000 C 
ATOM     21  O1  UNL A   1       6.773  50.132   5.679  1.00  0.00    +0.000 O 
BRANCH   20   18
ATOM     18  C16 UNL A   1       7.712  49.691   7.849  1.00  0.00    +0.000 C 
ATOM    125  H17 UNL A   1       7.556  48.634   7.789  1.00  0.00    +0.000 H 
BRANCH   18   17
ATOM     14  C12 UNL A   1      11.370  49.893  10.247  1.00  0.00    +0.000 C 
ATOM     15  C13 UNL A   1      11.232  49.025   9.150  1.00  0.00    +0.000 C 
ATOM     16  C14 UNL A   1      10.124  49.046   8.308  1.00  0.00    +0.000 C 
ATOM     17  C15 UNL A   1       9.027  49.840   8.594  1.00  0.00    +0.000 C 
ATOM    123  H15 UNL A   1      11.985  48.345   8.961  1.00  0.00    +0.000 H 
ATOM    124  H16 UNL A   1      10.121  48.461   7.458  1.00  0.00    +0.000 H 
ATOM    157  H49 UNL A   1       8.386  51.417   9.829  1.00  0.00    +0.000 H 
ATOM     95  C70 UNL A   1       9.169  50.774   9.629  1.00  0.00    +0.000 C 
ATOM     96  C71 UNL A   1      10.347  50.869  10.414  1.00  0.00    +0.000 C 
BRANCH   14    6
ATOM    118  H10 UNL A   1      12.491  50.740  11.709  1.00  0.00    +0.000 H 
ATOM      6  C5  UNL A   1      12.608  49.812  11.189  1.00  0.00    +0.000 C 
BRANCH    6    5
ATOM      2  C2  UNL A   1      15.672  49.965   8.197  1.00  0.00    +0.000 C 
ATOM      3  C3  UNL A   1      15.507  51.223   9.044  1.00  0.00    +0.000 C 
ATOM      4  C4  UNL A   1      14.257  51.170   9.929  1.00  0.00    +0.000 C 
ATOM    164  H56 UNL A   1      16.532  48.909   9.835  1.00  0.00    +0.000 H 
ATOM    165  H57 UNL A   1      15.879  47.881   8.574  1.00  0.00    +0.000 H 
ATOM    162  H54 UNL A   1      13.654  48.350   9.228  1.00  0.00    +0.000 H 
ATOM    163  H55 UNL A   1      14.593  47.946  10.695  1.00  0.00    +0.000 H 
ATOM      5  N1  UNL A   1      13.971  49.884  10.570  1.00  0.00    +0.000 N 
ATOM    107  C79 UNL A   1      14.416  48.655   9.914  1.00  0.00    +0.000 C 
ATOM    108  C80 UNL A   1      15.726  48.774   9.144  1.00  0.00    +0.000 C 
ATOM    112  H4  UNL A   1      14.847  49.869   7.523  1.00  0.00    +0.000 H 
ATOM    113  H5  UNL A   1      15.432  52.069   8.394  1.00  0.00    +0.000 H 
ATOM    114  H6  UNL A   1      16.360  51.299   9.687  1.00  0.00    +0.000 H 
ATOM    115  H7  UNL A   1      13.416  51.424   9.319  1.00  0.00    +0.000 H 
ATOM    116  H8  UNL A   1      14.444  51.853  10.731  1.00  0.00    +0.000 H 
ATOM    117  H9  UNL A   1      14.638  49.901  11.341  1.00  0.00    +0.000 H 
BRANCH    2    1
ATOM      1  C1  UNL A   1      16.929  50.032   7.344  1.00  0.00    +0.000 C 
ATOM    109  H1  UNL A   1      17.712  49.478   7.819  1.00  0.00    +0.000 H 
ATOM    110  H2  UNL A   1      17.231  51.053   7.234  1.00  0.00    +0.000 H 
ATOM    111  H3  UNL A   1      16.729  49.612   6.380  1.00  0.00    +0.000 H 
ENDBRANCH    2    1
ENDBRANCH    6    5
BRANCH    6    7
ATOM      7  C6  UNL A   1      12.560  48.635  12.185  1.00  0.00    +0.000 C 
ATOM      8  C7  UNL A   1      12.604  47.292  11.758  1.00  0.00    +0.000 C 
ATOM      9  C8  UNL A   1      12.571  46.248  12.684  1.00  0.00    +0.000 C 
ATOM     10  C9  UNL A   1      12.478  46.538  14.039  1.00  0.00    +0.000 C 
ATOM     11  F1  UNL A   1      12.436  45.535  14.926  1.00  0.00    +0.000 F 
ATOM     12  C10 UNL A   1      12.431  47.851  14.488  1.00  0.00    +0.000 C 
ATOM     13  C11 UNL A   1      12.486  48.898  13.566  1.00  0.00    +0.000 C 
ATOM    119  H11 UNL A   1      12.660  47.079  10.750  1.00  0.00    +0.000 H 
ATOM    120  H12 UNL A   1      12.616  45.269  12.363  1.00  0.00    +0.000 H 
ATOM    121  H13 UNL A   1      12.356  48.051  15.498  1.00  0.00    +0.000 H 
ATOM    122  H14 UNL A   1      12.473  49.873  13.900  1.00  0.00    +0.000 H 
ENDBRANCH    6    7
ENDBRANCH   14    6
BRANCH   96   97
ATOM     97  C72 UNL A   1      10.465  52.022  11.327  1.00  0.00    +0.000 C 
ATOM     98  C73 UNL A   1      11.704  52.620  11.601  1.00  0.00    +0.000 C 
ATOM     99  C74 UNL A   1      11.797  53.711  12.473  1.00  0.00    +0.000 C 
ATOM    161  H53 UNL A   1       8.410  52.083  11.816  1.00  0.00    +0.000 H 
ATOM    100  C75 UNL A   1      10.652  54.230  13.094  1.00  0.00    +0.000 C 
ATOM    101  C76 UNL A   1      10.762  55.404  14.033  1.00  0.00    +0.000 C 
ATOM    102  F17 UNL A   1      11.314  55.062  15.230  1.00  0.00    +0.000 F 
ATOM    103  F18 UNL A   1      11.536  56.409  13.537  1.00  0.00    +0.000 F 
ATOM    105  C77 UNL A   1       9.416  53.621  12.845  1.00  0.00    +0.000 C 
ATOM    106  C78 UNL A   1       9.327  52.528  11.980  1.00  0.00    +0.000 C 
ATOM    104  F19 UNL A   1       9.560  55.976  14.328  1.00  0.00    +0.000 F 
ATOM    158  H50 UNL A   1      12.557  52.250  11.155  1.00  0.00    +0.000 H 
ATOM    159  H51 UNL A   1      12.718  54.138  12.660  1.00  0.00    +0.000 H 
ATOM    160  H52 UNL A   1       8.565  53.981  13.305  1.00  0.00    +0.000 H 
ENDBRANCH   96   97
ENDBRANCH   18   17
BRANCH   18   19
ATOM     19  C17 UNL A   1       6.476  50.160   8.612  1.00  0.00    +0.000 C 
ATOM    126  H18 UNL A   1       6.778  50.649   9.515  1.00  0.00    +0.000 H 
ATOM    127  H19 UNL A   1       5.862  49.317   8.852  1.00  0.00    +0.000 H 
ATOM    128  H20 UNL A   1       5.921  50.844   8.005  1.00  0.00    +0.000 H 
ENDBRANCH   18   19
ENDBRANCH   20   18
ENDBRANCH   22   20
ENDBRANCH   23   22
ENDBRANCH   24   23
ENDBRANCH   25   24
ENDBRANCH   26   25
ENDBRANCH   27   26
ENDBRANCH   28   27
ENDBRANCH   29   28
ENDBRANCH   30   29
ENDBRANCH   32   30
ENDBRANCH   36   35
BRANCH   40   41
ATOM     41  C34 UNL A   1      17.889  55.348   0.798  1.00  0.00    +0.000 C 
ATOM     42  C35 UNL A   1      17.386  55.975  -0.352  1.00  0.00    +0.000 C 
ATOM     43  F2  UNL A   1      16.200  55.607  -0.860  1.00  0.00    +0.000 F 
ATOM     44  C36 UNL A   1      18.108  56.978  -0.996  1.00  0.00    +0.000 C 
ATOM     45  F3  UNL A   1      17.618  57.546  -2.108  1.00  0.00    +0.000 F 
ATOM     46  C37 UNL A   1      19.332  57.386  -0.491  1.00  0.00    +0.000 C 
ATOM     47  F4  UNL A   1      20.019  58.360  -1.103  1.00  0.00    +0.000 F 
ATOM     48  C38 UNL A   1      19.844  56.787   0.651  1.00  0.00    +0.000 C 
ATOM     49  F5  UNL A   1      21.016  57.196   1.153  1.00  0.00    +0.000 F 
ATOM     50  C39 UNL A   1      19.137  55.767   1.280  1.00  0.00    +0.000 C 
ATOM     51  F6  UNL A   1      19.658  55.203   2.381  1.00  0.00    +0.000 F 
ENDBRANCH   40   41
BRANCH   57   58
ATOM     65  C49 UNL A   1      16.249  47.159  -2.494  1.00  0.00    +0.000 C 
ATOM     66  F10 UNL A   1      15.424  46.822  -3.495  1.00  0.00    +0.000 F 
ATOM     67  C50 UNL A   1      15.813  48.024  -1.496  1.00  0.00    +0.000 C 
ATOM     68  F11 UNL A   1      14.565  48.514  -1.557  1.00  0.00    +0.000 F 
ATOM     58  C45 UNL A   1      16.657  48.381  -0.435  1.00  0.00    +0.000 C 
ATOM     59  C46 UNL A   1      17.948  47.835  -0.406  1.00  0.00    +0.000 C 
ATOM     60  F7  UNL A   1      18.794  48.152   0.587  1.00  0.00    +0.000 F 
ATOM     61  C47 UNL A   1      18.389  46.986  -1.417  1.00  0.00    +0.000 C 
ATOM     62  F8  UNL A   1      19.640  46.506  -1.390  1.00  0.00    +0.000 F 
ATOM     63  C48 UNL A   1      17.541  46.651  -2.461  1.00  0.00    +0.000 C 
ATOM     64  F9  UNL A   1      17.967  45.838  -3.438  1.00  0.00    +0.000 F 
ENDBRANCH   57   58
BRANCH   72   73
ATOM     73  C54 UNL A   1      12.516  48.190   5.187  1.00  0.00    +0.000 C 
ATOM     74  C55 UNL A   1      13.027  47.359   6.193  1.00  0.00    +0.000 C 
ATOM     75  F12 UNL A   1      14.282  47.534   6.634  1.00  0.00    +0.000 F 
ATOM     76  C56 UNL A   1      12.261  46.325   6.729  1.00  0.00    +0.000 C 
ATOM     77  F13 UNL A   1      12.785  45.522   7.665  1.00  0.00    +0.000 F 
ATOM     78  C57 UNL A   1      10.964  46.118   6.286  1.00  0.00    +0.000 C 
ATOM     79  F14 UNL A   1      10.227  45.125   6.802  1.00  0.00    +0.000 F 
ATOM     80  C58 UNL A   1      10.430  46.941   5.305  1.00  0.00    +0.000 C 
ATOM     81  F15 UNL A   1       9.171  46.756   4.886  1.00  0.00    +0.000 F 
ATOM     82  C59 UNL A   1      11.202  47.962   4.754  1.00  0.00    +0.000 C 
ATOM     83  F16 UNL A   1      10.665  48.744   3.806  1.00  0.00    +0.000 F 
ENDBRANCH   72   73
TORSDOF 22
ENDMDL
MODEL 3
REMARK VINA RESULT:      -7.4      4.051     12.141
ROOT
ATOM    145  H37 UNL A   1      15.003  46.740   1.043  1.00  0.00    +0.000 H 
ATOM    146  H38 UNL A   1      13.296  46.436   2.990  1.00  0.00    +0.000 H 
ATOM    147  H39 UNL A   1      14.676  50.340   3.069  1.00  0.00    +0.000 H 
ATOM    148  H40 UNL A   1      14.921  56.036   5.912  1.00  0.00    +0.000 H 
ATOM    149  H41 UNL A   1      16.509  56.361   3.957  1.00  0.00    +0.000 H 
ATOM    150  H42 UNL A   1      15.219  52.409   3.908  1.00  0.00    +0.000 H 
ATOM    151  H43 UNL A   1      11.803  52.043   7.604  1.00  0.00    +0.000 H 
ATOM    152  H44 UNL A   1      11.471  49.608   6.886  1.00  0.00    +0.000 H 
ATOM    153  H45 UNL A   1      17.872  50.892  -0.758  1.00  0.00    +0.000 H 
ATOM    154  H46 UNL A   1      18.522  53.187   0.176  1.00  0.00    +0.000 H 
ATOM     36  C30 UNL A   1      16.903  54.027   2.365  1.00  0.00    +0.000 C 
ATOM     37  C31 UNL A   1      16.903  52.686   1.684  1.00  0.00    +0.000 C 
ATOM     38  N4  UNL A   1      16.177  51.627   1.938  1.00  0.00    +0.000 N 
ATOM     39  C32 UNL A   1      16.517  50.696   0.966  1.00  0.00    +0.000 C 
ATOM     40  C33 UNL A   1      16.072  49.425   0.824  1.00  0.00    +0.000 C 
ATOM     52  C40 UNL A   1      15.153  48.781   1.724  1.00  0.00    +0.000 C 
ATOM     53  C41 UNL A   1      14.712  47.470   1.713  1.00  0.00    +0.000 C 
ATOM     54  C42 UNL A   1      13.808  47.304   2.765  1.00  0.00    +0.000 C 
ATOM     55  C43 UNL A   1      13.714  48.501   3.455  1.00  0.00    +0.000 C 
ATOM     56  N5  UNL A   1      14.541  49.401   2.804  1.00  0.00    +0.000 N 
ATOM     57  C44 UNL A   1      12.922  48.802   4.621  1.00  0.00    +0.000 C 
ATOM     69  C51 UNL A   1      12.901  49.997   5.258  1.00  0.00    +0.000 C 
ATOM     70  N6  UNL A   1      13.610  51.153   4.961  1.00  0.00    +0.000 N 
ATOM     71  C52 UNL A   1      13.255  52.036   5.861  1.00  0.00    +0.000 C 
ATOM     72  C53 UNL A   1      13.719  53.455   6.024  1.00  0.00    +0.000 C 
ATOM     84  C60 UNL A   1      14.655  53.948   5.191  1.00  0.00    +0.000 C 
ATOM     85  C61 UNL A   1      15.171  55.316   5.218  1.00  0.00    +0.000 C 
ATOM     86  C62 UNL A   1      16.022  55.481   4.193  1.00  0.00    +0.000 C 
ATOM     87  C63 UNL A   1      16.149  54.219   3.465  1.00  0.00    +0.000 C 
ATOM     88  N7  UNL A   1      15.322  53.358   4.146  1.00  0.00    +0.000 N 
ATOM     89  C64 UNL A   1      12.257  51.543   6.823  1.00  0.00    +0.000 C 
ATOM     90  C65 UNL A   1      12.094  50.289   6.424  1.00  0.00    +0.000 C 
ATOM     91  C66 UNL A   1      17.486  51.325   0.096  1.00  0.00    +0.000 C 
ATOM     92  C67 UNL A   1      17.815  52.530   0.539  1.00  0.00    +0.000 C 
ENDROOT
BRANCH   36   35
ATOM     33  C27 UNL A   1      17.787  56.999   0.148  1.00  0.00    +0.000 C 
ATOM     34  C28 UNL A   1      17.035  55.995   0.773  1.00  0.00    +0.000 C 
ATOM     35  C29 UNL A   1      17.621  55.175   1.750  1.00  0.00    +0.000 C 
ATOM    143  H35 UNL A   1      17.360  57.583  -0.587  1.00  0.00    +0.000 H 
ATOM    144  H36 UNL A   1      16.046  55.859   0.513  1.00  0.00    +0.000 H 
ATOM    155  H47 UNL A   1      19.375  54.848   2.882  1.00  0.00    +0.000 H 
ATOM    156  H48 UNL A   1      20.608  56.699   1.926  1.00  0.00    +0.000 H 
ATOM     93  C68 UNL A   1      18.939  55.433   2.151  1.00  0.00    +0.000 C 
ATOM     94  C69 UNL A   1      19.665  56.471   1.576  1.00  0.00    +0.000 C 
ATOM     32  C26 UNL A   1      19.116  57.204   0.524  1.00  0.00    +0.000 C 
BRANCH   32   30
ATOM     30  C25 UNL A   1      19.933  58.220  -0.177  1.00  0.00    +0.000 C 
ATOM     31  O2  UNL A   1      19.973  59.364   0.238  1.00  0.00    +0.000 O 
BRANCH   30   29
ATOM     29  N3  UNL A   1      20.656  57.854  -1.296  1.00  0.00    +0.000 N 
ATOM    142  H34 UNL A   1      20.165  57.317  -1.960  1.00  0.00    +0.000 H 
BRANCH   29   28
ATOM    141  H33 UNL A   1      22.448  58.757  -0.848  1.00  0.00    +0.000 H 
ATOM     28  C24 UNL A   1      22.041  58.151  -1.630  1.00  0.00    +0.000 C 
ATOM    140  H32 UNL A   1      22.068  58.662  -2.569  1.00  0.00    +0.000 H 
BRANCH   28   27
ATOM    138  H30 UNL A   1      23.812  57.057  -1.224  1.00  0.00    +0.000 H 
ATOM     27  C23 UNL A   1      22.888  56.882  -1.734  1.00  0.00    +0.000 C 
ATOM    139  H31 UNL A   1      22.307  56.096  -1.299  1.00  0.00    +0.000 H 
BRANCH   27   26
ATOM    137  H29 UNL A   1      23.979  55.698  -3.073  1.00  0.00    +0.000 H 
ATOM     26  C22 UNL A   1      23.211  56.439  -3.165  1.00  0.00    +0.000 C 
ATOM    136  H28 UNL A   1      23.508  57.306  -3.718  1.00  0.00    +0.000 H 
BRANCH   26   25
ATOM     25  C21 UNL A   1      22.068  55.760  -3.931  1.00  0.00    +0.000 C 
ATOM    134  H26 UNL A   1      21.619  55.037  -3.282  1.00  0.00    +0.000 H 
ATOM    135  H27 UNL A   1      21.402  56.545  -4.225  1.00  0.00    +0.000 H 
BRANCH   25   24
ATOM    132  H24 UNL A   1      22.710  55.789  -5.956  1.00  0.00    +0.000 H 
ATOM    133  H25 UNL A   1      23.312  54.426  -4.974  1.00  0.00    +0.000 H 
ATOM     24  C20 UNL A   1      22.477  55.046  -5.223  1.00  0.00    +0.000 C 
BRANCH   24   23
ATOM    130  H22 UNL A   1      20.713  54.703  -6.376  1.00  0.00    +0.000 H 
ATOM    131  H23 UNL A   1      21.892  53.390  -6.418  1.00  0.00    +0.000 H 
ATOM     23  C19 UNL A   1      21.403  54.118  -5.806  1.00  0.00    +0.000 C 
BRANCH   23   22
ATOM    129  H21 UNL A   1      21.206  53.236  -3.960  1.00  0.00    +0.000 H 
ATOM     22  N2  UNL A   1      20.673  53.411  -4.770  1.00  0.00    +0.000 N 
BRANCH   22   20
ATOM     20  C18 UNL A   1      19.397  52.942  -4.695  1.00  0.00    +0.000 C 
ATOM     21  O1  UNL A   1      18.716  53.063  -5.723  1.00  0.00    +0.000 O 
BRANCH   20   18
ATOM     18  C16 UNL A   1      18.770  52.298  -3.443  1.00  0.00    +0.000 C 
ATOM    125  H17 UNL A   1      19.319  52.701  -2.618  1.00  0.00    +0.000 H 
BRANCH   18   17
ATOM     14  C12 UNL A   1      14.654  53.391  -2.429  1.00  0.00    +0.000 C 
ATOM     15  C13 UNL A   1      15.744  54.243  -2.184  1.00  0.00    +0.000 C 
ATOM     16  C14 UNL A   1      17.035  53.958  -2.618  1.00  0.00    +0.000 C 
ATOM     17  C15 UNL A   1      17.337  52.739  -3.201  1.00  0.00    +0.000 C 
ATOM    123  H15 UNL A   1      15.581  55.118  -1.660  1.00  0.00    +0.000 H 
ATOM    124  H16 UNL A   1      17.778  54.665  -2.504  1.00  0.00    +0.000 H 
ATOM    157  H49 UNL A   1      16.451  51.017  -4.020  1.00  0.00    +0.000 H 
ATOM     95  C70 UNL A   1      16.259  51.907  -3.534  1.00  0.00    +0.000 C 
ATOM     96  C71 UNL A   1      14.915  52.243  -3.227  1.00  0.00    +0.000 C 
BRANCH   14    6
ATOM    118  H10 UNL A   1      12.879  52.737  -1.697  1.00  0.00    +0.000 H 
ATOM      6  C5  UNL A   1      13.231  53.729  -1.892  1.00  0.00    +0.000 C 
BRANCH    6    5
ATOM      2  C2  UNL A   1      10.844  54.229  -5.416  1.00  0.00    +0.000 C 
ATOM      3  C3  UNL A   1      10.080  53.893  -4.138  1.00  0.00    +0.000 C 
ATOM      4  C4  UNL A   1      11.015  53.514  -2.984  1.00  0.00    +0.000 C 
ATOM    164  H56 UNL A   1      11.249  56.201  -4.722  1.00  0.00    +0.000 H 
ATOM    165  H57 UNL A   1      12.325  55.645  -5.988  1.00  0.00    +0.000 H 
ATOM    162  H54 UNL A   1      13.471  54.208  -4.499  1.00  0.00    +0.000 H 
ATOM    163  H55 UNL A   1      13.314  55.809  -3.718  1.00  0.00    +0.000 H 
ATOM      5  N1  UNL A   1      12.235  54.312  -2.849  1.00  0.00    +0.000 N 
ATOM    107  C79 UNL A   1      12.815  54.922  -4.046  1.00  0.00    +0.000 C 
ATOM    108  C80 UNL A   1      11.803  55.366  -5.096  1.00  0.00    +0.000 C 
ATOM    112  H4  UNL A   1      11.384  53.369  -5.754  1.00  0.00    +0.000 H 
ATOM    113  H5  UNL A   1       9.425  53.071  -4.335  1.00  0.00    +0.000 H 
ATOM    114  H6  UNL A   1       9.535  54.766  -3.844  1.00  0.00    +0.000 H 
ATOM    115  H7  UNL A   1      11.305  52.493  -3.123  1.00  0.00    +0.000 H 
ATOM    116  H8  UNL A   1      10.455  53.696  -2.091  1.00  0.00    +0.000 H 
ATOM    117  H9  UNL A   1      11.867  55.153  -2.407  1.00  0.00    +0.000 H 
BRANCH    2    1
ATOM      1  C1  UNL A   1       9.898  54.622  -6.540  1.00  0.00    +0.000 C 
ATOM    109  H1  UNL A   1       9.489  55.590  -6.339  1.00  0.00    +0.000 H 
ATOM    110  H2  UNL A   1       9.106  53.906  -6.605  1.00  0.00    +0.000 H 
ATOM    111  H3  UNL A   1      10.434  54.647  -7.465  1.00  0.00    +0.000 H 
ENDBRANCH    2    1
ENDBRANCH    6    5
BRANCH    6    7
ATOM      7  C6  UNL A   1      13.234  54.557  -0.590  1.00  0.00    +0.000 C 
ATOM      8  C7  UNL A   1      13.165  53.951   0.680  1.00  0.00    +0.000 C 
ATOM      9  C8  UNL A   1      13.182  54.727   1.841  1.00  0.00    +0.000 C 
ATOM     10  C9  UNL A   1      13.251  56.110   1.739  1.00  0.00    +0.000 C 
ATOM     11  F1  UNL A   1      13.256  56.854   2.854  1.00  0.00    +0.000 F 
ATOM     12  C10 UNL A   1      13.316  56.734   0.500  1.00  0.00    +0.000 C 
ATOM     13  C11 UNL A   1      13.322  55.961  -0.662  1.00  0.00    +0.000 C 
ATOM    119  H11 UNL A   1      13.102  52.924   0.754  1.00  0.00    +0.000 H 
ATOM    120  H12 UNL A   1      13.144  54.275   2.768  1.00  0.00    +0.000 H 
ATOM    121  H13 UNL A   1      13.361  57.764   0.439  1.00  0.00    +0.000 H 
ATOM    122  H14 UNL A   1      13.393  56.422  -1.582  1.00  0.00    +0.000 H 
ENDBRANCH    6    7
ENDBRANCH   14    6
BRANCH   96   97
ATOM     97  C72 UNL A   1      13.854  51.400  -3.812  1.00  0.00    +0.000 C 
ATOM     98  C73 UNL A   1      13.117  50.498  -3.030  1.00  0.00    +0.000 C 
ATOM     99  C74 UNL A   1      12.118  49.703  -3.601  1.00  0.00    +0.000 C 
ATOM    161  H53 UNL A   1      14.135  52.089  -5.789  1.00  0.00    +0.000 H 
ATOM    100  C75 UNL A   1      11.832  49.789  -4.972  1.00  0.00    +0.000 C 
ATOM    101  C76 UNL A   1      10.755  48.927  -5.580  1.00  0.00    +0.000 C 
ATOM    102  F17 UNL A   1      11.134  47.624  -5.692  1.00  0.00    +0.000 F 
ATOM    103  F18 UNL A   1       9.605  48.921  -4.850  1.00  0.00    +0.000 F 
ATOM    105  C77 UNL A   1      12.582  50.668  -5.762  1.00  0.00    +0.000 C 
ATOM    106  C78 UNL A   1      13.584  51.456  -5.190  1.00  0.00    +0.000 C 
ATOM    104  F19 UNL A   1      10.393  49.318  -6.835  1.00  0.00    +0.000 F 
ATOM    158  H50 UNL A   1      13.315  50.420  -2.020  1.00  0.00    +0.000 H 
ATOM    159  H51 UNL A   1      11.585  49.047  -3.009  1.00  0.00    +0.000 H 
ATOM    160  H52 UNL A   1      12.395  50.734  -6.776  1.00  0.00    +0.000 H 
ENDBRANCH   96   97
ENDBRANCH   18   17
BRANCH   18   19
ATOM     19  C17 UNL A   1      19.021  50.799  -3.301  1.00  0.00    +0.000 C 
ATOM    126  H18 UNL A   1      18.102  50.268  -3.440  1.00  0.00    +0.000 H 
ATOM    127  H19 UNL A   1      19.409  50.592  -2.326  1.00  0.00    +0.000 H 
ATOM    128  H20 UNL A   1      19.729  50.484  -4.040  1.00  0.00    +0.000 H 
ENDBRANCH   18   19
ENDBRANCH   20   18
ENDBRANCH   22   20
ENDBRANCH   23   22
ENDBRANCH   24   23
ENDBRANCH   25   24
ENDBRANCH   26   25
ENDBRANCH   27   26
ENDBRANCH   28   27
ENDBRANCH   29   28
ENDBRANCH   30   29
ENDBRANCH   32   30
ENDBRANCH   36   35
BRANCH   40   41
ATOM     41  C34 UNL A   1      16.582  48.631  -0.342  1.00  0.00    +0.000 C 
ATOM     42  C35 UNL A   1      15.748  48.364  -1.438  1.00  0.00    +0.000 C 
ATOM     43  F2  UNL A   1      14.501  48.858  -1.477  1.00  0.00    +0.000 F 
ATOM     44  C36 UNL A   1      16.187  47.572  -2.497  1.00  0.00    +0.000 C 
ATOM     45  F3  UNL A   1      15.365  47.310  -3.523  1.00  0.00    +0.000 F 
ATOM     46  C37 UNL A   1      17.473  47.054  -2.490  1.00  0.00    +0.000 C 
ATOM     47  F4  UNL A   1      17.899  46.305  -3.516  1.00  0.00    +0.000 F 
ATOM     48  C38 UNL A   1      18.318  47.314  -1.422  1.00  0.00    +0.000 C 
ATOM     49  F5  UNL A   1      19.568  46.833  -1.424  1.00  0.00    +0.000 F 
ATOM     50  C39 UNL A   1      17.871  48.082  -0.350  1.00  0.00    +0.000 C 
ATOM     51  F6  UNL A   1      18.709  48.315   0.672  1.00  0.00    +0.000 F 
ENDBRANCH   40   41
BRANCH   57   58
ATOM     65  C49 UNL A   1      10.090  46.298   5.046  1.00  0.00    +0.000 C 
ATOM     66  F10 UNL A   1       8.893  46.031   4.505  1.00  0.00    +0.000 F 
ATOM     67  C50 UNL A   1      10.820  47.398   4.608  1.00  0.00    +0.000 C 
ATOM     68  F11 UNL A   1      10.311  48.175   3.639  1.00  0.00    +0.000 F 
ATOM     58  C45 UNL A   1      12.069  47.700   5.168  1.00  0.00    +0.000 C 
ATOM     59  C46 UNL A   1      12.556  46.867   6.187  1.00  0.00    +0.000 C 
ATOM     60  F7  UNL A   1      13.749  47.113   6.748  1.00  0.00    +0.000 F 
ATOM     61  C47 UNL A   1      11.832  45.756   6.608  1.00  0.00    +0.000 C 
ATOM     62  F8  UNL A   1      12.332  44.951   7.556  1.00  0.00    +0.000 F 
ATOM     63  C48 UNL A   1      10.601  45.471   6.036  1.00  0.00    +0.000 C 
ATOM     64  F9  UNL A   1       9.907  44.397   6.439  1.00  0.00    +0.000 F 
ENDBRANCH   57   58
BRANCH   72   73
ATOM     73  C54 UNL A   1      13.188  54.315   7.111  1.00  0.00    +0.000 C 
ATOM     74  C55 UNL A   1      12.206  55.285   6.867  1.00  0.00    +0.000 C 
ATOM     75  F12 UNL A   1      11.692  55.425   5.636  1.00  0.00    +0.000 F 
ATOM     76  C56 UNL A   1      11.768  56.135   7.881  1.00  0.00    +0.000 C 
ATOM     77  F13 UNL A   1      10.855  57.079   7.614  1.00  0.00    +0.000 F 
ATOM     78  C57 UNL A   1      12.288  56.017   9.161  1.00  0.00    +0.000 C 
ATOM     79  F14 UNL A   1      11.867  56.834  10.137  1.00  0.00    +0.000 F 
ATOM     80  C58 UNL A   1      13.247  55.051   9.430  1.00  0.00    +0.000 C 
ATOM     81  F15 UNL A   1      13.739  54.921  10.670  1.00  0.00    +0.000 F 
ATOM     82  C59 UNL A   1      13.699  54.213   8.413  1.00  0.00    +0.000 C 
ATOM     83  F16 UNL A   1      14.627  53.288   8.696  1.00  0.00    +0.000 F 
ENDBRANCH   72   73
TORSDOF 22
ENDMDL
MODEL 4
REMARK VINA RESULT:      -7.2     32.564     38.050
ROOT
ATOM    145  H37 UNL A   1      38.971  24.395 -14.340  1.00  0.00    +0.000 H 
ATOM    146  H38 UNL A   1      38.036  25.166 -16.648  1.00  0.00    +0.000 H 
ATOM    147  H39 UNL A   1      34.859  24.799 -14.017  1.00  0.00    +0.000 H 
ATOM    148  H40 UNL A   1      28.585  24.879 -12.916  1.00  0.00    +0.000 H 
ATOM    149  H41 UNL A   1      29.505  24.223 -10.642  1.00  0.00    +0.000 H 
ATOM    150  H42 UNL A   1      32.705  24.487 -13.282  1.00  0.00    +0.000 H 
ATOM    151  H43 UNL A   1      30.755  26.161 -17.626  1.00  0.00    +0.000 H 
ATOM    152  H44 UNL A   1      33.141  26.153 -18.555  1.00  0.00    +0.000 H 
ATOM    153  H45 UNL A   1      36.729  23.414  -9.572  1.00  0.00    +0.000 H 
ATOM    154  H46 UNL A   1      34.338  23.024  -8.739  1.00  0.00    +0.000 H 
ATOM     36  C30 UNL A   1      32.336  23.896 -10.571  1.00  0.00    +0.000 C 
ATOM     37  C31 UNL A   1      33.822  23.829 -10.797  1.00  0.00    +0.000 C 
ATOM     38  N4  UNL A   1      34.515  24.147 -11.861  1.00  0.00    +0.000 N 
ATOM     39  C32 UNL A   1      35.846  23.974 -11.510  1.00  0.00    +0.000 C 
ATOM     40  C33 UNL A   1      36.949  24.131 -12.280  1.00  0.00    +0.000 C 
ATOM     52  C40 UNL A   1      36.921  24.488 -13.674  1.00  0.00    +0.000 C 
ATOM     53  C41 UNL A   1      37.980  24.586 -14.558  1.00  0.00    +0.000 C 
ATOM     54  C42 UNL A   1      37.477  24.986 -15.799  1.00  0.00    +0.000 C 
ATOM     55  C43 UNL A   1      36.100  25.101 -15.697  1.00  0.00    +0.000 C 
ATOM     56  N5  UNL A   1      35.772  24.797 -14.387  1.00  0.00    +0.000 N 
ATOM     57  C44 UNL A   1      35.155  25.468 -16.721  1.00  0.00    +0.000 C 
ATOM     69  C51 UNL A   1      33.813  25.536 -16.551  1.00  0.00    +0.000 C 
ATOM     70  N6  UNL A   1      33.068  25.270 -15.411  1.00  0.00    +0.000 N 
ATOM     71  C52 UNL A   1      31.816  25.473 -15.742  1.00  0.00    +0.000 C 
ATOM     72  C53 UNL A   1      30.582  25.325 -14.899  1.00  0.00    +0.000 C 
ATOM     84  C60 UNL A   1      30.692  24.893 -13.628  1.00  0.00    +0.000 C 
ATOM     85  C61 UNL A   1      29.581  24.736 -12.692  1.00  0.00    +0.000 C 
ATOM     86  C62 UNL A   1      30.067  24.373 -11.495  1.00  0.00    +0.000 C 
ATOM     87  C63 UNL A   1      31.519  24.227 -11.590  1.00  0.00    +0.000 C 
ATOM     88  N7  UNL A   1      31.798  24.529 -12.901  1.00  0.00    +0.000 N 
ATOM     89  C64 UNL A   1      31.629  25.914 -17.133  1.00  0.00    +0.000 C 
ATOM     90  C65 UNL A   1      32.875  25.914 -17.587  1.00  0.00    +0.000 C 
ATOM     91  C66 UNL A   1      35.869  23.556 -10.125  1.00  0.00    +0.000 C 
ATOM     92  C67 UNL A   1      34.641  23.381  -9.659  1.00  0.00    +0.000 C 
ENDROOT
BRANCH   36   35
ATOM     33  C27 UNL A   1      31.269  24.578  -6.977  1.00  0.00    +0.000 C 
ATOM     34  C28 UNL A   1      31.700  24.802  -8.291  1.00  0.00    +0.000 C 
ATOM     35  C29 UNL A   1      31.784  23.735  -9.200  1.00  0.00    +0.000 C 
ATOM    143  H35 UNL A   1      31.233  25.359  -6.304  1.00  0.00    +0.000 H 
ATOM    144  H36 UNL A   1      31.957  25.755  -8.591  1.00  0.00    +0.000 H 
ATOM    155  H47 UNL A   1      31.387  21.677  -9.465  1.00  0.00    +0.000 H 
ATOM    156  H48 UNL A   1      30.474  21.337  -7.249  1.00  0.00    +0.000 H 
ATOM     93  C68 UNL A   1      31.347  22.465  -8.799  1.00  0.00    +0.000 C 
ATOM     94  C69 UNL A   1      30.858  22.257  -7.513  1.00  0.00    +0.000 C 
ATOM     32  C26 UNL A   1      30.890  23.294  -6.581  1.00  0.00    +0.000 C 
BRANCH   32   30
ATOM     30  C25 UNL A   1      30.495  23.040  -5.177  1.00  0.00    +0.000 C 
ATOM     31  O2  UNL A   1      31.243  22.430  -4.434  1.00  0.00    +0.000 O 
BRANCH   30   29
ATOM     29  N3  UNL A   1      29.279  23.509  -4.719  1.00  0.00    +0.000 N 
ATOM    142  H34 UNL A   1      29.320  24.081  -3.919  1.00  0.00    +0.000 H 
BRANCH   29   28
ATOM    141  H33 UNL A   1      27.281  23.121  -4.432  1.00  0.00    +0.000 H 
ATOM     28  C24 UNL A   1      27.946  23.276  -5.255  1.00  0.00    +0.000 C 
ATOM    140  H32 UNL A   1      27.975  22.420  -5.895  1.00  0.00    +0.000 H 
BRANCH   28   27
ATOM    138  H30 UNL A   1      26.380  24.554  -5.897  1.00  0.00    +0.000 H 
ATOM     27  C23 UNL A   1      27.435  24.474  -6.056  1.00  0.00    +0.000 C 
ATOM    139  H31 UNL A   1      27.981  25.324  -5.707  1.00  0.00    +0.000 H 
BRANCH   27   26
ATOM    137  H29 UNL A   1      26.811  23.930  -7.979  1.00  0.00    +0.000 H 
ATOM     26  C22 UNL A   1      27.684  24.392  -7.566  1.00  0.00    +0.000 C 
ATOM    136  H28 UNL A   1      28.585  23.836  -7.720  1.00  0.00    +0.000 H 
BRANCH   26   25
ATOM     25  C21 UNL A   1      27.828  25.735  -8.295  1.00  0.00    +0.000 C 
ATOM    134  H26 UNL A   1      27.187  26.443  -7.814  1.00  0.00    +0.000 H 
ATOM    135  H27 UNL A   1      28.866  25.990  -8.243  1.00  0.00    +0.000 H 
BRANCH   25   24
ATOM    132  H24 UNL A   1      28.369  25.881 -10.345  1.00  0.00    +0.000 H 
ATOM    133  H25 UNL A   1      27.033  24.757  -9.978  1.00  0.00    +0.000 H 
ATOM     24  C20 UNL A   1      27.473  25.712  -9.786  1.00  0.00    +0.000 C 
BRANCH   24   23
ATOM    130  H22 UNL A   1      26.105  27.289  -9.341  1.00  0.00    +0.000 H 
ATOM    131  H23 UNL A   1      26.905  27.424 -10.909  1.00  0.00    +0.000 H 
ATOM     23  C19 UNL A   1      26.438  26.763 -10.210  1.00  0.00    +0.000 C 
BRANCH   23   22
ATOM    129  H21 UNL A   1      25.398  26.060 -11.836  1.00  0.00    +0.000 H 
ATOM     22  N2  UNL A   1      25.289  26.163 -10.863  1.00  0.00    +0.000 N 
BRANCH   22   20
ATOM     20  C18 UNL A   1      24.092  25.714 -10.396  1.00  0.00    +0.000 C 
ATOM     21  O1  UNL A   1      23.127  26.472 -10.568  1.00  0.00    +0.000 O 
BRANCH   20   18
ATOM     18  C16 UNL A   1      23.877  24.365  -9.684  1.00  0.00    +0.000 C 
ATOM    125  H17 UNL A   1      22.817  24.275  -9.571  1.00  0.00    +0.000 H 
BRANCH   18   17
ATOM     14  C12 UNL A   1      24.858  20.714 -11.894  1.00  0.00    +0.000 C 
ATOM     15  C13 UNL A   1      23.731  21.500 -12.193  1.00  0.00    +0.000 C 
ATOM     16  C14 UNL A   1      23.483  22.725 -11.581  1.00  0.00    +0.000 C 
ATOM     17  C15 UNL A   1      24.273  23.172 -10.536  1.00  0.00    +0.000 C 
ATOM    123  H15 UNL A   1      23.059  21.153 -12.896  1.00  0.00    +0.000 H 
ATOM    124  H16 UNL A   1      22.699  23.309 -11.913  1.00  0.00    +0.000 H 
ATOM    157  H49 UNL A   1      26.084  22.796  -9.536  1.00  0.00    +0.000 H 
ATOM     95  C70 UNL A   1      25.448  22.455 -10.273  1.00  0.00    +0.000 C 
ATOM     96  C71 UNL A   1      25.795  21.275 -10.982  1.00  0.00    +0.000 C 
BRANCH   14    6
ATOM    118  H10 UNL A   1      25.742  18.890 -11.858  1.00  0.00    +0.000 H 
ATOM      6  C5  UNL A   1      25.079  19.330 -12.573  1.00  0.00    +0.000 C 
BRANCH    6    5
ATOM      2  C2  UNL A   1      28.162  20.017 -15.468  1.00  0.00    +0.000 C 
ATOM      3  C3  UNL A   1      27.977  18.568 -15.025  1.00  0.00    +0.000 C 
ATOM      4  C4  UNL A   1      27.018  18.441 -13.836  1.00  0.00    +0.000 C 
ATOM    164  H56 UNL A   1      26.344  19.967 -16.577  1.00  0.00    +0.000 H 
ATOM    165  H57 UNL A   1      26.896  21.579 -16.165  1.00  0.00    +0.000 H 
ATOM    162  H54 UNL A   1      26.259  21.309 -13.903  1.00  0.00    +0.000 H 
ATOM    163  H55 UNL A   1      24.901  20.767 -14.933  1.00  0.00    +0.000 H 
ATOM      5  N1  UNL A   1      25.827  19.292 -13.871  1.00  0.00    +0.000 N 
ATOM    107  C79 UNL A   1      25.892  20.569 -14.582  1.00  0.00    +0.000 C 
ATOM    108  C80 UNL A   1      26.788  20.573 -15.815  1.00  0.00    +0.000 C 
ATOM    112  H4  UNL A   1      28.606  20.585 -14.678  1.00  0.00    +0.000 H 
ATOM    113  H5  UNL A   1      28.929  18.171 -14.743  1.00  0.00    +0.000 H 
ATOM    114  H6  UNL A   1      27.555  18.026 -15.846  1.00  0.00    +0.000 H 
ATOM    115  H7  UNL A   1      27.566  18.682 -12.949  1.00  0.00    +0.000 H 
ATOM    116  H8  UNL A   1      26.653  17.436 -13.870  1.00  0.00    +0.000 H 
ATOM    117  H9  UNL A   1      25.241  18.776 -14.527  1.00  0.00    +0.000 H 
BRANCH    2    1
ATOM      1  C1  UNL A   1      29.100  20.116 -16.660  1.00  0.00    +0.000 C 
ATOM    109  H1  UNL A   1      28.534  20.045 -17.566  1.00  0.00    +0.000 H 
ATOM    110  H2  UNL A   1      29.812  19.318 -16.621  1.00  0.00    +0.000 H 
ATOM    111  H3  UNL A   1      29.613  21.055 -16.634  1.00  0.00    +0.000 H 
ENDBRANCH    2    1
ENDBRANCH    6    5
BRANCH    6    7
ATOM      7  C6  UNL A   1      23.795  18.483 -12.697  1.00  0.00    +0.000 C 
ATOM      8  C7  UNL A   1      23.114  18.334 -13.922  1.00  0.00    +0.000 C 
ATOM      9  C8  UNL A   1      21.961  17.550 -14.005  1.00  0.00    +0.000 C 
ATOM     10  C9  UNL A   1      21.475  16.925 -12.864  1.00  0.00    +0.000 C 
ATOM     11  F1  UNL A   1      20.362  16.182 -12.944  1.00  0.00    +0.000 F 
ATOM     12  C10 UNL A   1      22.124  17.057 -11.644  1.00  0.00    +0.000 C 
ATOM     13  C11 UNL A   1      23.289  17.821 -11.562  1.00  0.00    +0.000 C 
ATOM    119  H11 UNL A   1      23.470  18.809 -14.765  1.00  0.00    +0.000 H 
ATOM    120  H12 UNL A   1      21.476  17.437 -14.908  1.00  0.00    +0.000 H 
ATOM    121  H13 UNL A   1      21.747  16.591 -10.803  1.00  0.00    +0.000 H 
ATOM    122  H14 UNL A   1      23.784  17.901 -10.660  1.00  0.00    +0.000 H 
ENDBRANCH    6    7
ENDBRANCH   14    6
BRANCH   96   97
ATOM     97  C72 UNL A   1      27.149  20.729 -10.769  1.00  0.00    +0.000 C 
ATOM     98  C73 UNL A   1      28.220  21.069 -11.609  1.00  0.00    +0.000 C 
ATOM     99  C74 UNL A   1      29.497  20.538 -11.395  1.00  0.00    +0.000 C 
ATOM    161  H53 UNL A   1      26.608  19.526  -9.119  1.00  0.00    +0.000 H 
ATOM    100  C75 UNL A   1      29.734  19.651 -10.335  1.00  0.00    +0.000 C 
ATOM    101  C76 UNL A   1      31.112  19.081 -10.113  1.00  0.00    +0.000 C 
ATOM    102  F17 UNL A   1      31.440  18.138 -11.038  1.00  0.00    +0.000 F 
ATOM    103  F18 UNL A   1      32.092  20.025 -10.177  1.00  0.00    +0.000 F 
ATOM    105  C77 UNL A   1      28.663  19.287  -9.509  1.00  0.00    +0.000 C 
ATOM    106  C78 UNL A   1      27.388  19.813  -9.730  1.00  0.00    +0.000 C 
ATOM    104  F19 UNL A   1      31.260  18.478  -8.899  1.00  0.00    +0.000 F 
ATOM    158  H50 UNL A   1      28.064  21.718 -12.395  1.00  0.00    +0.000 H 
ATOM    159  H51 UNL A   1      30.272  20.802 -12.023  1.00  0.00    +0.000 H 
ATOM    160  H52 UNL A   1      28.817  18.624  -8.732  1.00  0.00    +0.000 H 
ENDBRANCH   96   97
ENDBRANCH   18   17
BRANCH   18   19
ATOM     19  C17 UNL A   1      24.364  24.320  -8.237  1.00  0.00    +0.000 C 
ATOM    126  H18 UNL A   1      25.140  25.044  -8.099  1.00  0.00    +0.000 H 
ATOM    127  H19 UNL A   1      24.744  23.344  -8.018  1.00  0.00    +0.000 H 
ATOM    128  H20 UNL A   1      23.549  24.541  -7.580  1.00  0.00    +0.000 H 
ENDBRANCH   18   19
ENDBRANCH   20   18
ENDBRANCH   22   20
ENDBRANCH   23   22
ENDBRANCH   24   23
ENDBRANCH   25   24
ENDBRANCH   26   25
ENDBRANCH   27   26
ENDBRANCH   28   27
ENDBRANCH   29   28
ENDBRANCH   30   29
ENDBRANCH   32   30
ENDBRANCH   36   35
BRANCH   40   41
ATOM     41  C34 UNL A   1      38.287  23.905 -11.642  1.00  0.00    +0.000 C 
ATOM     42  C35 UNL A   1      38.919  24.937 -10.932  1.00  0.00    +0.000 C 
ATOM     43  F2  UNL A   1      38.309  26.122 -10.775  1.00  0.00    +0.000 F 
ATOM     44  C36 UNL A   1      40.190  24.761 -10.391  1.00  0.00    +0.000 C 
ATOM     45  F3  UNL A   1      40.785  25.770  -9.738  1.00  0.00    +0.000 F 
ATOM     46  C37 UNL A   1      40.842  23.545 -10.529  1.00  0.00    +0.000 C 
ATOM     47  F4  UNL A   1      42.059  23.373  -9.996  1.00  0.00    +0.000 F 
ATOM     48  C38 UNL A   1      40.232  22.508 -11.218  1.00  0.00    +0.000 C 
ATOM     49  F5  UNL A   1      40.850  21.325 -11.333  1.00  0.00    +0.000 F 
ATOM     50  C39 UNL A   1      38.973  22.691 -11.783  1.00  0.00    +0.000 C 
ATOM     51  F6  UNL A   1      38.407  21.670 -12.447  1.00  0.00    +0.000 F 
ENDBRANCH   40   41
BRANCH   57   58
ATOM     65  C49 UNL A   1      36.157  25.157 -20.378  1.00  0.00    +0.000 C 
ATOM     66  F10 UNL A   1      36.203  24.217 -21.332  1.00  0.00    +0.000 F 
ATOM     67  C50 UNL A   1      35.753  24.820 -19.090  1.00  0.00    +0.000 C 
ATOM     68  F11 UNL A   1      35.408  23.550 -18.827  1.00  0.00    +0.000 F 
ATOM     58  C45 UNL A   1      35.708  25.786 -18.076  1.00  0.00    +0.000 C 
ATOM     59  C46 UNL A   1      36.090  27.098 -18.394  1.00  0.00    +0.000 C 
ATOM     60  F7  UNL A   1      36.057  28.058 -17.457  1.00  0.00    +0.000 F 
ATOM     61  C47 UNL A   1      36.474  27.436 -19.688  1.00  0.00    +0.000 C 
ATOM     62  F8  UNL A   1      36.798  28.703 -19.981  1.00  0.00    +0.000 F 
ATOM     63  C48 UNL A   1      36.505  26.466 -20.680  1.00  0.00    +0.000 C 
ATOM     64  F9  UNL A   1      36.870  26.794 -21.927  1.00  0.00    +0.000 F 
ENDBRANCH   57   58
BRANCH   72   73
ATOM     73  C54 UNL A   1      29.236  25.614 -15.454  1.00  0.00    +0.000 C 
ATOM     74  C55 UNL A   1      28.376  24.588 -15.869  1.00  0.00    +0.000 C 
ATOM     75  F12 UNL A   1      28.746  23.306 -15.730  1.00  0.00    +0.000 F 
ATOM     76  C56 UNL A   1      27.145  24.875 -16.456  1.00  0.00    +0.000 C 
ATOM     77  F13 UNL A   1      26.356  23.877 -16.877  1.00  0.00    +0.000 F 
ATOM     78  C57 UNL A   1      26.742  26.192 -16.618  1.00  0.00    +0.000 C 
ATOM     79  F14 UNL A   1      25.558  26.468 -17.182  1.00  0.00    +0.000 F 
ATOM     80  C58 UNL A   1      27.568  27.223 -16.197  1.00  0.00    +0.000 C 
ATOM     81  F15 UNL A   1      27.175  28.497 -16.336  1.00  0.00    +0.000 F 
ATOM     82  C59 UNL A   1      28.807  26.937 -15.628  1.00  0.00    +0.000 C 
ATOM     83  F16 UNL A   1      29.590  27.951 -15.230  1.00  0.00    +0.000 F 
ENDBRANCH   72   73
TORSDOF 22
ENDMDL
MODEL 5
REMARK VINA RESULT:      -7.1      1.659      3.154
ROOT
ATOM    145  H37 UNL A   1      18.614  53.552  -0.875  1.00  0.00    +0.000 H 
ATOM    146  H38 UNL A   1      18.171  51.076  -1.559  1.00  0.00    +0.000 H 
ATOM    147  H39 UNL A   1      15.965  51.898   1.849  1.00  0.00    +0.000 H 
ATOM    148  H40 UNL A   1      12.169  49.909   6.563  1.00  0.00    +0.000 H 
ATOM    149  H41 UNL A   1      12.523  52.348   7.173  1.00  0.00    +0.000 H 
ATOM    150  H42 UNL A   1      14.825  51.530   3.809  1.00  0.00    +0.000 H 
ATOM    151  H43 UNL A   1      13.713  46.779   2.519  1.00  0.00    +0.000 H 
ATOM    152  H44 UNL A   1      15.288  47.085   0.523  1.00  0.00    +0.000 H 
ATOM    153  H45 UNL A   1      16.776  56.700   3.054  1.00  0.00    +0.000 H 
ATOM    154  H46 UNL A   1      15.540  56.307   5.263  1.00  0.00    +0.000 H 
ATOM     36  C30 UNL A   1      14.299  53.746   5.435  1.00  0.00    +0.000 C 
ATOM     37  C31 UNL A   1      15.226  54.248   4.362  1.00  0.00    +0.000 C 
ATOM     38  N4  UNL A   1      15.662  53.636   3.290  1.00  0.00    +0.000 N 
ATOM     39  C32 UNL A   1      16.421  54.574   2.603  1.00  0.00    +0.000 C 
ATOM     40  C33 UNL A   1      17.121  54.415   1.455  1.00  0.00    +0.000 C 
ATOM     52  C40 UNL A   1      17.231  53.173   0.737  1.00  0.00    +0.000 C 
ATOM     53  C41 UNL A   1      17.988  52.892  -0.386  1.00  0.00    +0.000 C 
ATOM     54  C42 UNL A   1      17.761  51.561  -0.744  1.00  0.00    +0.000 C 
ATOM     55  C43 UNL A   1      16.892  51.001   0.178  1.00  0.00    +0.000 C 
ATOM     56  N5  UNL A   1      16.571  52.002   1.079  1.00  0.00    +0.000 N 
ATOM     57  C44 UNL A   1      16.388  49.653   0.228  1.00  0.00    +0.000 C 
ATOM     69  C51 UNL A   1      15.555  49.169   1.181  1.00  0.00    +0.000 C 
ATOM     70  N6  UNL A   1      15.026  49.823   2.285  1.00  0.00    +0.000 N 
ATOM     71  C52 UNL A   1      14.283  48.941   2.905  1.00  0.00    +0.000 C 
ATOM     72  C53 UNL A   1      13.482  49.102   4.166  1.00  0.00    +0.000 C 
ATOM     84  C60 UNL A   1      13.512  50.275   4.827  1.00  0.00    +0.000 C 
ATOM     85  C61 UNL A   1      12.758  50.576   6.043  1.00  0.00    +0.000 C 
ATOM     86  C62 UNL A   1      12.959  51.861   6.373  1.00  0.00    +0.000 C 
ATOM     87  C63 UNL A   1      13.891  52.462   5.421  1.00  0.00    +0.000 C 
ATOM     88  N7  UNL A   1      14.188  51.438   4.554  1.00  0.00    +0.000 N 
ATOM     89  C64 UNL A   1      14.238  47.626   2.247  1.00  0.00    +0.000 C 
ATOM     90  C65 UNL A   1      15.049  47.813   1.214  1.00  0.00    +0.000 C 
ATOM     91  C66 UNL A   1      16.358  55.806   3.358  1.00  0.00    +0.000 C 
ATOM     92  C67 UNL A   1      15.692  55.638   4.492  1.00  0.00    +0.000 C 
ENDROOT
BRANCH   36   35
ATOM     33  C27 UNL A   1      13.664  55.728   8.628  1.00  0.00    +0.000 C 
ATOM     34  C28 UNL A   1      14.299  54.903   7.691  1.00  0.00    +0.000 C 
ATOM     35  C29 UNL A   1      13.726  54.695   6.426  1.00  0.00    +0.000 C 
ATOM    143  H35 UNL A   1      14.075  55.859   9.565  1.00  0.00    +0.000 H 
ATOM    144  H36 UNL A   1      15.192  54.446   7.932  1.00  0.00    +0.000 H 
ATOM    155  H47 UNL A   1      12.138  55.263   5.153  1.00  0.00    +0.000 H 
ATOM    156  H48 UNL A   1      11.146  56.825   6.713  1.00  0.00    +0.000 H 
ATOM     93  C68 UNL A   1      12.559  55.394   6.087  1.00  0.00    +0.000 C 
ATOM     94  C69 UNL A   1      11.964  56.263   6.995  1.00  0.00    +0.000 C 
ATOM     32  C26 UNL A   1      12.472  56.372   8.289  1.00  0.00    +0.000 C 
BRANCH   32   30
ATOM     30  C25 UNL A   1      11.764  57.194   9.297  1.00  0.00    +0.000 C 
ATOM     31  O2  UNL A   1      11.578  58.380   9.095  1.00  0.00    +0.000 O 
BRANCH   30   29
ATOM     29  N3  UNL A   1      11.310  56.599  10.458  1.00  0.00    +0.000 N 
ATOM    142  H34 UNL A   1      11.885  56.720  11.248  1.00  0.00    +0.000 H 
BRANCH   29   28
ATOM    141  H33 UNL A   1       9.288  56.330  10.204  1.00  0.00    +0.000 H 
ATOM     28  C24 UNL A   1      10.101  55.819  10.676  1.00  0.00    +0.000 C 
ATOM    140  H32 UNL A   1       9.937  55.722  11.728  1.00  0.00    +0.000 H 
BRANCH   28   27
ATOM    138  H30 UNL A   1      10.933  54.457   9.280  1.00  0.00    +0.000 H 
ATOM     27  C23 UNL A   1      10.202  54.423  10.061  1.00  0.00    +0.000 C 
ATOM    139  H31 UNL A   1      10.466  53.762  10.859  1.00  0.00    +0.000 H 
BRANCH   27   26
ATOM    137  H29 UNL A   1       8.373  54.741   9.094  1.00  0.00    +0.000 H 
ATOM     26  C22 UNL A   1       8.896  53.885   9.468  1.00  0.00    +0.000 C 
ATOM    136  H28 UNL A   1       8.375  53.361  10.242  1.00  0.00    +0.000 H 
BRANCH   26   25
ATOM     25  C21 UNL A   1       9.045  52.933   8.273  1.00  0.00    +0.000 C 
ATOM    134  H26 UNL A   1       9.821  53.314   7.642  1.00  0.00    +0.000 H 
ATOM    135  H27 UNL A   1       9.262  51.971   8.687  1.00  0.00    +0.000 H 
BRANCH   25   24
ATOM    132  H24 UNL A   1       7.224  51.937   7.821  1.00  0.00    +0.000 H 
ATOM    133  H25 UNL A   1       7.260  53.683   7.455  1.00  0.00    +0.000 H 
ATOM     24  C20 UNL A   1       7.786  52.752   7.419  1.00  0.00    +0.000 C 
BRANCH   24   23
ATOM    130  H22 UNL A   1       7.454  53.114   5.341  1.00  0.00    +0.000 H 
ATOM    131  H23 UNL A   1       9.100  52.626   5.753  1.00  0.00    +0.000 H 
ATOM     23  C19 UNL A   1       8.058  52.463   5.936  1.00  0.00    +0.000 C 
BRANCH   23   22
ATOM    129  H21 UNL A   1       8.342  50.719   4.888  1.00  0.00    +0.000 H 
ATOM     22  N2  UNL A   1       7.753  51.088   5.585  1.00  0.00    +0.000 N 
BRANCH   22   20
ATOM     20  C18 UNL A   1       6.812  50.209   6.028  1.00  0.00    +0.000 C 
ATOM     21  O1  UNL A   1       5.653  50.421   5.646  1.00  0.00    +0.000 O 
BRANCH   20   18
ATOM     18  C16 UNL A   1       7.098  49.009   6.951  1.00  0.00    +0.000 C 
ATOM    125  H17 UNL A   1       7.307  48.193   6.292  1.00  0.00    +0.000 H 
BRANCH   18   17
ATOM     14  C12 UNL A   1      10.742  49.133   9.375  1.00  0.00    +0.000 C 
ATOM     15  C13 UNL A   1      10.770  49.025   7.974  1.00  0.00    +0.000 C 
ATOM     16  C14 UNL A   1       9.623  49.113   7.189  1.00  0.00    +0.000 C 
ATOM     17  C15 UNL A   1       8.368  49.176   7.768  1.00  0.00    +0.000 C 
ATOM    123  H15 UNL A   1      11.678  48.875   7.507  1.00  0.00    +0.000 H 
ATOM    124  H16 UNL A   1       9.711  49.133   6.161  1.00  0.00    +0.000 H 
ATOM    157  H49 UNL A   1       7.391  49.475   9.607  1.00  0.00    +0.000 H 
ATOM     95  C70 UNL A   1       8.314  49.370   9.155  1.00  0.00    +0.000 C 
ATOM     96  C71 UNL A   1       9.480  49.425   9.962  1.00  0.00    +0.000 C 
BRANCH   14    6
ATOM    118  H10 UNL A   1      11.873  49.769  10.933  1.00  0.00    +0.000 H 
ATOM      6  C5  UNL A   1      12.044  48.990  10.219  1.00  0.00    +0.000 C 
BRANCH    6    5
ATOM      2  C2  UNL A   1      16.201  49.932   9.780  1.00  0.00    +0.000 C 
ATOM      3  C3  UNL A   1      15.753  48.603   9.179  1.00  0.00    +0.000 C 
ATOM      4  C4  UNL A   1      14.317  48.241   9.572  1.00  0.00    +0.000 C 
ATOM    164  H56 UNL A   1      15.207  51.023   8.243  1.00  0.00    +0.000 H 
ATOM    165  H57 UNL A   1      15.539  51.952   9.692  1.00  0.00    +0.000 H 
ATOM    162  H54 UNL A   1      13.821  50.852  10.892  1.00  0.00    +0.000 H 
ATOM    163  H55 UNL A   1      13.161  51.354   9.307  1.00  0.00    +0.000 H 
ATOM      5  N1  UNL A   1      13.349  49.340   9.570  1.00  0.00    +0.000 N 
ATOM    107  C79 UNL A   1      13.823  50.698   9.833  1.00  0.00    +0.000 C 
ATOM    108  C80 UNL A   1      15.224  51.002   9.313  1.00  0.00    +0.000 C 
ATOM    112  H4  UNL A   1      16.201  49.868  10.848  1.00  0.00    +0.000 H 
ATOM    113  H5  UNL A   1      16.409  47.831   9.525  1.00  0.00    +0.000 H 
ATOM    114  H6  UNL A   1      15.788  48.697   8.114  1.00  0.00    +0.000 H 
ATOM    115  H7  UNL A   1      14.343  47.830  10.559  1.00  0.00    +0.000 H 
ATOM    116  H8  UNL A   1      13.978  47.561   8.818  1.00  0.00    +0.000 H 
ATOM    117  H9  UNL A   1      13.160  49.429   8.572  1.00  0.00    +0.000 H 
BRANCH    2    1
ATOM      1  C1  UNL A   1      17.621  50.280   9.361  1.00  0.00    +0.000 C 
ATOM    109  H1  UNL A   1      17.593  50.901   8.490  1.00  0.00    +0.000 H 
ATOM    110  H2  UNL A   1      18.157  49.381   9.141  1.00  0.00    +0.000 H 
ATOM    111  H3  UNL A   1      18.109  50.803  10.156  1.00  0.00    +0.000 H 
ENDBRANCH    2    1
ENDBRANCH    6    5
BRANCH    6    7
ATOM      7  C6  UNL A   1      12.177  47.631  10.937  1.00  0.00    +0.000 C 
ATOM      8  C7  UNL A   1      12.524  47.537  12.300  1.00  0.00    +0.000 C 
ATOM      9  C8  UNL A   1      12.625  46.293  12.925  1.00  0.00    +0.000 C 
ATOM     10  C9  UNL A   1      12.397  45.137  12.189  1.00  0.00    +0.000 C 
ATOM     11  F1  UNL A   1      12.505  43.943  12.788  1.00  0.00    +0.000 F 
ATOM     12  C10 UNL A   1      12.056  45.200  10.845  1.00  0.00    +0.000 C 
ATOM     13  C11 UNL A   1      11.932  46.443  10.223  1.00  0.00    +0.000 C 
ATOM    119  H11 UNL A   1      12.706  48.396  12.841  1.00  0.00    +0.000 H 
ATOM    120  H12 UNL A   1      12.868  46.233  13.926  1.00  0.00    +0.000 H 
ATOM    121  H13 UNL A   1      11.895  44.332  10.309  1.00  0.00    +0.000 H 
ATOM    122  H14 UNL A   1      11.658  46.492   9.229  1.00  0.00    +0.000 H 
ENDBRANCH    6    7
ENDBRANCH   14    6
BRANCH   96   97
ATOM     97  C72 UNL A   1       9.314  49.844  11.367  1.00  0.00    +0.000 C 
ATOM     98  C73 UNL A   1       9.556  51.165  11.775  1.00  0.00    +0.000 C 
ATOM     99  C74 UNL A   1       9.399  51.544  13.112  1.00  0.00    +0.000 C 
ATOM    161  H53 UNL A   1       8.788  47.924  12.074  1.00  0.00    +0.000 H 
ATOM    100  C75 UNL A   1       8.994  50.610  14.077  1.00  0.00    +0.000 C 
ATOM    101  C76 UNL A   1       8.828  51.026  15.517  1.00  0.00    +0.000 C 
ATOM    102  F17 UNL A   1      10.022  51.226  16.141  1.00  0.00    +0.000 F 
ATOM    103  F18 UNL A   1       8.134  52.190  15.655  1.00  0.00    +0.000 F 
ATOM    105  C77 UNL A   1       8.776  49.284  13.682  1.00  0.00    +0.000 C 
ATOM    106  C78 UNL A   1       8.942  48.907  12.347  1.00  0.00    +0.000 C 
ATOM    104  F19 UNL A   1       8.163  50.107  16.273  1.00  0.00    +0.000 F 
ATOM    158  H50 UNL A   1       9.856  51.865  11.079  1.00  0.00    +0.000 H 
ATOM    159  H51 UNL A   1       9.580  52.521  13.391  1.00  0.00    +0.000 H 
ATOM    160  H52 UNL A   1       8.492  48.580  14.382  1.00  0.00    +0.000 H 
ENDBRANCH   96   97
ENDBRANCH   18   17
BRANCH   18   19
ATOM     19  C17 UNL A   1       5.887  48.498   7.729  1.00  0.00    +0.000 C 
ATOM    126  H18 UNL A   1       6.051  47.480   8.015  1.00  0.00    +0.000 H 
ATOM    127  H19 UNL A   1       5.015  48.558   7.112  1.00  0.00    +0.000 H 
ATOM    128  H20 UNL A   1       5.747  49.096   8.604  1.00  0.00    +0.000 H 
ENDBRANCH   18   19
ENDBRANCH   20   18
ENDBRANCH   22   20
ENDBRANCH   23   22
ENDBRANCH   24   23
ENDBRANCH   25   24
ENDBRANCH   26   25
ENDBRANCH   27   26
ENDBRANCH   28   27
ENDBRANCH   29   28
ENDBRANCH   30   29
ENDBRANCH   32   30
ENDBRANCH   36   35
BRANCH   40   41
ATOM     41  C34 UNL A   1      17.841  55.609   0.902  1.00  0.00    +0.000 C 
ATOM     42  C35 UNL A   1      17.244  56.401  -0.090  1.00  0.00    +0.000 C 
ATOM     43  F2  UNL A   1      16.003  56.127  -0.521  1.00  0.00    +0.000 F 
ATOM     44  C36 UNL A   1      17.928  57.474  -0.659  1.00  0.00    +0.000 C 
ATOM     45  F3  UNL A   1      17.348  58.201  -1.623  1.00  0.00    +0.000 F 
ATOM     46  C37 UNL A   1      19.208  57.787  -0.229  1.00  0.00    +0.000 C 
ATOM     47  F4  UNL A   1      19.860  58.827  -0.767  1.00  0.00    +0.000 F 
ATOM     48  C38 UNL A   1      19.813  57.024   0.759  1.00  0.00    +0.000 C 
ATOM     49  F5  UNL A   1      21.041  57.339   1.190  1.00  0.00    +0.000 F 
ATOM     50  C39 UNL A   1      19.142  55.935   1.308  1.00  0.00    +0.000 C 
ATOM     51  F6  UNL A   1      19.753  55.213   2.260  1.00  0.00    +0.000 F 
ENDBRANCH   40   41
BRANCH   57   58
ATOM     65  C49 UNL A   1      18.337  46.998  -1.678  1.00  0.00    +0.000 C 
ATOM     66  F10 UNL A   1      19.458  46.278  -1.537  1.00  0.00    +0.000 F 
ATOM     67  C50 UNL A   1      17.996  47.949  -0.720  1.00  0.00    +0.000 C 
ATOM     68  F11 UNL A   1      18.802  48.124   0.339  1.00  0.00    +0.000 F 
ATOM     58  C45 UNL A   1      16.833  48.718  -0.854  1.00  0.00    +0.000 C 
ATOM     59  C46 UNL A   1      16.028  48.509  -1.984  1.00  0.00    +0.000 C 
ATOM     60  F7  UNL A   1      14.901  49.219  -2.152  1.00  0.00    +0.000 F 
ATOM     61  C47 UNL A   1      16.360  47.544  -2.929  1.00  0.00    +0.000 C 
ATOM     62  F8  UNL A   1      15.557  47.333  -3.982  1.00  0.00    +0.000 F 
ATOM     63  C48 UNL A   1      17.513  46.787  -2.775  1.00  0.00    +0.000 C 
ATOM     64  F9  UNL A   1      17.829  45.854  -3.683  1.00  0.00    +0.000 F 
ENDBRANCH   57   58
BRANCH   72   73
ATOM     73  C54 UNL A   1      12.684  47.977   4.716  1.00  0.00    +0.000 C 
ATOM     74  C55 UNL A   1      11.427  47.644   4.192  1.00  0.00    +0.000 C 
ATOM     75  F12 UNL A   1      10.937  48.319   3.142  1.00  0.00    +0.000 F 
ATOM     76  C56 UNL A   1      10.656  46.633   4.764  1.00  0.00    +0.000 C 
ATOM     77  F13 UNL A   1       9.443  46.356   4.268  1.00  0.00    +0.000 F 
ATOM     78  C57 UNL A   1      11.137  45.924   5.855  1.00  0.00    +0.000 C 
ATOM     79  F14 UNL A   1      10.395  44.952   6.405  1.00  0.00    +0.000 F 
ATOM     80  C58 UNL A   1      12.386  46.225   6.377  1.00  0.00    +0.000 C 
ATOM     81  F15 UNL A   1      12.862  45.530   7.420  1.00  0.00    +0.000 F 
ATOM     82  C59 UNL A   1      13.149  47.247   5.818  1.00  0.00    +0.000 C 
ATOM     83  F16 UNL A   1      14.354  47.521   6.341  1.00  0.00    +0.000 F 
ENDBRANCH   72   73
TORSDOF 22
ENDMDL
MODEL 6
REMARK VINA RESULT:      -7.1     24.582     30.739
ROOT
ATOM    145  H37 UNL A   1      11.633  21.353   8.798  1.00  0.00    +0.000 H 
ATOM    146  H38 UNL A   1      12.022  19.282  10.334  1.00  0.00    +0.000 H 
ATOM    147  H39 UNL A   1      15.197  19.553   7.689  1.00  0.00    +0.000 H 
ATOM    148  H40 UNL A   1      20.555  17.117   5.251  1.00  0.00    +0.000 H 
ATOM    149  H41 UNL A   1      20.227  19.189   3.820  1.00  0.00    +0.000 H 
ATOM    150  H42 UNL A   1      16.977  18.891   6.395  1.00  0.00    +0.000 H 
ATOM    151  H43 UNL A   1      17.974  14.963   9.402  1.00  0.00    +0.000 H 
ATOM    152  H44 UNL A   1      15.782  15.494  10.615  1.00  0.00    +0.000 H 
ATOM    153  H45 UNL A   1      14.446  23.610   4.834  1.00  0.00    +0.000 H 
ATOM    154  H46 UNL A   1      16.404  22.874   3.354  1.00  0.00    +0.000 H 
ATOM     36  C30 UNL A   1      17.842  20.644   4.393  1.00  0.00    +0.000 C 
ATOM     37  C31 UNL A   1      16.560  21.234   4.913  1.00  0.00    +0.000 C 
ATOM     38  N4  UNL A   1      15.832  20.863   5.936  1.00  0.00    +0.000 N 
ATOM     39  C32 UNL A   1      14.804  21.791   6.023  1.00  0.00    +0.000 C 
ATOM     40  C33 UNL A   1      13.764  21.819   6.890  1.00  0.00    +0.000 C 
ATOM     52  C40 UNL A   1      13.518  20.820   7.895  1.00  0.00    +0.000 C 
ATOM     53  C41 UNL A   1      12.444  20.715   8.760  1.00  0.00    +0.000 C 
ATOM     54  C42 UNL A   1      12.646  19.597   9.574  1.00  0.00    +0.000 C 
ATOM     55  C43 UNL A   1      13.827  18.984   9.190  1.00  0.00    +0.000 C 
ATOM     56  N5  UNL A   1      14.355  19.746   8.161  1.00  0.00    +0.000 N 
ATOM     57  C44 UNL A   1      14.432  17.792   9.728  1.00  0.00    +0.000 C 
ATOM     69  C51 UNL A   1      15.582  17.235   9.281  1.00  0.00    +0.000 C 
ATOM     70  N6  UNL A   1      16.405  17.653   8.244  1.00  0.00    +0.000 N 
ATOM     71  C52 UNL A   1      17.391  16.793   8.195  1.00  0.00    +0.000 C 
ATOM     72  C53 UNL A   1      18.564  16.755   7.257  1.00  0.00    +0.000 C 
ATOM     84  C60 UNL A   1      18.665  17.678   6.282  1.00  0.00    +0.000 C 
ATOM     85  C61 UNL A   1      19.766  17.776   5.325  1.00  0.00    +0.000 C 
ATOM     86  C62 UNL A   1      19.583  18.863   4.559  1.00  0.00    +0.000 C 
ATOM     87  C63 UNL A   1      18.329  19.512   4.938  1.00  0.00    +0.000 C 
ATOM     88  N7  UNL A   1      17.839  18.723   5.951  1.00  0.00    +0.000 N 
ATOM     89  C64 UNL A   1      17.316  15.737   9.216  1.00  0.00    +0.000 C 
ATOM     90  C65 UNL A   1      16.184  16.040   9.836  1.00  0.00    +0.000 C 
ATOM     91  C66 UNL A   1      15.019  22.763   4.973  1.00  0.00    +0.000 C 
ATOM     92  C67 UNL A   1      16.050  22.423   4.212  1.00  0.00    +0.000 C 
ENDROOT
BRANCH   36   35
ATOM     33  C27 UNL A   1      20.143  23.174   2.710  1.00  0.00    +0.000 C 
ATOM     34  C28 UNL A   1      19.492  22.445   3.714  1.00  0.00    +0.000 C 
ATOM     35  C29 UNL A   1      18.641  21.380   3.377  1.00  0.00    +0.000 C 
ATOM    143  H35 UNL A   1      20.748  23.971   2.959  1.00  0.00    +0.000 H 
ATOM    144  H36 UNL A   1      19.638  22.693   4.705  1.00  0.00    +0.000 H 
ATOM    155  H47 UNL A   1      17.916  20.210   1.774  1.00  0.00    +0.000 H 
ATOM    156  H48 UNL A   1      19.186  21.360   0.064  1.00  0.00    +0.000 H 
ATOM     93  C68 UNL A   1      18.525  21.003   2.032  1.00  0.00    +0.000 C 
ATOM     94  C69 UNL A   1      19.222  21.687   1.042  1.00  0.00    +0.000 C 
ATOM     32  C26 UNL A   1      19.971  22.817   1.371  1.00  0.00    +0.000 C 
BRANCH   32   30
ATOM     30  C25 UNL A   1      20.605  23.623   0.304  1.00  0.00    +0.000 C 
ATOM     31  O2  UNL A   1      21.793  23.886   0.363  1.00  0.00    +0.000 O 
BRANCH   30   29
ATOM     29  N3  UNL A   1      19.840  24.061  -0.759  1.00  0.00    +0.000 N 
ATOM    142  H34 UNL A   1      19.648  23.386  -1.450  1.00  0.00    +0.000 H 
BRANCH   29   28
ATOM    141  H33 UNL A   1      20.087  26.051  -1.216  1.00  0.00    +0.000 H 
ATOM     28  C24 UNL A   1      19.280  25.383  -1.002  1.00  0.00    +0.000 C 
ATOM    140  H32 UNL A   1      18.740  25.694  -0.133  1.00  0.00    +0.000 H 
BRANCH   28   27
ATOM    138  H30 UNL A   1      17.782  26.307  -2.185  1.00  0.00    +0.000 H 
ATOM     27  C23 UNL A   1      18.331  25.389  -2.201  1.00  0.00    +0.000 C 
ATOM    139  H31 UNL A   1      18.945  25.279  -3.070  1.00  0.00    +0.000 H 
BRANCH   27   26
ATOM    137  H29 UNL A   1      17.878  23.361  -1.949  1.00  0.00    +0.000 H 
ATOM     26  C22 UNL A   1      17.326  24.233  -2.233  1.00  0.00    +0.000 C 
ATOM    136  H28 UNL A   1      16.912  24.184  -3.218  1.00  0.00    +0.000 H 
BRANCH   26   25
ATOM     25  C21 UNL A   1      16.161  24.331  -1.238  1.00  0.00    +0.000 C 
ATOM    134  H26 UNL A   1      16.261  25.251  -0.702  1.00  0.00    +0.000 H 
ATOM    135  H27 UNL A   1      15.267  24.269  -1.822  1.00  0.00    +0.000 H 
BRANCH   25   24
ATOM    132  H24 UNL A   1      16.917  22.549  -0.362  1.00  0.00    +0.000 H 
ATOM    133  H25 UNL A   1      16.068  23.656   0.751  1.00  0.00    +0.000 H 
ATOM     24  C20 UNL A   1      16.077  23.194  -0.214  1.00  0.00    +0.000 C 
BRANCH   24   23
ATOM    130  H22 UNL A   1      14.983  21.515  -0.950  1.00  0.00    +0.000 H 
ATOM    131  H23 UNL A   1      14.547  22.024   0.683  1.00  0.00    +0.000 H 
ATOM     23  C19 UNL A   1      14.800  22.348  -0.305  1.00  0.00    +0.000 C 
BRANCH   23   22
ATOM    129  H21 UNL A   1      13.656  23.150  -1.811  1.00  0.00    +0.000 H 
ATOM     22  N2  UNL A   1      13.679  23.107  -0.827  1.00  0.00    +0.000 N 
BRANCH   22   20
ATOM     20  C18 UNL A   1      12.655  23.773  -0.227  1.00  0.00    +0.000 C 
ATOM     21  O1  UNL A   1      11.582  23.784  -0.847  1.00  0.00    +0.000 O 
BRANCH   20   18
ATOM     18  C16 UNL A   1      12.752  24.494   1.131  1.00  0.00    +0.000 C 
ATOM    125  H17 UNL A   1      13.780  24.775   1.224  1.00  0.00    +0.000 H 
BRANCH   18   17
ATOM     14  C12 UNL A   1      10.744  28.365   1.525  1.00  0.00    +0.000 C 
ATOM     15  C13 UNL A   1      11.874  28.179   0.710  1.00  0.00    +0.000 C 
ATOM     16  C14 UNL A   1      12.439  26.928   0.481  1.00  0.00    +0.000 C 
ATOM     17  C15 UNL A   1      11.993  25.809   1.162  1.00  0.00    +0.000 C 
ATOM    123  H15 UNL A   1      12.303  29.005   0.262  1.00  0.00    +0.000 H 
ATOM    124  H16 UNL A   1      13.203  26.834  -0.208  1.00  0.00    +0.000 H 
ATOM    157  H49 UNL A   1      10.431  25.116   2.388  1.00  0.00    +0.000 H 
ATOM     95  C70 UNL A   1      10.818  25.948   1.913  1.00  0.00    +0.000 C 
ATOM     96  C71 UNL A   1      10.141  27.188   2.048  1.00  0.00    +0.000 C 
BRANCH   14    6
ATOM    118  H10 UNL A   1       9.839  29.658   2.798  1.00  0.00    +0.000 H 
ATOM      6  C5  UNL A   1      10.165  29.787   1.787  1.00  0.00    +0.000 C 
BRANCH    6    5
ATOM      2  C2  UNL A   1       6.256  29.598   0.041  1.00  0.00    +0.000 C 
ATOM      3  C3  UNL A   1       6.426  30.596   1.183  1.00  0.00    +0.000 C 
ATOM      4  C4  UNL A   1       7.776  30.443   1.893  1.00  0.00    +0.000 C 
ATOM    164  H56 UNL A   1       7.404  30.821  -1.272  1.00  0.00    +0.000 H 
ATOM    165  H57 UNL A   1       7.291  29.141  -1.761  1.00  0.00    +0.000 H 
ATOM    162  H54 UNL A   1       8.793  28.459  -0.065  1.00  0.00    +0.000 H 
ATOM    163  H55 UNL A   1       9.500  29.873  -0.899  1.00  0.00    +0.000 H 
ATOM      5  N1  UNL A   1       8.936  30.199   1.034  1.00  0.00    +0.000 N 
ATOM    107  C79 UNL A   1       8.737  29.512  -0.243  1.00  0.00    +0.000 C 
ATOM    108  C80 UNL A   1       7.409  29.807  -0.931  1.00  0.00    +0.000 C 
ATOM    112  H4  UNL A   1       6.268  28.599   0.426  1.00  0.00    +0.000 H 
ATOM    113  H5  UNL A   1       5.644  30.441   1.895  1.00  0.00    +0.000 H 
ATOM    114  H6  UNL A   1       6.386  31.581   0.766  1.00  0.00    +0.000 H 
ATOM    115  H7  UNL A   1       7.695  29.621   2.573  1.00  0.00    +0.000 H 
ATOM    116  H8  UNL A   1       7.961  31.387   2.361  1.00  0.00    +0.000 H 
ATOM    117  H9  UNL A   1       9.115  31.138   0.680  1.00  0.00    +0.000 H 
BRANCH    2    1
ATOM      1  C1  UNL A   1       4.920  29.782  -0.661  1.00  0.00    +0.000 C 
ATOM    109  H1  UNL A   1       5.027  30.498  -1.448  1.00  0.00    +0.000 H 
ATOM    110  H2  UNL A   1       4.193  30.130   0.043  1.00  0.00    +0.000 H 
ATOM    111  H3  UNL A   1       4.601  28.846  -1.071  1.00  0.00    +0.000 H 
ENDBRANCH    2    1
ENDBRANCH    6    5
BRANCH    6    7
ATOM      7  C6  UNL A   1      11.215  30.915   1.708  1.00  0.00    +0.000 C 
ATOM      8  C7  UNL A   1      11.110  31.970   0.779  1.00  0.00    +0.000 C 
ATOM      9  C8  UNL A   1      12.071  32.982   0.740  1.00  0.00    +0.000 C 
ATOM     10  C9  UNL A   1      13.148  32.938   1.615  1.00  0.00    +0.000 C 
ATOM     11  F1  UNL A   1      14.075  33.905   1.568  1.00  0.00    +0.000 F 
ATOM     12  C10 UNL A   1      13.279  31.909   2.538  1.00  0.00    +0.000 C 
ATOM     13  C11 UNL A   1      12.309  30.907   2.595  1.00  0.00    +0.000 C 
ATOM    119  H11 UNL A   1      10.316  31.994   0.122  1.00  0.00    +0.000 H 
ATOM    120  H12 UNL A   1      11.980  33.758   0.066  1.00  0.00    +0.000 H 
ATOM    121  H13 UNL A   1      14.089  31.886   3.178  1.00  0.00    +0.000 H 
ATOM    122  H14 UNL A   1      12.393  30.154   3.295  1.00  0.00    +0.000 H 
ENDBRANCH    6    7
ENDBRANCH   14    6
BRANCH   96   97
ATOM     97  C72 UNL A   1       8.808  27.169   2.681  1.00  0.00    +0.000 C 
ATOM     98  C73 UNL A   1       8.633  27.485   4.037  1.00  0.00    +0.000 C 
ATOM     99  C74 UNL A   1       7.363  27.457   4.622  1.00  0.00    +0.000 C 
ATOM    161  H53 UNL A   1       7.787  26.523   0.948  1.00  0.00    +0.000 H 
ATOM    100  C75 UNL A   1       6.234  27.111   3.865  1.00  0.00    +0.000 C 
ATOM    101  C76 UNL A   1       4.869  27.081   4.504  1.00  0.00    +0.000 C 
ATOM    102  F17 UNL A   1       4.704  26.010   5.329  1.00  0.00    +0.000 F 
ATOM    103  F18 UNL A   1       4.616  28.182   5.265  1.00  0.00    +0.000 F 
ATOM    105  C77 UNL A   1       6.406  26.768   2.518  1.00  0.00    +0.000 C 
ATOM    106  C78 UNL A   1       7.677  26.789   1.938  1.00  0.00    +0.000 C 
ATOM    104  F19 UNL A   1       3.850  27.015   3.601  1.00  0.00    +0.000 F 
ATOM    158  H50 UNL A   1       9.453  27.741   4.609  1.00  0.00    +0.000 H 
ATOM    159  H51 UNL A   1       7.255  27.696   5.621  1.00  0.00    +0.000 H 
ATOM    160  H52 UNL A   1       5.588  26.496   1.950  1.00  0.00    +0.000 H 
ENDBRANCH   96   97
ENDBRANCH   18   17
BRANCH   18   19
ATOM     19  C17 UNL A   1      12.547  23.597   2.349  1.00  0.00    +0.000 C 
ATOM    126  H18 UNL A   1      11.694  22.969   2.191  1.00  0.00    +0.000 H 
ATOM    127  H19 UNL A   1      12.388  24.203   3.217  1.00  0.00    +0.000 H 
ATOM    128  H20 UNL A   1      13.415  22.988   2.494  1.00  0.00    +0.000 H 
ENDBRANCH   18   19
ENDBRANCH   20   18
ENDBRANCH   22   20
ENDBRANCH   23   22
ENDBRANCH   24   23
ENDBRANCH   25   24
ENDBRANCH   26   25
ENDBRANCH   27   26
ENDBRANCH   28   27
ENDBRANCH   29   28
ENDBRANCH   30   29
ENDBRANCH   32   30
ENDBRANCH   36   35
BRANCH   40   41
ATOM     41  C34 UNL A   1      12.797  22.961   6.786  1.00  0.00    +0.000 C 
ATOM     42  C35 UNL A   1      12.862  24.031   7.691  1.00  0.00    +0.000 C 
ATOM     43  F2  UNL A   1      13.822  24.069   8.627  1.00  0.00    +0.000 F 
ATOM     44  C36 UNL A   1      11.929  25.065   7.647  1.00  0.00    +0.000 C 
ATOM     45  F3  UNL A   1      11.996  26.065   8.537  1.00  0.00    +0.000 F 
ATOM     46  C37 UNL A   1      10.930  25.058   6.685  1.00  0.00    +0.000 C 
ATOM     47  F4  UNL A   1      10.042  26.060   6.635  1.00  0.00    +0.000 F 
ATOM     48  C38 UNL A   1      10.853  24.016   5.774  1.00  0.00    +0.000 C 
ATOM     49  F5  UNL A   1       9.903  24.019   4.831  1.00  0.00    +0.000 F 
ATOM     50  C39 UNL A   1      11.768  22.968   5.834  1.00  0.00    +0.000 C 
ATOM     51  F6  UNL A   1      11.668  21.970   4.942  1.00  0.00    +0.000 F 
ENDBRANCH   40   41
BRANCH   57   58
ATOM     65  C49 UNL A   1      12.241  15.381  11.695  1.00  0.00    +0.000 C 
ATOM     66  F10 UNL A   1      11.364  14.396  11.457  1.00  0.00    +0.000 F 
ATOM     67  C50 UNL A   1      12.807  16.079  10.632  1.00  0.00    +0.000 C 
ATOM     68  F11 UNL A   1      12.465  15.746   9.378  1.00  0.00    +0.000 F 
ATOM     58  C45 UNL A   1      13.719  17.118  10.860  1.00  0.00    +0.000 C 
ATOM     59  C46 UNL A   1      14.038  17.439  12.188  1.00  0.00    +0.000 C 
ATOM     60  F7  UNL A   1      14.911  18.423  12.454  1.00  0.00    +0.000 F 
ATOM     61  C47 UNL A   1      13.486  16.726  13.247  1.00  0.00    +0.000 C 
ATOM     62  F8  UNL A   1      13.833  17.023  14.507  1.00  0.00    +0.000 F 
ATOM     63  C48 UNL A   1      12.591  15.696  13.001  1.00  0.00    +0.000 C 
ATOM     64  F9  UNL A   1      12.064  15.006  14.022  1.00  0.00    +0.000 F 
ENDBRANCH   57   58
BRANCH   72   73
ATOM     73  C54 UNL A   1      19.597  15.695   7.365  1.00  0.00    +0.000 C 
ATOM     74  C55 UNL A   1      19.418  14.432   6.781  1.00  0.00    +0.000 C 
ATOM     75  F12 UNL A   1      18.311  14.173   6.069  1.00  0.00    +0.000 F 
ATOM     76  C56 UNL A   1      20.364  13.422   6.951  1.00  0.00    +0.000 C 
ATOM     77  F13 UNL A   1      20.153  12.213   6.414  1.00  0.00    +0.000 F 
ATOM     78  C57 UNL A   1      21.513  13.662   7.689  1.00  0.00    +0.000 C 
ATOM     79  F14 UNL A   1      22.422  12.691   7.852  1.00  0.00    +0.000 F 
ATOM     80  C58 UNL A   1      21.720  14.910   8.259  1.00  0.00    +0.000 C 
ATOM     81  F15 UNL A   1      22.838  15.151   8.957  1.00  0.00    +0.000 F 
ATOM     82  C59 UNL A   1      20.767  15.914   8.105  1.00  0.00    +0.000 C 
ATOM     83  F16 UNL A   1      20.988  17.112   8.667  1.00  0.00    +0.000 F 
ENDBRANCH   72   73
TORSDOF 22
ENDMDL
MODEL 7
REMARK VINA RESULT:      -7.0      4.693     11.414
ROOT
ATOM    145  H37 UNL A   1      10.935  61.738  13.721  1.00  0.00    +0.000 H 
ATOM    146  H38 UNL A   1      11.517  62.319  11.247  1.00  0.00    +0.000 H 
ATOM    147  H39 UNL A   1      11.300  58.198  11.599  1.00  0.00    +0.000 H 
ATOM    148  H40 UNL A   1      12.044  52.408   9.047  1.00  0.00    +0.000 H 
ATOM    149  H41 UNL A   1      11.381  51.845  11.433  1.00  0.00    +0.000 H 
ATOM    150  H42 UNL A   1      11.686  55.980  11.138  1.00  0.00    +0.000 H 
ATOM    151  H43 UNL A   1      12.631  56.935   6.274  1.00  0.00    +0.000 H 
ATOM    152  H44 UNL A   1      12.561  59.423   6.878  1.00  0.00    +0.000 H 
ATOM    153  H45 UNL A   1      10.076  57.147  16.349  1.00  0.00    +0.000 H 
ATOM    154  H46 UNL A   1      10.534  54.672  15.872  1.00  0.00    +0.000 H 
ATOM     36  C30 UNL A   1      11.037  54.116  13.122  1.00  0.00    +0.000 C 
ATOM     37  C31 UNL A   1      10.886  55.463  13.775  1.00  0.00    +0.000 C 
ATOM     38  N4  UNL A   1      10.952  56.656  13.239  1.00  0.00    +0.000 N 
ATOM     39  C32 UNL A   1      10.662  57.545  14.265  1.00  0.00    +0.000 C 
ATOM     40  C33 UNL A   1      10.646  58.899  14.227  1.00  0.00    +0.000 C 
ATOM     52  C40 UNL A   1      10.980  59.683  13.068  1.00  0.00    +0.000 C 
ATOM     53  C41 UNL A   1      11.077  61.058  12.958  1.00  0.00    +0.000 C 
ATOM     54  C42 UNL A   1      11.403  61.368  11.634  1.00  0.00    +0.000 C 
ATOM     55  C43 UNL A   1      11.546  60.185  10.929  1.00  0.00    +0.000 C 
ATOM     56  N5  UNL A   1      11.279  59.158  11.819  1.00  0.00    +0.000 N 
ATOM     57  C44 UNL A   1      11.894  60.005   9.543  1.00  0.00    +0.000 C 
ATOM     69  C51 UNL A   1      12.039  58.808   8.927  1.00  0.00    +0.000 C 
ATOM     70  N6  UNL A   1      11.905  57.534   9.461  1.00  0.00    +0.000 N 
ATOM     71  C52 UNL A   1      12.143  56.703   8.477  1.00  0.00    +0.000 C 
ATOM     72  C53 UNL A   1      12.145  55.201   8.491  1.00  0.00    +0.000 C 
ATOM     84  C60 UNL A   1      11.915  54.547   9.646  1.00  0.00    +0.000 C 
ATOM     85  C61 UNL A   1      11.857  53.094   9.794  1.00  0.00    +0.000 C 
ATOM     86  C62 UNL A   1      11.522  52.797  11.059  1.00  0.00    +0.000 C 
ATOM     87  C63 UNL A   1      11.387  54.036  11.824  1.00  0.00    +0.000 C 
ATOM     88  N7  UNL A   1      11.666  55.023  10.909  1.00  0.00    +0.000 N 
ATOM     89  C64 UNL A   1      12.436  57.361   7.194  1.00  0.00    +0.000 C 
ATOM     90  C65 UNL A   1      12.382  58.643   7.529  1.00  0.00    +0.000 C 
ATOM     91  C66 UNL A   1      10.386  56.757  15.446  1.00  0.00    +0.000 C 
ATOM     92  C67 UNL A   1      10.583  55.467  15.215  1.00  0.00    +0.000 C 
ENDROOT
BRANCH   36   35
ATOM     33  C27 UNL A   1      11.225  50.801  14.993  1.00  0.00    +0.000 C 
ATOM     34  C28 UNL A   1      11.624  52.001  14.391  1.00  0.00    +0.000 C 
ATOM     35  C29 UNL A   1      10.666  52.883  13.867  1.00  0.00    +0.000 C 
ATOM    143  H35 UNL A   1      11.933  50.143  15.354  1.00  0.00    +0.000 H 
ATOM    144  H36 UNL A   1      12.627  52.237  14.331  1.00  0.00    +0.000 H 
ATOM    155  H47 UNL A   1       8.592  53.237  13.670  1.00  0.00    +0.000 H 
ATOM    156  H48 UNL A   1       7.910  51.249  14.871  1.00  0.00    +0.000 H 
ATOM     93  C68 UNL A   1       9.306  52.587  14.035  1.00  0.00    +0.000 C 
ATOM     94  C69 UNL A   1       8.910  51.425  14.690  1.00  0.00    +0.000 C 
ATOM     32  C26 UNL A   1       9.867  50.498  15.102  1.00  0.00    +0.000 C 
BRANCH   32   30
ATOM     30  C25 UNL A   1       9.443  49.202  15.679  1.00  0.00    +0.000 C 
ATOM     31  O2  UNL A   1       8.980  49.158  16.805  1.00  0.00    +0.000 O 
BRANCH   30   29
ATOM     29  N3  UNL A   1       9.567  48.051  14.925  1.00  0.00    +0.000 N 
ATOM    142  H34 UNL A   1      10.423  47.574  15.018  1.00  0.00    +0.000 H 
BRANCH   29   28
ATOM    141  H33 UNL A   1       7.637  47.826  14.252  1.00  0.00    +0.000 H 
ATOM     28  C24 UNL A   1       8.608  47.445  14.013  1.00  0.00    +0.000 C 
ATOM    140  H32 UNL A   1       8.646  46.383  14.127  1.00  0.00    +0.000 H 
BRANCH   28   27
ATOM    138  H30 UNL A   1       9.942  48.056  12.482  1.00  0.00    +0.000 H 
ATOM     27  C23 UNL A   1       8.907  47.796  12.555  1.00  0.00    +0.000 C 
ATOM    139  H31 UNL A   1       8.646  46.934  11.979  1.00  0.00    +0.000 H 
BRANCH   27   26
ATOM    137  H29 UNL A   1       7.611  49.416  12.836  1.00  0.00    +0.000 H 
ATOM     26  C22 UNL A   1       8.083  48.959  11.990  1.00  0.00    +0.000 C 
ATOM    136  H28 UNL A   1       7.398  48.558  11.273  1.00  0.00    +0.000 H 
BRANCH   26   25
ATOM     25  C21 UNL A   1       8.882  50.075  11.306  1.00  0.00    +0.000 C 
ATOM    134  H26 UNL A   1       9.630  50.415  11.992  1.00  0.00    +0.000 H 
ATOM    135  H27 UNL A   1       9.284  49.647  10.411  1.00  0.00    +0.000 H 
BRANCH   25   24
ATOM    132  H24 UNL A   1       7.405  51.561  11.661  1.00  0.00    +0.000 H 
ATOM    133  H25 UNL A   1       8.765  52.058  10.618  1.00  0.00    +0.000 H 
ATOM     24  C20 UNL A   1       8.062  51.290  10.861  1.00  0.00    +0.000 C 
BRANCH   24   23
ATOM    130  H22 UNL A   1       7.067  50.009   9.472  1.00  0.00    +0.000 H 
ATOM    131  H23 UNL A   1       6.282  51.569   9.734  1.00  0.00    +0.000 H 
ATOM     23  C19 UNL A   1       7.214  51.061   9.602  1.00  0.00    +0.000 C 
BRANCH   23   22
ATOM    129  H21 UNL A   1       8.234  52.493   8.540  1.00  0.00    +0.000 H 
ATOM     22  N2  UNL A   1       7.850  51.595   8.413  1.00  0.00    +0.000 N 
BRANCH   22   20
ATOM     20  C18 UNL A   1       8.021  51.102   7.155  1.00  0.00    +0.000 C 
ATOM     21  O1  UNL A   1       7.566  51.798   6.236  1.00  0.00    +0.000 O 
BRANCH   20   18
ATOM     18  C16 UNL A   1       8.717  49.768   6.822  1.00  0.00    +0.000 C 
ATOM    125  H17 UNL A   1       8.785  49.748   5.755  1.00  0.00    +0.000 H 
BRANCH   18   17
ATOM     14  C12 UNL A   1      12.906  49.304   8.007  1.00  0.00    +0.000 C 
ATOM     15  C13 UNL A   1      12.513  50.101   6.918  1.00  0.00    +0.000 C 
ATOM     16  C14 UNL A   1      11.178  50.355   6.615  1.00  0.00    +0.000 C 
ATOM     17  C15 UNL A   1      10.158  49.715   7.298  1.00  0.00    +0.000 C 
ATOM    123  H15 UNL A   1      13.244  50.516   6.319  1.00  0.00    +0.000 H 
ATOM    124  H16 UNL A   1      10.946  51.030   5.870  1.00  0.00    +0.000 H 
ATOM    157  H49 UNL A   1       9.771  48.540   8.999  1.00  0.00    +0.000 H 
ATOM     95  C70 UNL A   1      10.516  48.983   8.438  1.00  0.00    +0.000 C 
ATOM     96  C71 UNL A   1      11.865  48.826   8.850  1.00  0.00    +0.000 C 
BRANCH   14    6
ATOM    118  H10 UNL A   1      14.311  48.088   8.819  1.00  0.00    +0.000 H 
ATOM      6  C5  UNL A   1      14.410  49.012   8.289  1.00  0.00    +0.000 C 
BRANCH    6    5
ATOM      2  C2  UNL A   1      15.266  51.368  11.765  1.00  0.00    +0.000 C 
ATOM      3  C3  UNL A   1      16.157  50.148  11.554  1.00  0.00    +0.000 C 
ATOM      4  C4  UNL A   1      15.648  49.244  10.426  1.00  0.00    +0.000 C 
ATOM    164  H56 UNL A   1      16.193  52.393  10.144  1.00  0.00    +0.000 H 
ATOM    165  H57 UNL A   1      14.611  53.009  10.581  1.00  0.00    +0.000 H 
ATOM    162  H54 UNL A   1      13.524  51.147   9.607  1.00  0.00    +0.000 H 
ATOM    163  H55 UNL A   1      14.735  51.758   8.441  1.00  0.00    +0.000 H 
ATOM      5  N1  UNL A   1      15.141  49.922   9.231  1.00  0.00    +0.000 N 
ATOM    107  C79 UNL A   1      14.561  51.258   9.371  1.00  0.00    +0.000 C 
ATOM    108  C80 UNL A   1      15.202  52.127  10.447  1.00  0.00    +0.000 C 
ATOM    112  H4  UNL A   1      14.288  51.057  12.065  1.00  0.00    +0.000 H 
ATOM    113  H5  UNL A   1      16.187  49.582  12.461  1.00  0.00    +0.000 H 
ATOM    114  H6  UNL A   1      17.131  50.497  11.279  1.00  0.00    +0.000 H 
ATOM    115  H7  UNL A   1      14.856  48.644  10.822  1.00  0.00    +0.000 H 
ATOM    116  H8  UNL A   1      16.501  48.688  10.098  1.00  0.00    +0.000 H 
ATOM    117  H9  UNL A   1      16.013  50.176   8.769  1.00  0.00    +0.000 H 
BRANCH    2    1
ATOM      1  C1  UNL A   1      15.802  52.260  12.874  1.00  0.00    +0.000 C 
ATOM    109  H1  UNL A   1      15.768  51.731  13.804  1.00  0.00    +0.000 H 
ATOM    110  H2  UNL A   1      15.201  53.142  12.944  1.00  0.00    +0.000 H 
ATOM    111  H3  UNL A   1      16.814  52.532  12.656  1.00  0.00    +0.000 H 
ENDBRANCH    2    1
ENDBRANCH    6    5
BRANCH    6    7
ATOM      7  C6  UNL A   1      15.258  48.807   7.016  1.00  0.00    +0.000 C 
ATOM      8  C7  UNL A   1      16.170  49.780   6.561  1.00  0.00    +0.000 C 
ATOM      9  C8  UNL A   1      16.931  49.560   5.412  1.00  0.00    +0.000 C 
ATOM     10  C9  UNL A   1      16.775  48.376   4.703  1.00  0.00    +0.000 C 
ATOM     11  F1  UNL A   1      17.499  48.171   3.595  1.00  0.00    +0.000 F 
ATOM     12  C10 UNL A   1      15.882  47.401   5.127  1.00  0.00    +0.000 C 
ATOM     13  C11 UNL A   1      15.135  47.608   6.288  1.00  0.00    +0.000 C 
ATOM    119  H11 UNL A   1      16.275  50.664   7.082  1.00  0.00    +0.000 H 
ATOM    120  H12 UNL A   1      17.606  50.272   5.092  1.00  0.00    +0.000 H 
ATOM    121  H13 UNL A   1      15.771  46.528   4.587  1.00  0.00    +0.000 H 
ATOM    122  H14 UNL A   1      14.487  46.875   6.616  1.00  0.00    +0.000 H 
ENDBRANCH    6    7
ENDBRANCH   14    6
BRANCH   96   97
ATOM     97  C72 UNL A   1      12.105  48.220  10.175  1.00  0.00    +0.000 C 
ATOM     98  C73 UNL A   1      12.208  46.831  10.340  1.00  0.00    +0.000 C 
ATOM     99  C74 UNL A   1      12.430  46.273  11.604  1.00  0.00    +0.000 C 
ATOM    161  H53 UNL A   1      12.092  50.054  11.224  1.00  0.00    +0.000 H 
ATOM    100  C75 UNL A   1      12.554  47.092  12.735  1.00  0.00    +0.000 C 
ATOM    101  C76 UNL A   1      12.791  46.484  14.094  1.00  0.00    +0.000 C 
ATOM    102  F17 UNL A   1      11.678  45.879  14.594  1.00  0.00    +0.000 F 
ATOM    103  F18 UNL A   1      13.763  45.529  14.084  1.00  0.00    +0.000 F 
ATOM    105  C77 UNL A   1      12.425  48.479  12.581  1.00  0.00    +0.000 C 
ATOM    106  C78 UNL A   1      12.196  49.032  11.319  1.00  0.00    +0.000 C 
ATOM    104  F19 UNL A   1      13.175  47.392  15.035  1.00  0.00    +0.000 F 
ATOM    158  H50 UNL A   1      12.117  46.213   9.519  1.00  0.00    +0.000 H 
ATOM    159  H51 UNL A   1      12.505  45.249  11.704  1.00  0.00    +0.000 H 
ATOM    160  H52 UNL A   1      12.499  49.096  13.405  1.00  0.00    +0.000 H 
ENDBRANCH   96   97
ENDBRANCH   18   17
BRANCH   18   19
ATOM     19  C17 UNL A   1       7.888  48.521   7.121  1.00  0.00    +0.000 C 
ATOM    126  H18 UNL A   1       8.220  48.083   8.039  1.00  0.00    +0.000 H 
ATOM    127  H19 UNL A   1       8.006  47.815   6.326  1.00  0.00    +0.000 H 
ATOM    128  H20 UNL A   1       6.856  48.791   7.207  1.00  0.00    +0.000 H 
ENDBRANCH   18   19
ENDBRANCH   20   18
ENDBRANCH   22   20
ENDBRANCH   23   22
ENDBRANCH   24   23
ENDBRANCH   25   24
ENDBRANCH   26   25
ENDBRANCH   27   26
ENDBRANCH   28   27
ENDBRANCH   29   28
ENDBRANCH   30   29
ENDBRANCH   32   30
ENDBRANCH   36   35
BRANCH   40   41
ATOM     41  C34 UNL A   1      10.270  59.630  15.482  1.00  0.00    +0.000 C 
ATOM     42  C35 UNL A   1      11.240  59.921  16.453  1.00  0.00    +0.000 C 
ATOM     43  F2  UNL A   1      12.524  59.592  16.246  1.00  0.00    +0.000 F 
ATOM     44  C36 UNL A   1      10.892  60.540  17.651  1.00  0.00    +0.000 C 
ATOM     45  F3  UNL A   1      11.831  60.786  18.575  1.00  0.00    +0.000 F 
ATOM     46  C37 UNL A   1       9.574  60.899  17.890  1.00  0.00    +0.000 C 
ATOM     47  F4  UNL A   1       9.242  61.507  19.037  1.00  0.00    +0.000 F 
ATOM     48  C38 UNL A   1       8.600  60.630  16.940  1.00  0.00    +0.000 C 
ATOM     49  F5  UNL A   1       7.331  60.997  17.159  1.00  0.00    +0.000 F 
ATOM     50  C39 UNL A   1       8.942  59.987  15.753  1.00  0.00    +0.000 C 
ATOM     51  F6  UNL A   1       7.979  59.737  14.853  1.00  0.00    +0.000 F 
ENDBRANCH   40   41
BRANCH   57   58
ATOM     65  C49 UNL A   1      13.614  62.923   7.809  1.00  0.00    +0.000 C 
ATOM     66  F10 UNL A   1      14.827  63.490   7.757  1.00  0.00    +0.000 F 
ATOM     67  C50 UNL A   1      13.386  61.844   8.657  1.00  0.00    +0.000 C 
ATOM     68  F11 UNL A   1      14.396  61.383   9.410  1.00  0.00    +0.000 F 
ATOM     58  C45 UNL A   1      12.122  61.244   8.733  1.00  0.00    +0.000 C 
ATOM     59  C46 UNL A   1      11.092  61.768   7.936  1.00  0.00    +0.000 C 
ATOM     60  F7  UNL A   1       9.867  61.222   7.971  1.00  0.00    +0.000 F 
ATOM     61  C47 UNL A   1      11.328  62.834   7.074  1.00  0.00    +0.000 C 
ATOM     62  F8  UNL A   1      10.341  63.295   6.293  1.00  0.00    +0.000 F 
ATOM     63  C48 UNL A   1      12.589  63.409   7.009  1.00  0.00    +0.000 C 
ATOM     64  F9  UNL A   1      12.817  64.433   6.174  1.00  0.00    +0.000 F 
ENDBRANCH   57   58
BRANCH   72   73
ATOM     73  C54 UNL A   1      12.431  54.423   7.260  1.00  0.00    +0.000 C 
ATOM     74  C55 UNL A   1      13.726  53.987   6.950  1.00  0.00    +0.000 C 
ATOM     75  F12 UNL A   1      14.737  54.233   7.797  1.00  0.00    +0.000 F 
ATOM     76  C56 UNL A   1      13.994  53.321   5.755  1.00  0.00    +0.000 C 
ATOM     77  F13 UNL A   1      15.247  52.946   5.466  1.00  0.00    +0.000 F 
ATOM     78  C57 UNL A   1      12.968  53.061   4.859  1.00  0.00    +0.000 C 
ATOM     79  F14 UNL A   1      13.225  52.420   3.710  1.00  0.00    +0.000 F 
ATOM     80  C58 UNL A   1      11.675  53.466   5.154  1.00  0.00    +0.000 C 
ATOM     81  F15 UNL A   1      10.677  53.200   4.299  1.00  0.00    +0.000 F 
ATOM     82  C59 UNL A   1      11.410  54.148   6.339  1.00  0.00    +0.000 C 
ATOM     83  F16 UNL A   1      10.152  54.532   6.602  1.00  0.00    +0.000 F 
ENDBRANCH   72   73
TORSDOF 22
ENDMDL
MODEL 8
REMARK VINA RESULT:      -6.9     60.670     67.756
ROOT
ATOM    145  H37 UNL A   1      40.219  17.041  55.239  1.00  0.00    +0.000 H 
ATOM    146  H38 UNL A   1      40.672  18.789  53.359  1.00  0.00    +0.000 H 
ATOM    147  H39 UNL A   1      42.101  15.116  52.088  1.00  0.00    +0.000 H 
ATOM    148  H40 UNL A   1      45.255  11.620  47.796  1.00  0.00    +0.000 H 
ATOM    149  H41 UNL A   1      44.727   9.897  49.585  1.00  0.00    +0.000 H 
ATOM    150  H42 UNL A   1      43.369  13.588  50.932  1.00  0.00    +0.000 H 
ATOM    151  H43 UNL A   1      44.150  16.803  47.121  1.00  0.00    +0.000 H 
ATOM    152  H44 UNL A   1      43.054  18.601  48.578  1.00  0.00    +0.000 H 
ATOM    153  H45 UNL A   1      41.109  11.776  55.698  1.00  0.00    +0.000 H 
ATOM    154  H46 UNL A   1      42.548  10.065  54.448  1.00  0.00    +0.000 H 
ATOM     36  C30 UNL A   1      43.400  10.954  51.877  1.00  0.00    +0.000 C 
ATOM     37  C31 UNL A   1      42.683  11.749  52.933  1.00  0.00    +0.000 C 
ATOM     38  N4  UNL A   1      42.298  13.001  52.911  1.00  0.00    +0.000 N 
ATOM     39  C32 UNL A   1      41.614  13.205  54.102  1.00  0.00    +0.000 C 
ATOM     40  C33 UNL A   1      41.061  14.349  54.570  1.00  0.00    +0.000 C 
ATOM     52  C40 UNL A   1      41.123  15.617  53.893  1.00  0.00    +0.000 C 
ATOM     53  C41 UNL A   1      40.669  16.848  54.329  1.00  0.00    +0.000 C 
ATOM     54  C42 UNL A   1      40.924  17.789  53.327  1.00  0.00    +0.000 C 
ATOM     55  C43 UNL A   1      41.571  17.150  52.282  1.00  0.00    +0.000 C 
ATOM     56  N5  UNL A   1      41.684  15.817  52.640  1.00  0.00    +0.000 N 
ATOM     57  C44 UNL A   1      42.047  17.715  51.045  1.00  0.00    +0.000 C 
ATOM     69  C51 UNL A   1      42.697  17.028  50.076  1.00  0.00    +0.000 C 
ATOM     70  N6  UNL A   1      43.051  15.686  50.051  1.00  0.00    +0.000 N 
ATOM     71  C52 UNL A   1      43.662  15.494  48.908  1.00  0.00    +0.000 C 
ATOM     72  C53 UNL A   1      44.264  14.232  48.361  1.00  0.00    +0.000 C 
ATOM     84  C60 UNL A   1      44.245  13.109  49.105  1.00  0.00    +0.000 C 
ATOM     85  C61 UNL A   1      44.764  11.810  48.682  1.00  0.00    +0.000 C 
ATOM     86  C62 UNL A   1      44.498  10.903  49.636  1.00  0.00    +0.000 C 
ATOM     87  C63 UNL A   1      43.832  11.565  50.757  1.00  0.00    +0.000 C 
ATOM     88  N7  UNL A   1      43.748  12.879  50.364  1.00  0.00    +0.000 N 
ATOM     89  C64 UNL A   1      43.745  16.696  48.065  1.00  0.00    +0.000 C 
ATOM     90  C65 UNL A   1      43.162  17.607  48.833  1.00  0.00    +0.000 C 
ATOM     91  C66 UNL A   1      41.605  11.943  54.808  1.00  0.00    +0.000 C 
ATOM     92  C67 UNL A   1      42.315  11.029  54.163  1.00  0.00    +0.000 C 
ENDROOT
BRANCH   36   35
ATOM     33  C27 UNL A   1      44.735   7.449  52.555  1.00  0.00    +0.000 C 
ATOM     34  C28 UNL A   1      44.636   8.847  52.553  1.00  0.00    +0.000 C 
ATOM     35  C29 UNL A   1      43.508   9.476  52.004  1.00  0.00    +0.000 C 
ATOM    143  H35 UNL A   1      45.576   6.991  52.937  1.00  0.00    +0.000 H 
ATOM    144  H36 UNL A   1      45.397   9.415  52.957  1.00  0.00    +0.000 H 
ATOM    155  H47 UNL A   1      41.605   9.137  51.151  1.00  0.00    +0.000 H 
ATOM    156  H48 UNL A   1      41.707   6.725  51.324  1.00  0.00    +0.000 H 
ATOM     93  C68 UNL A   1      42.447   8.685  51.541  1.00  0.00    +0.000 C 
ATOM     94  C69 UNL A   1      42.519   7.297  51.602  1.00  0.00    +0.000 C 
ATOM     32  C26 UNL A   1      43.690   6.680  52.039  1.00  0.00    +0.000 C 
BRANCH   32   30
ATOM     30  C25 UNL A   1      43.818   5.206  51.981  1.00  0.00    +0.000 C 
ATOM     31  O2  UNL A   1      42.992   4.546  51.376  1.00  0.00    +0.000 O 
BRANCH   30   29
ATOM     29  N3  UNL A   1      44.884   4.592  52.608  1.00  0.00    +0.000 N 
ATOM    142  H34 UNL A   1      44.885   4.646  53.591  1.00  0.00    +0.000 H 
BRANCH   29   28
ATOM    141  H33 UNL A   1      45.714   3.548  51.044  1.00  0.00    +0.000 H 
ATOM     28  C24 UNL A   1      46.007   3.878  52.018  1.00  0.00    +0.000 C 
ATOM    140  H32 UNL A   1      46.259   3.050  52.647  1.00  0.00    +0.000 H 
BRANCH   28   27
ATOM    138  H30 UNL A   1      47.261   5.134  50.858  1.00  0.00    +0.000 H 
ATOM     27  C23 UNL A   1      47.237   4.773  51.865  1.00  0.00    +0.000 C 
ATOM    139  H31 UNL A   1      47.134   5.551  52.591  1.00  0.00    +0.000 H 
BRANCH   27   26
ATOM    137  H29 UNL A   1      48.961   3.786  51.203  1.00  0.00    +0.000 H 
ATOM     26  C22 UNL A   1      48.575   4.084  52.156  1.00  0.00    +0.000 C 
ATOM    136  H28 UNL A   1      48.386   3.270  52.824  1.00  0.00    +0.000 H 
BRANCH   26   25
ATOM     25  C21 UNL A   1      49.660   4.968  52.786  1.00  0.00    +0.000 C 
ATOM    134  H26 UNL A   1      49.183   5.834  53.198  1.00  0.00    +0.000 H 
ATOM    135  H27 UNL A   1      50.150   4.359  53.517  1.00  0.00    +0.000 H 
BRANCH   25   24
ATOM    132  H24 UNL A   1      51.703   5.155  52.234  1.00  0.00    +0.000 H 
ATOM    133  H25 UNL A   1      50.549   4.988  50.882  1.00  0.00    +0.000 H 
ATOM     24  C20 UNL A   1      50.756   5.443  51.828  1.00  0.00    +0.000 C 
BRANCH   24   23
ATOM    130  H22 UNL A   1      50.949   7.454  52.519  1.00  0.00    +0.000 H 
ATOM    131  H23 UNL A   1      51.560   7.170  50.887  1.00  0.00    +0.000 H 
ATOM     23  C19 UNL A   1      50.779   6.959  51.586  1.00  0.00    +0.000 C 
BRANCH   23   22
ATOM    129  H21 UNL A   1      49.372   7.133  50.099  1.00  0.00    +0.000 H 
ATOM     22  N2  UNL A   1      49.532   7.439  51.021  1.00  0.00    +0.000 N 
BRANCH   22   20
ATOM     20  C18 UNL A   1      48.538   8.229  51.514  1.00  0.00    +0.000 C 
ATOM     21  O1  UNL A   1      48.467   8.299  52.749  1.00  0.00    +0.000 O 
BRANCH   20   18
ATOM     18  C16 UNL A   1      47.527   9.008  50.652  1.00  0.00    +0.000 C 
ATOM    125  H17 UNL A   1      46.684   9.172  51.290  1.00  0.00    +0.000 H 
BRANCH   18   17
ATOM     14  C12 UNL A   1      49.191  12.972  49.823  1.00  0.00    +0.000 C 
ATOM     15  C13 UNL A   1      49.429  11.863  48.992  1.00  0.00    +0.000 C 
ATOM     16  C14 UNL A   1      48.802  10.635  49.178  1.00  0.00    +0.000 C 
ATOM     17  C15 UNL A   1      48.006  10.402  50.286  1.00  0.00    +0.000 C 
ATOM    123  H15 UNL A   1      50.096  11.965  48.211  1.00  0.00    +0.000 H 
ATOM    124  H16 UNL A   1      48.932   9.887  48.479  1.00  0.00    +0.000 H 
ATOM    157  H49 UNL A   1      47.047  11.375  51.886  1.00  0.00    +0.000 H 
ATOM     95  C70 UNL A   1      47.684  11.509  51.084  1.00  0.00    +0.000 C 
ATOM     96  C71 UNL A   1      48.200  12.806  50.830  1.00  0.00    +0.000 C 
BRANCH   14    6
ATOM    118  H10 UNL A   1      49.110  14.990  49.647  1.00  0.00    +0.000 H 
ATOM      6  C5  UNL A   1      49.942  14.319  49.604  1.00  0.00    +0.000 C 
BRANCH    6    5
ATOM      2  C2  UNL A   1      52.542  15.953  46.615  1.00  0.00    +0.000 C 
ATOM      3  C3  UNL A   1      52.730  14.470  46.921  1.00  0.00    +0.000 C 
ATOM      4  C4  UNL A   1      51.925  14.021  48.145  1.00  0.00    +0.000 C 
ATOM    164  H56 UNL A   1      50.700  15.570  45.615  1.00  0.00    +0.000 H 
ATOM    165  H57 UNL A   1      50.900  17.225  46.154  1.00  0.00    +0.000 H 
ATOM    162  H54 UNL A   1      50.526  16.625  48.412  1.00  0.00    +0.000 H 
ATOM    163  H55 UNL A   1      49.250  15.866  47.415  1.00  0.00    +0.000 H 
ATOM      5  N1  UNL A   1      50.572  14.567  48.266  1.00  0.00    +0.000 N 
ATOM    107  C79 UNL A   1      50.285  15.879  47.684  1.00  0.00    +0.000 C 
ATOM    108  C80 UNL A   1      51.054  16.197  46.407  1.00  0.00    +0.000 C 
ATOM    112  H4  UNL A   1      52.907  16.542  47.430  1.00  0.00    +0.000 H 
ATOM    113  H5  UNL A   1      53.767  14.285  47.104  1.00  0.00    +0.000 H 
ATOM    114  H6  UNL A   1      52.378  13.914  46.076  1.00  0.00    +0.000 H 
ATOM    115  H7  UNL A   1      52.473  14.309  49.018  1.00  0.00    +0.000 H 
ATOM    116  H8  UNL A   1      51.798  12.965  48.032  1.00  0.00    +0.000 H 
ATOM    117  H9  UNL A   1      50.069  13.985  47.598  1.00  0.00    +0.000 H 
BRANCH    2    1
ATOM      1  C1  UNL A   1      53.333  16.370  45.385  1.00  0.00    +0.000 C 
ATOM    109  H1  UNL A   1      54.204  16.912  45.689  1.00  0.00    +0.000 H 
ATOM    110  H2  UNL A   1      52.724  16.992  44.763  1.00  0.00    +0.000 H 
ATOM    111  H3  UNL A   1      53.629  15.499  44.839  1.00  0.00    +0.000 H 
ENDBRANCH    2    1
ENDBRANCH    6    5
BRANCH    6    7
ATOM      7  C6  UNL A   1      50.956  14.657  50.717  1.00  0.00    +0.000 C 
ATOM      8  C7  UNL A   1      51.725  13.663  51.354  1.00  0.00    +0.000 C 
ATOM      9  C8  UNL A   1      52.643  14.003  52.350  1.00  0.00    +0.000 C 
ATOM     10  C9  UNL A   1      52.786  15.332  52.725  1.00  0.00    +0.000 C 
ATOM     11  F1  UNL A   1      53.660  15.654  53.688  1.00  0.00    +0.000 F 
ATOM     12  C10 UNL A   1      52.039  16.332  52.116  1.00  0.00    +0.000 C 
ATOM     13  C11 UNL A   1      51.137  15.999  51.105  1.00  0.00    +0.000 C 
ATOM    119  H11 UNL A   1      51.608  12.675  51.083  1.00  0.00    +0.000 H 
ATOM    120  H12 UNL A   1      53.212  13.270  52.802  1.00  0.00    +0.000 H 
ATOM    121  H13 UNL A   1      52.152  17.315  52.410  1.00  0.00    +0.000 H 
ATOM    122  H14 UNL A   1      50.597  16.743  50.637  1.00  0.00    +0.000 H 
ENDBRANCH    6    7
ENDBRANCH   14    6
BRANCH   96   97
ATOM     97  C72 UNL A   1      47.627  13.927  51.600  1.00  0.00    +0.000 C 
ATOM     98  C73 UNL A   1      46.681  14.798  51.039  1.00  0.00    +0.000 C 
ATOM     99  C74 UNL A   1      46.152  15.859  51.781  1.00  0.00    +0.000 C 
ATOM    161  H53 UNL A   1      48.770  13.563  53.339  1.00  0.00    +0.000 H 
ATOM    100  C75 UNL A   1      46.557  16.076  53.106  1.00  0.00    +0.000 C 
ATOM    101  C76 UNL A   1      45.983  17.223  53.899  1.00  0.00    +0.000 C 
ATOM    102  F17 UNL A   1      46.475  18.428  53.500  1.00  0.00    +0.000 F 
ATOM    103  F18 UNL A   1      44.628  17.317  53.791  1.00  0.00    +0.000 F 
ATOM    105  C77 UNL A   1      47.520  15.227  53.664  1.00  0.00    +0.000 C 
ATOM    106  C78 UNL A   1      48.053  14.173  52.917  1.00  0.00    +0.000 C 
ATOM    104  F19 UNL A   1      46.240  17.140  55.235  1.00  0.00    +0.000 F 
ATOM    158  H50 UNL A   1      46.373  14.654  50.065  1.00  0.00    +0.000 H 
ATOM    159  H51 UNL A   1      45.455  16.487  51.351  1.00  0.00    +0.000 H 
ATOM    160  H52 UNL A   1      47.841  15.381  54.634  1.00  0.00    +0.000 H 
ENDBRANCH   96   97
ENDBRANCH   18   17
BRANCH   18   19
ATOM     19  C17 UNL A   1      46.915   8.209  49.503  1.00  0.00    +0.000 C 
ATOM    126  H18 UNL A   1      47.623   7.485  49.156  1.00  0.00    +0.000 H 
ATOM    127  H19 UNL A   1      46.661   8.872  48.702  1.00  0.00    +0.000 H 
ATOM    128  H20 UNL A   1      46.033   7.710  49.846  1.00  0.00    +0.000 H 
ENDBRANCH   18   19
ENDBRANCH   20   18
ENDBRANCH   22   20
ENDBRANCH   23   22
ENDBRANCH   24   23
ENDBRANCH   25   24
ENDBRANCH   26   25
ENDBRANCH   27   26
ENDBRANCH   28   27
ENDBRANCH   29   28
ENDBRANCH   30   29
ENDBRANCH   32   30
ENDBRANCH   36   35
BRANCH   40   41
ATOM     41  C34 UNL A   1      40.347  14.293  55.888  1.00  0.00    +0.000 C 
ATOM     42  C35 UNL A   1      38.954  14.127  55.934  1.00  0.00    +0.000 C 
ATOM     43  F2  UNL A   1      38.253  13.966  54.802  1.00  0.00    +0.000 F 
ATOM     44  C36 UNL A   1      38.271  14.139  57.148  1.00  0.00    +0.000 C 
ATOM     45  F3  UNL A   1      36.938  14.003  57.167  1.00  0.00    +0.000 F 
ATOM     46  C37 UNL A   1      38.969  14.294  58.336  1.00  0.00    +0.000 C 
ATOM     47  F4  UNL A   1      38.313  14.292  59.505  1.00  0.00    +0.000 F 
ATOM     48  C38 UNL A   1      40.347  14.449  58.314  1.00  0.00    +0.000 C 
ATOM     49  F5  UNL A   1      41.025  14.577  59.462  1.00  0.00    +0.000 F 
ATOM     50  C39 UNL A   1      41.028  14.465  57.100  1.00  0.00    +0.000 C 
ATOM     51  F6  UNL A   1      42.361  14.620  57.109  1.00  0.00    +0.000 F 
ENDBRANCH   40   41
BRANCH   57   58
ATOM     65  C49 UNL A   1      40.345  21.014  50.210  1.00  0.00    +0.000 C 
ATOM     66  F10 UNL A   1      39.189  21.446  49.689  1.00  0.00    +0.000 F 
ATOM     67  C50 UNL A   1      40.602  19.649  50.296  1.00  0.00    +0.000 C 
ATOM     68  F11 UNL A   1      39.676  18.783  49.857  1.00  0.00    +0.000 F 
ATOM     58  C45 UNL A   1      41.809  19.177  50.829  1.00  0.00    +0.000 C 
ATOM     59  C46 UNL A   1      42.753  20.120  51.264  1.00  0.00    +0.000 C 
ATOM     60  F7  UNL A   1      43.921  19.715  51.787  1.00  0.00    +0.000 F 
ATOM     61  C47 UNL A   1      42.485  21.483  51.196  1.00  0.00    +0.000 C 
ATOM     62  F8  UNL A   1      43.384  22.367  51.653  1.00  0.00    +0.000 F 
ATOM     63  C48 UNL A   1      41.281  21.930  50.671  1.00  0.00    +0.000 C 
ATOM     64  F9  UNL A   1      41.021  23.243  50.611  1.00  0.00    +0.000 F 
ENDBRANCH   57   58
BRANCH   72   73
ATOM     73  C54 UNL A   1      44.912  14.208  47.026  1.00  0.00    +0.000 C 
ATOM     74  C55 UNL A   1      46.261  14.551  46.858  1.00  0.00    +0.000 C 
ATOM     75  F12 UNL A   1      47.010  14.871  47.924  1.00  0.00    +0.000 F 
ATOM     76  C56 UNL A   1      46.838  14.595  45.590  1.00  0.00    +0.000 C 
ATOM     77  F13 UNL A   1      48.120  14.961  45.452  1.00  0.00    +0.000 F 
ATOM     78  C57 UNL A   1      46.084  14.277  44.471  1.00  0.00    +0.000 C 
ATOM     79  F14 UNL A   1      46.639  14.319  43.251  1.00  0.00    +0.000 F 
ATOM     80  C58 UNL A   1      44.753  13.915  44.615  1.00  0.00    +0.000 C 
ATOM     81  F15 UNL A   1      44.025  13.589  43.538  1.00  0.00    +0.000 F 
ATOM     82  C59 UNL A   1      44.170  13.889  45.880  1.00  0.00    +0.000 C 
ATOM     83  F16 UNL A   1      42.880  13.538  45.996  1.00  0.00    +0.000 F 
ENDBRANCH   72   73
TORSDOF 22
ENDMDL
MODEL 9
REMARK VINA RESULT:      -6.9     14.919     22.717
ROOT
ATOM    145  H37 UNL A   1      22.553  66.763   5.668  1.00  0.00    +0.000 H 
ATOM    146  H38 UNL A   1      24.834  67.937   6.130  1.00  0.00    +0.000 H 
ATOM    147  H39 UNL A   1      25.415  65.075   3.192  1.00  0.00    +0.000 H 
ATOM    148  H40 UNL A   1      29.344  61.819  -0.622  1.00  0.00    +0.000 H 
ATOM    149  H41 UNL A   1      27.103  60.743  -1.141  1.00  0.00    +0.000 H 
ATOM    150  H42 UNL A   1      26.505  63.539   1.877  1.00  0.00    +0.000 H 
ATOM    151  H43 UNL A   1      30.954  65.834   2.512  1.00  0.00    +0.000 H 
ATOM    152  H44 UNL A   1      29.802  67.310   4.259  1.00  0.00    +0.000 H 
ATOM    153  H45 UNL A   1      20.975  62.926   2.276  1.00  0.00    +0.000 H 
ATOM    154  H46 UNL A   1      22.170  61.179   0.833  1.00  0.00    +0.000 H 
ATOM     36  C30 UNL A   1      24.933  61.742   0.416  1.00  0.00    +0.000 C 
ATOM     37  C31 UNL A   1      23.976  62.460   1.328  1.00  0.00    +0.000 C 
ATOM     38  N4  UNL A   1      24.192  63.481   2.118  1.00  0.00    +0.000 N 
ATOM     39  C32 UNL A   1      22.958  63.798   2.670  1.00  0.00    +0.000 C 
ATOM     40  C33 UNL A   1      22.663  64.753   3.584  1.00  0.00    +0.000 C 
ATOM     52  C40 UNL A   1      23.636  65.620   4.194  1.00  0.00    +0.000 C 
ATOM     53  C41 UNL A   1      23.446  66.557   5.193  1.00  0.00    +0.000 C 
ATOM     54  C42 UNL A   1      24.672  67.177   5.450  1.00  0.00    +0.000 C 
ATOM     55  C43 UNL A   1      25.633  66.599   4.637  1.00  0.00    +0.000 C 
ATOM     56  N5  UNL A   1      24.983  65.647   3.868  1.00  0.00    +0.000 N 
ATOM     57  C44 UNL A   1      27.041  66.897   4.565  1.00  0.00    +0.000 C 
ATOM     69  C51 UNL A   1      27.928  66.269   3.757  1.00  0.00    +0.000 C 
ATOM     70  N6  UNL A   1      27.704  65.232   2.862  1.00  0.00    +0.000 N 
ATOM     71  C52 UNL A   1      28.867  64.966   2.320  1.00  0.00    +0.000 C 
ATOM     72  C53 UNL A   1      29.212  63.928   1.291  1.00  0.00    +0.000 C 
ATOM     84  C60 UNL A   1      28.255  63.093   0.842  1.00  0.00    +0.000 C 
ATOM     85  C61 UNL A   1      28.446  62.062  -0.177  1.00  0.00    +0.000 C 
ATOM     86  C62 UNL A   1      27.264  61.484  -0.440  1.00  0.00    +0.000 C 
ATOM     87  C63 UNL A   1      26.240  62.069   0.426  1.00  0.00    +0.000 C 
ATOM     88  N7  UNL A   1      26.926  62.996   1.172  1.00  0.00    +0.000 N 
ATOM     89  C64 UNL A   1      29.962  65.825   2.797  1.00  0.00    +0.000 C 
ATOM     90  C65 UNL A   1      29.339  66.585   3.688  1.00  0.00    +0.000 C 
ATOM     91  C66 UNL A   1      21.991  62.886   2.099  1.00  0.00    +0.000 C 
ATOM     92  C67 UNL A   1      22.582  61.991   1.320  1.00  0.00    +0.000 C 
ENDROOT
BRANCH   36   35
ATOM     33  C27 UNL A   1      23.331  60.240  -2.699  1.00  0.00    +0.000 C 
ATOM     34  C28 UNL A   1      23.899  61.180  -1.830  1.00  0.00    +0.000 C 
ATOM     35  C29 UNL A   1      24.418  60.775  -0.589  1.00  0.00    +0.000 C 
ATOM    143  H35 UNL A   1      22.928  60.545  -3.599  1.00  0.00    +0.000 H 
ATOM    144  H36 UNL A   1      23.936  62.175  -2.102  1.00  0.00    +0.000 H 
ATOM    155  H47 UNL A   1      24.835  59.096   0.625  1.00  0.00    +0.000 H 
ATOM    156  H48 UNL A   1      24.016  57.462  -0.961  1.00  0.00    +0.000 H 
ATOM     93  C68 UNL A   1      24.439  59.408  -0.276  1.00  0.00    +0.000 C 
ATOM     94  C69 UNL A   1      23.933  58.469  -1.169  1.00  0.00    +0.000 C 
ATOM     32  C26 UNL A   1      23.312  58.890  -2.344  1.00  0.00    +0.000 C 
BRANCH   32   30
ATOM     30  C25 UNL A   1      22.657  57.902  -3.231  1.00  0.00    +0.000 C 
ATOM     31  O2  UNL A   1      21.508  58.077  -3.595  1.00  0.00    +0.000 O 
BRANCH   30   29
ATOM     29  N3  UNL A   1      23.363  56.791  -3.647  1.00  0.00    +0.000 N 
ATOM    142  H34 UNL A   1      23.019  55.926  -3.328  1.00  0.00    +0.000 H 
BRANCH   29   28
ATOM    141  H33 UNL A   1      24.805  55.690  -4.614  1.00  0.00    +0.000 H 
ATOM     28  C24 UNL A   1      24.547  56.721  -4.493  1.00  0.00    +0.000 C 
ATOM    140  H32 UNL A   1      25.338  57.266  -4.025  1.00  0.00    +0.000 H 
BRANCH   28   27
ATOM    138  H30 UNL A   1      24.550  56.569  -6.608  1.00  0.00    +0.000 H 
ATOM     27  C23 UNL A   1      24.293  57.310  -5.880  1.00  0.00    +0.000 C 
ATOM    139  H31 UNL A   1      23.260  57.588  -5.905  1.00  0.00    +0.000 H 
BRANCH   27   26
ATOM    137  H29 UNL A   1      26.070  58.250  -6.466  1.00  0.00    +0.000 H 
ATOM     26  C22 UNL A   1      25.089  58.582  -6.194  1.00  0.00    +0.000 C 
ATOM    136  H28 UNL A   1      25.066  59.207  -5.326  1.00  0.00    +0.000 H 
BRANCH   26   25
ATOM     25  C21 UNL A   1      24.587  59.410  -7.384  1.00  0.00    +0.000 C 
ATOM    134  H26 UNL A   1      23.662  59.869  -7.101  1.00  0.00    +0.000 H 
ATOM    135  H27 UNL A   1      25.364  60.111  -7.607  1.00  0.00    +0.000 H 
BRANCH   25   24
ATOM    132  H24 UNL A   1      25.286  58.243  -9.016  1.00  0.00    +0.000 H 
ATOM    133  H25 UNL A   1      23.646  57.850  -8.434  1.00  0.00    +0.000 H 
ATOM     24  C20 UNL A   1      24.346  58.622  -8.676  1.00  0.00    +0.000 C 
BRANCH   24   23
ATOM    130  H22 UNL A   1      23.839  58.902 -10.731  1.00  0.00    +0.000 H 
ATOM    131  H23 UNL A   1      22.684  59.586  -9.584  1.00  0.00    +0.000 H 
ATOM     23  C19 UNL A   1      23.719  59.439  -9.814  1.00  0.00    +0.000 C 
BRANCH   23   22
ATOM    129  H21 UNL A   1      24.280  61.295  -9.137  1.00  0.00    +0.000 H 
ATOM     22  N2  UNL A   1      24.336  60.745  -9.951  1.00  0.00    +0.000 N 
BRANCH   22   20
ATOM     20  C18 UNL A   1      24.977  61.359 -10.984  1.00  0.00    +0.000 C 
ATOM     21  O1  UNL A   1      24.251  61.957 -11.790  1.00  0.00    +0.000 O 
BRANCH   20   18
ATOM     18  C16 UNL A   1      26.502  61.348 -11.202  1.00  0.00    +0.000 C 
ATOM    125  H17 UNL A   1      26.827  62.335 -10.949  1.00  0.00    +0.000 H 
BRANCH   18   17
ATOM     14  C12 UNL A   1      28.293  58.664  -8.242  1.00  0.00    +0.000 C 
ATOM     15  C13 UNL A   1      27.969  58.245  -9.544  1.00  0.00    +0.000 C 
ATOM     16  C14 UNL A   1      27.519  59.122 -10.527  1.00  0.00    +0.000 C 
ATOM     17  C15 UNL A   1      27.235  60.443 -10.227  1.00  0.00    +0.000 C 
ATOM    123  H15 UNL A   1      28.069  57.245  -9.782  1.00  0.00    +0.000 H 
ATOM    124  H16 UNL A   1      27.396  58.782 -11.493  1.00  0.00    +0.000 H 
ATOM    157  H49 UNL A   1      27.478  61.903  -8.733  1.00  0.00    +0.000 H 
ATOM     95  C70 UNL A   1      27.627  60.908  -8.964  1.00  0.00    +0.000 C 
ATOM     96  C71 UNL A   1      28.220  60.062  -7.991  1.00  0.00    +0.000 C 
BRANCH   14    6
ATOM    118  H10 UNL A   1      28.636  58.251  -6.287  1.00  0.00    +0.000 H 
ATOM      6  C5  UNL A   1      28.757  57.644  -7.160  1.00  0.00    +0.000 C 
BRANCH    6    5
ATOM      2  C2  UNL A   1      32.914  57.500  -8.189  1.00  0.00    +0.000 C 
ATOM      3  C3  UNL A   1      32.594  58.014  -6.788  1.00  0.00    +0.000 C 
ATOM      4  C4  UNL A   1      31.093  58.244  -6.582  1.00  0.00    +0.000 C 
ATOM    164  H56 UNL A   1      32.399  55.509  -7.636  1.00  0.00    +0.000 H 
ATOM    165  H57 UNL A   1      32.370  55.811  -9.362  1.00  0.00    +0.000 H 
ATOM    162  H54 UNL A   1      30.360  57.049  -9.198  1.00  0.00    +0.000 H 
ATOM    163  H55 UNL A   1      30.158  55.532  -8.273  1.00  0.00    +0.000 H 
ATOM      5  N1  UNL A   1      30.198  57.233  -7.149  1.00  0.00    +0.000 N 
ATOM    107  C79 UNL A   1      30.635  56.487  -8.330  1.00  0.00    +0.000 C 
ATOM    108  C80 UNL A   1      32.133  56.211  -8.398  1.00  0.00    +0.000 C 
ATOM    112  H4  UNL A   1      32.632  58.231  -8.918  1.00  0.00    +0.000 H 
ATOM    113  H5  UNL A   1      33.108  58.940  -6.635  1.00  0.00    +0.000 H 
ATOM    114  H6  UNL A   1      32.910  57.271  -6.086  1.00  0.00    +0.000 H 
ATOM    115  H7  UNL A   1      30.844  59.186  -7.025  1.00  0.00    +0.000 H 
ATOM    116  H8  UNL A   1      30.939  58.200  -5.524  1.00  0.00    +0.000 H 
ATOM    117  H9  UNL A   1      30.282  56.491  -6.455  1.00  0.00    +0.000 H 
BRANCH    2    1
ATOM      1  C1  UNL A   1      34.406  57.261  -8.363  1.00  0.00    +0.000 C 
ATOM    109  H1  UNL A   1      34.868  57.179  -7.402  1.00  0.00    +0.000 H 
ATOM    110  H2  UNL A   1      34.838  58.080  -8.898  1.00  0.00    +0.000 H 
ATOM    111  H3  UNL A   1      34.560  56.354  -8.911  1.00  0.00    +0.000 H 
ENDBRANCH    2    1
ENDBRANCH    6    5
BRANCH    6    7
ATOM      7  C6  UNL A   1      27.866  56.389  -7.061  1.00  0.00    +0.000 C 
ATOM      8  C7  UNL A   1      27.003  56.001  -8.106  1.00  0.00    +0.000 C 
ATOM      9  C8  UNL A   1      26.218  54.852  -7.991  1.00  0.00    +0.000 C 
ATOM     10  C9  UNL A   1      26.278  54.095  -6.829  1.00  0.00    +0.000 C 
ATOM     11  F1  UNL A   1      25.515  52.999  -6.717  1.00  0.00    +0.000 F 
ATOM     12  C10 UNL A   1      27.116  54.455  -5.783  1.00  0.00    +0.000 C 
ATOM     13  C11 UNL A   1      27.920  55.590  -5.903  1.00  0.00    +0.000 C 
ATOM    119  H11 UNL A   1      26.951  56.572  -8.963  1.00  0.00    +0.000 H 
ATOM    120  H12 UNL A   1      25.598  54.569  -8.766  1.00  0.00    +0.000 H 
ATOM    121  H13 UNL A   1      27.146  53.885  -4.922  1.00  0.00    +0.000 H 
ATOM    122  H14 UNL A   1      28.559  55.846  -5.135  1.00  0.00    +0.000 H 
ENDBRANCH    6    7
ENDBRANCH   14    6
BRANCH   96   97
ATOM     97  C72 UNL A   1      28.783  60.703  -6.787  1.00  0.00    +0.000 C 
ATOM     98  C73 UNL A   1      28.273  60.442  -5.507  1.00  0.00    +0.000 C 
ATOM     99  C74 UNL A   1      28.816  61.062  -4.377  1.00  0.00    +0.000 C 
ATOM    161  H53 UNL A   1      30.203  61.862  -7.839  1.00  0.00    +0.000 H 
ATOM    100  C75 UNL A   1      29.884  61.962  -4.499  1.00  0.00    +0.000 C 
ATOM    101  C76 UNL A   1      30.463  62.628  -3.276  1.00  0.00    +0.000 C 
ATOM    102  F17 UNL A   1      29.645  63.594  -2.774  1.00  0.00    +0.000 F 
ATOM    103  F18 UNL A   1      30.685  61.756  -2.253  1.00  0.00    +0.000 F 
ATOM    105  C77 UNL A   1      30.382  62.247  -5.777  1.00  0.00    +0.000 C 
ATOM    106  C78 UNL A   1      29.832  61.632  -6.904  1.00  0.00    +0.000 C 
ATOM    104  F19 UNL A   1      31.660  63.238  -3.507  1.00  0.00    +0.000 F 
ATOM    158  H50 UNL A   1      27.485  59.784  -5.398  1.00  0.00    +0.000 H 
ATOM    159  H51 UNL A   1      28.427  60.855  -3.443  1.00  0.00    +0.000 H 
ATOM    160  H52 UNL A   1      31.159  62.918  -5.887  1.00  0.00    +0.000 H 
ENDBRANCH   96   97
ENDBRANCH   18   17
BRANCH   18   19
ATOM     19  C17 UNL A   1      26.939  61.223 -12.660  1.00  0.00    +0.000 C 
ATOM    126  H18 UNL A   1      27.412  60.275 -12.811  1.00  0.00    +0.000 H 
ATOM    127  H19 UNL A   1      27.629  62.007 -12.894  1.00  0.00    +0.000 H 
ATOM    128  H20 UNL A   1      26.083  61.300 -13.296  1.00  0.00    +0.000 H 
ENDBRANCH   18   19
ENDBRANCH   20   18
ENDBRANCH   22   20
ENDBRANCH   23   22
ENDBRANCH   24   23
ENDBRANCH   25   24
ENDBRANCH   26   25
ENDBRANCH   27   26
ENDBRANCH   28   27
ENDBRANCH   29   28
ENDBRANCH   30   29
ENDBRANCH   32   30
ENDBRANCH   36   35
BRANCH   40   41
ATOM     41  C34 UNL A   1      21.230  64.908   3.996  1.00  0.00    +0.000 C 
ATOM     42  C35 UNL A   1      20.343  65.662   3.213  1.00  0.00    +0.000 C 
ATOM     43  F2  UNL A   1      20.756  66.211   2.061  1.00  0.00    +0.000 F 
ATOM     44  C36 UNL A   1      19.026  65.868   3.619  1.00  0.00    +0.000 C 
ATOM     45  F3  UNL A   1      18.203  66.613   2.868  1.00  0.00    +0.000 F 
ATOM     46  C37 UNL A   1      18.567  65.307   4.801  1.00  0.00    +0.000 C 
ATOM     47  F4  UNL A   1      17.297  65.494   5.184  1.00  0.00    +0.000 F 
ATOM     48  C38 UNL A   1      19.424  64.549   5.586  1.00  0.00    +0.000 C 
ATOM     49  F5  UNL A   1      18.977  63.987   6.716  1.00  0.00    +0.000 F 
ATOM     50  C39 UNL A   1      20.748  64.364   5.195  1.00  0.00    +0.000 C 
ATOM     51  F6  UNL A   1      21.555  63.629   5.975  1.00  0.00    +0.000 F 
ENDBRANCH   40   41
BRANCH   57   58
ATOM     65  C49 UNL A   1      28.453  68.709   7.598  1.00  0.00    +0.000 C 
ATOM     66  F10 UNL A   1      28.736  68.451   8.882  1.00  0.00    +0.000 F 
ATOM     67  C50 UNL A   1      27.866  67.728   6.805  1.00  0.00    +0.000 C 
ATOM     68  F11 UNL A   1      27.597  66.529   7.345  1.00  0.00    +0.000 F 
ATOM     58  C45 UNL A   1      27.554  67.980   5.462  1.00  0.00    +0.000 C 
ATOM     59  C46 UNL A   1      27.842  69.252   4.945  1.00  0.00    +0.000 C 
ATOM     60  F7  UNL A   1      27.566  69.538   3.663  1.00  0.00    +0.000 F 
ATOM     61  C47 UNL A   1      28.448  70.225   5.734  1.00  0.00    +0.000 C 
ATOM     62  F8  UNL A   1      28.750  71.420   5.209  1.00  0.00    +0.000 F 
ATOM     63  C48 UNL A   1      28.755  69.952   7.059  1.00  0.00    +0.000 C 
ATOM     64  F9  UNL A   1      29.344  70.887   7.817  1.00  0.00    +0.000 F 
ENDBRANCH   57   58
BRANCH   72   73
ATOM     73  C54 UNL A   1      30.600  63.783   0.784  1.00  0.00    +0.000 C 
ATOM     74  C55 UNL A   1      31.475  62.820   1.305  1.00  0.00    +0.000 C 
ATOM     75  F12 UNL A   1      31.052  61.973   2.256  1.00  0.00    +0.000 F 
ATOM     76  C56 UNL A   1      32.798  62.742   0.872  1.00  0.00    +0.000 C 
ATOM     77  F13 UNL A   1      33.625  61.836   1.411  1.00  0.00    +0.000 F 
ATOM     78  C57 UNL A   1      33.262  63.610  -0.105  1.00  0.00    +0.000 C 
ATOM     79  F14 UNL A   1      34.533  63.535  -0.522  1.00  0.00    +0.000 F 
ATOM     80  C58 UNL A   1      32.407  64.558  -0.649  1.00  0.00    +0.000 C 
ATOM     81  F15 UNL A   1      32.847  65.387  -1.606  1.00  0.00    +0.000 F 
ATOM     82  C59 UNL A   1      31.091  64.649  -0.203  1.00  0.00    +0.000 C 
ATOM     83  F16 UNL A   1      30.283  65.574  -0.742  1.00  0.00    +0.000 F 
ENDBRANCH   72   73
TORSDOF 22
ENDMDL
MODEL 10
REMARK VINA RESULT:      -6.9      1.600      2.623
ROOT
ATOM    145  H37 UNL A   1      18.296  53.473  -0.548  1.00  0.00    +0.000 H 
ATOM    146  H38 UNL A   1      17.846  51.029  -1.338  1.00  0.00    +0.000 H 
ATOM    147  H39 UNL A   1      15.672  51.698   2.124  1.00  0.00    +0.000 H 
ATOM    148  H40 UNL A   1      11.918  49.501   6.778  1.00  0.00    +0.000 H 
ATOM    149  H41 UNL A   1      12.279  51.911   7.494  1.00  0.00    +0.000 H 
ATOM    150  H42 UNL A   1      14.550  51.243   4.076  1.00  0.00    +0.000 H 
ATOM    151  H43 UNL A   1      13.422  46.556   2.584  1.00  0.00    +0.000 H 
ATOM    152  H44 UNL A   1      14.979  46.950   0.589  1.00  0.00    +0.000 H 
ATOM    153  H45 UNL A   1      16.498  56.441   3.535  1.00  0.00    +0.000 H 
ATOM    154  H46 UNL A   1      15.282  55.950   5.736  1.00  0.00    +0.000 H 
ATOM     36  C30 UNL A   1      14.041  53.385   5.804  1.00  0.00    +0.000 C 
ATOM     37  C31 UNL A   1      14.958  53.934   4.746  1.00  0.00    +0.000 C 
ATOM     38  N4  UNL A   1      15.384  53.370   3.644  1.00  0.00    +0.000 N 
ATOM     39  C32 UNL A   1      16.137  54.338   2.992  1.00  0.00    +0.000 C 
ATOM     40  C33 UNL A   1      16.826  54.230   1.832  1.00  0.00    +0.000 C 
ATOM     52  C40 UNL A   1      16.929  53.022   1.058  1.00  0.00    +0.000 C 
ATOM     53  C41 UNL A   1      17.675  52.792  -0.083  1.00  0.00    +0.000 C 
ATOM     54  C42 UNL A   1      17.444  51.477  -0.499  1.00  0.00    +0.000 C 
ATOM     55  C43 UNL A   1      16.583  50.877   0.405  1.00  0.00    +0.000 C 
ATOM     56  N5  UNL A   1      16.271  51.837   1.354  1.00  0.00    +0.000 N 
ATOM     57  C44 UNL A   1      16.078  49.528   0.400  1.00  0.00    +0.000 C 
ATOM     69  C51 UNL A   1      15.254  49.003   1.337  1.00  0.00    +0.000 C 
ATOM     70  N6  UNL A   1      14.735  49.607   2.474  1.00  0.00    +0.000 N 
ATOM     71  C52 UNL A   1      13.997  48.698   3.061  1.00  0.00    +0.000 C 
ATOM     72  C53 UNL A   1      13.208  48.802   4.335  1.00  0.00    +0.000 C 
ATOM     84  C60 UNL A   1      13.245  49.944   5.048  1.00  0.00    +0.000 C 
ATOM     85  C61 UNL A   1      12.503  50.191   6.283  1.00  0.00    +0.000 C 
ATOM     86  C62 UNL A   1      12.707  51.460   6.669  1.00  0.00    +0.000 C 
ATOM     87  C63 UNL A   1      13.632  52.103   5.736  1.00  0.00    +0.000 C 
ATOM     88  N7  UNL A   1      13.919  51.118   4.822  1.00  0.00    +0.000 N 
ATOM     89  C64 UNL A   1      13.946  47.413   2.346  1.00  0.00    +0.000 C 
ATOM     90  C65 UNL A   1      14.746  47.647   1.315  1.00  0.00    +0.000 C 
ATOM     91  C66 UNL A   1      16.082  55.535   3.803  1.00  0.00    +0.000 C 
ATOM     92  C67 UNL A   1      15.427  55.316   4.934  1.00  0.00    +0.000 C 
ENDROOT
BRANCH   36   35
ATOM     33  C27 UNL A   1      13.528  55.339   9.036  1.00  0.00    +0.000 C 
ATOM     34  C28 UNL A   1      14.147  54.565   8.045  1.00  0.00    +0.000 C 
ATOM     35  C29 UNL A   1      13.478  54.288   6.842  1.00  0.00    +0.000 C 
ATOM    143  H35 UNL A   1      14.012  55.520   9.929  1.00  0.00    +0.000 H 
ATOM    144  H36 UNL A   1      15.098  54.197   8.201  1.00  0.00    +0.000 H 
ATOM    155  H47 UNL A   1      11.729  54.689   5.725  1.00  0.00    +0.000 H 
ATOM    156  H48 UNL A   1      10.747  56.171   7.367  1.00  0.00    +0.000 H 
ATOM     93  C68 UNL A   1      12.223  54.871   6.613  1.00  0.00    +0.000 C 
ATOM     94  C69 UNL A   1      11.637  55.692   7.572  1.00  0.00    +0.000 C 
ATOM     32  C26 UNL A   1      12.254  55.865   8.810  1.00  0.00    +0.000 C 
BRANCH   32   30
ATOM     30  C25 UNL A   1      11.571  56.629   9.878  1.00  0.00    +0.000 C 
ATOM     31  O2  UNL A   1      11.354  57.819   9.733  1.00  0.00    +0.000 O 
BRANCH   30   29
ATOM     29  N3  UNL A   1      11.175  55.978  11.030  1.00  0.00    +0.000 N 
ATOM    142  H34 UNL A   1      11.774  56.086  11.805  1.00  0.00    +0.000 H 
BRANCH   29   28
ATOM    141  H33 UNL A   1       9.154  55.659  10.834  1.00  0.00    +0.000 H 
ATOM     28  C24 UNL A   1       9.996  55.155  11.260  1.00  0.00    +0.000 C 
ATOM    140  H32 UNL A   1       9.872  55.015  12.312  1.00  0.00    +0.000 H 
BRANCH   28   27
ATOM    138  H30 UNL A   1      10.781  53.881   9.757  1.00  0.00    +0.000 H 
ATOM     27  C23 UNL A   1      10.116  53.786  10.590  1.00  0.00    +0.000 C 
ATOM    139  H31 UNL A   1      10.473  53.114  11.341  1.00  0.00    +0.000 H 
BRANCH   27   26
ATOM    137  H29 UNL A   1       8.214  54.040   9.753  1.00  0.00    +0.000 H 
ATOM     26  C22 UNL A   1       8.795  53.201  10.079  1.00  0.00    +0.000 C 
ATOM    136  H28 UNL A   1       8.350  52.649  10.880  1.00  0.00    +0.000 H 
BRANCH   26   25
ATOM     25  C21 UNL A   1       8.899  52.270   8.864  1.00  0.00    +0.000 C 
ATOM    134  H26 UNL A   1       9.652  52.661   8.212  1.00  0.00    +0.000 H 
ATOM    135  H27 UNL A   1       9.130  51.300   9.254  1.00  0.00    +0.000 H 
BRANCH   25   24
ATOM    132  H24 UNL A   1       7.090  51.247   8.424  1.00  0.00    +0.000 H 
ATOM    133  H25 UNL A   1       7.059  53.013   8.171  1.00  0.00    +0.000 H 
ATOM     24  C20 UNL A   1       7.610  52.104   8.053  1.00  0.00    +0.000 C 
BRANCH   24   23
ATOM    130  H22 UNL A   1       7.199  52.608   6.019  1.00  0.00    +0.000 H 
ATOM    131  H23 UNL A   1       8.860  52.095   6.334  1.00  0.00    +0.000 H 
ATOM     23  C19 UNL A   1       7.826  51.918   6.545  1.00  0.00    +0.000 C 
BRANCH   23   22
ATOM    129  H21 UNL A   1       8.115  50.224   5.419  1.00  0.00    +0.000 H 
ATOM     22  N2  UNL A   1       7.506  50.571   6.111  1.00  0.00    +0.000 N 
BRANCH   22   20
ATOM     20  C18 UNL A   1       6.530  49.692   6.470  1.00  0.00    +0.000 C 
ATOM     21  O1  UNL A   1       5.402  49.921   6.012  1.00  0.00    +0.000 O 
BRANCH   20   18
ATOM     18  C16 UNL A   1       6.741  48.473   7.389  1.00  0.00    +0.000 C 
ATOM    125  H17 UNL A   1       6.875  47.644   6.726  1.00  0.00    +0.000 H 
BRANCH   18   17
ATOM     14  C12 UNL A   1      10.435  48.316   9.736  1.00  0.00    +0.000 C 
ATOM     15  C13 UNL A   1      10.426  48.231   8.333  1.00  0.00    +0.000 C 
ATOM     16  C14 UNL A   1       9.272  48.408   7.575  1.00  0.00    +0.000 C 
ATOM     17  C15 UNL A   1       8.036  48.543   8.181  1.00  0.00    +0.000 C 
ATOM    123  H15 UNL A   1      11.313  48.030   7.844  1.00  0.00    +0.000 H 
ATOM    124  H16 UNL A   1       9.341  48.439   6.545  1.00  0.00    +0.000 H 
ATOM    157  H49 UNL A   1       7.119  48.873  10.045  1.00  0.00    +0.000 H 
ATOM     95  C70 UNL A   1       8.023  48.715   9.572  1.00  0.00    +0.000 C 
ATOM     96  C71 UNL A   1       9.206  48.680  10.355  1.00  0.00    +0.000 C 
BRANCH   14    6
ATOM    118  H10 UNL A   1      12.127  47.234  10.011  1.00  0.00    +0.000 H 
ATOM      6  C5  UNL A   1      11.740  48.074  10.550  1.00  0.00    +0.000 C 
BRANCH    6    5
ATOM      2  C2  UNL A   1      12.805  46.429  14.361  1.00  0.00    +0.000 C 
ATOM      3  C3  UNL A   1      12.429  47.909  14.357  1.00  0.00    +0.000 C 
ATOM      4  C4  UNL A   1      12.281  48.467  12.938  1.00  0.00    +0.000 C 
ATOM    164  H56 UNL A   1      10.778  45.857  14.043  1.00  0.00    +0.000 H 
ATOM    165  H57 UNL A   1      11.953  44.631  13.610  1.00  0.00    +0.000 H 
ATOM    162  H54 UNL A   1      12.586  45.808  11.658  1.00  0.00    +0.000 H 
ATOM    163  H55 UNL A   1      10.800  45.746  11.716  1.00  0.00    +0.000 H 
ATOM      5  N1  UNL A   1      11.612  47.600  11.966  1.00  0.00    +0.000 N 
ATOM    107  C79 UNL A   1      11.695  46.150  12.141  1.00  0.00    +0.000 C 
ATOM    108  C80 UNL A   1      11.730  45.678  13.589  1.00  0.00    +0.000 C 
ATOM    112  H4  UNL A   1      13.760  46.296  13.898  1.00  0.00    +0.000 H 
ATOM    113  H5  UNL A   1      13.191  48.459  14.866  1.00  0.00    +0.000 H 
ATOM    114  H6  UNL A   1      11.482  48.007  14.848  1.00  0.00    +0.000 H 
ATOM    115  H7  UNL A   1      13.262  48.677  12.567  1.00  0.00    +0.000 H 
ATOM    116  H8  UNL A   1      11.652  49.328  13.033  1.00  0.00    +0.000 H 
ATOM    117  H9  UNL A   1      10.636  47.734  12.228  1.00  0.00    +0.000 H 
BRANCH    2    1
ATOM      1  C1  UNL A   1      12.925  45.893  15.779  1.00  0.00    +0.000 C 
ATOM    109  H1  UNL A   1      11.983  45.493  16.090  1.00  0.00    +0.000 H 
ATOM    110  H2  UNL A   1      13.211  46.686  16.437  1.00  0.00    +0.000 H 
ATOM    111  H3  UNL A   1      13.666  45.121  15.806  1.00  0.00    +0.000 H 
ENDBRANCH    2    1
ENDBRANCH    6    5
BRANCH    6    7
ATOM      7  C6  UNL A   1      12.740  49.248  10.492  1.00  0.00    +0.000 C 
ATOM      8  C7  UNL A   1      14.134  49.046  10.544  1.00  0.00    +0.000 C 
ATOM      9  C8  UNL A   1      15.014  50.128  10.478  1.00  0.00    +0.000 C 
ATOM     10  C9  UNL A   1      14.507  51.416  10.375  1.00  0.00    +0.000 C 
ATOM     11  F1  UNL A   1      15.353  52.455  10.322  1.00  0.00    +0.000 F 
ATOM     12  C10 UNL A   1      13.138  51.646  10.325  1.00  0.00    +0.000 C 
ATOM     13  C11 UNL A   1      12.256  50.565  10.368  1.00  0.00    +0.000 C 
ATOM    119  H11 UNL A   1      14.508  48.088  10.634  1.00  0.00    +0.000 H 
ATOM    120  H12 UNL A   1      16.033  49.970  10.504  1.00  0.00    +0.000 H 
ATOM    121  H13 UNL A   1      12.776  52.610  10.254  1.00  0.00    +0.000 H 
ATOM    122  H14 UNL A   1      11.240  50.732  10.309  1.00  0.00    +0.000 H 
ENDBRANCH    6    7
ENDBRANCH   14    6
BRANCH   96   97
ATOM     97  C72 UNL A   1       9.097  49.085  11.770  1.00  0.00    +0.000 C 
ATOM     98  C73 UNL A   1       9.440  50.377  12.194  1.00  0.00    +0.000 C 
ATOM     99  C74 UNL A   1       9.334  50.742  13.540  1.00  0.00    +0.000 C 
ATOM    161  H53 UNL A   1       8.450  47.194  12.455  1.00  0.00    +0.000 H 
ATOM    100  C75 UNL A   1       8.883  49.822  14.498  1.00  0.00    +0.000 C 
ATOM    101  C76 UNL A   1       8.774  50.223  15.947  1.00  0.00    +0.000 C 
ATOM    102  F17 UNL A   1       9.991  50.327  16.550  1.00  0.00    +0.000 F 
ATOM    103  F18 UNL A   1       8.167  51.430  16.119  1.00  0.00    +0.000 F 
ATOM    105  C77 UNL A   1       8.564  48.522  14.085  1.00  0.00    +0.000 C 
ATOM    106  C78 UNL A   1       8.678  48.158  12.741  1.00  0.00    +0.000 C 
ATOM    104  F19 UNL A   1       8.060  49.340  16.701  1.00  0.00    +0.000 F 
ATOM    158  H50 UNL A   1       9.775  51.067  11.504  1.00  0.00    +0.000 H 
ATOM    159  H51 UNL A   1       9.590  51.699  13.832  1.00  0.00    +0.000 H 
ATOM    160  H52 UNL A   1       8.244  47.828  14.779  1.00  0.00    +0.000 H 
ENDBRANCH   96   97
ENDBRANCH   18   17
BRANCH   18   19
ATOM     19  C17 UNL A   1       5.511  48.055   8.190  1.00  0.00    +0.000 C 
ATOM    126  H18 UNL A   1       4.639  48.516   7.774  1.00  0.00    +0.000 H 
ATOM    127  H19 UNL A   1       5.625  48.364   9.209  1.00  0.00    +0.000 H 
ATOM    128  H20 UNL A   1       5.404  46.991   8.151  1.00  0.00    +0.000 H 
ENDBRANCH   18   19
ENDBRANCH   20   18
ENDBRANCH   22   20
ENDBRANCH   23   22
ENDBRANCH   24   23
ENDBRANCH   25   24
ENDBRANCH   26   25
ENDBRANCH   27   26
ENDBRANCH   28   27
ENDBRANCH   29   28
ENDBRANCH   30   29
ENDBRANCH   32   30
ENDBRANCH   36   35
BRANCH   40   41
ATOM     41  C34 UNL A   1      17.542  55.448   1.327  1.00  0.00    +0.000 C 
ATOM     42  C35 UNL A   1      16.906  56.327   0.437  1.00  0.00    +0.000 C 
ATOM     43  F2  UNL A   1      15.635  56.113   0.066  1.00  0.00    +0.000 F 
ATOM     44  C36 UNL A   1      17.582  57.425  -0.091  1.00  0.00    +0.000 C 
ATOM     45  F3  UNL A   1      16.963  58.237  -0.959  1.00  0.00    +0.000 F 
ATOM     46  C37 UNL A   1      18.894  57.677   0.279  1.00  0.00    +0.000 C 
ATOM     47  F4  UNL A   1      19.539  58.741  -0.218  1.00  0.00    +0.000 F 
ATOM     48  C38 UNL A   1      19.538  56.827   1.166  1.00  0.00    +0.000 C 
ATOM     49  F5  UNL A   1      20.798  57.081   1.542  1.00  0.00    +0.000 F 
ATOM     50  C39 UNL A   1      18.874  55.714   1.673  1.00  0.00    +0.000 C 
ATOM     51  F6  UNL A   1      19.522  54.907   2.527  1.00  0.00    +0.000 F 
ENDBRANCH   40   41
BRANCH   57   58
ATOM     65  C49 UNL A   1      18.056  47.022  -1.671  1.00  0.00    +0.000 C 
ATOM     66  F10 UNL A   1      19.218  46.358  -1.606  1.00  0.00    +0.000 F 
ATOM     67  C50 UNL A   1      17.718  47.932  -0.673  1.00  0.00    +0.000 C 
ATOM     68  F11 UNL A   1      18.568  48.124   0.347  1.00  0.00    +0.000 F 
ATOM     58  C45 UNL A   1      16.512  48.643  -0.728  1.00  0.00    +0.000 C 
ATOM     59  C46 UNL A   1      15.661  48.419  -1.820  1.00  0.00    +0.000 C 
ATOM     60  F7  UNL A   1      14.492  49.073  -1.912  1.00  0.00    +0.000 F 
ATOM     61  C47 UNL A   1      15.991  47.494  -2.805  1.00  0.00    +0.000 C 
ATOM     62  F8  UNL A   1      15.146  47.266  -3.820  1.00  0.00    +0.000 F 
ATOM     63  C48 UNL A   1      17.187  46.795  -2.729  1.00  0.00    +0.000 C 
ATOM     64  F9  UNL A   1      17.502  45.900  -3.676  1.00  0.00    +0.000 F 
ENDBRANCH   57   58
BRANCH   72   73
ATOM     73  C54 UNL A   1      12.414  47.654   4.842  1.00  0.00    +0.000 C 
ATOM     74  C55 UNL A   1      11.174  47.316   4.283  1.00  0.00    +0.000 C 
ATOM     75  F12 UNL A   1      10.697  48.009   3.238  1.00  0.00    +0.000 F 
ATOM     76  C56 UNL A   1      10.405  46.282   4.815  1.00  0.00    +0.000 C 
ATOM     77  F13 UNL A   1       9.206  46.001   4.286  1.00  0.00    +0.000 F 
ATOM     78  C57 UNL A   1      10.872  45.555   5.899  1.00  0.00    +0.000 C 
ATOM     79  F14 UNL A   1      10.133  44.560   6.411  1.00  0.00    +0.000 F 
ATOM     80  C58 UNL A   1      12.105  45.860   6.456  1.00  0.00    +0.000 C 
ATOM     81  F15 UNL A   1      12.568  45.148   7.492  1.00  0.00    +0.000 F 
ATOM     82  C59 UNL A   1      12.866  46.905   5.937  1.00  0.00    +0.000 C 
ATOM     83  F16 UNL A   1      14.055  47.183   6.492  1.00  0.00    +0.000 F 
ENDBRANCH   72   73
TORSDOF 22
ENDMDL
