MODEL 1
REMARK VINA RESULT:     -11.7      0.000      0.000
ROOT
ATOM    129  H26 UNL A   1      42.670  28.762  28.456  1.00  0.00    +0.000 H 
ATOM    130  H27 UNL A   1      43.774  24.480  26.062  1.00  0.00    +0.000 H 
ATOM    131  H28 UNL A   1      45.959  25.598  25.336  1.00  0.00    +0.000 H 
ATOM    132  H29 UNL A   1      43.161  34.155  29.796  1.00  0.00    +0.000 H 
ATOM    133  H30 UNL A   1      41.207  32.932  30.909  1.00  0.00    +0.000 H 
ATOM     19  C15 UNL A   1      40.903  30.235  30.045  1.00  0.00    +0.000 C 
ATOM     20  C16 UNL A   1      42.007  31.192  29.694  1.00  0.00    +0.000 C 
ATOM     21  N3  UNL A   1      43.056  31.005  28.932  1.00  0.00    +0.000 N 
ATOM     22  C17 UNL A   1      43.725  32.221  28.906  1.00  0.00    +0.000 C 
ATOM     23  C18 UNL A   1      44.897  32.527  28.302  1.00  0.00    +0.000 C 
ATOM     35  C25 UNL A   1      45.692  31.590  27.550  1.00  0.00    +0.000 C 
ATOM     36  C26 UNL A   1      46.926  31.786  26.957  1.00  0.00    +0.000 C 
ATOM     37  C27 UNL A   1      47.292  30.602  26.307  1.00  0.00    +0.000 C 
ATOM     38  C28 UNL A   1      46.303  29.657  26.529  1.00  0.00    +0.000 C 
ATOM     39  N4  UNL A   1      45.327  30.277  27.291  1.00  0.00    +0.000 N 
ATOM     40  C29 UNL A   1      46.250  28.289  26.080  1.00  0.00    +0.000 C 
ATOM     52  C36 UNL A   1      45.250  27.418  26.354  1.00  0.00    +0.000 C 
ATOM     53  N5  UNL A   1      44.096  27.621  27.097  1.00  0.00    +0.000 N 
ATOM     54  C37 UNL A   1      43.441  26.487  27.063  1.00  0.00    +0.000 C 
ATOM     55  C38 UNL A   1      42.136  26.124  27.717  1.00  0.00    +0.000 C 
ATOM     67  C45 UNL A   1      41.502  27.039  28.476  1.00  0.00    +0.000 C 
ATOM     68  C46 UNL A   1      40.238  26.830  29.176  1.00  0.00    +0.000 C 
ATOM     69  C47 UNL A   1      39.890  27.967  29.799  1.00  0.00    +0.000 C 
ATOM     70  C48 UNL A   1      40.924  28.976  29.567  1.00  0.00    +0.000 C 
ATOM     71  N6  UNL A   1      41.844  28.334  28.776  1.00  0.00    +0.000 N 
ATOM     72  C49 UNL A   1      44.096  25.438  26.270  1.00  0.00    +0.000 C 
ATOM     73  C50 UNL A   1      45.212  26.046  25.890  1.00  0.00    +0.000 C 
ATOM     74  C51 UNL A   1      42.941  33.152  29.690  1.00  0.00    +0.000 C 
ATOM     75  C52 UNL A   1      41.904  32.550  30.252  1.00  0.00    +0.000 C 
ATOM    124  H21 UNL A   1      47.482  32.654  26.989  1.00  0.00    +0.000 H 
ATOM    125  H22 UNL A   1      48.152  30.457  25.754  1.00  0.00    +0.000 H 
ATOM    126  H23 UNL A   1      44.496  29.850  27.603  1.00  0.00    +0.000 H 
ATOM    127  H24 UNL A   1      39.699  25.949  29.189  1.00  0.00    +0.000 H 
ATOM    128  H25 UNL A   1      39.030  28.107  30.351  1.00  0.00    +0.000 H 
ENDROOT
BRANCH   19   18
ATOM    134  H31 UNL A   1      40.636  30.163  32.709  1.00  0.00    +0.000 H 
ATOM    135  H32 UNL A   1      38.733  30.822  34.058  1.00  0.00    +0.000 H 
ATOM     76  C53 UNL A   1      39.799  30.565  32.258  1.00  0.00    +0.000 C 
ATOM     77  C54 UNL A   1      38.723  30.981  33.039  1.00  0.00    +0.000 C 
ATOM     15  C11 UNL A   1      37.630  31.613  32.438  1.00  0.00    +0.000 C 
ATOM     16  C12 UNL A   1      37.558  31.720  31.047  1.00  0.00    +0.000 C 
ATOM     17  C13 UNL A   1      38.609  31.245  30.260  1.00  0.00    +0.000 C 
ATOM     18  C14 UNL A   1      39.751  30.692  30.860  1.00  0.00    +0.000 C 
ATOM    122  H19 UNL A   1      36.731  32.149  30.603  1.00  0.00    +0.000 H 
ATOM    123  H20 UNL A   1      38.547  31.301  29.231  1.00  0.00    +0.000 H 
BRANCH   15   13
ATOM     13  C10 UNL A   1      36.530  32.172  33.255  1.00  0.00    +0.000 C 
ATOM     14  O2  UNL A   1      36.706  32.384  34.450  1.00  0.00    +0.000 O 
BRANCH   13   12
ATOM    121  H18 UNL A   1      35.188  32.069  31.770  1.00  0.00    +0.000 H 
ATOM     12  N2  UNL A   1      35.312  32.431  32.677  1.00  0.00    +0.000 N 
BRANCH   12   11
ATOM     11  C9  UNL A   1      34.181  33.166  33.218  1.00  0.00    +0.000 C 
ATOM    119  H16 UNL A   1      33.378  33.129  32.512  1.00  0.00    +0.000 H 
ATOM    120  H17 UNL A   1      33.907  32.707  34.146  1.00  0.00    +0.000 H 
BRANCH   11   10
ATOM     10  C8  UNL A   1      34.519  34.625  33.503  1.00  0.00    +0.000 C 
ATOM    117  H14 UNL A   1      33.698  35.058  34.035  1.00  0.00    +0.000 H 
ATOM    118  H15 UNL A   1      35.430  34.619  34.062  1.00  0.00    +0.000 H 
BRANCH   10    9
ATOM      9  C7  UNL A   1      34.782  35.477  32.260  1.00  0.00    +0.000 C 
ATOM    115  H12 UNL A   1      35.618  36.114  32.466  1.00  0.00    +0.000 H 
ATOM    116  H13 UNL A   1      34.959  34.789  31.460  1.00  0.00    +0.000 H 
BRANCH    9    8
ATOM    113  H10 UNL A   1      32.989  36.531  32.667  1.00  0.00    +0.000 H 
ATOM    114  H11 UNL A   1      34.053  37.249  31.416  1.00  0.00    +0.000 H 
ATOM      8  C6  UNL A   1      33.613  36.358  31.816  1.00  0.00    +0.000 C 
BRANCH    8    7
ATOM    111  H8  UNL A   1      32.782  34.713  30.756  1.00  0.00    +0.000 H 
ATOM      7  C5  UNL A   1      32.738  35.780  30.696  1.00  0.00    +0.000 C 
ATOM    112  H9  UNL A   1      31.754  36.173  30.851  1.00  0.00    +0.000 H 
BRANCH    7    6
ATOM    110  H7  UNL A   1      33.645  37.139  29.330  1.00  0.00    +0.000 H 
ATOM    109  H6  UNL A   1      32.267  36.264  28.668  1.00  0.00    +0.000 H 
ATOM      6  C4  UNL A   1      33.144  36.194  29.276  1.00  0.00    +0.000 C 
BRANCH    6    5
ATOM    108  H5  UNL A   1      34.987  35.513  28.560  1.00  0.00    +0.000 H 
ATOM      5  N1  UNL A   1      34.053  35.231  28.685  1.00  0.00    +0.000 N 
BRANCH    5    3
ATOM      3  C3  UNL A   1      33.721  33.963  28.288  1.00  0.00    +0.000 C 
ATOM      4  O1  UNL A   1      32.651  33.841  27.691  1.00  0.00    +0.000 O 
BRANCH    3    2
ATOM      2  C2  UNL A   1      34.692  32.808  28.590  1.00  0.00    +0.000 C 
ATOM    107  H4  UNL A   1      34.618  32.661  29.647  1.00  0.00    +0.000 H 
BRANCH    2    1
ATOM      1  C1  UNL A   1      36.102  33.215  28.143  1.00  0.00    +0.000 C 
ATOM    106  H3  UNL A   1      36.629  33.641  28.970  1.00  0.00    +0.000 H 
ATOM    105  H2  UNL A   1      36.627  32.352  27.790  1.00  0.00    +0.000 H 
ATOM    104  H1  UNL A   1      36.032  33.937  27.355  1.00  0.00    +0.000 H 
ENDBRANCH    2    1
BRANCH    2   78
ATOM    101  C75 UNL A   1      32.884  29.919  26.793  1.00  0.00    +0.000 C 
ATOM    102  F16 UNL A   1      31.662  29.687  26.285  1.00  0.00    +0.000 F 
ATOM    103  C76 UNL A   1      33.084  31.113  27.483  1.00  0.00    +0.000 C 
ATOM    136  H33 UNL A   1      36.277  30.650  28.318  1.00  0.00    +0.000 H 
ATOM    137  H34 UNL A   1      35.925  28.594  27.098  1.00  0.00    +0.000 H 
ATOM     78  C55 UNL A   1      34.343  31.442  27.993  1.00  0.00    +0.000 C 
ATOM     79  C56 UNL A   1      35.361  30.474  27.877  1.00  0.00    +0.000 C 
ATOM     80  C57 UNL A   1      35.156  29.278  27.175  1.00  0.00    +0.000 C 
ATOM     81  C58 UNL A   1      33.920  29.003  26.578  1.00  0.00    +0.000 C 
ATOM    154  H51 UNL A   1      32.293  31.761  27.619  1.00  0.00    +0.000 H 
BRANCH   81   82
ATOM    100  C74 UNL A   1      33.457  26.597  26.194  1.00  0.00    +0.000 C 
ATOM    138  H35 UNL A   1      34.035  28.925  23.855  1.00  0.00    +0.000 H 
ATOM    139  H36 UNL A   1      33.713  27.007  22.409  1.00  0.00    +0.000 H 
ATOM    140  H37 UNL A   1      33.210  24.830  23.363  1.00  0.00    +0.000 H 
ATOM     82  C59 UNL A   1      33.746  27.868  25.661  1.00  0.00    +0.000 C 
ATOM     83  C60 UNL A   1      33.831  28.003  24.268  1.00  0.00    +0.000 C 
ATOM     84  C61 UNL A   1      33.640  26.896  23.432  1.00  0.00    +0.000 C 
ATOM     85  C62 UNL A   1      33.350  25.646  23.979  1.00  0.00    +0.000 C 
ATOM     86  C63 UNL A   1      33.250  25.503  25.361  1.00  0.00    +0.000 C 
ATOM    153  H50 UNL A   1      33.398  26.477  27.217  1.00  0.00    +0.000 H 
BRANCH   86   87
ATOM     87  O3  UNL A   1      32.999  24.193  25.833  1.00  0.00    +0.000 O 
BRANCH   87   88
ATOM     89  O4  UNL A   1      30.715  24.079  26.326  1.00  0.00    +0.000 O 
ATOM     88  C64 UNL A   1      31.741  23.592  25.881  1.00  0.00    +0.000 C 
BRANCH   88   90
ATOM     90  N7  UNL A   1      31.729  22.331  25.340  1.00  0.00    +0.000 N 
ATOM    141  H38 UNL A   1      31.611  21.568  25.951  1.00  0.00    +0.000 H 
BRANCH   90   91
ATOM     91  C65 UNL A   1      31.878  22.052  23.931  1.00  0.00    +0.000 C 
ATOM    142  H39 UNL A   1      32.454  22.840  23.494  1.00  0.00    +0.000 H 
ATOM    143  H40 UNL A   1      30.890  21.984  23.527  1.00  0.00    +0.000 H 
BRANCH   91   92
ATOM    145  H42 UNL A   1      31.763  20.029  23.502  1.00  0.00    +0.000 H 
ATOM     92  C66 UNL A   1      32.569  20.724  23.620  1.00  0.00    +0.000 C 
ATOM    144  H41 UNL A   1      33.183  20.881  22.756  1.00  0.00    +0.000 H 
BRANCH   92   93
ATOM    146  H43 UNL A   1      33.088  20.440  25.642  1.00  0.00    +0.000 H 
ATOM    147  H44 UNL A   1      34.442  20.398  24.409  1.00  0.00    +0.000 H 
ATOM     93  C67 UNL A   1      33.458  20.094  24.700  1.00  0.00    +0.000 C 
BRANCH   93   94
ATOM     97  C71 UNL A   1      33.604  15.778  25.015  1.00  0.00    +0.000 C 
ATOM     98  C72 UNL A   1      32.535  16.503  25.528  1.00  0.00    +0.000 C 
ATOM     99  C73 UNL A   1      32.523  17.896  25.419  1.00  0.00    +0.000 C 
ATOM    148  H45 UNL A   1      35.445  18.327  23.856  1.00  0.00    +0.000 H 
ATOM    149  H46 UNL A   1      35.453  15.911  24.021  1.00  0.00    +0.000 H 
ATOM    150  H47 UNL A   1      33.614  14.749  25.088  1.00  0.00    +0.000 H 
ATOM    151  H48 UNL A   1      31.752  16.015  25.989  1.00  0.00    +0.000 H 
ATOM    152  H49 UNL A   1      31.721  18.425  25.794  1.00  0.00    +0.000 H 
ATOM     94  C68 UNL A   1      33.583  18.591  24.809  1.00  0.00    +0.000 C 
ATOM     95  C69 UNL A   1      34.651  17.843  24.307  1.00  0.00    +0.000 C 
ATOM     96  C70 UNL A   1      34.660  16.447  24.404  1.00  0.00    +0.000 C 
ENDBRANCH   93   94
ENDBRANCH   92   93
ENDBRANCH   91   92
ENDBRANCH   90   91
ENDBRANCH   88   90
ENDBRANCH   87   88
ENDBRANCH   86   87
ENDBRANCH   81   82
ENDBRANCH    2   78
ENDBRANCH    3    2
ENDBRANCH    5    3
ENDBRANCH    6    5
ENDBRANCH    7    6
ENDBRANCH    8    7
ENDBRANCH    9    8
ENDBRANCH   10    9
ENDBRANCH   11   10
ENDBRANCH   12   11
ENDBRANCH   13   12
ENDBRANCH   15   13
ENDBRANCH   19   18
BRANCH   23   24
ATOM     33  C24 UNL A   1      45.065  34.900  27.470  1.00  0.00    +0.000 C 
ATOM     34  F5  UNL A   1      44.278  34.579  26.432  1.00  0.00    +0.000 F 
ATOM     24  C19 UNL A   1      45.396  33.935  28.433  1.00  0.00    +0.000 C 
ATOM     25  C20 UNL A   1      46.226  34.325  29.494  1.00  0.00    +0.000 C 
ATOM     26  F1  UNL A   1      46.561  33.443  30.447  1.00  0.00    +0.000 F 
ATOM     27  C21 UNL A   1      46.683  35.636  29.603  1.00  0.00    +0.000 C 
ATOM     28  F2  UNL A   1      47.436  35.996  30.652  1.00  0.00    +0.000 F 
ATOM     29  C22 UNL A   1      46.349  36.571  28.636  1.00  0.00    +0.000 C 
ATOM     30  F3  UNL A   1      46.793  37.832  28.740  1.00  0.00    +0.000 F 
ATOM     31  C23 UNL A   1      45.547  36.203  27.566  1.00  0.00    +0.000 C 
ATOM     32  F4  UNL A   1      45.230  37.104  26.626  1.00  0.00    +0.000 F 
ENDBRANCH   23   24
BRANCH   40   41
ATOM     41  C30 UNL A   1      47.400  27.778  25.262  1.00  0.00    +0.000 C 
ATOM     42  C31 UNL A   1      48.506  27.157  25.859  1.00  0.00    +0.000 C 
ATOM     43  F6  UNL A   1      48.582  27.054  27.195  1.00  0.00    +0.000 F 
ATOM     44  C32 UNL A   1      49.556  26.671  25.085  1.00  0.00    +0.000 C 
ATOM     45  F7  UNL A   1      50.623  26.119  25.679  1.00  0.00    +0.000 F 
ATOM     46  C33 UNL A   1      49.507  26.770  23.703  1.00  0.00    +0.000 C 
ATOM     47  F8  UNL A   1      50.516  26.297  22.960  1.00  0.00    +0.000 F 
ATOM     48  C34 UNL A   1      48.414  27.367  23.091  1.00  0.00    +0.000 C 
ATOM     49  F9  UNL A   1      48.361  27.454  21.754  1.00  0.00    +0.000 F 
ATOM     50  C35 UNL A   1      47.375  27.877  23.863  1.00  0.00    +0.000 C 
ATOM     51  F10 UNL A   1      46.336  28.458  23.244  1.00  0.00    +0.000 F 
ENDBRANCH   40   41
BRANCH   55   56
ATOM     65  C44 UNL A   1      42.126  23.651  28.190  1.00  0.00    +0.000 C 
ATOM     66  F15 UNL A   1      43.216  23.797  28.958  1.00  0.00    +0.000 F 
ATOM     56  C39 UNL A   1      41.557  24.766  27.559  1.00  0.00    +0.000 C 
ATOM     57  C40 UNL A   1      40.421  24.559  26.764  1.00  0.00    +0.000 C 
ATOM     58  F11 UNL A   1      39.832  25.600  26.157  1.00  0.00    +0.000 F 
ATOM     59  C41 UNL A   1      39.867  23.290  26.618  1.00  0.00    +0.000 C 
ATOM     60  F12 UNL A   1      38.758  23.126  25.883  1.00  0.00    +0.000 F 
ATOM     61  C42 UNL A   1      40.451  22.199  27.243  1.00  0.00    +0.000 C 
ATOM     62  F13 UNL A   1      39.921  20.979  27.099  1.00  0.00    +0.000 F 
ATOM     63  C43 UNL A   1      41.584  22.378  28.024  1.00  0.00    +0.000 C 
ATOM     64  F14 UNL A   1      42.160  21.325  28.620  1.00  0.00    +0.000 F 
ENDBRANCH   55   56
TORSDOF 25
ENDMDL
MODEL 2
REMARK VINA RESULT:     -11.5      1.823      3.526
ROOT
ATOM    129  H26 UNL A   1      42.707  28.770  28.542  1.00  0.00    +0.000 H 
ATOM    130  H27 UNL A   1      43.774  24.500  26.109  1.00  0.00    +0.000 H 
ATOM    131  H28 UNL A   1      45.968  25.607  25.392  1.00  0.00    +0.000 H 
ATOM    132  H29 UNL A   1      43.244  34.146  29.932  1.00  0.00    +0.000 H 
ATOM    133  H30 UNL A   1      41.280  32.929  31.034  1.00  0.00    +0.000 H 
ATOM     19  C15 UNL A   1      40.952  30.243  30.145  1.00  0.00    +0.000 C 
ATOM     20  C16 UNL A   1      42.065  31.194  29.803  1.00  0.00    +0.000 C 
ATOM     21  N3  UNL A   1      43.111  31.005  29.039  1.00  0.00    +0.000 N 
ATOM     22  C17 UNL A   1      43.791  32.215  29.024  1.00  0.00    +0.000 C 
ATOM     23  C18 UNL A   1      44.966  32.517  28.423  1.00  0.00    +0.000 C 
ATOM     35  C25 UNL A   1      45.752  31.580  27.662  1.00  0.00    +0.000 C 
ATOM     36  C26 UNL A   1      46.988  31.771  27.070  1.00  0.00    +0.000 C 
ATOM     37  C27 UNL A   1      47.343  30.590  26.409  1.00  0.00    +0.000 C 
ATOM     38  C28 UNL A   1      46.347  29.651  26.623  1.00  0.00    +0.000 C 
ATOM     39  N4  UNL A   1      45.376  30.273  27.391  1.00  0.00    +0.000 N 
ATOM     40  C29 UNL A   1      46.282  28.288  26.162  1.00  0.00    +0.000 C 
ATOM     52  C36 UNL A   1      45.274  27.423  26.427  1.00  0.00    +0.000 C 
ATOM     53  N5  UNL A   1      44.123  27.629  27.173  1.00  0.00    +0.000 N 
ATOM     54  C37 UNL A   1      43.458  26.501  27.129  1.00  0.00    +0.000 C 
ATOM     55  C38 UNL A   1      42.149  26.144  27.780  1.00  0.00    +0.000 C 
ATOM     67  C45 UNL A   1      41.523  27.056  28.547  1.00  0.00    +0.000 C 
ATOM     68  C46 UNL A   1      40.258  26.852  29.245  1.00  0.00    +0.000 C 
ATOM     69  C47 UNL A   1      39.919  27.987  29.878  1.00  0.00    +0.000 C 
ATOM     70  C48 UNL A   1      40.962  28.989  29.656  1.00  0.00    +0.000 C 
ATOM     71  N6  UNL A   1      41.877  28.346  28.859  1.00  0.00    +0.000 N 
ATOM     72  C49 UNL A   1      44.104  25.454  26.325  1.00  0.00    +0.000 C 
ATOM     73  C50 UNL A   1      45.225  26.056  25.951  1.00  0.00    +0.000 C 
ATOM     74  C51 UNL A   1      43.015  33.146  29.816  1.00  0.00    +0.000 C 
ATOM     75  C52 UNL A   1      41.973  32.547  30.374  1.00  0.00    +0.000 C 
ATOM    124  H21 UNL A   1      47.551  32.634  27.110  1.00  0.00    +0.000 H 
ATOM    125  H22 UNL A   1      48.202  30.443  25.855  1.00  0.00    +0.000 H 
ATOM    126  H23 UNL A   1      44.541  29.850  27.699  1.00  0.00    +0.000 H 
ATOM    127  H24 UNL A   1      39.712  25.976  29.250  1.00  0.00    +0.000 H 
ATOM    128  H25 UNL A   1      39.061  28.128  30.432  1.00  0.00    +0.000 H 
ENDROOT
BRANCH   19   18
ATOM    134  H31 UNL A   1      40.694  30.172  32.810  1.00  0.00    +0.000 H 
ATOM    135  H32 UNL A   1      38.798  30.834  34.166  1.00  0.00    +0.000 H 
ATOM     76  C53 UNL A   1      39.857  30.575  32.362  1.00  0.00    +0.000 C 
ATOM     77  C54 UNL A   1      38.785  30.993  33.147  1.00  0.00    +0.000 C 
ATOM     15  C11 UNL A   1      37.691  31.628  32.551  1.00  0.00    +0.000 C 
ATOM     16  C12 UNL A   1      37.614  31.736  31.160  1.00  0.00    +0.000 C 
ATOM     17  C13 UNL A   1      38.661  31.258  30.369  1.00  0.00    +0.000 C 
ATOM     18  C14 UNL A   1      39.804  30.702  30.965  1.00  0.00    +0.000 C 
ATOM    122  H19 UNL A   1      36.786  32.166  30.719  1.00  0.00    +0.000 H 
ATOM    123  H20 UNL A   1      38.595  31.315  29.340  1.00  0.00    +0.000 H 
BRANCH   15   13
ATOM     13  C10 UNL A   1      36.596  32.189  33.372  1.00  0.00    +0.000 C 
ATOM     14  O2  UNL A   1      36.775  32.397  34.567  1.00  0.00    +0.000 O 
BRANCH   13   12
ATOM    121  H18 UNL A   1      35.258  32.116  31.881  1.00  0.00    +0.000 H 
ATOM     12  N2  UNL A   1      35.377  32.454  32.797  1.00  0.00    +0.000 N 
BRANCH   12   11
ATOM     11  C9  UNL A   1      34.238  33.165  33.355  1.00  0.00    +0.000 C 
ATOM    119  H16 UNL A   1      33.373  32.943  32.766  1.00  0.00    +0.000 H 
ATOM    120  H17 UNL A   1      34.116  32.841  34.368  1.00  0.00    +0.000 H 
BRANCH   11   10
ATOM     10  C8  UNL A   1      34.448  34.675  33.372  1.00  0.00    +0.000 C 
ATOM    117  H14 UNL A   1      33.598  35.123  33.841  1.00  0.00    +0.000 H 
ATOM    118  H15 UNL A   1      35.362  34.846  33.900  1.00  0.00    +0.000 H 
BRANCH   10    9
ATOM      9  C7  UNL A   1      34.622  35.313  31.993  1.00  0.00    +0.000 C 
ATOM    115  H12 UNL A   1      35.559  35.832  31.984  1.00  0.00    +0.000 H 
ATOM    116  H13 UNL A   1      34.572  34.513  31.286  1.00  0.00    +0.000 H 
BRANCH    9    8
ATOM    113  H10 UNL A   1      32.867  36.421  32.426  1.00  0.00    +0.000 H 
ATOM    114  H11 UNL A   1      34.036  37.207  31.318  1.00  0.00    +0.000 H 
ATOM      8  C6  UNL A   1      33.528  36.306  31.593  1.00  0.00    +0.000 C 
BRANCH    8    7
ATOM    111  H8  UNL A   1      32.529  34.848  30.411  1.00  0.00    +0.000 H 
ATOM      7  C5  UNL A   1      32.687  35.906  30.373  1.00  0.00    +0.000 C 
ATOM    112  H9  UNL A   1      31.781  36.472  30.435  1.00  0.00    +0.000 H 
BRANCH    7    6
ATOM    110  H7  UNL A   1      34.036  37.022  29.161  1.00  0.00    +0.000 H 
ATOM    109  H6  UNL A   1      32.542  36.569  28.347  1.00  0.00    +0.000 H 
ATOM      6  C4  UNL A   1      33.312  36.246  29.015  1.00  0.00    +0.000 C 
BRANCH    6    5
ATOM    108  H5  UNL A   1      34.938  35.200  28.217  1.00  0.00    +0.000 H 
ATOM      5  N1  UNL A   1      33.985  35.098  28.440  1.00  0.00    +0.000 N 
BRANCH    5    3
ATOM      3  C3  UNL A   1      33.407  33.883  28.183  1.00  0.00    +0.000 C 
ATOM      4  O1  UNL A   1      32.326  33.907  27.597  1.00  0.00    +0.000 O 
BRANCH    3    2
ATOM      2  C2  UNL A   1      34.140  32.602  28.618  1.00  0.00    +0.000 C 
ATOM    107  H4  UNL A   1      33.703  32.345  29.560  1.00  0.00    +0.000 H 
BRANCH    2    1
ATOM      1  C1  UNL A   1      35.642  32.899  28.720  1.00  0.00    +0.000 C 
ATOM    106  H3  UNL A   1      35.891  33.133  29.733  1.00  0.00    +0.000 H 
ATOM    105  H2  UNL A   1      36.198  32.040  28.405  1.00  0.00    +0.000 H 
ATOM    104  H1  UNL A   1      35.884  33.731  28.091  1.00  0.00    +0.000 H 
ENDBRANCH    2    1
BRANCH    2   78
ATOM    101  C75 UNL A   1      32.739  30.083  26.060  1.00  0.00    +0.000 C 
ATOM    102  F16 UNL A   1      31.642  29.965  25.295  1.00  0.00    +0.000 F 
ATOM    103  C76 UNL A   1      32.791  31.145  26.960  1.00  0.00    +0.000 C 
ATOM    136  H33 UNL A   1      35.766  30.479  28.309  1.00  0.00    +0.000 H 
ATOM    137  H34 UNL A   1      35.674  28.655  26.726  1.00  0.00    +0.000 H 
ATOM     78  C55 UNL A   1      33.925  31.358  27.751  1.00  0.00    +0.000 C 
ATOM     79  C56 UNL A   1      34.954  30.398  27.677  1.00  0.00    +0.000 C 
ATOM     80  C57 UNL A   1      34.899  29.336  26.764  1.00  0.00    +0.000 C 
ATOM     81  C58 UNL A   1      33.805  29.190  25.903  1.00  0.00    +0.000 C 
ATOM    154  H51 UNL A   1      31.984  31.782  27.045  1.00  0.00    +0.000 H 
BRANCH   81   82
ATOM    100  C74 UNL A   1      33.720  26.848  25.090  1.00  0.00    +0.000 C 
ATOM    138  H35 UNL A   1      33.977  29.613  23.215  1.00  0.00    +0.000 H 
ATOM    139  H36 UNL A   1      33.976  27.954  21.447  1.00  0.00    +0.000 H 
ATOM    140  H37 UNL A   1      33.794  25.593  21.989  1.00  0.00    +0.000 H 
ATOM     82  C59 UNL A   1      33.822  28.222  24.797  1.00  0.00    +0.000 C 
ATOM     83  C60 UNL A   1      33.909  28.612  23.454  1.00  0.00    +0.000 C 
ATOM     84  C61 UNL A   1      33.902  27.655  22.432  1.00  0.00    +0.000 C 
ATOM     85  C62 UNL A   1      33.798  26.299  22.741  1.00  0.00    +0.000 C 
ATOM     86  C63 UNL A   1      33.697  25.901  24.073  1.00  0.00    +0.000 C 
ATOM    153  H50 UNL A   1      33.663  26.541  26.074  1.00  0.00    +0.000 H 
BRANCH   86   87
ATOM     87  O3  UNL A   1      33.641  24.506  24.301  1.00  0.00    +0.000 O 
BRANCH   87   88
ATOM     89  O4  UNL A   1      32.518  22.468  24.053  1.00  0.00    +0.000 O 
ATOM     88  C64 UNL A   1      32.628  23.664  23.839  1.00  0.00    +0.000 C 
BRANCH   88   90
ATOM     90  N7  UNL A   1      31.687  24.321  23.087  1.00  0.00    +0.000 N 
ATOM    141  H38 UNL A   1      32.000  24.882  22.341  1.00  0.00    +0.000 H 
BRANCH   90   91
ATOM     91  C65 UNL A   1      30.264  24.240  23.320  1.00  0.00    +0.000 C 
ATOM    142  H39 UNL A   1      30.075  23.391  23.942  1.00  0.00    +0.000 H 
ATOM    143  H40 UNL A   1      29.801  24.166  22.358  1.00  0.00    +0.000 H 
BRANCH   91   92
ATOM    145  H42 UNL A   1      28.724  25.613  23.506  1.00  0.00    +0.000 H 
ATOM     92  C66 UNL A   1      29.664  25.473  23.999  1.00  0.00    +0.000 C 
ATOM    144  H41 UNL A   1      29.617  25.266  25.048  1.00  0.00    +0.000 H 
BRANCH   92   93
ATOM    146  H43 UNL A   1      31.276  26.623  23.278  1.00  0.00    +0.000 H 
ATOM    147  H44 UNL A   1      30.489  27.160  24.842  1.00  0.00    +0.000 H 
ATOM     93  C67 UNL A   1      30.383  26.818  23.833  1.00  0.00    +0.000 C 
BRANCH   93   94
ATOM     97  C71 UNL A   1      28.259  30.134  22.033  1.00  0.00    +0.000 C 
ATOM     98  C72 UNL A   1      27.597  29.187  22.805  1.00  0.00    +0.000 C 
ATOM     99  C73 UNL A   1      28.309  28.123  23.363  1.00  0.00    +0.000 C 
ATOM    148  H45 UNL A   1      31.351  28.854  22.190  1.00  0.00    +0.000 H 
ATOM    149  H46 UNL A   1      30.121  30.713  21.244  1.00  0.00    +0.000 H 
ATOM    150  H47 UNL A   1      27.738  30.925  21.623  1.00  0.00    +0.000 H 
ATOM    151  H48 UNL A   1      26.581  29.268  22.965  1.00  0.00    +0.000 H 
ATOM    152  H49 UNL A   1      27.812  27.430  23.944  1.00  0.00    +0.000 H 
ATOM     94  C68 UNL A   1      29.693  27.977  23.151  1.00  0.00    +0.000 C 
ATOM     95  C69 UNL A   1      30.337  28.937  22.366  1.00  0.00    +0.000 C 
ATOM     96  C70 UNL A   1      29.627  30.009  21.815  1.00  0.00    +0.000 C 
ENDBRANCH   93   94
ENDBRANCH   92   93
ENDBRANCH   91   92
ENDBRANCH   90   91
ENDBRANCH   88   90
ENDBRANCH   87   88
ENDBRANCH   86   87
ENDBRANCH   81   82
ENDBRANCH    2   78
ENDBRANCH    3    2
ENDBRANCH    5    3
ENDBRANCH    6    5
ENDBRANCH    7    6
ENDBRANCH    8    7
ENDBRANCH    9    8
ENDBRANCH   10    9
ENDBRANCH   11   10
ENDBRANCH   12   11
ENDBRANCH   13   12
ENDBRANCH   15   13
ENDBRANCH   19   18
BRANCH   23   24
ATOM     33  C24 UNL A   1      46.290  34.273  29.652  1.00  0.00    +0.000 C 
ATOM     34  F5  UNL A   1      46.641  33.354  30.564  1.00  0.00    +0.000 F 
ATOM     24  C19 UNL A   1      45.476  33.919  28.566  1.00  0.00    +0.000 C 
ATOM     25  C20 UNL A   1      45.137  34.923  27.646  1.00  0.00    +0.000 C 
ATOM     26  F1  UNL A   1      44.372  34.632  26.584  1.00  0.00    +0.000 F 
ATOM     27  C21 UNL A   1      45.617  36.221  27.791  1.00  0.00    +0.000 C 
ATOM     28  F2  UNL A   1      45.319  37.151  26.874  1.00  0.00    +0.000 F 
ATOM     29  C22 UNL A   1      46.415  36.550  28.877  1.00  0.00    +0.000 C 
ATOM     30  F3  UNL A   1      46.874  37.802  29.018  1.00  0.00    +0.000 F 
ATOM     31  C23 UNL A   1      46.746  35.580  29.811  1.00  0.00    +0.000 C 
ATOM     32  F4  UNL A   1      47.509  35.899  30.865  1.00  0.00    +0.000 F 
ENDBRANCH   23   24
BRANCH   40   41
ATOM     41  C30 UNL A   1      47.427  27.775  25.339  1.00  0.00    +0.000 C 
ATOM     42  C31 UNL A   1      48.536  27.156  25.932  1.00  0.00    +0.000 C 
ATOM     43  F6  UNL A   1      48.620  27.056  27.267  1.00  0.00    +0.000 F 
ATOM     44  C32 UNL A   1      49.582  26.668  25.153  1.00  0.00    +0.000 C 
ATOM     45  F7  UNL A   1      50.652  26.117  25.743  1.00  0.00    +0.000 F 
ATOM     46  C33 UNL A   1      49.526  26.763  23.771  1.00  0.00    +0.000 C 
ATOM     47  F8  UNL A   1      50.531  26.288  23.024  1.00  0.00    +0.000 F 
ATOM     48  C34 UNL A   1      48.430  27.358  23.164  1.00  0.00    +0.000 C 
ATOM     49  F9  UNL A   1      48.369  27.441  21.826  1.00  0.00    +0.000 F 
ATOM     50  C35 UNL A   1      47.394  27.870  23.939  1.00  0.00    +0.000 C 
ATOM     51  F10 UNL A   1      46.352  28.449  23.325  1.00  0.00    +0.000 F 
ENDBRANCH   40   41
BRANCH   55   56
ATOM     65  C44 UNL A   1      42.098  23.672  28.257  1.00  0.00    +0.000 C 
ATOM     66  F15 UNL A   1      43.169  23.807  29.053  1.00  0.00    +0.000 F 
ATOM     56  C39 UNL A   1      41.559  24.792  27.609  1.00  0.00    +0.000 C 
ATOM     57  C40 UNL A   1      40.442  24.597  26.784  1.00  0.00    +0.000 C 
ATOM     58  F11 UNL A   1      39.881  25.643  26.160  1.00  0.00    +0.000 F 
ATOM     59  C41 UNL A   1      39.878  23.334  26.627  1.00  0.00    +0.000 C 
ATOM     60  F12 UNL A   1      38.786  23.181  25.863  1.00  0.00    +0.000 F 
ATOM     61  C42 UNL A   1      40.432  22.238  27.269  1.00  0.00    +0.000 C 
ATOM     62  F13 UNL A   1      39.891  21.023  27.114  1.00  0.00    +0.000 F 
ATOM     63  C43 UNL A   1      41.546  22.405  28.079  1.00  0.00    +0.000 C 
ATOM     64  F14 UNL A   1      42.093  21.347  28.693  1.00  0.00    +0.000 F 
ENDBRANCH   55   56
TORSDOF 25
ENDMDL
MODEL 3
REMARK VINA RESULT:     -11.2      1.413      2.147
ROOT
ATOM    129  H26 UNL A   1      42.756  28.897  28.592  1.00  0.00    +0.000 H 
ATOM    130  H27 UNL A   1      43.872  24.587  26.254  1.00  0.00    +0.000 H 
ATOM    131  H28 UNL A   1      46.074  25.688  25.550  1.00  0.00    +0.000 H 
ATOM    132  H29 UNL A   1      43.256  34.299  29.891  1.00  0.00    +0.000 H 
ATOM    133  H30 UNL A   1      41.280  33.097  30.986  1.00  0.00    +0.000 H 
ATOM     19  C15 UNL A   1      40.974  30.394  30.142  1.00  0.00    +0.000 C 
ATOM     20  C16 UNL A   1      42.088  31.341  29.799  1.00  0.00    +0.000 C 
ATOM     21  N3  UNL A   1      43.146  31.142  29.054  1.00  0.00    +0.000 N 
ATOM     22  C17 UNL A   1      43.823  32.354  29.027  1.00  0.00    +0.000 C 
ATOM     23  C18 UNL A   1      45.005  32.648  28.437  1.00  0.00    +0.000 C 
ATOM     35  C25 UNL A   1      45.806  31.701  27.706  1.00  0.00    +0.000 C 
ATOM     36  C26 UNL A   1      47.050  31.884  27.129  1.00  0.00    +0.000 C 
ATOM     37  C27 UNL A   1      47.418  30.693  26.495  1.00  0.00    +0.000 C 
ATOM     38  C28 UNL A   1      46.422  29.755  26.711  1.00  0.00    +0.000 C 
ATOM     39  N4  UNL A   1      45.437  30.387  27.453  1.00  0.00    +0.000 N 
ATOM     40  C29 UNL A   1      46.368  28.384  26.274  1.00  0.00    +0.000 C 
ATOM     52  C36 UNL A   1      45.359  27.520  26.541  1.00  0.00    +0.000 C 
ATOM     53  N5  UNL A   1      44.196  27.736  27.265  1.00  0.00    +0.000 N 
ATOM     54  C37 UNL A   1      43.535  26.605  27.232  1.00  0.00    +0.000 C 
ATOM     55  C38 UNL A   1      42.218  26.255  27.870  1.00  0.00    +0.000 C 
ATOM     67  C45 UNL A   1      41.578  27.180  28.611  1.00  0.00    +0.000 C 
ATOM     68  C46 UNL A   1      40.304  26.984  29.294  1.00  0.00    +0.000 C 
ATOM     69  C47 UNL A   1      39.952  28.129  29.901  1.00  0.00    +0.000 C 
ATOM     70  C48 UNL A   1      40.995  29.130  29.676  1.00  0.00    +0.000 C 
ATOM     71  N6  UNL A   1      41.923  28.476  28.904  1.00  0.00    +0.000 N 
ATOM     72  C49 UNL A   1      44.196  25.545  26.457  1.00  0.00    +0.000 C 
ATOM     73  C50 UNL A   1      45.321  26.144  26.089  1.00  0.00    +0.000 C 
ATOM     74  C51 UNL A   1      43.032  33.296  29.790  1.00  0.00    +0.000 C 
ATOM     75  C52 UNL A   1      41.984  32.705  30.343  1.00  0.00    +0.000 C 
ATOM    124  H21 UNL A   1      47.610  32.750  27.162  1.00  0.00    +0.000 H 
ATOM    125  H22 UNL A   1      48.286  30.539  25.957  1.00  0.00    +0.000 H 
ATOM    126  H23 UNL A   1      44.600  29.968  27.756  1.00  0.00    +0.000 H 
ATOM    127  H24 UNL A   1      39.760  26.106  29.307  1.00  0.00    +0.000 H 
ATOM    128  H25 UNL A   1      39.084  28.278  30.439  1.00  0.00    +0.000 H 
ENDROOT
BRANCH   19   18
ATOM    134  H31 UNL A   1      40.626  30.262  32.794  1.00  0.00    +0.000 H 
ATOM    135  H32 UNL A   1      38.705  30.942  34.106  1.00  0.00    +0.000 H 
ATOM     76  C53 UNL A   1      39.815  30.700  32.330  1.00  0.00    +0.000 C 
ATOM     77  C54 UNL A   1      38.730  31.128  33.091  1.00  0.00    +0.000 C 
ATOM     15  C11 UNL A   1      37.674  31.808  32.477  1.00  0.00    +0.000 C 
ATOM     16  C12 UNL A   1      37.646  31.953  31.088  1.00  0.00    +0.000 C 
ATOM     17  C13 UNL A   1      38.705  31.466  30.318  1.00  0.00    +0.000 C 
ATOM     18  C14 UNL A   1      39.812  30.864  30.936  1.00  0.00    +0.000 C 
ATOM    122  H19 UNL A   1      36.845  32.417  30.632  1.00  0.00    +0.000 H 
ATOM    123  H20 UNL A   1      38.674  31.551  29.290  1.00  0.00    +0.000 H 
BRANCH   15   13
ATOM     13  C10 UNL A   1      36.568  32.378  33.276  1.00  0.00    +0.000 C 
ATOM     14  O2  UNL A   1      36.716  32.558  34.481  1.00  0.00    +0.000 O 
BRANCH   13   12
ATOM    121  H18 UNL A   1      35.355  32.580  31.693  1.00  0.00    +0.000 H 
ATOM     12  N2  UNL A   1      35.373  32.684  32.672  1.00  0.00    +0.000 N 
BRANCH   12   11
ATOM     11  C9  UNL A   1      34.132  33.139  33.276  1.00  0.00    +0.000 C 
ATOM    119  H16 UNL A   1      33.317  32.613  32.826  1.00  0.00    +0.000 H 
ATOM    120  H17 UNL A   1      34.191  32.943  34.328  1.00  0.00    +0.000 H 
BRANCH   11   10
ATOM     10  C8  UNL A   1      33.913  34.636  33.094  1.00  0.00    +0.000 C 
ATOM    117  H14 UNL A   1      32.863  34.830  33.171  1.00  0.00    +0.000 H 
ATOM    118  H15 UNL A   1      34.489  35.120  33.854  1.00  0.00    +0.000 H 
BRANCH   10    9
ATOM      9  C7  UNL A   1      34.404  35.199  31.759  1.00  0.00    +0.000 C 
ATOM    115  H12 UNL A   1      35.287  35.774  31.947  1.00  0.00    +0.000 H 
ATOM    116  H13 UNL A   1      34.573  34.354  31.125  1.00  0.00    +0.000 H 
BRANCH    9    8
ATOM    113  H10 UNL A   1      32.550  36.222  31.653  1.00  0.00    +0.000 H 
ATOM    114  H11 UNL A   1      33.925  37.003  30.810  1.00  0.00    +0.000 H 
ATOM      8  C6  UNL A   1      33.403  36.092  31.022  1.00  0.00    +0.000 C 
BRANCH    8    7
ATOM    111  H8  UNL A   1      32.557  34.562  29.813  1.00  0.00    +0.000 H 
ATOM      7  C5  UNL A   1      32.914  35.560  29.668  1.00  0.00    +0.000 C 
ATOM    112  H9  UNL A   1      32.155  36.238  29.336  1.00  0.00    +0.000 H 
BRANCH    7    6
ATOM    110  H7  UNL A   1      34.802  36.138  28.870  1.00  0.00    +0.000 H 
ATOM    109  H6  UNL A   1      33.547  35.907  27.657  1.00  0.00    +0.000 H 
ATOM      6  C4  UNL A   1      33.975  35.531  28.561  1.00  0.00    +0.000 C 
BRANCH    6    5
ATOM    108  H5  UNL A   1      35.426  34.029  28.439  1.00  0.00    +0.000 H 
ATOM      5  N1  UNL A   1      34.460  34.185  28.330  1.00  0.00    +0.000 N 
BRANCH    5    3
ATOM      3  C3  UNL A   1      33.689  33.111  27.973  1.00  0.00    +0.000 C 
ATOM      4  O1  UNL A   1      32.578  33.368  27.508  1.00  0.00    +0.000 O 
BRANCH    3    2
ATOM      2  C2  UNL A   1      34.254  31.692  28.155  1.00  0.00    +0.000 C 
ATOM    107  H4  UNL A   1      34.006  31.428  29.162  1.00  0.00    +0.000 H 
BRANCH    2    1
ATOM      1  C1  UNL A   1      35.768  31.725  27.904  1.00  0.00    +0.000 C 
ATOM    106  H3  UNL A   1      35.956  32.040  26.899  1.00  0.00    +0.000 H 
ATOM    105  H2  UNL A   1      36.228  32.410  28.585  1.00  0.00    +0.000 H 
ATOM    104  H1  UNL A   1      36.175  30.746  28.053  1.00  0.00    +0.000 H 
ENDBRANCH    2    1
BRANCH    2   78
ATOM    101  C75 UNL A   1      31.944  29.729  25.776  1.00  0.00    +0.000 C 
ATOM    102  F16 UNL A   1      30.763  29.925  25.167  1.00  0.00    +0.000 F 
ATOM    103  C76 UNL A   1      32.379  30.699  26.676  1.00  0.00    +0.000 C 
ATOM    136  H33 UNL A   1      35.235  29.248  27.597  1.00  0.00    +0.000 H 
ATOM    137  H34 UNL A   1      34.481  27.584  26.016  1.00  0.00    +0.000 H 
ATOM     78  C55 UNL A   1      33.622  30.585  27.308  1.00  0.00    +0.000 C 
ATOM     79  C56 UNL A   1      34.355  29.403  27.081  1.00  0.00    +0.000 C 
ATOM     80  C57 UNL A   1      33.916  28.434  26.168  1.00  0.00    +0.000 C 
ATOM     81  C58 UNL A   1      32.719  28.607  25.462  1.00  0.00    +0.000 C 
ATOM    154  H51 UNL A   1      31.777  31.512  26.879  1.00  0.00    +0.000 H 
BRANCH   81   82
ATOM    100  C74 UNL A   1      32.701  26.358  24.417  1.00  0.00    +0.000 C 
ATOM    138  H35 UNL A   1      31.353  29.160  23.169  1.00  0.00    +0.000 H 
ATOM    139  H36 UNL A   1      30.759  27.627  21.387  1.00  0.00    +0.000 H 
ATOM    140  H37 UNL A   1      31.381  25.284  21.535  1.00  0.00    +0.000 H 
ATOM     82  C59 UNL A   1      32.348  27.719  24.351  1.00  0.00    +0.000 C 
ATOM     83  C60 UNL A   1      31.629  28.169  23.235  1.00  0.00    +0.000 C 
ATOM     84  C61 UNL A   1      31.281  27.283  22.208  1.00  0.00    +0.000 C 
ATOM     85  C62 UNL A   1      31.637  25.936  22.292  1.00  0.00    +0.000 C 
ATOM     86  C63 UNL A   1      32.340  25.477  23.404  1.00  0.00    +0.000 C 
ATOM    153  H50 UNL A   1      33.237  26.010  25.227  1.00  0.00    +0.000 H 
BRANCH   86   87
ATOM     87  O3  UNL A   1      32.700  24.109  23.388  1.00  0.00    +0.000 O 
BRANCH   87   88
ATOM     89  O4  UNL A   1      31.793  21.972  23.098  1.00  0.00    +0.000 O 
ATOM     88  C64 UNL A   1      31.830  23.053  23.661  1.00  0.00    +0.000 C 
BRANCH   88   90
ATOM     90  N7  UNL A   1      30.965  23.325  24.691  1.00  0.00    +0.000 N 
ATOM    141  H38 UNL A   1      30.311  24.050  24.566  1.00  0.00    +0.000 H 
BRANCH   90   91
ATOM     91  C65 UNL A   1      30.953  22.613  25.948  1.00  0.00    +0.000 C 
ATOM    142  H39 UNL A   1      31.301  21.617  25.771  1.00  0.00    +0.000 H 
ATOM    143  H40 UNL A   1      29.946  22.647  26.308  1.00  0.00    +0.000 H 
BRANCH   91   92
ATOM    145  H42 UNL A   1      32.021  24.229  26.681  1.00  0.00    +0.000 H 
ATOM     92  C66 UNL A   1      31.827  23.238  27.036  1.00  0.00    +0.000 C 
ATOM    144  H41 UNL A   1      31.284  23.169  27.957  1.00  0.00    +0.000 H 
BRANCH   92   93
ATOM    146  H43 UNL A   1      33.082  21.596  27.447  1.00  0.00    +0.000 H 
ATOM    147  H44 UNL A   1      33.589  23.231  28.100  1.00  0.00    +0.000 H 
ATOM     93  C67 UNL A   1      33.219  22.645  27.284  1.00  0.00    +0.000 C 
BRANCH   93   94
ATOM     97  C71 UNL A   1      36.254  22.873  24.205  1.00  0.00    +0.000 C 
ATOM     98  C72 UNL A   1      35.641  21.668  24.525  1.00  0.00    +0.000 C 
ATOM     99  C73 UNL A   1      34.673  21.626  25.532  1.00  0.00    +0.000 C 
ATOM    148  H45 UNL A   1      34.697  24.847  26.420  1.00  0.00    +0.000 H 
ATOM    149  H46 UNL A   1      36.356  24.926  24.657  1.00  0.00    +0.000 H 
ATOM    150  H47 UNL A   1      36.966  22.910  23.458  1.00  0.00    +0.000 H 
ATOM    151  H48 UNL A   1      35.901  20.806  24.023  1.00  0.00    +0.000 H 
ATOM    152  H49 UNL A   1      34.216  20.729  25.756  1.00  0.00    +0.000 H 
ATOM     94  C68 UNL A   1      34.308  22.783  26.245  1.00  0.00    +0.000 C 
ATOM     95  C69 UNL A   1      34.942  23.983  25.911  1.00  0.00    +0.000 C 
ATOM     96  C70 UNL A   1      35.904  24.029  24.896  1.00  0.00    +0.000 C 
ENDBRANCH   93   94
ENDBRANCH   92   93
ENDBRANCH   91   92
ENDBRANCH   90   91
ENDBRANCH   88   90
ENDBRANCH   87   88
ENDBRANCH   86   87
ENDBRANCH   81   82
ENDBRANCH    2   78
ENDBRANCH    3    2
ENDBRANCH    5    3
ENDBRANCH    6    5
ENDBRANCH    7    6
ENDBRANCH    8    7
ENDBRANCH    9    8
ENDBRANCH   10    9
ENDBRANCH   11   10
ENDBRANCH   12   11
ENDBRANCH   13   12
ENDBRANCH   15   13
ENDBRANCH   19   18
BRANCH   23   24
ATOM     33  C24 UNL A   1      45.129  35.034  27.633  1.00  0.00    +0.000 C 
ATOM     34  F5  UNL A   1      44.289  34.727  26.632  1.00  0.00    +0.000 F 
ATOM     24  C19 UNL A   1      45.509  34.055  28.563  1.00  0.00    +0.000 C 
ATOM     25  C20 UNL A   1      46.393  34.431  29.586  1.00  0.00    +0.000 C 
ATOM     26  F1  UNL A   1      46.777  33.535  30.507  1.00  0.00    +0.000 F 
ATOM     27  C21 UNL A   1      46.855  35.740  29.690  1.00  0.00    +0.000 C 
ATOM     28  F2  UNL A   1      47.661  36.086  30.703  1.00  0.00    +0.000 F 
ATOM     29  C22 UNL A   1      46.470  36.689  28.755  1.00  0.00    +0.000 C 
ATOM     30  F3  UNL A   1      46.919  37.949  28.854  1.00  0.00    +0.000 F 
ATOM     31  C23 UNL A   1      45.614  36.336  27.723  1.00  0.00    +0.000 C 
ATOM     32  F4  UNL A   1      45.249  37.250  26.814  1.00  0.00    +0.000 F 
ENDBRANCH   23   24
BRANCH   40   41
ATOM     41  C30 UNL A   1      47.527  27.859  25.478  1.00  0.00    +0.000 C 
ATOM     42  C31 UNL A   1      47.491  27.809  24.077  1.00  0.00    +0.000 C 
ATOM     43  F6  UNL A   1      46.385  28.185  23.417  1.00  0.00    +0.000 F 
ATOM     44  C32 UNL A   1      48.581  27.337  23.351  1.00  0.00    +0.000 C 
ATOM     45  F7  UNL A   1      48.510  27.259  22.015  1.00  0.00    +0.000 F 
ATOM     46  C33 UNL A   1      49.734  26.936  24.008  1.00  0.00    +0.000 C 
ATOM     47  F8  UNL A   1      50.784  26.487  23.307  1.00  0.00    +0.000 F 
ATOM     48  C34 UNL A   1      49.797  26.992  25.392  1.00  0.00    +0.000 C 
ATOM     49  F9  UNL A   1      50.915  26.614  26.028  1.00  0.00    +0.000 F 
ATOM     50  C35 UNL A   1      48.700  27.439  26.123  1.00  0.00    +0.000 C 
ATOM     51  F10 UNL A   1      48.785  27.472  27.461  1.00  0.00    +0.000 F 
ENDBRANCH   40   41
BRANCH   55   56
ATOM     65  C44 UNL A   1      42.167  23.793  28.391  1.00  0.00    +0.000 C 
ATOM     66  F15 UNL A   1      43.227  23.945  29.200  1.00  0.00    +0.000 F 
ATOM     56  C39 UNL A   1      41.635  24.899  27.715  1.00  0.00    +0.000 C 
ATOM     57  C40 UNL A   1      40.531  24.685  26.878  1.00  0.00    +0.000 C 
ATOM     58  F11 UNL A   1      39.975  25.718  26.228  1.00  0.00    +0.000 F 
ATOM     59  C41 UNL A   1      39.972  23.418  26.736  1.00  0.00    +0.000 C 
ATOM     60  F12 UNL A   1      38.892  23.247  25.959  1.00  0.00    +0.000 F 
ATOM     61  C42 UNL A   1      40.521  22.335  27.406  1.00  0.00    +0.000 C 
ATOM     62  F13 UNL A   1      39.986  21.116  27.265  1.00  0.00    +0.000 F 
ATOM     63  C43 UNL A   1      41.622  22.521  28.229  1.00  0.00    +0.000 C 
ATOM     64  F14 UNL A   1      42.163  21.475  28.869  1.00  0.00    +0.000 F 
ENDBRANCH   55   56
TORSDOF 25
ENDMDL
MODEL 4
REMARK VINA RESULT:     -10.2     37.638     42.396
ROOT
ATOM    129  H26 UNL A   1      15.779  51.087   2.152  1.00  0.00    +0.000 H 
ATOM    130  H27 UNL A   1      17.687  50.740  -2.487  1.00  0.00    +0.000 H 
ATOM    131  H28 UNL A   1      18.133  53.257  -2.355  1.00  0.00    +0.000 H 
ATOM    132  H29 UNL A   1      13.769  53.640   6.686  1.00  0.00    +0.000 H 
ATOM    133  H30 UNL A   1      13.728  51.082   6.772  1.00  0.00    +0.000 H 
ATOM     19  C15 UNL A   1      14.597  49.843   4.360  1.00  0.00    +0.000 C 
ATOM     20  C16 UNL A   1      14.612  51.307   4.695  1.00  0.00    +0.000 C 
ATOM     21  N3  UNL A   1      15.021  52.319   3.973  1.00  0.00    +0.000 N 
ATOM     22  C17 UNL A   1      14.770  53.453   4.734  1.00  0.00    +0.000 C 
ATOM     23  C18 UNL A   1      15.065  54.743   4.450  1.00  0.00    +0.000 C 
ATOM     35  C25 UNL A   1      15.731  55.179   3.250  1.00  0.00    +0.000 C 
ATOM     36  C26 UNL A   1      16.134  56.455   2.901  1.00  0.00    +0.000 C 
ATOM     37  C27 UNL A   1      16.707  56.400   1.626  1.00  0.00    +0.000 C 
ATOM     38  C28 UNL A   1      16.697  55.082   1.198  1.00  0.00    +0.000 C 
ATOM     39  N4  UNL A   1      16.093  54.344   2.203  1.00  0.00    +0.000 N 
ATOM     40  C29 UNL A   1      17.198  54.534  -0.036  1.00  0.00    +0.000 C 
ATOM     52  C36 UNL A   1      17.165  53.224  -0.377  1.00  0.00    +0.000 C 
ATOM     53  N5  UNL A   1      16.668  52.148   0.345  1.00  0.00    +0.000 N 
ATOM     54  C37 UNL A   1      16.853  51.092  -0.408  1.00  0.00    +0.000 C 
ATOM     55  C38 UNL A   1      16.527  49.652  -0.121  1.00  0.00    +0.000 C 
ATOM     67  C45 UNL A   1      15.983  49.323   1.066  1.00  0.00    +0.000 C 
ATOM     68  C46 UNL A   1      15.621  47.973   1.488  1.00  0.00    +0.000 C 
ATOM     69  C47 UNL A   1      15.072  48.029   2.711  1.00  0.00    +0.000 C 
ATOM     70  C48 UNL A   1      15.072  49.417   3.173  1.00  0.00    +0.000 C 
ATOM     71  N6  UNL A   1      15.636  50.114   2.133  1.00  0.00    +0.000 N 
ATOM     72  C49 UNL A   1      17.469  51.383  -1.711  1.00  0.00    +0.000 C 
ATOM     73  C50 UNL A   1      17.671  52.691  -1.625  1.00  0.00    +0.000 C 
ATOM     74  C51 UNL A   1      14.130  53.009   5.954  1.00  0.00    +0.000 C 
ATOM     75  C52 UNL A   1      14.069  51.687   6.009  1.00  0.00    +0.000 C 
ATOM    124  H21 UNL A   1      16.031  57.302   3.481  1.00  0.00    +0.000 H 
ATOM    125  H22 UNL A   1      17.074  57.204   1.093  1.00  0.00    +0.000 H 
ATOM    126  H23 UNL A   1      15.942  53.372   2.178  1.00  0.00    +0.000 H 
ATOM    127  H24 UNL A   1      15.765  47.114   0.933  1.00  0.00    +0.000 H 
ATOM    128  H25 UNL A   1      14.707  47.222   3.240  1.00  0.00    +0.000 H 
ENDROOT
BRANCH   19   18
ATOM    134  H31 UNL A   1      12.124  48.817   4.318  1.00  0.00    +0.000 H 
ATOM    135  H32 UNL A   1      11.090  47.290   5.891  1.00  0.00    +0.000 H 
ATOM     76  C53 UNL A   1      12.669  48.449   5.113  1.00  0.00    +0.000 C 
ATOM     77  C54 UNL A   1      12.086  47.540   5.991  1.00  0.00    +0.000 C 
ATOM     15  C11 UNL A   1      12.853  46.968   7.011  1.00  0.00    +0.000 C 
ATOM     16  C12 UNL A   1      14.165  47.395   7.227  1.00  0.00    +0.000 C 
ATOM     17  C13 UNL A   1      14.729  48.355   6.384  1.00  0.00    +0.000 C 
ATOM     18  C14 UNL A   1      13.996  48.867   5.302  1.00  0.00    +0.000 C 
ATOM    122  H19 UNL A   1      14.716  47.003   8.007  1.00  0.00    +0.000 H 
ATOM    123  H20 UNL A   1      15.691  48.689   6.557  1.00  0.00    +0.000 H 
BRANCH   15   13
ATOM     13  C10 UNL A   1      12.294  45.912   7.883  1.00  0.00    +0.000 C 
ATOM     14  O2  UNL A   1      11.681  44.972   7.386  1.00  0.00    +0.000 O 
BRANCH   13   12
ATOM    121  H18 UNL A   1      13.148  45.426   9.631  1.00  0.00    +0.000 H 
ATOM     12  N2  UNL A   1      12.445  45.998   9.245  1.00  0.00    +0.000 N 
BRANCH   12   11
ATOM     11  C9  UNL A   1      11.711  46.815  10.197  1.00  0.00    +0.000 C 
ATOM    119  H16 UNL A   1      11.915  46.460  11.185  1.00  0.00    +0.000 H 
ATOM    120  H17 UNL A   1      12.033  47.829  10.072  1.00  0.00    +0.000 H 
BRANCH   11   10
ATOM     10  C8  UNL A   1      10.206  46.772   9.960  1.00  0.00    +0.000 C 
ATOM    117  H14 UNL A   1      10.029  46.937   8.918  1.00  0.00    +0.000 H 
ATOM    118  H15 UNL A   1       9.875  45.814  10.300  1.00  0.00    +0.000 H 
BRANCH   10    9
ATOM      9  C7  UNL A   1       9.403  47.809  10.748  1.00  0.00    +0.000 C 
ATOM    115  H12 UNL A   1       9.737  47.783  11.765  1.00  0.00    +0.000 H 
ATOM    116  H13 UNL A   1       9.575  48.748  10.267  1.00  0.00    +0.000 H 
BRANCH    9    8
ATOM    113  H10 UNL A   1       7.680  46.709  10.186  1.00  0.00    +0.000 H 
ATOM    114  H11 UNL A   1       7.596  47.539  11.771  1.00  0.00    +0.000 H 
ATOM      8  C6  UNL A   1       7.887  47.598  10.743  1.00  0.00    +0.000 C 
BRANCH    8    7
ATOM    111  H8  UNL A   1       6.307  49.017  10.840  1.00  0.00    +0.000 H 
ATOM      7  C5  UNL A   1       7.063  48.741  10.135  1.00  0.00    +0.000 C 
ATOM    112  H9  UNL A   1       7.754  49.530   9.924  1.00  0.00    +0.000 H 
BRANCH    7    6
ATOM    110  H7  UNL A   1       6.242  49.318   8.257  1.00  0.00    +0.000 H 
ATOM    109  H6  UNL A   1       5.431  47.946   9.006  1.00  0.00    +0.000 H 
ATOM      6  C4  UNL A   1       6.375  48.408   8.805  1.00  0.00    +0.000 C 
BRANCH    6    5
ATOM    108  H5  UNL A   1       7.049  46.542   8.143  1.00  0.00    +0.000 H 
ATOM      5  N1  UNL A   1       7.181  47.508   8.004  1.00  0.00    +0.000 N 
BRANCH    5    3
ATOM      3  C3  UNL A   1       8.108  47.887   7.071  1.00  0.00    +0.000 C 
ATOM      4  O1  UNL A   1       8.722  46.978   6.512  1.00  0.00    +0.000 O 
BRANCH    3    2
ATOM      2  C2  UNL A   1       8.303  49.385   6.778  1.00  0.00    +0.000 C 
ATOM    107  H4  UNL A   1       7.366  49.835   7.031  1.00  0.00    +0.000 H 
BRANCH    2    1
ATOM      1  C1  UNL A   1       8.668  49.558   5.298  1.00  0.00    +0.000 C 
ATOM    106  H3  UNL A   1       8.495  48.640   4.778  1.00  0.00    +0.000 H 
ATOM    105  H2  UNL A   1       8.063  50.330   4.870  1.00  0.00    +0.000 H 
ATOM    104  H1  UNL A   1       9.701  49.827   5.214  1.00  0.00    +0.000 H 
ENDBRANCH    2    1
BRANCH    2   78
ATOM    101  C75 UNL A   1      11.570  50.521   8.478  1.00  0.00    +0.000 C 
ATOM    102  F16 UNL A   1      12.834  50.078   8.577  1.00  0.00    +0.000 F 
ATOM    103  C76 UNL A   1      10.645  49.707   7.828  1.00  0.00    +0.000 C 
ATOM    136  H33 UNL A   1       7.961  51.649   8.194  1.00  0.00    +0.000 H 
ATOM    137  H34 UNL A   1       9.579  53.063   9.299  1.00  0.00    +0.000 H 
ATOM     78  C55 UNL A   1       9.324  50.128   7.644  1.00  0.00    +0.000 C 
ATOM     79  C56 UNL A   1       8.948  51.350   8.237  1.00  0.00    +0.000 C 
ATOM     80  C57 UNL A   1       9.884  52.168   8.884  1.00  0.00    +0.000 C 
ATOM     81  C58 UNL A   1      11.228  51.785   8.972  1.00  0.00    +0.000 C 
ATOM    154  H51 UNL A   1      10.938  48.782   7.477  1.00  0.00    +0.000 H 
BRANCH   81   82
ATOM    100  C74 UNL A   1      13.216  52.257  10.377  1.00  0.00    +0.000 C 
ATOM    138  H35 UNL A   1      11.669  54.393   8.310  1.00  0.00    +0.000 H 
ATOM    139  H36 UNL A   1      13.419  55.857   9.128  1.00  0.00    +0.000 H 
ATOM    140  H37 UNL A   1      15.053  55.033  10.725  1.00  0.00    +0.000 H 
ATOM     82  C59 UNL A   1      12.262  52.715   9.449  1.00  0.00    +0.000 C 
ATOM     83  C60 UNL A   1      12.354  54.038   8.995  1.00  0.00    +0.000 C 
ATOM     84  C61 UNL A   1      13.367  54.882   9.463  1.00  0.00    +0.000 C 
ATOM     85  C62 UNL A   1      14.307  54.410  10.380  1.00  0.00    +0.000 C 
ATOM     86  C63 UNL A   1      14.232  53.092  10.827  1.00  0.00    +0.000 C 
ATOM    153  H50 UNL A   1      13.161  51.288  10.728  1.00  0.00    +0.000 H 
BRANCH   86   87
ATOM     87  O3  UNL A   1      15.196  52.709  11.789  1.00  0.00    +0.000 O 
BRANCH   87   88
ATOM     89  O4  UNL A   1      15.630  50.410  11.763  1.00  0.00    +0.000 O 
ATOM     88  C64 UNL A   1      15.304  51.432  12.343  1.00  0.00    +0.000 C 
BRANCH   88   90
ATOM     90  N7  UNL A   1      15.012  51.403  13.683  1.00  0.00    +0.000 N 
ATOM    141  H38 UNL A   1      15.468  52.048  14.269  1.00  0.00    +0.000 H 
BRANCH   90   91
ATOM     91  C65 UNL A   1      14.076  50.484  14.287  1.00  0.00    +0.000 C 
ATOM    142  H39 UNL A   1      14.571  49.984  15.093  1.00  0.00    +0.000 H 
ATOM    143  H40 UNL A   1      13.759  49.817  13.513  1.00  0.00    +0.000 H 
BRANCH   91   92
ATOM    145  H42 UNL A   1      12.373  50.392  15.464  1.00  0.00    +0.000 H 
ATOM     92  C66 UNL A   1      12.810  51.143  14.838  1.00  0.00    +0.000 C 
ATOM    144  H41 UNL A   1      13.112  52.045  15.330  1.00  0.00    +0.000 H 
BRANCH   92   93
ATOM    146  H43 UNL A   1      10.774  51.194  14.299  1.00  0.00    +0.000 H 
ATOM    147  H44 UNL A   1      12.001  51.032  12.949  1.00  0.00    +0.000 H 
ATOM     93  C67 UNL A   1      11.693  51.513  13.854  1.00  0.00    +0.000 C 
BRANCH   93   94
ATOM     97  C71 UNL A   1      11.328  55.658  12.658  1.00  0.00    +0.000 C 
ATOM     98  C72 UNL A   1      12.324  55.245  13.535  1.00  0.00    +0.000 C 
ATOM     99  C73 UNL A   1      12.408  53.902  13.910  1.00  0.00    +0.000 C 
ATOM    148  H45 UNL A   1       9.808  52.710  12.182  1.00  0.00    +0.000 H 
ATOM    149  H46 UNL A   1       9.678  55.033  11.512  1.00  0.00    +0.000 H 
ATOM    150  H47 UNL A   1      11.265  56.648  12.374  1.00  0.00    +0.000 H 
ATOM    151  H48 UNL A   1      12.999  55.929  13.911  1.00  0.00    +0.000 H 
ATOM    152  H49 UNL A   1      13.157  53.603  14.553  1.00  0.00    +0.000 H 
ATOM     94  C68 UNL A   1      11.493  52.949  13.426  1.00  0.00    +0.000 C 
ATOM     95  C69 UNL A   1      10.495  53.386  12.551  1.00  0.00    +0.000 C 
ATOM     96  C70 UNL A   1      10.416  54.729  12.165  1.00  0.00    +0.000 C 
ENDBRANCH   93   94
ENDBRANCH   92   93
ENDBRANCH   91   92
ENDBRANCH   90   91
ENDBRANCH   88   90
ENDBRANCH   87   88
ENDBRANCH   86   87
ENDBRANCH   81   82
ENDBRANCH    2   78
ENDBRANCH    3    2
ENDBRANCH    5    3
ENDBRANCH    6    5
ENDBRANCH    7    6
ENDBRANCH    8    7
ENDBRANCH    9    8
ENDBRANCH   10    9
ENDBRANCH   11   10
ENDBRANCH   12   11
ENDBRANCH   13   12
ENDBRANCH   15   13
ENDBRANCH   19   18
BRANCH   23   24
ATOM     33  C24 UNL A   1      13.325  56.121   5.645  1.00  0.00    +0.000 C 
ATOM     34  F5  UNL A   1      12.367  55.505   4.934  1.00  0.00    +0.000 F 
ATOM     24  C19 UNL A   1      14.673  55.780   5.460  1.00  0.00    +0.000 C 
ATOM     25  C20 UNL A   1      15.632  56.460   6.226  1.00  0.00    +0.000 C 
ATOM     26  F1  UNL A   1      16.933  56.161   6.096  1.00  0.00    +0.000 F 
ATOM     27  C21 UNL A   1      15.255  57.421   7.160  1.00  0.00    +0.000 C 
ATOM     28  F2  UNL A   1      16.185  58.023   7.913  1.00  0.00    +0.000 F 
ATOM     29  C22 UNL A   1      13.916  57.747   7.320  1.00  0.00    +0.000 C 
ATOM     30  F3  UNL A   1      13.555  58.676   8.216  1.00  0.00    +0.000 F 
ATOM     31  C23 UNL A   1      12.952  57.104   6.559  1.00  0.00    +0.000 C 
ATOM     32  F4  UNL A   1      11.660  57.424   6.706  1.00  0.00    +0.000 F 
ENDBRANCH   23   24
BRANCH   40   41
ATOM     41  C30 UNL A   1      17.826  55.481  -1.016  1.00  0.00    +0.000 C 
ATOM     42  C31 UNL A   1      17.078  56.079  -2.040  1.00  0.00    +0.000 C 
ATOM     43  F6  UNL A   1      15.782  55.771  -2.197  1.00  0.00    +0.000 F 
ATOM     44  C32 UNL A   1      17.671  56.970  -2.930  1.00  0.00    +0.000 C 
ATOM     45  F7  UNL A   1      16.948  57.499  -3.927  1.00  0.00    +0.000 F 
ATOM     46  C33 UNL A   1      19.011  57.302  -2.796  1.00  0.00    +0.000 C 
ATOM     47  F8  UNL A   1      19.578  58.164  -3.650  1.00  0.00    +0.000 F 
ATOM     48  C34 UNL A   1      19.765  56.734  -1.780  1.00  0.00    +0.000 C 
ATOM     49  F9  UNL A   1      21.058  57.061  -1.643  1.00  0.00    +0.000 F 
ATOM     50  C35 UNL A   1      19.183  55.823  -0.904  1.00  0.00    +0.000 C 
ATOM     51  F10 UNL A   1      19.939  55.281   0.062  1.00  0.00    +0.000 F 
ENDBRANCH   40   41
BRANCH   55   56
ATOM     65  C44 UNL A   1      15.981  48.360  -2.212  1.00  0.00    +0.000 C 
ATOM     66  F15 UNL A   1      14.878  49.104  -2.381  1.00  0.00    +0.000 F 
ATOM     56  C39 UNL A   1      16.824  48.591  -1.117  1.00  0.00    +0.000 C 
ATOM     57  C40 UNL A   1      17.962  47.782  -0.984  1.00  0.00    +0.000 C 
ATOM     58  F11 UNL A   1      18.808  47.982   0.037  1.00  0.00    +0.000 F 
ATOM     59  C41 UNL A   1      18.253  46.792  -1.919  1.00  0.00    +0.000 C 
ATOM     60  F12 UNL A   1      19.367  46.059  -1.790  1.00  0.00    +0.000 F 
ATOM     61  C42 UNL A   1      17.400  46.574  -2.990  1.00  0.00    +0.000 C 
ATOM     62  F13 UNL A   1      17.678  45.618  -3.886  1.00  0.00    +0.000 F 
ATOM     63  C43 UNL A   1      16.261  47.352  -3.134  1.00  0.00    +0.000 C 
ATOM     64  F14 UNL A   1      15.427  47.137  -4.161  1.00  0.00    +0.000 F 
ENDBRANCH   55   56
TORSDOF 25
ENDMDL
MODEL 5
REMARK VINA RESULT:     -10.1     21.941     28.205
ROOT
ATOM    129  H26 UNL A   1      56.595  27.190   3.881  1.00  0.00    +0.000 H 
ATOM    130  H27 UNL A   1      56.712  29.064  -0.784  1.00  0.00    +0.000 H 
ATOM    131  H28 UNL A   1      55.279  30.995   0.093  1.00  0.00    +0.000 H 
ATOM    132  H29 UNL A   1      54.836  26.668   9.149  1.00  0.00    +0.000 H 
ATOM    133  H30 UNL A   1      56.626  24.985   8.429  1.00  0.00    +0.000 H 
ATOM     19  C15 UNL A   1      57.348  25.188   5.681  1.00  0.00    +0.000 C 
ATOM     20  C16 UNL A   1      56.432  26.090   6.458  1.00  0.00    +0.000 C 
ATOM     21  N3  UNL A   1      55.776  27.150   6.056  1.00  0.00    +0.000 N 
ATOM     22  C17 UNL A   1      55.044  27.580   7.155  1.00  0.00    +0.000 C 
ATOM     23  C18 UNL A   1      54.249  28.670   7.266  1.00  0.00    +0.000 C 
ATOM     35  C25 UNL A   1      54.023  29.621   6.209  1.00  0.00    +0.000 C 
ATOM     36  C26 UNL A   1      53.289  30.794   6.244  1.00  0.00    +0.000 C 
ATOM     37  C27 UNL A   1      53.325  31.371   4.970  1.00  0.00    +0.000 C 
ATOM     38  C28 UNL A   1      54.114  30.579   4.152  1.00  0.00    +0.000 C 
ATOM     39  N4  UNL A   1      54.534  29.508   4.924  1.00  0.00    +0.000 N 
ATOM     40  C29 UNL A   1      54.461  30.781   2.769  1.00  0.00    +0.000 C 
ATOM     52  C36 UNL A   1      55.256  29.963   2.038  1.00  0.00    +0.000 C 
ATOM     53  N5  UNL A   1      55.898  28.796   2.427  1.00  0.00    +0.000 N 
ATOM     54  C37 UNL A   1      56.536  28.366   1.366  1.00  0.00    +0.000 C 
ATOM     55  C38 UNL A   1      57.417  27.156   1.214  1.00  0.00    +0.000 C 
ATOM     67  C45 UNL A   1      57.643  26.366   2.281  1.00  0.00    +0.000 C 
ATOM     68  C46 UNL A   1      58.477  25.169   2.288  1.00  0.00    +0.000 C 
ATOM     69  C47 UNL A   1      58.441  24.616   3.511  1.00  0.00    +0.000 C 
ATOM     70  C48 UNL A   1      57.605  25.441   4.384  1.00  0.00    +0.000 C 
ATOM     71  N6  UNL A   1      57.178  26.461   3.569  1.00  0.00    +0.000 N 
ATOM     72  C49 UNL A   1      56.349  29.202   0.171  1.00  0.00    +0.000 C 
ATOM     73  C50 UNL A   1      55.591  30.181   0.645  1.00  0.00    +0.000 C 
ATOM     74  C51 UNL A   1      55.297  26.640   8.226  1.00  0.00    +0.000 C 
ATOM     75  C52 UNL A   1      56.199  25.738   7.867  1.00  0.00    +0.000 C 
ATOM    124  H21 UNL A   1      52.800  31.176   7.068  1.00  0.00    +0.000 H 
ATOM    125  H22 UNL A   1      52.844  32.239   4.687  1.00  0.00    +0.000 H 
ATOM    126  H23 UNL A   1      55.109  28.774   4.608  1.00  0.00    +0.000 H 
ATOM    127  H24 UNL A   1      59.009  24.805   1.480  1.00  0.00    +0.000 H 
ATOM    128  H25 UNL A   1      58.924  23.749   3.790  1.00  0.00    +0.000 H 
ENDROOT
BRANCH   19   18
ATOM    134  H31 UNL A   1      59.561  24.995   7.176  1.00  0.00    +0.000 H 
ATOM    135  H32 UNL A   1      60.560  23.016   8.156  1.00  0.00    +0.000 H 
ATOM     76  C53 UNL A   1      59.101  24.078   7.067  1.00  0.00    +0.000 C 
ATOM     77  C54 UNL A   1      59.654  22.949   7.666  1.00  0.00    +0.000 C 
ATOM     15  C11 UNL A   1      58.981  21.726   7.602  1.00  0.00    +0.000 C 
ATOM     16  C12 UNL A   1      57.818  21.604   6.837  1.00  0.00    +0.000 C 
ATOM     17  C13 UNL A   1      57.298  22.723   6.183  1.00  0.00    +0.000 C 
ATOM     18  C14 UNL A   1      57.918  23.975   6.319  1.00  0.00    +0.000 C 
ATOM    122  H19 UNL A   1      57.346  20.690   6.755  1.00  0.00    +0.000 H 
ATOM    123  H20 UNL A   1      56.452  22.630   5.598  1.00  0.00    +0.000 H 
BRANCH   15   13
ATOM     13  C10 UNL A   1      59.484  20.540   8.329  1.00  0.00    +0.000 C 
ATOM     14  O2  UNL A   1      60.550  20.031   7.999  1.00  0.00    +0.000 O 
BRANCH   13   12
ATOM    121  H18 UNL A   1      59.116  20.133  10.256  1.00  0.00    +0.000 H 
ATOM     12  N2  UNL A   1      58.746  20.002   9.354  1.00  0.00    +0.000 N 
BRANCH   12   11
ATOM     11  C9  UNL A   1      57.495  19.265   9.291  1.00  0.00    +0.000 C 
ATOM    119  H16 UNL A   1      56.956  19.425  10.201  1.00  0.00    +0.000 H 
ATOM    120  H17 UNL A   1      56.947  19.623   8.444  1.00  0.00    +0.000 H 
BRANCH   11   10
ATOM     10  C8  UNL A   1      57.712  17.767   9.105  1.00  0.00    +0.000 C 
ATOM    117  H14 UNL A   1      57.490  17.523   8.088  1.00  0.00    +0.000 H 
ATOM    118  H15 UNL A   1      58.728  17.574   9.376  1.00  0.00    +0.000 H 
BRANCH   10    9
ATOM      9  C7  UNL A   1      56.852  16.878  10.005  1.00  0.00    +0.000 C 
ATOM    115  H12 UNL A   1      55.830  17.179   9.889  1.00  0.00    +0.000 H 
ATOM    116  H13 UNL A   1      57.037  15.872   9.694  1.00  0.00    +0.000 H 
BRANCH    9    8
ATOM    113  H10 UNL A   1      57.301  15.930  11.847  1.00  0.00    +0.000 H 
ATOM    114  H11 UNL A   1      58.093  17.513  11.567  1.00  0.00    +0.000 H 
ATOM      8  C6  UNL A   1      57.196  16.934  11.495  1.00  0.00    +0.000 C 
BRANCH    8    7
ATOM    111  H8  UNL A   1      55.881  16.967  13.166  1.00  0.00    +0.000 H 
ATOM      7  C5  UNL A   1      56.164  17.642  12.385  1.00  0.00    +0.000 C 
ATOM    112  H9  UNL A   1      56.639  18.531  12.745  1.00  0.00    +0.000 H 
BRANCH    7    6
ATOM    110  H7  UNL A   1      54.045  17.773  12.234  1.00  0.00    +0.000 H 
ATOM    109  H6  UNL A   1      54.873  17.673  10.683  1.00  0.00    +0.000 H 
ATOM      6  C4  UNL A   1      54.891  18.099  11.664  1.00  0.00    +0.000 C 
BRANCH    6    5
ATOM    108  H5  UNL A   1      55.692  20.021  11.471  1.00  0.00    +0.000 H 
ATOM      5  N1  UNL A   1      54.836  19.543  11.553  1.00  0.00    +0.000 N 
BRANCH    5    3
ATOM      3  C3  UNL A   1      53.694  20.299  11.552  1.00  0.00    +0.000 C 
ATOM      4  O1  UNL A   1      53.018  20.266  12.580  1.00  0.00    +0.000 O 
BRANCH    3    2
ATOM      2  C2  UNL A   1      53.350  21.131  10.304  1.00  0.00    +0.000 C 
ATOM    107  H4  UNL A   1      54.195  21.013   9.657  1.00  0.00    +0.000 H 
BRANCH    2    1
ATOM      1  C1  UNL A   1      53.122  22.588  10.726  1.00  0.00    +0.000 C 
ATOM    106  H3  UNL A   1      52.208  22.944  10.301  1.00  0.00    +0.000 H 
ATOM    105  H2  UNL A   1      53.068  22.646  11.793  1.00  0.00    +0.000 H 
ATOM    104  H1  UNL A   1      53.936  23.191  10.378  1.00  0.00    +0.000 H 
ENDBRANCH    2    1
BRANCH    2   78
ATOM    101  C75 UNL A   1      49.791  20.322   9.068  1.00  0.00    +0.000 C 
ATOM    102  F16 UNL A   1      48.548  20.329   9.576  1.00  0.00    +0.000 F 
ATOM    103  C76 UNL A   1      50.848  20.593   9.935  1.00  0.00    +0.000 C 
ATOM    136  H33 UNL A   1      53.347  20.272   7.752  1.00  0.00    +0.000 H 
ATOM    137  H34 UNL A   1      51.504  19.827   6.254  1.00  0.00    +0.000 H 
ATOM     78  C55 UNL A   1      52.163  20.653   9.463  1.00  0.00    +0.000 C 
ATOM     79  C56 UNL A   1      52.380  20.321   8.111  1.00  0.00    +0.000 C 
ATOM     80  C57 UNL A   1      51.312  20.057   7.242  1.00  0.00    +0.000 C 
ATOM     81  C58 UNL A   1      49.990  20.101   7.700  1.00  0.00    +0.000 C 
ATOM    154  H51 UNL A   1      50.658  20.751  10.936  1.00  0.00    +0.000 H 
BRANCH   81   82
ATOM    100  C74 UNL A   1      48.133  18.839   6.647  1.00  0.00    +0.000 C 
ATOM    138  H35 UNL A   1      48.945  22.043   6.098  1.00  0.00    +0.000 H 
ATOM    139  H36 UNL A   1      47.043  21.872   4.604  1.00  0.00    +0.000 H 
ATOM    140  H37 UNL A   1      45.821  19.781   4.419  1.00  0.00    +0.000 H 
ATOM     82  C59 UNL A   1      48.853  20.043   6.771  1.00  0.00    +0.000 C 
ATOM     83  C60 UNL A   1      48.436  21.149   6.019  1.00  0.00    +0.000 C 
ATOM     84  C61 UNL A   1      47.336  21.053   5.160  1.00  0.00    +0.000 C 
ATOM     85  C62 UNL A   1      46.632  19.852   5.052  1.00  0.00    +0.000 C 
ATOM     86  C63 UNL A   1      47.030  18.750   5.807  1.00  0.00    +0.000 C 
ATOM    153  H50 UNL A   1      48.430  18.011   7.188  1.00  0.00    +0.000 H 
BRANCH   86   87
ATOM     87  O3  UNL A   1      46.291  17.561   5.604  1.00  0.00    +0.000 O 
BRANCH   87   88
ATOM     89  O4  UNL A   1      46.201  16.000   3.863  1.00  0.00    +0.000 O 
ATOM     88  C64 UNL A   1      46.731  16.467   4.858  1.00  0.00    +0.000 C 
BRANCH   88   90
ATOM     90  N7  UNL A   1      47.893  15.921   5.343  1.00  0.00    +0.000 N 
ATOM    141  H38 UNL A   1      48.160  16.146   6.263  1.00  0.00    +0.000 H 
BRANCH   90   91
ATOM     91  C65 UNL A   1      48.747  15.035   4.588  1.00  0.00    +0.000 C 
ATOM    142  H39 UNL A   1      48.664  15.292   3.553  1.00  0.00    +0.000 H 
ATOM    143  H40 UNL A   1      48.418  14.039   4.799  1.00  0.00    +0.000 H 
BRANCH   91   92
ATOM    145  H42 UNL A   1      50.300  14.448   5.826  1.00  0.00    +0.000 H 
ATOM     92  C66 UNL A   1      50.225  15.098   4.979  1.00  0.00    +0.000 C 
ATOM    144  H41 UNL A   1      50.793  14.813   4.117  1.00  0.00    +0.000 H 
BRANCH   92   93
ATOM    146  H43 UNL A   1      49.996  17.147   5.411  1.00  0.00    +0.000 H 
ATOM    147  H44 UNL A   1      51.644  16.583   4.845  1.00  0.00    +0.000 H 
ATOM     93  C67 UNL A   1      50.792  16.435   5.475  1.00  0.00    +0.000 C 
BRANCH   93   94
ATOM     97  C71 UNL A   1      52.617  16.874   9.375  1.00  0.00    +0.000 C 
ATOM     98  C72 UNL A   1      53.389  16.811   8.221  1.00  0.00    +0.000 C 
ATOM     99  C73 UNL A   1      52.769  16.659   6.978  1.00  0.00    +0.000 C 
ATOM    148  H45 UNL A   1      49.587  16.533   7.989  1.00  0.00    +0.000 H 
ATOM    149  H46 UNL A   1      50.658  16.825  10.140  1.00  0.00    +0.000 H 
ATOM    150  H47 UNL A   1      53.070  16.993  10.295  1.00  0.00    +0.000 H 
ATOM    151  H48 UNL A   1      54.416  16.876   8.281  1.00  0.00    +0.000 H 
ATOM    152  H49 UNL A   1      53.349  16.624   6.126  1.00  0.00    +0.000 H 
ATOM     94  C68 UNL A   1      51.370  16.553   6.866  1.00  0.00    +0.000 C 
ATOM     95  C69 UNL A   1      50.615  16.611   8.040  1.00  0.00    +0.000 C 
ATOM     96  C70 UNL A   1      51.233  16.776   9.285  1.00  0.00    +0.000 C 
ENDBRANCH   93   94
ENDBRANCH   92   93
ENDBRANCH   91   92
ENDBRANCH   90   91
ENDBRANCH   88   90
ENDBRANCH   87   88
ENDBRANCH   86   87
ENDBRANCH   81   82
ENDBRANCH    2   78
ENDBRANCH    3    2
ENDBRANCH    5    3
ENDBRANCH    6    5
ENDBRANCH    7    6
ENDBRANCH    8    7
ENDBRANCH    9    8
ENDBRANCH   10    9
ENDBRANCH   11   10
ENDBRANCH   12   11
ENDBRANCH   13   12
ENDBRANCH   15   13
ENDBRANCH   19   18
BRANCH   23   24
ATOM     33  C24 UNL A   1      54.209  29.607   9.606  1.00  0.00    +0.000 C 
ATOM     34  F5  UNL A   1      55.436  30.113   9.411  1.00  0.00    +0.000 F 
ATOM     24  C19 UNL A   1      53.565  28.896   8.582  1.00  0.00    +0.000 C 
ATOM     25  C20 UNL A   1      52.285  28.385   8.842  1.00  0.00    +0.000 C 
ATOM     26  F1  UNL A   1      51.623  27.709   7.891  1.00  0.00    +0.000 F 
ATOM     27  C21 UNL A   1      51.662  28.602  10.068  1.00  0.00    +0.000 C 
ATOM     28  F2  UNL A   1      50.419  28.144  10.276  1.00  0.00    +0.000 F 
ATOM     29  C22 UNL A   1      52.320  29.301  11.068  1.00  0.00    +0.000 C 
ATOM     30  F3  UNL A   1      51.720  29.505  12.250  1.00  0.00    +0.000 F 
ATOM     31  C23 UNL A   1      53.594  29.797  10.841  1.00  0.00    +0.000 C 
ATOM     32  F4  UNL A   1      54.235  30.466  11.810  1.00  0.00    +0.000 F 
ENDBRANCH   23   24
BRANCH   40   41
ATOM     41  C30 UNL A   1      53.918  32.001   2.084  1.00  0.00    +0.000 C 
ATOM     42  C31 UNL A   1      54.706  33.143   1.888  1.00  0.00    +0.000 C 
ATOM     43  F6  UNL A   1      55.960  33.187   2.362  1.00  0.00    +0.000 F 
ATOM     44  C32 UNL A   1      54.194  34.260   1.235  1.00  0.00    +0.000 C 
ATOM     45  F7  UNL A   1      54.950  35.358   1.095  1.00  0.00    +0.000 F 
ATOM     46  C33 UNL A   1      52.898  34.246   0.741  1.00  0.00    +0.000 C 
ATOM     47  F8  UNL A   1      52.409  35.320   0.107  1.00  0.00    +0.000 F 
ATOM     48  C34 UNL A   1      52.107  33.119   0.909  1.00  0.00    +0.000 C 
ATOM     49  F9  UNL A   1      50.857  33.100   0.423  1.00  0.00    +0.000 F 
ATOM     50  C35 UNL A   1      52.606  32.010   1.585  1.00  0.00    +0.000 C 
ATOM     51  F10 UNL A   1      51.814  30.939   1.743  1.00  0.00    +0.000 F 
ENDBRANCH   40   41
BRANCH   55   56
ATOM     65  C44 UNL A   1      59.288  27.408  -0.452  1.00  0.00    +0.000 C 
ATOM     66  F15 UNL A   1      59.911  28.254   0.382  1.00  0.00    +0.000 F 
ATOM     56  C39 UNL A   1      58.059  26.841  -0.088  1.00  0.00    +0.000 C 
ATOM     57  C40 UNL A   1      57.446  25.967  -0.996  1.00  0.00    +0.000 C 
ATOM     58  F11 UNL A   1      56.280  25.385  -0.681  1.00  0.00    +0.000 F 
ATOM     59  C41 UNL A   1      58.047  25.660  -2.214  1.00  0.00    +0.000 C 
ATOM     60  F12 UNL A   1      57.459  24.791  -3.049  1.00  0.00    +0.000 F 
ATOM     61  C42 UNL A   1      59.259  26.240  -2.559  1.00  0.00    +0.000 C 
ATOM     62  F13 UNL A   1      59.833  25.947  -3.733  1.00  0.00    +0.000 F 
ATOM     63  C43 UNL A   1      59.876  27.119  -1.682  1.00  0.00    +0.000 C 
ATOM     64  F14 UNL A   1      61.041  27.691  -2.015  1.00  0.00    +0.000 F 
ENDBRANCH   55   56
TORSDOF 25
ENDMDL
MODEL 6
REMARK VINA RESULT:     -10.0     31.028     35.050
ROOT
ATOM    129  H26 UNL A   1      17.458  20.524   5.519  1.00  0.00    +0.000 H 
ATOM    130  H27 UNL A   1      21.695  20.347   2.817  1.00  0.00    +0.000 H 
ATOM    131  H28 UNL A   1      22.109  18.043   3.854  1.00  0.00    +0.000 H 
ATOM    132  H29 UNL A   1      13.843  18.997   9.484  1.00  0.00    +0.000 H 
ATOM    133  H30 UNL A   1      13.172  21.070   8.141  1.00  0.00    +0.000 H 
ATOM     19  C15 UNL A   1      15.141  21.902   6.259  1.00  0.00    +0.000 C 
ATOM     20  C16 UNL A   1      15.153  20.667   7.114  1.00  0.00    +0.000 C 
ATOM     21  N3  UNL A   1      16.050  19.716   7.183  1.00  0.00    +0.000 N 
ATOM     22  C17 UNL A   1      15.599  18.842   8.163  1.00  0.00    +0.000 C 
ATOM     23  C18 UNL A   1      16.145  17.671   8.567  1.00  0.00    +0.000 C 
ATOM     35  C25 UNL A   1      17.347  17.102   8.015  1.00  0.00    +0.000 C 
ATOM     36  C26 UNL A   1      17.944  15.890   8.310  1.00  0.00    +0.000 C 
ATOM     37  C27 UNL A   1      19.114  15.781   7.550  1.00  0.00    +0.000 C 
ATOM     38  C28 UNL A   1      19.224  16.908   6.752  1.00  0.00    +0.000 C 
ATOM     39  N4  UNL A   1      18.135  17.712   7.049  1.00  0.00    +0.000 N 
ATOM     40  C29 UNL A   1      20.246  17.231   5.790  1.00  0.00    +0.000 C 
ATOM     52  C36 UNL A   1      20.275  18.354   5.032  1.00  0.00    +0.000 C 
ATOM     53  N5  UNL A   1      19.372  19.407   4.999  1.00  0.00    +0.000 N 
ATOM     54  C37 UNL A   1      19.840  20.255   4.118  1.00  0.00    +0.000 C 
ATOM     55  C38 UNL A   1      19.258  21.565   3.657  1.00  0.00    +0.000 C 
ATOM     67  C45 UNL A   1      18.082  21.979   4.166  1.00  0.00    +0.000 C 
ATOM     68  C46 UNL A   1      17.394  23.216   3.812  1.00  0.00    +0.000 C 
ATOM     69  C47 UNL A   1      16.273  23.319   4.543  1.00  0.00    +0.000 C 
ATOM     70  C48 UNL A   1      16.147  22.136   5.395  1.00  0.00    +0.000 C 
ATOM     71  N6  UNL A   1      17.264  21.393   5.100  1.00  0.00    +0.000 N 
ATOM     72  C49 UNL A   1      21.112  19.846   3.506  1.00  0.00    +0.000 C 
ATOM     73  C50 UNL A   1      21.314  18.664   4.071  1.00  0.00    +0.000 C 
ATOM     74  C51 UNL A   1      14.373  19.399   8.694  1.00  0.00    +0.000 C 
ATOM     75  C52 UNL A   1      14.019  20.492   8.036  1.00  0.00    +0.000 C 
ATOM    124  H21 UNL A   1      17.588  15.187   8.976  1.00  0.00    +0.000 H 
ATOM    125  H22 UNL A   1      19.782  14.995   7.579  1.00  0.00    +0.000 H 
ATOM    126  H23 UNL A   1      17.948  18.586   6.636  1.00  0.00    +0.000 H 
ATOM    127  H24 UNL A   1      17.719  23.902   3.112  1.00  0.00    +0.000 H 
ATOM    128  H25 UNL A   1      15.607  24.106   4.509  1.00  0.00    +0.000 H 
ENDROOT
BRANCH   19   18
ATOM    134  H31 UNL A   1      12.999  22.267   4.694  1.00  0.00    +0.000 H 
ATOM    135  H32 UNL A   1      11.262  23.949   4.870  1.00  0.00    +0.000 H 
ATOM     76  C53 UNL A   1      13.011  22.941   5.476  1.00  0.00    +0.000 C 
ATOM     77  C54 UNL A   1      11.991  23.879   5.598  1.00  0.00    +0.000 C 
ATOM     15  C11 UNL A   1      11.955  24.728   6.708  1.00  0.00    +0.000 C 
ATOM     16  C12 UNL A   1      13.003  24.722   7.631  1.00  0.00    +0.000 C 
ATOM     17  C13 UNL A   1      14.061  23.823   7.473  1.00  0.00    +0.000 C 
ATOM     18  C14 UNL A   1      14.057  22.905   6.411  1.00  0.00    +0.000 C 
ATOM    122  H19 UNL A   1      12.997  25.379   8.427  1.00  0.00    +0.000 H 
ATOM    123  H20 UNL A   1      14.848  23.833   8.140  1.00  0.00    +0.000 H 
BRANCH   15   13
ATOM     13  C10 UNL A   1      10.819  25.652   6.925  1.00  0.00    +0.000 C 
ATOM     14  O2  UNL A   1      10.315  25.746   8.039  1.00  0.00    +0.000 O 
BRANCH   13   12
ATOM    121  H18 UNL A   1      10.824  27.200   5.652  1.00  0.00    +0.000 H 
ATOM     12  N2  UNL A   1      10.322  26.383   5.875  1.00  0.00    +0.000 N 
BRANCH   12   11
ATOM     11  C9  UNL A   1       9.156  26.119   5.048  1.00  0.00    +0.000 C 
ATOM    119  H16 UNL A   1       8.705  25.205   5.371  1.00  0.00    +0.000 H 
ATOM    120  H17 UNL A   1       8.485  26.947   5.156  1.00  0.00    +0.000 H 
BRANCH   11   10
ATOM     10  C8  UNL A   1       9.509  25.998   3.569  1.00  0.00    +0.000 C 
ATOM    117  H14 UNL A   1       9.345  24.984   3.271  1.00  0.00    +0.000 H 
ATOM    118  H15 UNL A   1       8.886  26.697   3.053  1.00  0.00    +0.000 H 
BRANCH   10    9
ATOM      9  C7  UNL A   1      10.951  26.370   3.221  1.00  0.00    +0.000 C 
ATOM    115  H12 UNL A   1      11.428  26.717   4.115  1.00  0.00    +0.000 H 
ATOM    116  H13 UNL A   1      11.397  25.486   2.816  1.00  0.00    +0.000 H 
BRANCH    9    8
ATOM    113  H10 UNL A   1      10.164  27.558   1.652  1.00  0.00    +0.000 H 
ATOM    114  H11 UNL A   1      11.416  28.336   2.672  1.00  0.00    +0.000 H 
ATOM      8  C6  UNL A   1      11.104  27.454   2.152  1.00  0.00    +0.000 C 
BRANCH    8    7
ATOM    111  H8  UNL A   1      12.268  28.062   0.481  1.00  0.00    +0.000 H 
ATOM      7  C5  UNL A   1      12.178  27.187   1.089  1.00  0.00    +0.000 C 
ATOM    112  H9  UNL A   1      13.075  26.947   1.622  1.00  0.00    +0.000 H 
BRANCH    7    6
ATOM    110  H7  UNL A   1      11.903  26.340  -0.845  1.00  0.00    +0.000 H 
ATOM    109  H6  UNL A   1      10.945  25.575   0.419  1.00  0.00    +0.000 H 
ATOM      6  C4  UNL A   1      11.897  25.993   0.168  1.00  0.00    +0.000 C 
BRANCH    6    5
ATOM    108  H5  UNL A   1      13.848  25.242   0.166  1.00  0.00    +0.000 H 
ATOM      5  N1  UNL A   1      12.913  24.969   0.305  1.00  0.00    +0.000 N 
BRANCH    5    3
ATOM      3  C3  UNL A   1      12.682  23.654   0.613  1.00  0.00    +0.000 C 
ATOM      4  O1  UNL A   1      12.517  23.394   1.804  1.00  0.00    +0.000 O 
BRANCH    3    2
ATOM      2  C2  UNL A   1      12.629  22.620  -0.525  1.00  0.00    +0.000 C 
ATOM    107  H4  UNL A   1      12.971  23.149  -1.390  1.00  0.00    +0.000 H 
BRANCH    2    1
ATOM      1  C1  UNL A   1      11.188  22.114  -0.669  1.00  0.00    +0.000 C 
ATOM    106  H3  UNL A   1      11.185  21.198  -1.220  1.00  0.00    +0.000 H 
ATOM    105  H2  UNL A   1      10.770  21.948   0.302  1.00  0.00    +0.000 H 
ATOM    104  H1  UNL A   1      10.603  22.845  -1.188  1.00  0.00    +0.000 H 
ENDBRANCH    2    1
BRANCH    2   78
ATOM    101  C75 UNL A   1      15.748  20.360  -0.656  1.00  0.00    +0.000 C 
ATOM    102  F16 UNL A   1      16.991  20.428  -1.158  1.00  0.00    +0.000 F 
ATOM    103  C76 UNL A   1      14.873  21.405  -0.946  1.00  0.00    +0.000 C 
ATOM    136  H33 UNL A   1      12.194  20.244   0.663  1.00  0.00    +0.000 H 
ATOM    137  H34 UNL A   1      13.728  18.450   1.179  1.00  0.00    +0.000 H 
ATOM     78  C55 UNL A   1      13.580  21.425  -0.414  1.00  0.00    +0.000 C 
ATOM     79  C56 UNL A   1      13.169  20.300   0.328  1.00  0.00    +0.000 C 
ATOM     80  C57 UNL A   1      14.056  19.255   0.623  1.00  0.00    +0.000 C 
ATOM     81  C58 UNL A   1      15.381  19.294   0.173  1.00  0.00    +0.000 C 
ATOM    154  H51 UNL A   1      15.183  22.173  -1.561  1.00  0.00    +0.000 H 
BRANCH   81   82
ATOM    100  C74 UNL A   1      16.234  16.969   0.307  1.00  0.00    +0.000 C 
ATOM    138  H35 UNL A   1      17.631  19.698   1.659  1.00  0.00    +0.000 H 
ATOM    139  H36 UNL A   1      19.249  18.045   2.384  1.00  0.00    +0.000 H 
ATOM    140  H37 UNL A   1      18.965  15.710   1.775  1.00  0.00    +0.000 H 
ATOM     82  C59 UNL A   1      16.382  18.327   0.647  1.00  0.00    +0.000 C 
ATOM     83  C60 UNL A   1      17.498  18.707   1.405  1.00  0.00    +0.000 C 
ATOM     84  C61 UNL A   1      18.436  17.754   1.818  1.00  0.00    +0.000 C 
ATOM     85  C62 UNL A   1      18.274  16.413   1.469  1.00  0.00    +0.000 C 
ATOM     86  C63 UNL A   1      17.175  16.027   0.705  1.00  0.00    +0.000 C 
ATOM    153  H50 UNL A   1      15.414  16.669  -0.244  1.00  0.00    +0.000 H 
BRANCH   86   87
ATOM     87  O3  UNL A   1      17.064  14.642   0.434  1.00  0.00    +0.000 O 
BRANCH   87   88
ATOM     89  O4  UNL A   1      15.315  13.210   1.037  1.00  0.00    +0.000 O 
ATOM     88  C64 UNL A   1      16.401  13.723   1.249  1.00  0.00    +0.000 C 
BRANCH   88   90
ATOM     90  N7  UNL A   1      17.110  13.399   2.378  1.00  0.00    +0.000 N 
ATOM    141  H38 UNL A   1      18.008  13.010   2.264  1.00  0.00    +0.000 H 
BRANCH   90   91
ATOM     91  C65 UNL A   1      16.623  13.592   3.723  1.00  0.00    +0.000 C 
ATOM    142  H39 UNL A   1      17.148  12.921   4.368  1.00  0.00    +0.000 H 
ATOM    143  H40 UNL A   1      15.569  13.408   3.696  1.00  0.00    +0.000 H 
BRANCH   91   92
ATOM    145  H42 UNL A   1      17.702  14.963   4.840  1.00  0.00    +0.000 H 
ATOM     92  C66 UNL A   1      16.803  15.012   4.261  1.00  0.00    +0.000 C 
ATOM    144  H41 UNL A   1      16.824  15.671   3.417  1.00  0.00    +0.000 H 
BRANCH   92   93
ATOM    146  H43 UNL A   1      16.259  15.734   6.165  1.00  0.00    +0.000 H 
ATOM    147  H44 UNL A   1      14.992  14.808   5.220  1.00  0.00    +0.000 H 
ATOM     93  C67 UNL A   1      15.754  15.560   5.238  1.00  0.00    +0.000 C 
BRANCH   93   94
ATOM     97  C71 UNL A   1      13.466  19.160   4.498  1.00  0.00    +0.000 C 
ATOM     98  C72 UNL A   1      12.954  18.127   5.273  1.00  0.00    +0.000 C 
ATOM     99  C73 UNL A   1      13.714  16.974   5.485  1.00  0.00    +0.000 C 
ATOM    148  H45 UNL A   1      16.418  17.791   3.701  1.00  0.00    +0.000 H 
ATOM    149  H46 UNL A   1      15.113  19.801   3.356  1.00  0.00    +0.000 H 
ATOM    150  H47 UNL A   1      12.911  20.017   4.344  1.00  0.00    +0.000 H 
ATOM    151  H48 UNL A   1      12.015  18.210   5.691  1.00  0.00    +0.000 H 
ATOM    152  H49 UNL A   1      13.330  16.216   6.070  1.00  0.00    +0.000 H 
ATOM     94  C68 UNL A   1      14.992  16.825   4.916  1.00  0.00    +0.000 C 
ATOM     95  C69 UNL A   1      15.485  17.873   4.134  1.00  0.00    +0.000 C 
ATOM     96  C70 UNL A   1      14.730  19.034   3.930  1.00  0.00    +0.000 C 
ENDBRANCH   93   94
ENDBRANCH   92   93
ENDBRANCH   91   92
ENDBRANCH   90   91
ENDBRANCH   88   90
ENDBRANCH   87   88
ENDBRANCH   86   87
ENDBRANCH   81   82
ENDBRANCH    2   78
ENDBRANCH    3    2
ENDBRANCH    5    3
ENDBRANCH    6    5
ENDBRANCH    7    6
ENDBRANCH    8    7
ENDBRANCH    9    8
ENDBRANCH   10    9
ENDBRANCH   11   10
ENDBRANCH   12   11
ENDBRANCH   13   12
ENDBRANCH   15   13
ENDBRANCH   19   18
BRANCH   23   24
ATOM     33  C24 UNL A   1      15.627  17.283  11.004  1.00  0.00    +0.000 C 
ATOM     34  F5  UNL A   1      16.416  18.320  11.324  1.00  0.00    +0.000 F 
ATOM     24  C19 UNL A   1      15.444  16.922   9.661  1.00  0.00    +0.000 C 
ATOM     25  C20 UNL A   1      14.612  15.826   9.384  1.00  0.00    +0.000 C 
ATOM     26  F1  UNL A   1      14.394  15.449   8.115  1.00  0.00    +0.000 F 
ATOM     27  C21 UNL A   1      13.967  15.138  10.408  1.00  0.00    +0.000 C 
ATOM     28  F2  UNL A   1      13.141  14.125  10.116  1.00  0.00    +0.000 F 
ATOM     29  C22 UNL A   1      14.169  15.509  11.729  1.00  0.00    +0.000 C 
ATOM     30  F3  UNL A   1      13.551  14.843  12.715  1.00  0.00    +0.000 F 
ATOM     31  C23 UNL A   1      15.003  16.575  12.028  1.00  0.00    +0.000 C 
ATOM     32  F4  UNL A   1      15.206  16.929  13.305  1.00  0.00    +0.000 F 
ENDBRANCH   23   24
BRANCH   40   41
ATOM     41  C30 UNL A   1      21.356  16.242   5.592  1.00  0.00    +0.000 C 
ATOM     42  C31 UNL A   1      22.536  16.303   6.347  1.00  0.00    +0.000 C 
ATOM     43  F6  UNL A   1      22.717  17.292   7.235  1.00  0.00    +0.000 F 
ATOM     44  C32 UNL A   1      23.550  15.367   6.165  1.00  0.00    +0.000 C 
ATOM     45  F7  UNL A   1      24.686  15.469   6.867  1.00  0.00    +0.000 F 
ATOM     46  C33 UNL A   1      23.392  14.338   5.249  1.00  0.00    +0.000 C 
ATOM     47  F8  UNL A   1      24.366  13.434   5.080  1.00  0.00    +0.000 F 
ATOM     48  C34 UNL A   1      22.225  14.249   4.503  1.00  0.00    +0.000 C 
ATOM     49  F9  UNL A   1      22.067  13.248   3.625  1.00  0.00    +0.000 F 
ATOM     50  C35 UNL A   1      21.221  15.198   4.664  1.00  0.00    +0.000 C 
ATOM     51  F10 UNL A   1      20.108  15.094   3.921  1.00  0.00    +0.000 F 
ENDBRANCH   40   41
BRANCH   55   56
ATOM     65  C44 UNL A   1      19.686  22.221   1.265  1.00  0.00    +0.000 C 
ATOM     66  F15 UNL A   1      18.791  21.308   0.857  1.00  0.00    +0.000 F 
ATOM     56  C39 UNL A   1      19.949  22.385   2.631  1.00  0.00    +0.000 C 
ATOM     57  C40 UNL A   1      20.896  23.350   3.004  1.00  0.00    +0.000 C 
ATOM     58  F11 UNL A   1      21.166  23.555   4.301  1.00  0.00    +0.000 F 
ATOM     59  C41 UNL A   1      21.542  24.130   2.048  1.00  0.00    +0.000 C 
ATOM     60  F12 UNL A   1      22.415  25.072   2.434  1.00  0.00    +0.000 F 
ATOM     61  C42 UNL A   1      21.273  23.945   0.701  1.00  0.00    +0.000 C 
ATOM     62  F13 UNL A   1      21.897  24.692  -0.218  1.00  0.00    +0.000 F 
ATOM     63  C43 UNL A   1      20.350  22.986   0.308  1.00  0.00    +0.000 C 
ATOM     64  F14 UNL A   1      20.096  22.795  -0.994  1.00  0.00    +0.000 F 
ENDBRANCH   55   56
TORSDOF 25
ENDMDL
MODEL 7
REMARK VINA RESULT:      -9.9     21.689     26.760
ROOT
ATOM    129  H26 UNL A   1      48.404  16.608  45.163  1.00  0.00    +0.000 H 
ATOM    130  H27 UNL A   1      45.111  16.864  41.371  1.00  0.00    +0.000 H 
ATOM    131  H28 UNL A   1      43.912  14.874  42.447  1.00  0.00    +0.000 H 
ATOM    132  H29 UNL A   1      50.984  14.351  49.563  1.00  0.00    +0.000 H 
ATOM    133  H30 UNL A   1      51.934  16.595  48.781  1.00  0.00    +0.000 H 
ATOM     19  C15 UNL A   1      50.692  17.605  46.424  1.00  0.00    +0.000 C 
ATOM     20  C16 UNL A   1      50.303  16.389  47.218  1.00  0.00    +0.000 C 
ATOM     21  N3  UNL A   1      49.327  15.542  47.011  1.00  0.00    +0.000 N 
ATOM     22  C17 UNL A   1      49.443  14.582  48.007  1.00  0.00    +0.000 C 
ATOM     23  C18 UNL A   1      48.637  13.524  48.259  1.00  0.00    +0.000 C 
ATOM     35  C25 UNL A   1      47.456  13.204  47.499  1.00  0.00    +0.000 C 
ATOM     36  C26 UNL A   1      46.537  12.193  47.716  1.00  0.00    +0.000 C 
ATOM     37  C27 UNL A   1      45.576  12.250  46.700  1.00  0.00    +0.000 C 
ATOM     38  C28 UNL A   1      45.875  13.321  45.874  1.00  0.00    +0.000 C 
ATOM     39  N4  UNL A   1      47.032  13.896  46.373  1.00  0.00    +0.000 N 
ATOM     40  C29 UNL A   1      45.161  13.786  44.713  1.00  0.00    +0.000 C 
ATOM     52  C36 UNL A   1      45.511  14.857  43.961  1.00  0.00    +0.000 C 
ATOM     53  N5  UNL A   1      46.585  15.722  44.122  1.00  0.00    +0.000 N 
ATOM     54  C37 UNL A   1      46.501  16.586  43.141  1.00  0.00    +0.000 C 
ATOM     55  C38 UNL A   1      47.387  17.763  42.834  1.00  0.00    +0.000 C 
ATOM     67  C45 UNL A   1      48.422  18.040  43.651  1.00  0.00    +0.000 C 
ATOM     68  C46 UNL A   1      49.358  19.147  43.486  1.00  0.00    +0.000 C 
ATOM     69  C47 UNL A   1      50.279  19.091  44.462  1.00  0.00    +0.000 C 
ATOM     70  C48 UNL A   1      49.977  17.960  45.340  1.00  0.00    +0.000 C 
ATOM     71  N6  UNL A   1      48.855  17.397  44.784  1.00  0.00    +0.000 N 
ATOM     72  C49 UNL A   1      45.374  16.352  42.227  1.00  0.00    +0.000 C 
ATOM     73  C50 UNL A   1      44.782  15.309  42.793  1.00  0.00    +0.000 C 
ATOM     74  C51 UNL A   1      50.612  14.924  48.790  1.00  0.00    +0.000 C 
ATOM     75  C52 UNL A   1      51.141  16.068  48.384  1.00  0.00    +0.000 C 
ATOM    124  H21 UNL A   1      46.555  11.516  48.494  1.00  0.00    +0.000 H 
ATOM    125  H22 UNL A   1      44.780  11.603  46.586  1.00  0.00    +0.000 H 
ATOM    126  H23 UNL A   1      47.487  14.679  45.988  1.00  0.00    +0.000 H 
ATOM    127  H24 UNL A   1      49.319  19.859  42.739  1.00  0.00    +0.000 H 
ATOM    128  H25 UNL A   1      51.072  19.741  44.573  1.00  0.00    +0.000 H 
ENDROOT
BRANCH   19   18
ATOM    134  H31 UNL A   1      53.244  17.045  45.839  1.00  0.00    +0.000 H 
ATOM    135  H32 UNL A   1      55.247  18.242  46.495  1.00  0.00    +0.000 H 
ATOM     76  C53 UNL A   1      53.168  17.914  46.389  1.00  0.00    +0.000 C 
ATOM     77  C54 UNL A   1      54.317  18.623  46.729  1.00  0.00    +0.000 C 
ATOM     15  C11 UNL A   1      54.209  19.850  47.391  1.00  0.00    +0.000 C 
ATOM     16  C12 UNL A   1      52.960  20.308  47.819  1.00  0.00    +0.000 C 
ATOM     17  C13 UNL A   1      51.813  19.565  47.533  1.00  0.00    +0.000 C 
ATOM     18  C14 UNL A   1      51.905  18.378  46.789  1.00  0.00    +0.000 C 
ATOM    122  H19 UNL A   1      52.886  21.193  48.345  1.00  0.00    +0.000 H 
ATOM    123  H20 UNL A   1      50.893  19.890  47.870  1.00  0.00    +0.000 H 
BRANCH   15   13
ATOM     13  C10 UNL A   1      55.404  20.680  47.658  1.00  0.00    +0.000 C 
ATOM     14  O2  UNL A   1      56.226  20.868  46.767  1.00  0.00    +0.000 O 
BRANCH   13   12
ATOM    121  H18 UNL A   1      55.177  22.094  49.060  1.00  0.00    +0.000 H 
ATOM     12  N2  UNL A   1      55.598  21.218  48.906  1.00  0.00    +0.000 N 
BRANCH   12   11
ATOM     11  C9  UNL A   1      56.339  20.674  50.031  1.00  0.00    +0.000 C 
ATOM    119  H16 UNL A   1      57.376  20.907  49.906  1.00  0.00    +0.000 H 
ATOM    120  H17 UNL A   1      55.945  21.113  50.925  1.00  0.00    +0.000 H 
BRANCH   11   10
ATOM     10  C8  UNL A   1      56.187  19.161  50.150  1.00  0.00    +0.000 C 
ATOM    117  H14 UNL A   1      55.832  18.789  49.212  1.00  0.00    +0.000 H 
ATOM    118  H15 UNL A   1      57.150  18.782  50.419  1.00  0.00    +0.000 H 
BRANCH   10    9
ATOM      9  C7  UNL A   1      55.222  18.698  51.243  1.00  0.00    +0.000 C 
ATOM    115  H12 UNL A   1      55.651  17.841  51.722  1.00  0.00    +0.000 H 
ATOM    116  H13 UNL A   1      55.092  19.532  51.899  1.00  0.00    +0.000 H 
BRANCH    9    8
ATOM    113  H10 UNL A   1      53.126  19.008  51.178  1.00  0.00    +0.000 H 
ATOM    114  H11 UNL A   1      53.866  18.347  49.686  1.00  0.00    +0.000 H 
ATOM      8  C6  UNL A   1      53.823  18.316  50.755  1.00  0.00    +0.000 C 
BRANCH    8    7
ATOM    111  H8  UNL A   1      52.332  16.803  50.840  1.00  0.00    +0.000 H 
ATOM      7  C5  UNL A   1      53.360  16.898  51.118  1.00  0.00    +0.000 C 
ATOM    112  H9  UNL A   1      54.006  16.228  50.591  1.00  0.00    +0.000 H 
BRANCH    7    6
ATOM    110  H7  UNL A   1      54.513  16.643  52.890  1.00  0.00    +0.000 H 
ATOM    109  H6  UNL A   1      53.158  15.528  52.745  1.00  0.00    +0.000 H 
ATOM      6  C4  UNL A   1      53.487  16.535  52.603  1.00  0.00    +0.000 C 
BRANCH    6    5
ATOM    108  H5  UNL A   1      53.122  18.228  53.775  1.00  0.00    +0.000 H 
ATOM      5  N1  UNL A   1      52.688  17.415  53.432  1.00  0.00    +0.000 N 
BRANCH    5    3
ATOM      3  C3  UNL A   1      51.378  17.210  53.778  1.00  0.00    +0.000 C 
ATOM      4  O1  UNL A   1      51.127  16.155  54.360  1.00  0.00    +0.000 O 
BRANCH    3    2
ATOM      2  C2  UNL A   1      50.339  18.294  53.441  1.00  0.00    +0.000 C 
ATOM    107  H4  UNL A   1      50.878  19.216  53.502  1.00  0.00    +0.000 H 
BRANCH    2    1
ATOM      1  C1  UNL A   1      49.187  18.209  54.451  1.00  0.00    +0.000 C 
ATOM    106  H3  UNL A   1      48.574  19.081  54.367  1.00  0.00    +0.000 H 
ATOM    105  H2  UNL A   1      48.599  17.338  54.249  1.00  0.00    +0.000 H 
ATOM    104  H1  UNL A   1      49.587  18.147  55.442  1.00  0.00    +0.000 H 
ENDBRANCH    2    1
BRANCH    2   78
ATOM    101  C75 UNL A   1      48.318  17.413  50.280  1.00  0.00    +0.000 C 
ATOM    102  F16 UNL A   1      47.499  16.427  49.879  1.00  0.00    +0.000 F 
ATOM    103  C76 UNL A   1      48.945  17.272  51.516  1.00  0.00    +0.000 C 
ATOM    136  H33 UNL A   1      50.697  20.108  51.485  1.00  0.00    +0.000 H 
ATOM    137  H34 UNL A   1      49.584  20.351  49.353  1.00  0.00    +0.000 H 
ATOM     78  C55 UNL A   1      49.771  18.283  52.019  1.00  0.00    +0.000 C 
ATOM     79  C56 UNL A   1      50.025  19.386  51.180  1.00  0.00    +0.000 C 
ATOM     80  C57 UNL A   1      49.385  19.525  49.940  1.00  0.00    +0.000 C 
ATOM     81  C58 UNL A   1      48.479  18.557  49.491  1.00  0.00    +0.000 C 
ATOM    154  H51 UNL A   1      48.799  16.413  52.068  1.00  0.00    +0.000 H 
BRANCH   81   82
ATOM    100  C74 UNL A   1      46.573  17.900  48.048  1.00  0.00    +0.000 C 
ATOM    138  H35 UNL A   1      48.609  20.524  47.607  1.00  0.00    +0.000 H 
ATOM    139  H36 UNL A   1      47.163  20.839  45.688  1.00  0.00    +0.000 H 
ATOM    140  H37 UNL A   1      45.330  19.300  45.275  1.00  0.00    +0.000 H 
ATOM     82  C59 UNL A   1      47.638  18.782  48.307  1.00  0.00    +0.000 C 
ATOM     83  C60 UNL A   1      47.838  19.860  47.434  1.00  0.00    +0.000 C 
ATOM     84  C61 UNL A   1      47.000  20.046  46.328  1.00  0.00    +0.000 C 
ATOM     85  C62 UNL A   1      45.947  19.163  46.090  1.00  0.00    +0.000 C 
ATOM     86  C63 UNL A   1      45.731  18.096  46.959  1.00  0.00    +0.000 C 
ATOM    153  H50 UNL A   1      46.415  17.096  48.675  1.00  0.00    +0.000 H 
BRANCH   86   87
ATOM     87  O3  UNL A   1      44.671  17.224  46.619  1.00  0.00    +0.000 O 
BRANCH   87   88
ATOM     89  O4  UNL A   1      43.733  15.296  47.558  1.00  0.00    +0.000 O 
ATOM     88  C64 UNL A   1      43.906  16.504  47.538  1.00  0.00    +0.000 C 
BRANCH   88   90
ATOM     90  N7  UNL A   1      43.332  17.299  48.497  1.00  0.00    +0.000 N 
ATOM    141  H38 UNL A   1      42.892  18.130  48.206  1.00  0.00    +0.000 H 
BRANCH   90   91
ATOM     91  C65 UNL A   1      43.332  16.994  49.909  1.00  0.00    +0.000 C 
ATOM    142  H39 UNL A   1      43.501  15.944  50.023  1.00  0.00    +0.000 H 
ATOM    143  H40 UNL A   1      42.383  17.309  50.289  1.00  0.00    +0.000 H 
BRANCH   91   92
ATOM    145  H42 UNL A   1      44.429  17.220  51.652  1.00  0.00    +0.000 H 
ATOM     92  C66 UNL A   1      44.395  17.740  50.716  1.00  0.00    +0.000 C 
ATOM    144  H41 UNL A   1      45.298  17.727  50.140  1.00  0.00    +0.000 H 
BRANCH   92   93
ATOM    146  H43 UNL A   1      44.439  19.311  52.120  1.00  0.00    +0.000 H 
ATOM    147  H44 UNL A   1      43.082  19.316  50.890  1.00  0.00    +0.000 H 
ATOM     93  C67 UNL A   1      44.125  19.200  51.104  1.00  0.00    +0.000 C 
BRANCH   93   94
ATOM     97  C71 UNL A   1      45.753  22.486  48.803  1.00  0.00    +0.000 C 
ATOM     98  C72 UNL A   1      44.599  21.824  48.399  1.00  0.00    +0.000 C 
ATOM     99  C73 UNL A   1      44.106  20.761  49.158  1.00  0.00    +0.000 C 
ATOM    148  H45 UNL A   1      46.426  20.709  51.563  1.00  0.00    +0.000 H 
ATOM    149  H46 UNL A   1      47.267  22.570  50.261  1.00  0.00    +0.000 H 
ATOM    150  H47 UNL A   1      46.118  23.276  48.248  1.00  0.00    +0.000 H 
ATOM    151  H48 UNL A   1      44.109  22.116  47.540  1.00  0.00    +0.000 H 
ATOM    152  H49 UNL A   1      43.243  20.282  48.856  1.00  0.00    +0.000 H 
ATOM     94  C68 UNL A   1      44.760  20.330  50.327  1.00  0.00    +0.000 C 
ATOM     95  C69 UNL A   1      45.922  21.005  50.711  1.00  0.00    +0.000 C 
ATOM     96  C70 UNL A   1      46.412  22.078  49.958  1.00  0.00    +0.000 C 
ENDBRANCH   93   94
ENDBRANCH   92   93
ENDBRANCH   91   92
ENDBRANCH   90   91
ENDBRANCH   88   90
ENDBRANCH   87   88
ENDBRANCH   86   87
ENDBRANCH   81   82
ENDBRANCH    2   78
ENDBRANCH    3    2
ENDBRANCH    5    3
ENDBRANCH    6    5
ENDBRANCH    7    6
ENDBRANCH    8    7
ENDBRANCH    9    8
ENDBRANCH   10    9
ENDBRANCH   11   10
ENDBRANCH   12   11
ENDBRANCH   13   12
ENDBRANCH   15   13
ENDBRANCH   19   18
BRANCH   23   24
ATOM     33  C24 UNL A   1      49.920  11.587  49.237  1.00  0.00    +0.000 C 
ATOM     34  F5  UNL A   1      50.500  11.384  48.044  1.00  0.00    +0.000 F 
ATOM     24  C19 UNL A   1      49.002  12.634  49.409  1.00  0.00    +0.000 C 
ATOM     25  C20 UNL A   1      48.423  12.797  50.677  1.00  0.00    +0.000 C 
ATOM     26  F1  UNL A   1      47.550  13.791  50.896  1.00  0.00    +0.000 F 
ATOM     27  C21 UNL A   1      48.770  11.963  51.736  1.00  0.00    +0.000 C 
ATOM     28  F2  UNL A   1      48.240  12.167  52.950  1.00  0.00    +0.000 F 
ATOM     29  C22 UNL A   1      49.675  10.930  51.541  1.00  0.00    +0.000 C 
ATOM     30  F3  UNL A   1      50.005  10.125  52.561  1.00  0.00    +0.000 F 
ATOM     31  C23 UNL A   1      50.244  10.737  50.291  1.00  0.00    +0.000 C 
ATOM     32  F4  UNL A   1      51.111   9.734  50.099  1.00  0.00    +0.000 F 
ENDBRANCH   23   24
BRANCH   40   41
ATOM     41  C30 UNL A   1      43.921  13.043  44.311  1.00  0.00    +0.000 C 
ATOM     42  C31 UNL A   1      42.656  13.644  44.369  1.00  0.00    +0.000 C 
ATOM     43  F6  UNL A   1      42.523  14.893  44.840  1.00  0.00    +0.000 F 
ATOM     44  C32 UNL A   1      41.516  12.947  43.976  1.00  0.00    +0.000 C 
ATOM     45  F7  UNL A   1      40.312  13.526  44.078  1.00  0.00    +0.000 F 
ATOM     46  C33 UNL A   1      41.623  11.653  43.491  1.00  0.00    +0.000 C 
ATOM     47  F8  UNL A   1      40.526  10.986  43.107  1.00  0.00    +0.000 F 
ATOM     48  C34 UNL A   1      42.868  11.046  43.410  1.00  0.00    +0.000 C 
ATOM     49  F9  UNL A   1      42.974   9.797  42.932  1.00  0.00    +0.000 F 
ATOM     50  C35 UNL A   1      44.006  11.729  43.827  1.00  0.00    +0.000 C 
ATOM     51  F10 UNL A   1      45.195  11.113  43.748  1.00  0.00    +0.000 F 
ENDBRANCH   40   41
BRANCH   55   56
ATOM     65  C44 UNL A   1      47.785  18.451  40.445  1.00  0.00    +0.000 C 
ATOM     66  F15 UNL A   1      48.693  17.472  40.317  1.00  0.00    +0.000 F 
ATOM     56  C39 UNL A   1      47.116  18.635  41.663  1.00  0.00    +0.000 C 
ATOM     57  C40 UNL A   1      46.181  19.676  41.746  1.00  0.00    +0.000 C 
ATOM     58  F11 UNL A   1      45.503  19.875  42.885  1.00  0.00    +0.000 F 
ATOM     59  C41 UNL A   1      45.915  20.491  40.650  1.00  0.00    +0.000 C 
ATOM     60  F12 UNL A   1      44.988  21.455  40.744  1.00  0.00    +0.000 F 
ATOM     61  C42 UNL A   1      46.595  20.299  39.457  1.00  0.00    +0.000 C 
ATOM     62  F13 UNL A   1      46.341  21.087  38.404  1.00  0.00    +0.000 F 
ATOM     63  C43 UNL A   1      47.535  19.284  39.356  1.00  0.00    +0.000 C 
ATOM     64  F14 UNL A   1      48.204  19.102  38.209  1.00  0.00    +0.000 F 
ENDBRANCH   55   56
TORSDOF 25
ENDMDL
MODEL 8
REMARK VINA RESULT:      -9.9     38.594     45.884
ROOT
ATOM    129  H26 UNL A   1       9.944  -1.735  22.868  1.00  0.00    +0.000 H 
ATOM    130  H27 UNL A   1      13.292   1.996  23.264  1.00  0.00    +0.000 H 
ATOM    131  H28 UNL A   1      12.325   2.925  21.084  1.00  0.00    +0.000 H 
ATOM    132  H29 UNL A   1       6.146  -4.964  20.366  1.00  0.00    +0.000 H 
ATOM    133  H30 UNL A   1       6.766  -5.663  22.749  1.00  0.00    +0.000 H 
ATOM     19  C15 UNL A   1       8.839  -4.086  23.901  1.00  0.00    +0.000 C 
ATOM     20  C16 UNL A   1       8.152  -3.875  22.582  1.00  0.00    +0.000 C 
ATOM     21  N3  UNL A   1       8.344  -2.939  21.687  1.00  0.00    +0.000 N 
ATOM     22  C17 UNL A   1       7.484  -3.237  20.639  1.00  0.00    +0.000 C 
ATOM     23  C18 UNL A   1       7.267  -2.538  19.500  1.00  0.00    +0.000 C 
ATOM     35  C25 UNL A   1       7.922  -1.298  19.171  1.00  0.00    +0.000 C 
ATOM     36  C26 UNL A   1       7.722  -0.480  18.073  1.00  0.00    +0.000 C 
ATOM     37  C27 UNL A   1       8.611   0.596  18.161  1.00  0.00    +0.000 C 
ATOM     38  C28 UNL A   1       9.338   0.469  19.334  1.00  0.00    +0.000 C 
ATOM     39  N4  UNL A   1       8.907  -0.699  19.942  1.00  0.00    +0.000 N 
ATOM     40  C29 UNL A   1      10.351   1.346  19.863  1.00  0.00    +0.000 C 
ATOM     52  C36 UNL A   1      11.010   1.159  21.032  1.00  0.00    +0.000 C 
ATOM     53  N5  UNL A   1      10.871   0.133  21.956  1.00  0.00    +0.000 N 
ATOM     54  C37 UNL A   1      11.731   0.390  22.910  1.00  0.00    +0.000 C 
ATOM     55  C38 UNL A   1      11.998  -0.374  24.179  1.00  0.00    +0.000 C 
ATOM     67  C45 UNL A   1      11.275  -1.478  24.449  1.00  0.00    +0.000 C 
ATOM     68  C46 UNL A   1      11.414  -2.313  25.637  1.00  0.00    +0.000 C 
ATOM     69  C47 UNL A   1      10.560  -3.345  25.550  1.00  0.00    +0.000 C 
ATOM     70  C48 UNL A   1       9.789  -3.225  24.312  1.00  0.00    +0.000 C 
ATOM     71  N6  UNL A   1      10.278  -2.084  23.725  1.00  0.00    +0.000 N 
ATOM     72  C49 UNL A   1      12.535   1.600  22.687  1.00  0.00    +0.000 C 
ATOM     73  C50 UNL A   1      12.029   2.050  21.546  1.00  0.00    +0.000 C 
ATOM     74  C51 UNL A   1       6.802  -4.465  20.987  1.00  0.00    +0.000 C 
ATOM     75  C52 UNL A   1       7.130  -4.866  22.206  1.00  0.00    +0.000 C 
ATOM    124  H21 UNL A   1       7.034  -0.636  17.321  1.00  0.00    +0.000 H 
ATOM    125  H22 UNL A   1       8.710   1.356  17.470  1.00  0.00    +0.000 H 
ATOM    126  H23 UNL A   1       9.249  -1.052  20.795  1.00  0.00    +0.000 H 
ATOM    127  H24 UNL A   1      12.066  -2.137  26.419  1.00  0.00    +0.000 H 
ATOM    128  H25 UNL A   1      10.464  -4.101  26.245  1.00  0.00    +0.000 H 
ENDROOT
BRANCH   19   18
ATOM    134  H31 UNL A   1       9.970  -6.511  23.791  1.00  0.00    +0.000 H 
ATOM    135  H32 UNL A   1       9.418  -8.499  25.062  1.00  0.00    +0.000 H 
ATOM     76  C53 UNL A   1       9.232  -6.473  24.512  1.00  0.00    +0.000 C 
ATOM     77  C54 UNL A   1       8.946  -7.605  25.269  1.00  0.00    +0.000 C 
ATOM     15  C11 UNL A   1       8.016  -7.530  26.310  1.00  0.00    +0.000 C 
ATOM     16  C12 UNL A   1       7.285  -6.356  26.515  1.00  0.00    +0.000 C 
ATOM     17  C13 UNL A   1       7.528  -5.240  25.712  1.00  0.00    +0.000 C 
ATOM     18  C14 UNL A   1       8.525  -5.280  24.725  1.00  0.00    +0.000 C 
ATOM    122  H19 UNL A   1       6.568  -6.316  27.256  1.00  0.00    +0.000 H 
ATOM    123  H20 UNL A   1       6.972  -4.380  25.846  1.00  0.00    +0.000 H 
BRANCH   15   13
ATOM     13  C10 UNL A   1       7.780  -8.682  27.207  1.00  0.00    +0.000 C 
ATOM     14  O2  UNL A   1       7.276  -8.502  28.311  1.00  0.00    +0.000 O 
BRANCH   13   12
ATOM    121  H18 UNL A   1       9.052 -10.224  27.061  1.00  0.00    +0.000 H 
ATOM     12  N2  UNL A   1       8.143  -9.945  26.809  1.00  0.00    +0.000 N 
BRANCH   12   11
ATOM     11  C9  UNL A   1       7.371 -10.927  26.065  1.00  0.00    +0.000 C 
ATOM    119  H16 UNL A   1       6.932 -10.448  25.216  1.00  0.00    +0.000 H 
ATOM    120  H17 UNL A   1       8.039 -11.711  25.770  1.00  0.00    +0.000 H 
BRANCH   11   10
ATOM     10  C8  UNL A   1       6.263 -11.551  26.905  1.00  0.00    +0.000 C 
ATOM    117  H14 UNL A   1       6.237 -12.600  26.695  1.00  0.00    +0.000 H 
ATOM    118  H15 UNL A   1       6.497 -11.330  27.925  1.00  0.00    +0.000 H 
BRANCH   10    9
ATOM      9  C7  UNL A   1       4.867 -10.980  26.651  1.00  0.00    +0.000 C 
ATOM    115  H12 UNL A   1       4.981 -10.007  26.219  1.00  0.00    +0.000 H 
ATOM    116  H13 UNL A   1       4.373 -11.676  26.007  1.00  0.00    +0.000 H 
BRANCH    9    8
ATOM    113  H10 UNL A   1       3.361  -9.986  27.764  1.00  0.00    +0.000 H 
ATOM    114  H11 UNL A   1       3.438 -11.765  27.966  1.00  0.00    +0.000 H 
ATOM      8  C6  UNL A   1       3.983 -10.846  27.893  1.00  0.00    +0.000 C 
BRANCH    8    7
ATOM    111  H8  UNL A   1       4.594 -11.591  29.788  1.00  0.00    +0.000 H 
ATOM      7  C5  UNL A   1       4.732 -10.693  29.224  1.00  0.00    +0.000 C 
ATOM    112  H9  UNL A   1       5.755 -10.504  28.972  1.00  0.00    +0.000 H 
BRANCH    7    6
ATOM    110  H7  UNL A   1       3.365  -9.780  30.577  1.00  0.00    +0.000 H 
ATOM    109  H6  UNL A   1       4.140  -8.654  29.466  1.00  0.00    +0.000 H 
ATOM      6  C4  UNL A   1       4.280  -9.511  30.090  1.00  0.00    +0.000 C 
BRANCH    6    5
ATOM    108  H5  UNL A   1       6.011  -9.825  31.221  1.00  0.00    +0.000 H 
ATOM      5  N1  UNL A   1       5.262  -9.197  31.110  1.00  0.00    +0.000 N 
BRANCH    5    3
ATOM      3  C3  UNL A   1       5.235  -8.101  31.930  1.00  0.00    +0.000 C 
ATOM      4  O1  UNL A   1       4.532  -8.191  32.936  1.00  0.00    +0.000 O 
BRANCH    3    2
ATOM      2  C2  UNL A   1       6.078  -6.870  31.558  1.00  0.00    +0.000 C 
ATOM    107  H4  UNL A   1       6.803  -7.236  30.861  1.00  0.00    +0.000 H 
BRANCH    2    1
ATOM      1  C1  UNL A   1       6.714  -6.299  32.833  1.00  0.00    +0.000 C 
ATOM    106  H3  UNL A   1       7.224  -5.389  32.601  1.00  0.00    +0.000 H 
ATOM    105  H2  UNL A   1       5.949  -6.105  33.556  1.00  0.00    +0.000 H 
ATOM    104  H1  UNL A   1       7.410  -7.008  33.232  1.00  0.00    +0.000 H 
ENDBRANCH    2    1
BRANCH    2   78
ATOM    101  C75 UNL A   1       4.379  -3.534  30.643  1.00  0.00    +0.000 C 
ATOM    102  F16 UNL A   1       3.954  -2.436  31.289  1.00  0.00    +0.000 F 
ATOM    103  C76 UNL A   1       4.857  -4.595  31.409  1.00  0.00    +0.000 C 
ATOM    136  H33 UNL A   1       5.549  -6.705  28.924  1.00  0.00    +0.000 H 
ATOM    137  H34 UNL A   1       4.740  -4.849  27.604  1.00  0.00    +0.000 H 
ATOM     78  C55 UNL A   1       5.362  -5.748  30.801  1.00  0.00    +0.000 C 
ATOM     79  C56 UNL A   1       5.264  -5.833  29.397  1.00  0.00    +0.000 C 
ATOM     80  C57 UNL A   1       4.789  -4.760  28.631  1.00  0.00    +0.000 C 
ATOM     81  C58 UNL A   1       4.382  -3.569  29.244  1.00  0.00    +0.000 C 
ATOM    154  H51 UNL A   1       4.838  -4.529  32.439  1.00  0.00    +0.000 H 
BRANCH   81   82
ATOM    100  C74 UNL A   1       3.222  -2.462  27.352  1.00  0.00    +0.000 C 
ATOM    138  H35 UNL A   1       5.246  -1.007  29.591  1.00  0.00    +0.000 H 
ATOM    139  H36 UNL A   1       4.695   0.941  28.257  1.00  0.00    +0.000 H 
ATOM    140  H37 UNL A   1       3.193   0.734  26.358  1.00  0.00    +0.000 H 
ATOM     82  C59 UNL A   1       4.088  -2.362  28.458  1.00  0.00    +0.000 C 
ATOM     83  C60 UNL A   1       4.615  -1.105  28.781  1.00  0.00    +0.000 C 
ATOM     84  C61 UNL A   1       4.293   0.021  28.014  1.00  0.00    +0.000 C 
ATOM     85  C62 UNL A   1       3.430  -0.096  26.924  1.00  0.00    +0.000 C 
ATOM     86  C63 UNL A   1       2.890  -1.339  26.602  1.00  0.00    +0.000 C 
ATOM    153  H50 UNL A   1       2.830  -3.381  27.094  1.00  0.00    +0.000 H 
BRANCH   86   87
ATOM     87  O3  UNL A   1       2.062  -1.378  25.456  1.00  0.00    +0.000 O 
BRANCH   87   88
ATOM     89  O4  UNL A   1       2.356  -0.347  23.376  1.00  0.00    +0.000 O 
ATOM     88  C64 UNL A   1       2.519  -1.283  24.140  1.00  0.00    +0.000 C 
BRANCH   88   90
ATOM     90  N7  UNL A   1       3.228  -2.387  23.739  1.00  0.00    +0.000 N 
ATOM    141  H38 UNL A   1       2.812  -3.272  23.857  1.00  0.00    +0.000 H 
BRANCH   90   91
ATOM     91  C65 UNL A   1       4.547  -2.333  23.153  1.00  0.00    +0.000 C 
ATOM    142  H39 UNL A   1       4.466  -1.876  22.190  1.00  0.00    +0.000 H 
ATOM    143  H40 UNL A   1       4.903  -3.341  23.110  1.00  0.00    +0.000 H 
BRANCH   91   92
ATOM    145  H42 UNL A   1       6.430  -1.491  23.338  1.00  0.00    +0.000 H 
ATOM     92  C66 UNL A   1       5.570  -1.545  23.973  1.00  0.00    +0.000 C 
ATOM    144  H41 UNL A   1       5.117  -0.609  24.230  1.00  0.00    +0.000 H 
BRANCH   92   93
ATOM    146  H43 UNL A   1       6.491  -3.127  25.016  1.00  0.00    +0.000 H 
ATOM    147  H44 UNL A   1       5.244  -2.134  25.918  1.00  0.00    +0.000 H 
ATOM     93  C67 UNL A   1       6.097  -2.166  25.273  1.00  0.00    +0.000 C 
BRANCH   93   94
ATOM     97  C71 UNL A   1       9.082   0.033  27.507  1.00  0.00    +0.000 C 
ATOM     98  C72 UNL A   1       8.590   0.510  26.298  1.00  0.00    +0.000 C 
ATOM     99  C73 UNL A   1       7.635  -0.229  25.596  1.00  0.00    +0.000 C 
ATOM    148  H45 UNL A   1       7.351  -2.830  27.675  1.00  0.00    +0.000 H 
ATOM    149  H46 UNL A   1       8.987  -1.537  28.905  1.00  0.00    +0.000 H 
ATOM    150  H47 UNL A   1       9.784   0.579  28.032  1.00  0.00    +0.000 H 
ATOM    151  H48 UNL A   1       8.930   1.407  25.919  1.00  0.00    +0.000 H 
ATOM    152  H49 UNL A   1       7.267   0.137  24.705  1.00  0.00    +0.000 H 
ATOM     94  C68 UNL A   1       7.163  -1.463  26.082  1.00  0.00    +0.000 C 
ATOM     95  C69 UNL A   1       7.676  -1.927  27.296  1.00  0.00    +0.000 C 
ATOM     96  C70 UNL A   1       8.625  -1.182  28.006  1.00  0.00    +0.000 C 
ENDBRANCH   93   94
ENDBRANCH   92   93
ENDBRANCH   91   92
ENDBRANCH   90   91
ENDBRANCH   88   90
ENDBRANCH   87   88
ENDBRANCH   86   87
ENDBRANCH   81   82
ENDBRANCH    2   78
ENDBRANCH    3    2
ENDBRANCH    5    3
ENDBRANCH    6    5
ENDBRANCH    7    6
ENDBRANCH    8    7
ENDBRANCH    9    8
ENDBRANCH   10    9
ENDBRANCH   11   10
ENDBRANCH   12   11
ENDBRANCH   13   12
ENDBRANCH   15   13
ENDBRANCH   19   18
BRANCH   23   24
ATOM     33  C24 UNL A   1       6.694  -3.932  17.480  1.00  0.00    +0.000 C 
ATOM     34  F5  UNL A   1       7.988  -4.261  17.355  1.00  0.00    +0.000 F 
ATOM     24  C19 UNL A   1       6.273  -3.095  18.525  1.00  0.00    +0.000 C 
ATOM     25  C20 UNL A   1       4.909  -2.780  18.604  1.00  0.00    +0.000 C 
ATOM     26  F1  UNL A   1       4.455  -1.994  19.592  1.00  0.00    +0.000 F 
ATOM     27  C21 UNL A   1       3.997  -3.304  17.692  1.00  0.00    +0.000 C 
ATOM     28  F2  UNL A   1       2.692  -3.026  17.816  1.00  0.00    +0.000 F 
ATOM     29  C22 UNL A   1       4.436  -4.123  16.662  1.00  0.00    +0.000 C 
ATOM     30  F3  UNL A   1       3.558  -4.624  15.781  1.00  0.00    +0.000 F 
ATOM     31  C23 UNL A   1       5.784  -4.432  16.551  1.00  0.00    +0.000 C 
ATOM     32  F4  UNL A   1       6.210  -5.216  15.552  1.00  0.00    +0.000 F 
ENDBRANCH   23   24
BRANCH   40   41
ATOM     41  C30 UNL A   1      10.695   2.573  19.071  1.00  0.00    +0.000 C 
ATOM     42  C31 UNL A   1      11.720   2.566  18.115  1.00  0.00    +0.000 C 
ATOM     43  F6  UNL A   1      12.458   1.461  17.926  1.00  0.00    +0.000 F 
ATOM     44  C32 UNL A   1      12.015   3.707  17.376  1.00  0.00    +0.000 C 
ATOM     45  F7  UNL A   1      13.027   3.691  16.497  1.00  0.00    +0.000 F 
ATOM     46  C33 UNL A   1      11.273   4.865  17.555  1.00  0.00    +0.000 C 
ATOM     47  F8  UNL A   1      11.555   5.961  16.838  1.00  0.00    +0.000 F 
ATOM     48  C34 UNL A   1      10.243   4.889  18.484  1.00  0.00    +0.000 C 
ATOM     49  F9  UNL A   1       9.518   6.004  18.651  1.00  0.00    +0.000 F 
ATOM     50  C35 UNL A   1       9.963   3.757  19.244  1.00  0.00    +0.000 C 
ATOM     51  F10 UNL A   1       8.968   3.813  20.143  1.00  0.00    +0.000 F 
ENDBRANCH   40   41
BRANCH   55   56
ATOM     65  C44 UNL A   1      12.759   1.130  26.050  1.00  0.00    +0.000 C 
ATOM     66  F15 UNL A   1      11.557   1.726  26.055  1.00  0.00    +0.000 F 
ATOM     56  C39 UNL A   1      13.024   0.092  25.146  1.00  0.00    +0.000 C 
ATOM     57  C40 UNL A   1      14.297  -0.494  25.177  1.00  0.00    +0.000 C 
ATOM     58  F11 UNL A   1      14.588  -1.505  24.345  1.00  0.00    +0.000 F 
ATOM     59  C41 UNL A   1      15.261  -0.070  26.087  1.00  0.00    +0.000 C 
ATOM     60  F12 UNL A   1      16.458  -0.673  26.123  1.00  0.00    +0.000 F 
ATOM     61  C42 UNL A   1      14.982   0.966  26.966  1.00  0.00    +0.000 C 
ATOM     62  F13 UNL A   1      15.911   1.376  27.838  1.00  0.00    +0.000 F 
ATOM     63  C43 UNL A   1      13.733   1.570  26.944  1.00  0.00    +0.000 C 
ATOM     64  F14 UNL A   1      13.462   2.579  27.782  1.00  0.00    +0.000 F 
ENDBRANCH   55   56
TORSDOF 25
ENDMDL
MODEL 9
REMARK VINA RESULT:      -9.8     18.704     26.108
ROOT
ATOM    129  H26 UNL A   1      29.262  38.687  45.673  1.00  0.00    +0.000 H 
ATOM    130  H27 UNL A   1      28.753  34.445  43.020  1.00  0.00    +0.000 H 
ATOM    131  H28 UNL A   1      26.346  34.342  43.887  1.00  0.00    +0.000 H 
ATOM    132  H29 UNL A   1      27.915  42.549  49.465  1.00  0.00    +0.000 H 
ATOM    133  H30 UNL A   1      30.148  42.930  48.273  1.00  0.00    +0.000 H 
ATOM     19  C15 UNL A   1      30.862  40.831  46.484  1.00  0.00    +0.000 C 
ATOM     20  C16 UNL A   1      29.576  40.991  47.245  1.00  0.00    +0.000 C 
ATOM     21  N3  UNL A   1      28.517  40.220  47.254  1.00  0.00    +0.000 N 
ATOM     22  C17 UNL A   1      27.638  40.798  48.160  1.00  0.00    +0.000 C 
ATOM     23  C18 UNL A   1      26.382  40.410  48.482  1.00  0.00    +0.000 C 
ATOM     35  C25 UNL A   1      25.709  39.275  47.904  1.00  0.00    +0.000 C 
ATOM     36  C26 UNL A   1      24.413  38.839  48.116  1.00  0.00    +0.000 C 
ATOM     37  C27 UNL A   1      24.214  37.676  47.365  1.00  0.00    +0.000 C 
ATOM     38  C28 UNL A   1      25.373  37.410  46.654  1.00  0.00    +0.000 C 
ATOM     39  N4  UNL A   1      26.283  38.397  46.997  1.00  0.00    +0.000 N 
ATOM     40  C29 UNL A   1      25.636  36.335  45.732  1.00  0.00    +0.000 C 
ATOM     52  C36 UNL A   1      26.798  36.150  45.062  1.00  0.00    +0.000 C 
ATOM     53  N5  UNL A   1      27.955  36.914  45.096  1.00  0.00    +0.000 N 
ATOM     54  C37 UNL A   1      28.800  36.325  44.287  1.00  0.00    +0.000 C 
ATOM     55  C38 UNL A   1      30.202  36.731  43.918  1.00  0.00    +0.000 C 
ATOM     67  C45 UNL A   1      30.722  37.857  44.442  1.00  0.00    +0.000 C 
ATOM     68  C46 UNL A   1      32.058  38.379  44.172  1.00  0.00    +0.000 C 
ATOM     69  C47 UNL A   1      32.246  39.495  44.894  1.00  0.00    +0.000 C 
ATOM     70  C48 UNL A   1      31.029  39.785  45.654  1.00  0.00    +0.000 C 
ATOM     71  N6  UNL A   1      30.176  38.762  45.318  1.00  0.00    +0.000 N 
ATOM     72  C49 UNL A   1      28.281  35.100  43.662  1.00  0.00    +0.000 C 
ATOM     73  C50 UNL A   1      27.044  35.060  44.140  1.00  0.00    +0.000 C 
ATOM     74  C51 UNL A   1      28.304  41.957  48.715  1.00  0.00    +0.000 C 
ATOM     75  C52 UNL A   1      29.478  42.158  48.136  1.00  0.00    +0.000 C 
ATOM    124  H21 UNL A   1      23.713  39.295  48.722  1.00  0.00    +0.000 H 
ATOM    125  H22 UNL A   1      23.350  37.111  47.344  1.00  0.00    +0.000 H 
ATOM    126  H23 UNL A   1      27.201  38.465  46.649  1.00  0.00    +0.000 H 
ATOM    127  H24 UNL A   1      32.747  37.956  43.530  1.00  0.00    +0.000 H 
ATOM    128  H25 UNL A   1      33.111  40.057  44.911  1.00  0.00    +0.000 H 
ENDROOT
BRANCH   19   18
ATOM    134  H31 UNL A   1      32.994  40.547  48.080  1.00  0.00    +0.000 H 
ATOM    135  H32 UNL A   1      34.784  42.123  48.511  1.00  0.00    +0.000 H 
ATOM     76  C53 UNL A   1      33.012  41.454  47.586  1.00  0.00    +0.000 C 
ATOM     77  C54 UNL A   1      34.063  42.340  47.804  1.00  0.00    +0.000 C 
ATOM     15  C11 UNL A   1      34.140  43.524  47.065  1.00  0.00    +0.000 C 
ATOM     16  C12 UNL A   1      33.104  43.879  46.198  1.00  0.00    +0.000 C 
ATOM     17  C13 UNL A   1      32.017  43.019  46.028  1.00  0.00    +0.000 C 
ATOM     18  C14 UNL A   1      31.978  41.785  46.697  1.00  0.00    +0.000 C 
ATOM    122  H19 UNL A   1      33.141  44.775  45.686  1.00  0.00    +0.000 H 
ATOM    123  H20 UNL A   1      31.239  43.291  45.406  1.00  0.00    +0.000 H 
BRANCH   15   13
ATOM     13  C10 UNL A   1      35.307  44.426  47.189  1.00  0.00    +0.000 C 
ATOM     14  O2  UNL A   1      36.293  44.062  47.822  1.00  0.00    +0.000 O 
BRANCH   13   12
ATOM    121  H18 UNL A   1      34.685  46.327  47.056  1.00  0.00    +0.000 H 
ATOM     12  N2  UNL A   1      35.273  45.672  46.615  1.00  0.00    +0.000 N 
BRANCH   12   11
ATOM     11  C9  UNL A   1      35.983  46.159  45.444  1.00  0.00    +0.000 C 
ATOM    119  H16 UNL A   1      35.651  47.153  45.229  1.00  0.00    +0.000 H 
ATOM    120  H17 UNL A   1      37.031  46.136  45.665  1.00  0.00    +0.000 H 
BRANCH   11   10
ATOM     10  C8  UNL A   1      35.748  45.285  44.217  1.00  0.00    +0.000 C 
ATOM    117  H14 UNL A   1      35.040  44.528  44.479  1.00  0.00    +0.000 H 
ATOM    118  H15 UNL A   1      35.402  45.939  43.444  1.00  0.00    +0.000 H 
BRANCH   10    9
ATOM      9  C7  UNL A   1      37.000  44.598  43.670  1.00  0.00    +0.000 C 
ATOM    115  H12 UNL A   1      37.127  44.903  42.651  1.00  0.00    +0.000 H 
ATOM    116  H13 UNL A   1      37.806  44.896  44.307  1.00  0.00    +0.000 H 
BRANCH    9    8
ATOM    113  H10 UNL A   1      37.371  42.709  42.781  1.00  0.00    +0.000 H 
ATOM    114  H11 UNL A   1      37.544  42.784  44.563  1.00  0.00    +0.000 H 
ATOM      8  C6  UNL A   1      36.970  43.068  43.705  1.00  0.00    +0.000 C 
BRANCH    8    7
ATOM    111  H8  UNL A   1      34.957  43.157  44.381  1.00  0.00    +0.000 H 
ATOM      7  C5  UNL A   1      35.584  42.439  43.896  1.00  0.00    +0.000 C 
ATOM    112  H9  UNL A   1      35.241  42.166  42.920  1.00  0.00    +0.000 H 
BRANCH    7    6
ATOM    110  H7  UNL A   1      35.503  40.317  44.062  1.00  0.00    +0.000 H 
ATOM    109  H6  UNL A   1      34.723  41.174  45.389  1.00  0.00    +0.000 H 
ATOM      6  C4  UNL A   1      35.566  41.152  44.730  1.00  0.00    +0.000 C 
BRANCH    6    5
ATOM    108  H5  UNL A   1      37.421  41.757  45.483  1.00  0.00    +0.000 H 
ATOM      5  N1  UNL A   1      36.776  41.014  45.516  1.00  0.00    +0.000 N 
BRANCH    5    3
ATOM      3  C3  UNL A   1      37.097  39.939  46.301  1.00  0.00    +0.000 C 
ATOM      4  O1  UNL A   1      38.101  39.306  45.974  1.00  0.00    +0.000 O 
BRANCH    3    2
ATOM      2  C2  UNL A   1      36.216  39.614  47.519  1.00  0.00    +0.000 C 
ATOM    107  H4  UNL A   1      35.564  40.458  47.616  1.00  0.00    +0.000 H 
BRANCH    2    1
ATOM      1  C1  UNL A   1      37.117  39.415  48.745  1.00  0.00    +0.000 C 
ATOM    106  H3  UNL A   1      36.568  38.911  49.513  1.00  0.00    +0.000 H 
ATOM    105  H2  UNL A   1      37.968  38.828  48.470  1.00  0.00    +0.000 H 
ATOM    104  H1  UNL A   1      37.443  40.368  49.107  1.00  0.00    +0.000 H 
ENDBRANCH    2    1
BRANCH    2   78
ATOM    101  C75 UNL A   1      34.367  36.500  46.203  1.00  0.00    +0.000 C 
ATOM    102  F16 UNL A   1      34.294  35.813  45.051  1.00  0.00    +0.000 F 
ATOM    103  C76 UNL A   1      35.106  37.681  46.208  1.00  0.00    +0.000 C 
ATOM    136  H33 UNL A   1      34.594  38.549  49.385  1.00  0.00    +0.000 H 
ATOM    137  H34 UNL A   1      33.335  36.486  49.370  1.00  0.00    +0.000 H 
ATOM     78  C55 UNL A   1      35.268  38.420  47.384  1.00  0.00    +0.000 C 
ATOM     79  C56 UNL A   1      34.565  37.980  48.524  1.00  0.00    +0.000 C 
ATOM     80  C57 UNL A   1      33.829  36.787  48.515  1.00  0.00    +0.000 C 
ATOM     81  C58 UNL A   1      33.759  36.000  47.359  1.00  0.00    +0.000 C 
ATOM    154  H51 UNL A   1      35.540  38.015  45.333  1.00  0.00    +0.000 H 
BRANCH   81   82
ATOM    100  C74 UNL A   1      31.839  34.488  47.779  1.00  0.00    +0.000 C 
ATOM    138  H35 UNL A   1      34.887  33.606  46.705  1.00  0.00    +0.000 H 
ATOM    139  H36 UNL A   1      33.853  31.414  46.752  1.00  0.00    +0.000 H 
ATOM    140  H37 UNL A   1      31.534  31.173  47.434  1.00  0.00    +0.000 H 
ATOM     82  C59 UNL A   1      33.180  34.649  47.384  1.00  0.00    +0.000 C 
ATOM     83  C60 UNL A   1      33.905  33.511  47.004  1.00  0.00    +0.000 C 
ATOM     84  C61 UNL A   1      33.307  32.246  47.026  1.00  0.00    +0.000 C 
ATOM     85  C62 UNL A   1      31.975  32.105  47.417  1.00  0.00    +0.000 C 
ATOM     86  C63 UNL A   1      31.242  33.232  47.784  1.00  0.00    +0.000 C 
ATOM    153  H50 UNL A   1      31.292  35.313  48.070  1.00  0.00    +0.000 H 
BRANCH   86   87
ATOM     87  O3  UNL A   1      29.913  32.996  48.210  1.00  0.00    +0.000 O 
BRANCH   87   88
ATOM     89  O4  UNL A   1      29.125  33.916  50.211  1.00  0.00    +0.000 O 
ATOM     88  C64 UNL A   1      29.161  33.873  48.993  1.00  0.00    +0.000 C 
BRANCH   88   90
ATOM     90  N7  UNL A   1      28.422  34.756  48.247  1.00  0.00    +0.000 N 
ATOM    141  H38 UNL A   1      28.094  34.458  47.368  1.00  0.00    +0.000 H 
BRANCH   90   91
ATOM     91  C65 UNL A   1      28.095  36.097  48.672  1.00  0.00    +0.000 C 
ATOM    142  H39 UNL A   1      27.771  36.056  49.690  1.00  0.00    +0.000 H 
ATOM    143  H40 UNL A   1      27.335  36.451  48.006  1.00  0.00    +0.000 H 
BRANCH   91   92
ATOM    145  H42 UNL A   1      29.895  36.677  47.826  1.00  0.00    +0.000 H 
ATOM     92  C66 UNL A   1      29.254  37.090  48.578  1.00  0.00    +0.000 C 
ATOM    144  H41 UNL A   1      28.832  38.050  48.358  1.00  0.00    +0.000 H 
BRANCH   92   93
ATOM    146  H43 UNL A   1      31.143  36.950  49.499  1.00  0.00    +0.000 H 
ATOM    147  H44 UNL A   1      29.668  36.692  50.554  1.00  0.00    +0.000 H 
ATOM     93  C67 UNL A   1      30.166  37.264  49.799  1.00  0.00    +0.000 C 
BRANCH   93   94
ATOM     97  C71 UNL A   1      30.744  41.206  51.494  1.00  0.00    +0.000 C 
ATOM     98  C72 UNL A   1      31.683  40.645  50.636  1.00  0.00    +0.000 C 
ATOM     99  C73 UNL A   1      31.471  39.366  50.115  1.00  0.00    +0.000 C 
ATOM    148  H45 UNL A   1      28.551  38.675  51.584  1.00  0.00    +0.000 H 
ATOM    149  H46 UNL A   1      28.904  40.901  52.468  1.00  0.00    +0.000 H 
ATOM    150  H47 UNL A   1      30.893  42.153  51.877  1.00  0.00    +0.000 H 
ATOM    151  H48 UNL A   1      32.534  41.170  50.386  1.00  0.00    +0.000 H 
ATOM    152  H49 UNL A   1      32.168  38.962  49.471  1.00  0.00    +0.000 H 
ATOM     94  C68 UNL A   1      30.326  38.620  50.449  1.00  0.00    +0.000 C 
ATOM     95  C69 UNL A   1      29.399  39.200  51.318  1.00  0.00    +0.000 C 
ATOM     96  C70 UNL A   1      29.604  40.485  51.833  1.00  0.00    +0.000 C 
ENDBRANCH   93   94
ENDBRANCH   92   93
ENDBRANCH   91   92
ENDBRANCH   90   91
ENDBRANCH   88   90
ENDBRANCH   87   88
ENDBRANCH   86   87
ENDBRANCH   81   82
ENDBRANCH    2   78
ENDBRANCH    3    2
ENDBRANCH    5    3
ENDBRANCH    6    5
ENDBRANCH    7    6
ENDBRANCH    8    7
ENDBRANCH    9    8
ENDBRANCH   10    9
ENDBRANCH   11   10
ENDBRANCH   12   11
ENDBRANCH   13   12
ENDBRANCH   15   13
ENDBRANCH   19   18
BRANCH   23   24
ATOM     33  C24 UNL A   1      24.940  42.373  49.130  1.00  0.00    +0.000 C 
ATOM     34  F5  UNL A   1      24.891  42.747  47.842  1.00  0.00    +0.000 F 
ATOM     24  C19 UNL A   1      25.648  41.222  49.507  1.00  0.00    +0.000 C 
ATOM     25  C20 UNL A   1      25.669  40.882  50.868  1.00  0.00    +0.000 C 
ATOM     26  F1  UNL A   1      26.322  39.784  51.278  1.00  0.00    +0.000 F 
ATOM     27  C21 UNL A   1      24.984  41.645  51.809  1.00  0.00    +0.000 C 
ATOM     28  F2  UNL A   1      24.979  41.273  53.096  1.00  0.00    +0.000 F 
ATOM     29  C22 UNL A   1      24.296  42.783  51.414  1.00  0.00    +0.000 C 
ATOM     30  F3  UNL A   1      23.641  43.520  52.322  1.00  0.00    +0.000 F 
ATOM     31  C23 UNL A   1      24.279  43.151  50.078  1.00  0.00    +0.000 C 
ATOM     32  F4  UNL A   1      23.622  44.255  49.696  1.00  0.00    +0.000 F 
ENDBRANCH   23   24
BRANCH   40   41
ATOM     41  C30 UNL A   1      24.532  35.351  45.476  1.00  0.00    +0.000 C 
ATOM     42  C31 UNL A   1      23.434  35.676  44.667  1.00  0.00    +0.000 C 
ATOM     43  F6  UNL A   1      23.322  36.906  44.144  1.00  0.00    +0.000 F 
ATOM     44  C32 UNL A   1      22.427  34.746  44.423  1.00  0.00    +0.000 C 
ATOM     45  F7  UNL A   1      21.365  35.091  43.682  1.00  0.00    +0.000 F 
ATOM     46  C33 UNL A   1      22.514  33.469  44.956  1.00  0.00    +0.000 C 
ATOM     47  F8  UNL A   1      21.546  32.574  44.715  1.00  0.00    +0.000 F 
ATOM     48  C34 UNL A   1      23.600  33.122  45.746  1.00  0.00    +0.000 C 
ATOM     49  F9  UNL A   1      23.690  31.884  46.253  1.00  0.00    +0.000 F 
ATOM     50  C35 UNL A   1      24.595  34.056  46.013  1.00  0.00    +0.000 C 
ATOM     51  F10 UNL A   1      25.629  33.696  46.789  1.00  0.00    +0.000 F 
ENDBRANCH   40   41
BRANCH   55   56
ATOM     65  C44 UNL A   1      31.203  36.336  41.642  1.00  0.00    +0.000 C 
ATOM     66  F15 UNL A   1      30.668  37.488  41.210  1.00  0.00    +0.000 F 
ATOM     56  C39 UNL A   1      31.002  35.921  42.965  1.00  0.00    +0.000 C 
ATOM     57  C40 UNL A   1      31.578  34.706  43.365  1.00  0.00    +0.000 C 
ATOM     58  F11 UNL A   1      31.429  34.280  44.628  1.00  0.00    +0.000 F 
ATOM     59  C41 UNL A   1      32.337  33.946  42.480  1.00  0.00    +0.000 C 
ATOM     60  F12 UNL A   1      32.910  32.808  42.899  1.00  0.00    +0.000 F 
ATOM     61  C42 UNL A   1      32.516  34.370  41.172  1.00  0.00    +0.000 C 
ATOM     62  F13 UNL A   1      33.243  33.636  40.321  1.00  0.00    +0.000 F 
ATOM     63  C43 UNL A   1      31.943  35.562  40.751  1.00  0.00    +0.000 C 
ATOM     64  F14 UNL A   1      32.102  35.970  39.484  1.00  0.00    +0.000 F 
ENDBRANCH   55   56
TORSDOF 25
ENDMDL
MODEL 10
REMARK VINA RESULT:      -9.7     40.114     44.893
ROOT
ATOM    129  H26 UNL A   1      15.299  52.403   3.442  1.00  0.00    +0.000 H 
ATOM    130  H27 UNL A   1      12.078  52.082   7.290  1.00  0.00    +0.000 H 
ATOM    131  H28 UNL A   1      11.757  49.624   6.650  1.00  0.00    +0.000 H 
ATOM    132  H29 UNL A   1      17.845  50.799  -1.255  1.00  0.00    +0.000 H 
ATOM    133  H30 UNL A   1      18.532  53.104  -0.379  1.00  0.00    +0.000 H 
ATOM     19  C15 UNL A   1      17.067  53.940   1.915  1.00  0.00    +0.000 C 
ATOM     20  C16 UNL A   1      17.009  52.607   1.226  1.00  0.00    +0.000 C 
ATOM     21  N3  UNL A   1      16.290  51.552   1.519  1.00  0.00    +0.000 N 
ATOM     22  C17 UNL A   1      16.580  50.613   0.538  1.00  0.00    +0.000 C 
ATOM     23  C18 UNL A   1      16.133  49.340   0.430  1.00  0.00    +0.000 C 
ATOM     35  C25 UNL A   1      15.241  48.710   1.368  1.00  0.00    +0.000 C 
ATOM     36  C26 UNL A   1      14.783  47.404   1.382  1.00  0.00    +0.000 C 
ATOM     37  C27 UNL A   1      13.908  47.259   2.463  1.00  0.00    +0.000 C 
ATOM     38  C28 UNL A   1      13.851  48.463   3.146  1.00  0.00    +0.000 C 
ATOM     39  N4  UNL A   1      14.671  49.345   2.462  1.00  0.00    +0.000 N 
ATOM     40  C29 UNL A   1      13.104  48.788   4.334  1.00  0.00    +0.000 C 
ATOM     52  C36 UNL A   1      13.112  49.992   4.954  1.00  0.00    +0.000 C 
ATOM     53  N5  UNL A   1      13.810  51.143   4.614  1.00  0.00    +0.000 N 
ATOM     54  C37 UNL A   1      13.481  52.041   5.510  1.00  0.00    +0.000 C 
ATOM     55  C38 UNL A   1      13.956  53.462   5.647  1.00  0.00    +0.000 C 
ATOM     67  C45 UNL A   1      14.860  53.943   4.773  1.00  0.00    +0.000 C 
ATOM     68  C46 UNL A   1      15.416  55.292   4.785  1.00  0.00    +0.000 C 
ATOM     69  C47 UNL A   1      16.255  55.430   3.747  1.00  0.00    +0.000 C 
ATOM     70  C48 UNL A   1      16.321  54.165   3.014  1.00  0.00    +0.000 C 
ATOM     71  N6  UNL A   1      15.464  53.339   3.698  1.00  0.00    +0.000 N 
ATOM     72  C49 UNL A   1      12.514  51.567   6.510  1.00  0.00    +0.000 C 
ATOM     73  C50 UNL A   1      12.351  50.302   6.147  1.00  0.00    +0.000 C 
ATOM     74  C51 UNL A   1      17.502  51.238  -0.386  1.00  0.00    +0.000 C 
ATOM     75  C52 UNL A   1      17.850  52.447   0.029  1.00  0.00    +0.000 C 
ATOM    124  H21 UNL A   1      15.044  46.665   0.711  1.00  0.00    +0.000 H 
ATOM    125  H22 UNL A   1      13.391  46.400   2.710  1.00  0.00    +0.000 H 
ATOM    126  H23 UNL A   1      14.827  50.284   2.713  1.00  0.00    +0.000 H 
ATOM    127  H24 UNL A   1      15.198  56.024   5.481  1.00  0.00    +0.000 H 
ATOM    128  H25 UNL A   1      16.771  56.290   3.504  1.00  0.00    +0.000 H 
ENDROOT
BRANCH   19   18
ATOM    134  H31 UNL A   1      16.433  55.633  -0.060  1.00  0.00    +0.000 H 
ATOM    135  H32 UNL A   1      17.791  57.374  -1.058  1.00  0.00    +0.000 H 
ATOM     76  C53 UNL A   1      17.380  55.820   0.305  1.00  0.00    +0.000 C 
ATOM     77  C54 UNL A   1      18.142  56.848  -0.242  1.00  0.00    +0.000 C 
ATOM     15  C11 UNL A   1      19.385  57.165   0.314  1.00  0.00    +0.000 C 
ATOM     16  C12 UNL A   1      19.917  56.377   1.337  1.00  0.00    +0.000 C 
ATOM     17  C13 UNL A   1      19.179  55.305   1.843  1.00  0.00    +0.000 C 
ATOM     18  C14 UNL A   1      17.892  55.037   1.351  1.00  0.00    +0.000 C 
ATOM    122  H19 UNL A   1      20.854  56.586   1.718  1.00  0.00    +0.000 H 
ATOM    123  H20 UNL A   1      19.581  54.707   2.582  1.00  0.00    +0.000 H 
BRANCH   15   13
ATOM     13  C10 UNL A   1      20.162  58.328  -0.169  1.00  0.00    +0.000 C 
ATOM     14  O2  UNL A   1      19.762  58.968  -1.136  1.00  0.00    +0.000 O 
BRANCH   13   12
ATOM    121  H18 UNL A   1      21.240  59.168   1.297  1.00  0.00    +0.000 H 
ATOM     12  N2  UNL A   1      21.337  58.672   0.453  1.00  0.00    +0.000 N 
BRANCH   12   11
ATOM     11  C9  UNL A   1      22.704  58.405   0.037  1.00  0.00    +0.000 C 
ATOM    119  H16 UNL A   1      23.109  57.637   0.662  1.00  0.00    +0.000 H 
ATOM    120  H17 UNL A   1      22.679  58.101  -0.990  1.00  0.00    +0.000 H 
BRANCH   11   10
ATOM     10  C8  UNL A   1      23.593  59.639   0.136  1.00  0.00    +0.000 C 
ATOM    117  H14 UNL A   1      23.229  60.248   0.937  1.00  0.00    +0.000 H 
ATOM    118  H15 UNL A   1      24.588  59.282   0.294  1.00  0.00    +0.000 H 
BRANCH   10    9
ATOM      9  C7  UNL A   1      23.640  60.498  -1.129  1.00  0.00    +0.000 C 
ATOM    115  H12 UNL A   1      22.905  60.123  -1.812  1.00  0.00    +0.000 H 
ATOM    116  H13 UNL A   1      23.455  61.503  -0.814  1.00  0.00    +0.000 H 
BRANCH    9    8
ATOM    113  H10 UNL A   1      25.684  61.049  -1.235  1.00  0.00    +0.000 H 
ATOM    114  H11 UNL A   1      25.251  59.493  -2.012  1.00  0.00    +0.000 H 
ATOM      8  C6  UNL A   1      24.990  60.519  -1.851  1.00  0.00    +0.000 C 
BRANCH    8    7
ATOM    111  H8  UNL A   1      24.101  61.770  -3.322  1.00  0.00    +0.000 H 
ATOM      7  C5  UNL A   1      24.987  61.177  -3.237  1.00  0.00    +0.000 C 
ATOM    112  H9  UNL A   1      25.889  61.751  -3.298  1.00  0.00    +0.000 H 
BRANCH    7    6
ATOM    110  H7  UNL A   1      26.044  60.048  -4.701  1.00  0.00    +0.000 H 
ATOM    109  H6  UNL A   1      24.463  60.614  -5.231  1.00  0.00    +0.000 H 
ATOM      6  C4  UNL A   1      25.022  60.200  -4.419  1.00  0.00    +0.000 C 
BRANCH    6    5
ATOM    108  H5  UNL A   1      23.809  58.902  -3.317  1.00  0.00    +0.000 H 
ATOM      5  N1  UNL A   1      24.453  58.916  -4.060  1.00  0.00    +0.000 N 
BRANCH    5    3
ATOM      3  C3  UNL A   1      24.735  57.722  -4.668  1.00  0.00    +0.000 C 
ATOM      4  O1  UNL A   1      25.326  57.786  -5.746  1.00  0.00    +0.000 O 
BRANCH    3    2
ATOM      2  C2  UNL A   1      24.322  56.414  -3.972  1.00  0.00    +0.000 C 
ATOM    107  H4  UNL A   1      24.442  56.612  -2.927  1.00  0.00    +0.000 H 
BRANCH    2    1
ATOM      1  C1  UNL A   1      25.227  55.279  -4.471  1.00  0.00    +0.000 C 
ATOM    106  H3  UNL A   1      25.062  55.124  -5.515  1.00  0.00    +0.000 H 
ATOM    105  H2  UNL A   1      26.251  55.541  -4.305  1.00  0.00    +0.000 H 
ATOM    104  H1  UNL A   1      24.998  54.380  -3.936  1.00  0.00    +0.000 H 
ENDBRANCH    2    1
BRANCH    2   78
ATOM    101  C75 UNL A   1      21.102  54.478  -4.831  1.00  0.00    +0.000 C 
ATOM    102  F16 UNL A   1      20.765  53.407  -5.568  1.00  0.00    +0.000 F 
ATOM    103  C76 UNL A   1      22.423  54.917  -4.891  1.00  0.00    +0.000 C 
ATOM    136  H33 UNL A   1      22.151  57.527  -2.835  1.00  0.00    +0.000 H 
ATOM    137  H34 UNL A   1      19.868  56.741  -2.721  1.00  0.00    +0.000 H 
ATOM     78  C55 UNL A   1      22.856  55.994  -4.110  1.00  0.00    +0.000 C 
ATOM     79  C56 UNL A   1      21.882  56.677  -3.354  1.00  0.00    +0.000 C 
ATOM     80  C57 UNL A   1      20.556  56.226  -3.292  1.00  0.00    +0.000 C 
ATOM     81  C58 UNL A   1      20.156  55.084  -3.997  1.00  0.00    +0.000 C 
ATOM    154  H51 UNL A   1      23.090  54.442  -5.518  1.00  0.00    +0.000 H 
BRANCH   81   82
ATOM    100  C74 UNL A   1      18.700  53.078  -3.936  1.00  0.00    +0.000 C 
ATOM    138  H35 UNL A   1      17.794  56.233  -3.266  1.00  0.00    +0.000 H 
ATOM    139  H36 UNL A   1      15.660  55.141  -2.904  1.00  0.00    +0.000 H 
ATOM    140  H37 UNL A   1      15.458  52.736  -3.179  1.00  0.00    +0.000 H 
ATOM     82  C59 UNL A   1      18.838  54.470  -3.779  1.00  0.00    +0.000 C 
ATOM     83  C60 UNL A   1      17.714  55.212  -3.394  1.00  0.00    +0.000 C 
ATOM     84  C61 UNL A   1      16.483  54.582  -3.179  1.00  0.00    +0.000 C 
ATOM     85  C62 UNL A   1      16.365  53.200  -3.336  1.00  0.00    +0.000 C 
ATOM     86  C63 UNL A   1      17.480  52.451  -3.706  1.00  0.00    +0.000 C 
ATOM    153  H50 UNL A   1      19.514  52.515  -4.227  1.00  0.00    +0.000 H 
BRANCH   86   87
ATOM     87  O3  UNL A   1      17.263  51.065  -3.887  1.00  0.00    +0.000 O 
BRANCH   87   88
ATOM     89  O4  UNL A   1      17.662  49.545  -5.621  1.00  0.00    +0.000 O 
ATOM     88  C64 UNL A   1      17.020  50.451  -5.117  1.00  0.00    +0.000 C 
BRANCH   88   90
ATOM     90  N7  UNL A   1      15.922  50.961  -5.763  1.00  0.00    +0.000 N 
ATOM    141  H38 UNL A   1      15.048  50.888  -5.315  1.00  0.00    +0.000 H 
BRANCH   90   91
ATOM     91  C65 UNL A   1      15.968  51.600  -7.057  1.00  0.00    +0.000 C 
ATOM    142  H39 UNL A   1      15.070  52.167  -7.182  1.00  0.00    +0.000 H 
ATOM    143  H40 UNL A   1      16.072  50.818  -7.780  1.00  0.00    +0.000 H 
BRANCH   91   92
ATOM    145  H42 UNL A   1      17.757  52.395  -6.380  1.00  0.00    +0.000 H 
ATOM     92  C66 UNL A   1      17.159  52.538  -7.256  1.00  0.00    +0.000 C 
ATOM    144  H41 UNL A   1      17.619  52.273  -8.186  1.00  0.00    +0.000 H 
BRANCH   92   93
ATOM    146  H43 UNL A   1      16.332  54.285  -6.417  1.00  0.00    +0.000 H 
ATOM    147  H44 UNL A   1      16.426  54.188  -8.244  1.00  0.00    +0.000 H 
ATOM     93  C67 UNL A   1      16.898  54.050  -7.294  1.00  0.00    +0.000 C 
BRANCH   93   94
ATOM     97  C71 UNL A   1      20.262  56.757  -7.613  1.00  0.00    +0.000 C 
ATOM     98  C72 UNL A   1      20.295  55.494  -8.193  1.00  0.00    +0.000 C 
ATOM     99  C73 UNL A   1      19.197  54.640  -8.062  1.00  0.00    +0.000 C 
ATOM    148  H45 UNL A   1      17.217  56.606  -6.223  1.00  0.00    +0.000 H 
ATOM    149  H46 UNL A   1      19.110  58.096  -6.471  1.00  0.00    +0.000 H 
ATOM    150  H47 UNL A   1      21.069  57.393  -7.712  1.00  0.00    +0.000 H 
ATOM    151  H48 UNL A   1      21.128  55.186  -8.717  1.00  0.00    +0.000 H 
ATOM    152  H49 UNL A   1      19.226  53.708  -8.504  1.00  0.00    +0.000 H 
ATOM     94  C68 UNL A   1      18.052  55.026  -7.341  1.00  0.00    +0.000 C 
ATOM     95  C69 UNL A   1      18.043  56.297  -6.761  1.00  0.00    +0.000 C 
ATOM     96  C70 UNL A   1      19.137  57.158  -6.900  1.00  0.00    +0.000 C 
ENDBRANCH   93   94
ENDBRANCH   92   93
ENDBRANCH   91   92
ENDBRANCH   90   91
ENDBRANCH   88   90
ENDBRANCH   87   88
ENDBRANCH   86   87
ENDBRANCH   81   82
ENDBRANCH    2   78
ENDBRANCH    3    2
ENDBRANCH    5    3
ENDBRANCH    6    5
ENDBRANCH    7    6
ENDBRANCH    8    7
ENDBRANCH    9    8
ENDBRANCH   10    9
ENDBRANCH   11   10
ENDBRANCH   12   11
ENDBRANCH   13   12
ENDBRANCH   15   13
ENDBRANCH   19   18
BRANCH   23   24
ATOM     33  C24 UNL A   1      17.880  47.948  -0.738  1.00  0.00    +0.000 C 
ATOM     34  F5  UNL A   1      18.679  48.074   0.332  1.00  0.00    +0.000 F 
ATOM     24  C19 UNL A   1      16.607  48.538  -0.746  1.00  0.00    +0.000 C 
ATOM     25  C20 UNL A   1      15.816  48.378  -1.893  1.00  0.00    +0.000 C 
ATOM     26  F1  UNL A   1      14.587  48.913  -1.945  1.00  0.00    +0.000 F 
ATOM     27  C21 UNL A   1      16.269  47.632  -2.978  1.00  0.00    +0.000 C 
ATOM     28  F2  UNL A   1      15.476  47.453  -4.044  1.00  0.00    +0.000 F 
ATOM     29  C22 UNL A   1      17.533  47.063  -2.951  1.00  0.00    +0.000 C 
ATOM     30  F3  UNL A   1      17.970  46.348  -3.998  1.00  0.00    +0.000 F 
ATOM     31  C23 UNL A   1      18.341  47.226  -1.837  1.00  0.00    +0.000 C 
ATOM     32  F4  UNL A   1      19.566  46.684  -1.813  1.00  0.00    +0.000 F 
ENDBRANCH   23   24
BRANCH   40   41
ATOM     41  C30 UNL A   1      12.264  47.707   4.948  1.00  0.00    +0.000 C 
ATOM     42  C31 UNL A   1      12.739  46.923   6.009  1.00  0.00    +0.000 C 
ATOM     43  F6  UNL A   1      13.989  47.093   6.466  1.00  0.00    +0.000 F 
ATOM     44  C32 UNL A   1      11.942  45.936   6.581  1.00  0.00    +0.000 C 
ATOM     45  F7  UNL A   1      12.430  45.171   7.566  1.00  0.00    +0.000 F 
ATOM     46  C33 UNL A   1      10.648  45.734   6.124  1.00  0.00    +0.000 C 
ATOM     47  F8  UNL A   1       9.880  44.788   6.680  1.00  0.00    +0.000 F 
ATOM     48  C34 UNL A   1      10.152  46.510   5.086  1.00  0.00    +0.000 C 
ATOM     49  F9  UNL A   1       8.898  46.322   4.651  1.00  0.00    +0.000 F 
ATOM     50  C35 UNL A   1      10.956  47.480   4.495  1.00  0.00    +0.000 C 
ATOM     51  F10 UNL A   1      10.454  48.207   3.485  1.00  0.00    +0.000 F 
ENDBRANCH   40   41
BRANCH   55   56
ATOM     65  C44 UNL A   1      13.986  54.229   8.045  1.00  0.00    +0.000 C 
ATOM     66  F15 UNL A   1      14.957  53.344   8.313  1.00  0.00    +0.000 F 
ATOM     56  C39 UNL A   1      13.461  54.326   6.749  1.00  0.00    +0.000 C 
ATOM     57  C40 UNL A   1      12.444  55.264   6.523  1.00  0.00    +0.000 C 
ATOM     58  F11 UNL A   1      11.926  55.405   5.294  1.00  0.00    +0.000 F 
ATOM     59  C41 UNL A   1      11.981  56.083   7.549  1.00  0.00    +0.000 C 
ATOM     60  F12 UNL A   1      11.035  56.999   7.297  1.00  0.00    +0.000 F 
ATOM     61  C42 UNL A   1      12.507  55.965   8.826  1.00  0.00    +0.000 C 
ATOM     62  F13 UNL A   1      12.059  56.751   9.813  1.00  0.00    +0.000 F 
ATOM     63  C43 UNL A   1      13.505  55.034   9.077  1.00  0.00    +0.000 C 
ATOM     64  F14 UNL A   1      14.008  54.907  10.312  1.00  0.00    +0.000 F 
ENDBRANCH   55   56
TORSDOF 25
ENDMDL
