MODEL 1
REMARK VINA RESULT:      -9.5      0.000      0.000
ROOT
ATOM     32  C23 UNL A   1      10.714   3.041  21.200  1.00  0.00    +0.000 C 
ATOM     33  C24 UNL A   1      11.240   3.507  19.872  1.00  0.00    +0.000 C 
ATOM     34  N6  UNL A   1      11.027   4.638  19.248  1.00  0.00    +0.000 N 
ATOM     35  C25 UNL A   1      11.787   4.577  18.087  1.00  0.00    +0.000 C 
ATOM     36  C26 UNL A   1      11.863   5.478  17.079  1.00  0.00    +0.000 C 
ATOM     48  C33 UNL A   1      11.126   6.713  17.039  1.00  0.00    +0.000 C 
ATOM     49  C34 UNL A   1      11.085   7.661  16.032  1.00  0.00    +0.000 C 
ATOM     50  C35 UNL A   1      10.264   8.714  16.455  1.00  0.00    +0.000 C 
ATOM     51  C36 UNL A   1       9.759   8.400  17.707  1.00  0.00    +0.000 C 
ATOM     52  N7  UNL A   1      10.300   7.172  18.055  1.00  0.00    +0.000 N 
ATOM     53  C37 UNL A   1       8.852   9.162  18.526  1.00  0.00    +0.000 C 
ATOM     65  C44 UNL A   1       8.394   8.780  19.743  1.00  0.00    +0.000 C 
ATOM     66  N8  UNL A   1       8.671   7.621  20.455  1.00  0.00    +0.000 N 
ATOM     67  C45 UNL A   1       8.000   7.717  21.576  1.00  0.00    +0.000 C 
ATOM     68  C46 UNL A   1       7.907   6.738  22.713  1.00  0.00    +0.000 C 
ATOM     80  C53 UNL A   1       8.558   5.563  22.626  1.00  0.00    +0.000 C 
ATOM     81  C54 UNL A   1       8.554   4.513  23.640  1.00  0.00    +0.000 C 
ATOM     82  C55 UNL A   1       9.342   3.506  23.232  1.00  0.00    +0.000 C 
ATOM     83  C56 UNL A   1       9.882   3.826  21.911  1.00  0.00    +0.000 C 
ATOM     84  N9  UNL A   1       9.358   5.062  21.627  1.00  0.00    +0.000 N 
ATOM     85  C57 UNL A   1       7.240   8.967  21.715  1.00  0.00    +0.000 C 
ATOM     86  C58 UNL A   1       7.485   9.561  20.556  1.00  0.00    +0.000 C 
ATOM     87  C59 UNL A   1      12.504   3.320  18.118  1.00  0.00    +0.000 C 
ATOM     88  C60 UNL A   1      12.149   2.592  19.167  1.00  0.00    +0.000 C 
ATOM    117  H27 UNL A   1      11.574   7.603  15.125  1.00  0.00    +0.000 H 
ATOM    118  H28 UNL A   1      10.068   9.577  15.925  1.00  0.00    +0.000 H 
ATOM    119  H29 UNL A   1      10.123   6.695  18.898  1.00  0.00    +0.000 H 
ATOM    120  H30 UNL A   1       8.028   4.542  24.528  1.00  0.00    +0.000 H 
ATOM    121  H31 UNL A   1       9.537   2.645  23.766  1.00  0.00    +0.000 H 
ATOM    122  H32 UNL A   1       9.537   5.545  20.787  1.00  0.00    +0.000 H 
ATOM    123  H33 UNL A   1       6.665   9.296  22.507  1.00  0.00    +0.000 H 
ATOM    124  H34 UNL A   1       7.079  10.466  20.269  1.00  0.00    +0.000 H 
ATOM    125  H35 UNL A   1      13.200   3.029  17.414  1.00  0.00    +0.000 H 
ATOM    126  H36 UNL A   1      12.436   1.634  19.421  1.00  0.00    +0.000 H 
ENDROOT
BRANCH   32   31
ATOM    115  H25 UNL A   1      10.241  -1.472  22.088  1.00  0.00    +0.000 H 
ATOM    116  H26 UNL A   1       9.537   0.604  21.043  1.00  0.00    +0.000 H 
ATOM     89  C61 UNL A   1      12.370   1.686  22.481  1.00  0.00    +0.000 C 
ATOM     90  C62 UNL A   1      12.812   0.477  23.014  1.00  0.00    +0.000 C 
ATOM    127  H37 UNL A   1      12.934   2.541  22.612  1.00  0.00    +0.000 H 
ATOM     28  C19 UNL A   1      12.005  -0.661  22.921  1.00  0.00    +0.000 C 
ATOM     29  C20 UNL A   1      10.815  -0.620  22.192  1.00  0.00    +0.000 C 
ATOM     30  C21 UNL A   1      10.403   0.577  21.603  1.00  0.00    +0.000 C 
ATOM     31  C22 UNL A   1      11.164   1.746  21.768  1.00  0.00    +0.000 C 
ATOM    128  H38 UNL A   1      13.733   0.423  23.477  1.00  0.00    +0.000 H 
BRANCH   28   26
ATOM     26  C18 UNL A   1      12.398  -1.928  23.574  1.00  0.00    +0.000 C 
ATOM     27  O3  UNL A   1      11.788  -2.961  23.314  1.00  0.00    +0.000 O 
BRANCH   26   25
ATOM     25  N5  UNL A   1      13.426  -1.941  24.481  1.00  0.00    +0.000 N 
ATOM    114  H24 UNL A   1      14.331  -1.893  24.095  1.00  0.00    +0.000 H 
BRANCH   25   24
ATOM    113  H23 UNL A   1      14.302  -2.406  26.277  1.00  0.00    +0.000 H 
ATOM    112  H22 UNL A   1      12.550  -2.640  26.213  1.00  0.00    +0.000 H 
ATOM     24  C17 UNL A   1      13.369  -2.012  25.932  1.00  0.00    +0.000 C 
BRANCH   24   23
ATOM    111  H21 UNL A   1      13.008  -0.816  27.614  1.00  0.00    +0.000 H 
ATOM    110  H20 UNL A   1      12.355  -0.158  26.085  1.00  0.00    +0.000 H 
ATOM     23  C16 UNL A   1      13.177  -0.641  26.572  1.00  0.00    +0.000 C 
BRANCH   23   22
ATOM    108  H18 UNL A   1      15.164  -0.119  27.104  1.00  0.00    +0.000 H 
ATOM    109  H19 UNL A   1      14.655   0.333  25.449  1.00  0.00    +0.000 H 
ATOM     22  C15 UNL A   1      14.392   0.287  26.484  1.00  0.00    +0.000 C 
BRANCH   22   21
ATOM    106  H16 UNL A   1      13.794   2.282  26.076  1.00  0.00    +0.000 H 
ATOM    107  H17 UNL A   1      13.434   1.683  27.723  1.00  0.00    +0.000 H 
ATOM     21  C14 UNL A   1      14.144   1.733  26.924  1.00  0.00    +0.000 C 
BRANCH   21   20
ATOM    105  H15 UNL A   1      15.291   3.484  27.177  1.00  0.00    +0.000 H 
ATOM     20  C13 UNL A   1      15.368   2.463  27.489  1.00  0.00    +0.000 C 
ATOM    104  H14 UNL A   1      16.248   1.983  27.115  1.00  0.00    +0.000 H 
BRANCH   20   19
ATOM     19  C12 UNL A   1      15.440   2.473  29.013  1.00  0.00    +0.000 C 
ATOM    102  H12 UNL A   1      15.130   1.518  29.386  1.00  0.00    +0.000 H 
ATOM    103  H13 UNL A   1      16.448   2.677  29.308  1.00  0.00    +0.000 H 
BRANCH   19   18
ATOM     18  N4  UNL A   1      14.577   3.502  29.564  1.00  0.00    +0.000 N 
ATOM    101  H11 UNL A   1      14.518   4.320  29.020  1.00  0.00    +0.000 H 
BRANCH   18   16
ATOM     17  O2  UNL A   1      14.277   2.896  31.674  1.00  0.00    +0.000 O 
ATOM     16  C11 UNL A   1      13.834   3.523  30.705  1.00  0.00    +0.000 C 
BRANCH   16    2
ATOM      2  C2  UNL A   1      12.509   4.286  30.810  1.00  0.00    +0.000 C 
ATOM     94  H4  UNL A   1      11.679   3.614  30.755  1.00  0.00    +0.000 H 
BRANCH    2    1
ATOM      1  C1  UNL A   1      12.298   4.917  32.182  1.00  0.00    +0.000 C 
ATOM     91  H1  UNL A   1      11.671   5.779  32.085  1.00  0.00    +0.000 H 
ATOM     92  H2  UNL A   1      13.244   5.208  32.591  1.00  0.00    +0.000 H 
ATOM     93  H3  UNL A   1      11.832   4.207  32.832  1.00  0.00    +0.000 H 
ENDBRANCH    2    1
BRANCH    2    3
ATOM      3  S1  UNL A   1      12.377   5.405  29.369  1.00  0.00    +0.000 S 
BRANCH    3    4
ATOM     97  H7  UNL A   1       7.343   0.986  25.598  1.00  0.00    +0.000 H 
ATOM     98  H8  UNL A   1       6.912   3.132  26.655  1.00  0.00    +0.000 H 
ATOM      4  C3  UNL A   1      11.051   4.696  28.483  1.00  0.00    +0.000 C 
ATOM      5  N1  UNL A   1      11.290   3.579  27.876  1.00  0.00    +0.000 N 
ATOM      6  C4  UNL A   1      10.219   2.926  27.250  1.00  0.00    +0.000 C 
ATOM      7  C5  UNL A   1      10.454   1.694  26.634  1.00  0.00    +0.000 C 
ATOM      8  C6  UNL A   1       9.407   0.987  26.034  1.00  0.00    +0.000 C 
ATOM      9  C7  UNL A   1       8.115   1.508  26.042  1.00  0.00    +0.000 C 
ATOM     10  C8  UNL A   1       7.865   2.739  26.649  1.00  0.00    +0.000 C 
ATOM     11  C9  UNL A   1       8.920   3.437  27.251  1.00  0.00    +0.000 C 
ATOM     12  C10 UNL A   1       8.684   4.721  27.932  1.00  0.00    +0.000 C 
ATOM     13  O1  UNL A   1       7.557   5.214  27.977  1.00  0.00    +0.000 O 
ATOM     14  N2  UNL A   1       9.802   5.304  28.531  1.00  0.00    +0.000 N 
ATOM     95  H5  UNL A   1      11.409   1.303  26.621  1.00  0.00    +0.000 H 
ATOM     96  H6  UNL A   1       9.592   0.076  25.586  1.00  0.00    +0.000 H 
BRANCH   14   15
ATOM     99  H9  UNL A   1       9.500   7.382  28.694  1.00  0.00    +0.000 H 
ATOM    100  H10 UNL A   1       9.531   6.569  30.192  1.00  0.00    +0.000 H 
ATOM     15  N3  UNL A   1       9.589   6.548  29.210  1.00  0.00    +0.000 N 
ENDBRANCH   14   15
ENDBRANCH    3    4
ENDBRANCH    2    3
ENDBRANCH   16    2
ENDBRANCH   18   16
ENDBRANCH   19   18
ENDBRANCH   20   19
ENDBRANCH   21   20
ENDBRANCH   22   21
ENDBRANCH   23   22
ENDBRANCH   24   23
ENDBRANCH   25   24
ENDBRANCH   26   25
ENDBRANCH   28   26
ENDBRANCH   32   31
BRANCH   36   37
ATOM     37  C27 UNL A   1      12.779   5.157  15.933  1.00  0.00    +0.000 C 
ATOM     38  C28 UNL A   1      14.133   5.522  15.950  1.00  0.00    +0.000 C 
ATOM     39  F1  UNL A   1      14.636   6.205  16.991  1.00  0.00    +0.000 F 
ATOM     40  C29 UNL A   1      14.970   5.225  14.878  1.00  0.00    +0.000 C 
ATOM     41  F2  UNL A   1      16.247   5.631  14.893  1.00  0.00    +0.000 F 
ATOM     42  C30 UNL A   1      14.478   4.527  13.785  1.00  0.00    +0.000 C 
ATOM     43  F3  UNL A   1      15.284   4.239  12.754  1.00  0.00    +0.000 F 
ATOM     44  C31 UNL A   1      13.148   4.134  13.757  1.00  0.00    +0.000 C 
ATOM     45  F4  UNL A   1      12.675   3.449  12.707  1.00  0.00    +0.000 F 
ATOM     46  C32 UNL A   1      12.303   4.456  14.816  1.00  0.00    +0.000 C 
ATOM     47  F5  UNL A   1      11.017   4.077  14.752  1.00  0.00    +0.000 F 
ENDBRANCH   36   37
BRANCH   53   54
ATOM     54  C38 UNL A   1       8.354  10.469  17.984  1.00  0.00    +0.000 C 
ATOM     55  C39 UNL A   1       9.049  11.667  18.204  1.00  0.00    +0.000 C 
ATOM     56  F6  UNL A   1      10.159  11.676  18.959  1.00  0.00    +0.000 F 
ATOM     57  C40 UNL A   1       8.585  12.869  17.678  1.00  0.00    +0.000 C 
ATOM     58  F7  UNL A   1       9.241  14.009  17.935  1.00  0.00    +0.000 F 
ATOM     59  C41 UNL A   1       7.437  12.891  16.898  1.00  0.00    +0.000 C 
ATOM     60  F8  UNL A   1       6.996  14.049  16.386  1.00  0.00    +0.000 F 
ATOM     61  C42 UNL A   1       6.744  11.716  16.655  1.00  0.00    +0.000 C 
ATOM     62  F9  UNL A   1       5.642  11.734  15.893  1.00  0.00    +0.000 F 
ATOM     63  C43 UNL A   1       7.191  10.517  17.202  1.00  0.00    +0.000 C 
ATOM     64  F10 UNL A   1       6.493   9.397  16.959  1.00  0.00    +0.000 F 
ENDBRANCH   53   54
BRANCH   68   69
ATOM     69  C47 UNL A   1       7.083   7.035  23.912  1.00  0.00    +0.000 C 
ATOM     70  C48 UNL A   1       7.589   7.828  24.950  1.00  0.00    +0.000 C 
ATOM     71  F11 UNL A   1       8.842   8.302  24.881  1.00  0.00    +0.000 F 
ATOM     72  C49 UNL A   1       6.823   8.110  26.079  1.00  0.00    +0.000 C 
ATOM     73  F12 UNL A   1       7.344   8.841  27.075  1.00  0.00    +0.000 F 
ATOM     74  C50 UNL A   1       5.527   7.625  26.180  1.00  0.00    +0.000 C 
ATOM     75  F13 UNL A   1       4.788   7.902  27.263  1.00  0.00    +0.000 F 
ATOM     76  C51 UNL A   1       5.001   6.848  25.158  1.00  0.00    +0.000 C 
ATOM     77  F14 UNL A   1       3.746   6.388  25.246  1.00  0.00    +0.000 F 
ATOM     78  C52 UNL A   1       5.775   6.545  24.040  1.00  0.00    +0.000 C 
ATOM     79  F15 UNL A   1       5.245   5.785  23.071  1.00  0.00    +0.000 F 
ENDBRANCH   68   69
TORSDOF 19
ENDMDL
MODEL 2
REMARK VINA RESULT:      -9.4     39.307     46.585
ROOT
ATOM     32  C23 UNL A   1      42.233  12.663  52.546  1.00  0.00    +0.000 C 
ATOM     33  C24 UNL A   1      42.468  11.796  53.750  1.00  0.00    +0.000 C 
ATOM     34  N6  UNL A   1      43.327  10.822  53.914  1.00  0.00    +0.000 N 
ATOM     35  C25 UNL A   1      43.163  10.391  55.224  1.00  0.00    +0.000 C 
ATOM     36  C26 UNL A   1      43.779   9.366  55.859  1.00  0.00    +0.000 C 
ATOM     48  C33 UNL A   1      44.757   8.504  55.248  1.00  0.00    +0.000 C 
ATOM     49  C34 UNL A   1      45.390   7.398  55.787  1.00  0.00    +0.000 C 
ATOM     50  C35 UNL A   1      46.289   6.901  54.836  1.00  0.00    +0.000 C 
ATOM     51  C36 UNL A   1      46.183   7.672  53.688  1.00  0.00    +0.000 C 
ATOM     52  N7  UNL A   1      45.243   8.653  53.957  1.00  0.00    +0.000 N 
ATOM     53  C37 UNL A   1      46.887   7.525  52.440  1.00  0.00    +0.000 C 
ATOM     65  C44 UNL A   1      46.720   8.318  51.354  1.00  0.00    +0.000 C 
ATOM     66  N8  UNL A   1      45.871   9.404  51.189  1.00  0.00    +0.000 N 
ATOM     67  C45 UNL A   1      46.079   9.843  49.973  1.00  0.00    +0.000 C 
ATOM     68  C46 UNL A   1      45.417  10.982  49.249  1.00  0.00    +0.000 C 
ATOM     80  C53 UNL A   1      44.444  11.679  49.867  1.00  0.00    +0.000 C 
ATOM     81  C54 UNL A   1      43.707  12.799  49.291  1.00  0.00    +0.000 C 
ATOM     82  C55 UNL A   1      42.846  13.274  50.205  1.00  0.00    +0.000 C 
ATOM     83  C56 UNL A   1      42.949  12.469  51.422  1.00  0.00    +0.000 C 
ATOM     84  N9  UNL A   1      43.917  11.542  51.128  1.00  0.00    +0.000 N 
ATOM     85  C57 UNL A   1      47.109   9.098  49.234  1.00  0.00    +0.000 C 
ATOM     86  C58 UNL A   1      47.439   8.158  50.108  1.00  0.00    +0.000 C 
ATOM     87  C59 UNL A   1      42.158  11.241  55.825  1.00  0.00    +0.000 C 
ATOM     88  C60 UNL A   1      41.649  12.082  54.937  1.00  0.00    +0.000 C 
ATOM    117  H27 UNL A   1      45.228   7.006  56.727  1.00  0.00    +0.000 H 
ATOM    118  H28 UNL A   1      46.924   6.098  54.966  1.00  0.00    +0.000 H 
ATOM    119  H29 UNL A   1      44.960   9.354  53.325  1.00  0.00    +0.000 H 
ATOM    120  H30 UNL A   1      43.828  13.166  48.334  1.00  0.00    +0.000 H 
ATOM    121  H31 UNL A   1      42.214  14.078  50.071  1.00  0.00    +0.000 H 
ATOM    122  H32 UNL A   1      44.206  10.844  51.760  1.00  0.00    +0.000 H 
ATOM    123  H33 UNL A   1      47.477   9.264  48.284  1.00  0.00    +0.000 H 
ATOM    124  H34 UNL A   1      48.123   7.407  49.923  1.00  0.00    +0.000 H 
ATOM    125  H35 UNL A   1      41.876  11.198  56.817  1.00  0.00    +0.000 H 
ATOM    126  H36 UNL A   1      40.879  12.760  55.050  1.00  0.00    +0.000 H 
ENDROOT
BRANCH   32   31
ATOM    115  H25 UNL A   1      38.053  14.552  51.959  1.00  0.00    +0.000 H 
ATOM    116  H26 UNL A   1      39.586  12.670  51.955  1.00  0.00    +0.000 H 
ATOM     89  C61 UNL A   1      41.689  15.044  53.054  1.00  0.00    +0.000 C 
ATOM     90  C62 UNL A   1      40.789  16.105  53.129  1.00  0.00    +0.000 C 
ATOM    127  H37 UNL A   1      42.675  15.187  53.325  1.00  0.00    +0.000 H 
ATOM     28  C19 UNL A   1      39.478  15.939  52.674  1.00  0.00    +0.000 C 
ATOM     29  C20 UNL A   1      39.034  14.683  52.255  1.00  0.00    +0.000 C 
ATOM     30  C21 UNL A   1      39.919  13.604  52.240  1.00  0.00    +0.000 C 
ATOM     31  C22 UNL A   1      41.262  13.783  52.612  1.00  0.00    +0.000 C 
ATOM    128  H38 UNL A   1      41.091  17.011  53.522  1.00  0.00    +0.000 H 
BRANCH   28   26
ATOM     26  C18 UNL A   1      38.535  17.078  52.638  1.00  0.00    +0.000 C 
ATOM     27  O3  UNL A   1      37.388  16.930  53.049  1.00  0.00    +0.000 O 
BRANCH   26   25
ATOM     25  N5  UNL A   1      38.938  18.285  52.127  1.00  0.00    +0.000 N 
ATOM    114  H24 UNL A   1      39.181  18.966  52.796  1.00  0.00    +0.000 H 
BRANCH   25   24
ATOM    113  H23 UNL A   1      38.973  19.766  50.709  1.00  0.00    +0.000 H 
ATOM    112  H22 UNL A   1      38.287  18.227  50.171  1.00  0.00    +0.000 H 
ATOM     24  C17 UNL A   1      39.059  18.700  50.740  1.00  0.00    +0.000 C 
BRANCH   24   23
ATOM    111  H21 UNL A   1      41.113  18.339  50.946  1.00  0.00    +0.000 H 
ATOM    110  H20 UNL A   1      40.639  19.029  49.366  1.00  0.00    +0.000 H 
ATOM     23  C16 UNL A   1      40.410  18.325  50.139  1.00  0.00    +0.000 C 
BRANCH   23   22
ATOM    108  H18 UNL A   1      40.077  16.232  50.251  1.00  0.00    +0.000 H 
ATOM    109  H19 UNL A   1      39.924  16.961  48.623  1.00  0.00    +0.000 H 
ATOM     22  C15 UNL A   1      40.479  16.918  49.536  1.00  0.00    +0.000 C 
BRANCH   22   21
ATOM    106  H16 UNL A   1      41.893  15.369  49.208  1.00  0.00    +0.000 H 
ATOM    107  H17 UNL A   1      42.074  16.820  48.176  1.00  0.00    +0.000 H 
ATOM     21  C14 UNL A   1      41.884  16.437  49.157  1.00  0.00    +0.000 C 
BRANCH   21   20
ATOM    105  H15 UNL A   1      43.390  16.128  50.599  1.00  0.00    +0.000 H 
ATOM     20  C13 UNL A   1      43.016  16.965  50.046  1.00  0.00    +0.000 C 
ATOM    104  H14 UNL A   1      42.619  17.732  50.677  1.00  0.00    +0.000 H 
BRANCH   20   19
ATOM     19  C12 UNL A   1      44.197  17.545  49.272  1.00  0.00    +0.000 C 
ATOM    102  H12 UNL A   1      44.341  18.564  49.564  1.00  0.00    +0.000 H 
ATOM    103  H13 UNL A   1      45.070  16.967  49.496  1.00  0.00    +0.000 H 
BRANCH   19   18
ATOM     18  N4  UNL A   1      43.955  17.488  47.843  1.00  0.00    +0.000 N 
ATOM    101  H11 UNL A   1      43.137  17.948  47.548  1.00  0.00    +0.000 H 
BRANCH   18   16
ATOM     17  O2  UNL A   1      45.340  15.909  47.136  1.00  0.00    +0.000 O 
ATOM     16  C11 UNL A   1      44.673  16.907  46.842  1.00  0.00    +0.000 C 
BRANCH   16    2
ATOM      2  C2  UNL A   1      44.667  17.444  45.407  1.00  0.00    +0.000 C 
ATOM     94  H4  UNL A   1      43.680  17.420  44.997  1.00  0.00    +0.000 H 
BRANCH    2    1
ATOM      1  C1  UNL A   1      44.989  18.933  45.332  1.00  0.00    +0.000 C 
ATOM     91  H1  UNL A   1      44.162  19.455  44.896  1.00  0.00    +0.000 H 
ATOM     92  H2  UNL A   1      45.862  19.080  44.730  1.00  0.00    +0.000 H 
ATOM     93  H3  UNL A   1      45.167  19.309  46.318  1.00  0.00    +0.000 H 
ENDBRANCH    2    1
BRANCH    2    3
ATOM      3  S1  UNL A   1      45.694  16.336  44.375  1.00  0.00    +0.000 S 
BRANCH    3    4
ATOM     97  H7  UNL A   1      40.196  11.498  42.040  1.00  0.00    +0.000 H 
ATOM     98  H8  UNL A   1      40.839  13.602  41.005  1.00  0.00    +0.000 H 
ATOM      4  C3  UNL A   1      44.482  15.399  43.540  1.00  0.00    +0.000 C 
ATOM      5  N1  UNL A   1      44.173  14.255  44.058  1.00  0.00    +0.000 N 
ATOM      6  C4  UNL A   1      43.126  13.528  43.475  1.00  0.00    +0.000 C 
ATOM      7  C5  UNL A   1      42.749  12.314  44.056  1.00  0.00    +0.000 C 
ATOM      8  C6  UNL A   1      41.681  11.576  43.536  1.00  0.00    +0.000 C 
ATOM      9  C7  UNL A   1      40.983  12.044  42.424  1.00  0.00    +0.000 C 
ATOM     10  C8  UNL A   1      41.350  13.252  41.831  1.00  0.00    +0.000 C 
ATOM     11  C9  UNL A   1      42.417  13.985  42.363  1.00  0.00    +0.000 C 
ATOM     12  C10 UNL A   1      42.807  15.281  41.782  1.00  0.00    +0.000 C 
ATOM     13  O1  UNL A   1      42.210  15.742  40.809  1.00  0.00    +0.000 O 
ATOM     14  N2  UNL A   1      43.857  15.941  42.422  1.00  0.00    +0.000 N 
ATOM     95  H5  UNL A   1      43.263  11.959  44.878  1.00  0.00    +0.000 H 
ATOM     96  H6  UNL A   1      41.410  10.683  43.976  1.00  0.00    +0.000 H 
BRANCH   14   15
ATOM     99  H9  UNL A   1      43.793  18.032  42.184  1.00  0.00    +0.000 H 
ATOM    100  H10 UNL A   1      44.955  17.261  41.202  1.00  0.00    +0.000 H 
ATOM     15  N3  UNL A   1      44.242  17.210  41.879  1.00  0.00    +0.000 N 
ENDBRANCH   14   15
ENDBRANCH    3    4
ENDBRANCH    2    3
ENDBRANCH   16    2
ENDBRANCH   18   16
ENDBRANCH   19   18
ENDBRANCH   20   19
ENDBRANCH   21   20
ENDBRANCH   22   21
ENDBRANCH   23   22
ENDBRANCH   24   23
ENDBRANCH   25   24
ENDBRANCH   26   25
ENDBRANCH   28   26
ENDBRANCH   32   31
BRANCH   36   37
ATOM     37  C27 UNL A   1      43.412   9.121  57.294  1.00  0.00    +0.000 C 
ATOM     38  C28 UNL A   1      44.084   9.763  58.344  1.00  0.00    +0.000 C 
ATOM     39  F1  UNL A   1      45.106  10.594  58.085  1.00  0.00    +0.000 F 
ATOM     40  C29 UNL A   1      43.739   9.521  59.671  1.00  0.00    +0.000 C 
ATOM     41  F2  UNL A   1      44.430  10.105  60.660  1.00  0.00    +0.000 F 
ATOM     42  C30 UNL A   1      42.693   8.663  59.971  1.00  0.00    +0.000 C 
ATOM     43  F3  UNL A   1      42.358   8.432  61.249  1.00  0.00    +0.000 F 
ATOM     44  C31 UNL A   1      41.997   8.035  58.949  1.00  0.00    +0.000 C 
ATOM     45  F4  UNL A   1      40.978   7.215  59.237  1.00  0.00    +0.000 F 
ATOM     46  C32 UNL A   1      42.360   8.253  57.622  1.00  0.00    +0.000 C 
ATOM     47  F5  UNL A   1      41.680   7.618  56.655  1.00  0.00    +0.000 F 
ENDBRANCH   36   37
BRANCH   53   54
ATOM     54  C38 UNL A   1      47.865   6.394  52.320  1.00  0.00    +0.000 C 
ATOM     55  C39 UNL A   1      49.242   6.592  52.492  1.00  0.00    +0.000 C 
ATOM     56  F6  UNL A   1      49.724   7.825  52.717  1.00  0.00    +0.000 F 
ATOM     57  C40 UNL A   1      50.135   5.528  52.398  1.00  0.00    +0.000 C 
ATOM     58  F7  UNL A   1      51.451   5.747  52.523  1.00  0.00    +0.000 F 
ATOM     59  C41 UNL A   1      49.666   4.245  52.161  1.00  0.00    +0.000 C 
ATOM     60  F8  UNL A   1      50.527   3.220  52.077  1.00  0.00    +0.000 F 
ATOM     61  C42 UNL A   1      48.307   4.023  52.004  1.00  0.00    +0.000 C 
ATOM     62  F9  UNL A   1      47.851   2.782  51.786  1.00  0.00    +0.000 F 
ATOM     63  C43 UNL A   1      47.414   5.089  52.071  1.00  0.00    +0.000 C 
ATOM     64  F10 UNL A   1      46.105   4.846  51.905  1.00  0.00    +0.000 F 
ENDBRANCH   53   54
BRANCH   68   69
ATOM     69  C47 UNL A   1      45.796  11.327  47.856  1.00  0.00    +0.000 C 
ATOM     70  C48 UNL A   1      46.572  12.461  47.584  1.00  0.00    +0.000 C 
ATOM     71  F11 UNL A   1      46.954  13.267  48.587  1.00  0.00    +0.000 F 
ATOM     72  C49 UNL A   1      46.932  12.792  46.280  1.00  0.00    +0.000 C 
ATOM     73  F12 UNL A   1      47.644  13.903  46.044  1.00  0.00    +0.000 F 
ATOM     74  C50 UNL A   1      46.543  11.981  45.224  1.00  0.00    +0.000 C 
ATOM     75  F13 UNL A   1      46.894  12.295  43.970  1.00  0.00    +0.000 F 
ATOM     76  C51 UNL A   1      45.785  10.845  45.471  1.00  0.00    +0.000 C 
ATOM     77  F14 UNL A   1      45.418  10.053  44.455  1.00  0.00    +0.000 F 
ATOM     78  C52 UNL A   1      45.404  10.528  46.772  1.00  0.00    +0.000 C 
ATOM     79  F15 UNL A   1      44.665   9.429  46.981  1.00  0.00    +0.000 F 
ENDBRANCH   68   69
TORSDOF 19
ENDMDL
MODEL 3
REMARK VINA RESULT:      -8.9     22.289     28.962
ROOT
ATOM     32  C23 UNL A   1      25.521 -12.247  30.363  1.00  0.00    +0.000 C 
ATOM     33  C24 UNL A   1      24.606 -11.826  31.477  1.00  0.00    +0.000 C 
ATOM     34  N6  UNL A   1      24.695 -12.074  32.760  1.00  0.00    +0.000 N 
ATOM     35  C25 UNL A   1      23.624 -11.413  33.346  1.00  0.00    +0.000 C 
ATOM     36  C26 UNL A   1      23.244 -11.408  34.646  1.00  0.00    +0.000 C 
ATOM     48  C33 UNL A   1      23.922 -12.129  35.691  1.00  0.00    +0.000 C 
ATOM     49  C34 UNL A   1      23.577 -12.240  37.027  1.00  0.00    +0.000 C 
ATOM     50  C35 UNL A   1      24.555 -13.009  37.669  1.00  0.00    +0.000 C 
ATOM     51  C36 UNL A   1      25.485 -13.413  36.723  1.00  0.00    +0.000 C 
ATOM     52  N7  UNL A   1      25.086 -12.862  35.516  1.00  0.00    +0.000 N 
ATOM     53  C37 UNL A   1      26.650 -14.239  36.907  1.00  0.00    +0.000 C 
ATOM     65  C44 UNL A   1      27.512 -14.600  35.925  1.00  0.00    +0.000 C 
ATOM     66  N8  UNL A   1      27.477 -14.281  34.574  1.00  0.00    +0.000 N 
ATOM     67  C45 UNL A   1      28.526 -14.856  34.041  1.00  0.00    +0.000 C 
ATOM     68  C46 UNL A   1      28.974 -14.868  32.606  1.00  0.00    +0.000 C 
ATOM     80  C53 UNL A   1      28.228 -14.243  31.677  1.00  0.00    +0.000 C 
ATOM     81  C54 UNL A   1      28.528 -14.178  30.250  1.00  0.00    +0.000 C 
ATOM     82  C55 UNL A   1      27.590 -13.439  29.637  1.00  0.00    +0.000 C 
ATOM     83  C56 UNL A   1      26.602 -13.006  30.625  1.00  0.00    +0.000 C 
ATOM     84  N9  UNL A   1      27.057 -13.535  31.806  1.00  0.00    +0.000 N 
ATOM     85  C57 UNL A   1      29.365 -15.585  35.003  1.00  0.00    +0.000 C 
ATOM     86  C58 UNL A   1      28.682 -15.428  36.128  1.00  0.00    +0.000 C 
ATOM     87  C59 UNL A   1      22.928 -10.714  32.288  1.00  0.00    +0.000 C 
ATOM     88  C60 UNL A   1      23.455 -10.991  31.104  1.00  0.00    +0.000 C 
ATOM    117  H27 UNL A   1      22.743 -11.828  37.473  1.00  0.00    +0.000 H 
ATOM    118  H28 UNL A   1      24.580 -13.236  38.675  1.00  0.00    +0.000 H 
ATOM    119  H29 UNL A   1      25.559 -12.975  34.660  1.00  0.00    +0.000 H 
ATOM    120  H30 UNL A   1      29.334 -14.628  29.787  1.00  0.00    +0.000 H 
ATOM    121  H31 UNL A   1      27.569 -13.213  28.631  1.00  0.00    +0.000 H 
ATOM    122  H32 UNL A   1      26.590 -13.420  32.666  1.00  0.00    +0.000 H 
ATOM    123  H33 UNL A   1      30.252 -16.088  34.844  1.00  0.00    +0.000 H 
ATOM    124  H34 UNL A   1      28.950 -15.844  37.034  1.00  0.00    +0.000 H 
ATOM    125  H35 UNL A   1      22.125 -10.082  32.435  1.00  0.00    +0.000 H 
ATOM    126  H36 UNL A   1      23.140 -10.697  30.166  1.00  0.00    +0.000 H 
ENDROOT
BRANCH   32   31
ATOM    115  H25 UNL A   1      23.820 -12.662  26.083  1.00  0.00    +0.000 H 
ATOM    116  H26 UNL A   1      24.094 -13.415  28.375  1.00  0.00    +0.000 H 
ATOM     89  C61 UNL A   1      25.811 -10.537  28.569  1.00  0.00    +0.000 C 
ATOM     90  C62 UNL A   1      25.588 -10.070  27.276  1.00  0.00    +0.000 C 
ATOM    127  H37 UNL A   1      26.371  -9.974  29.228  1.00  0.00    +0.000 H 
ATOM     28  C19 UNL A   1      24.912 -10.873  26.353  1.00  0.00    +0.000 C 
ATOM     29  C20 UNL A   1      24.356 -12.089  26.755  1.00  0.00    +0.000 C 
ATOM     30  C21 UNL A   1      24.525 -12.529  28.070  1.00  0.00    +0.000 C 
ATOM     31  C22 UNL A   1      25.279 -11.769  28.979  1.00  0.00    +0.000 C 
ATOM    128  H38 UNL A   1      25.921  -9.132  27.001  1.00  0.00    +0.000 H 
BRANCH   28   26
ATOM     26  C18 UNL A   1      24.759 -10.450  24.944  1.00  0.00    +0.000 C 
ATOM     27  O3  UNL A   1      23.659 -10.523  24.403  1.00  0.00    +0.000 O 
BRANCH   26   25
ATOM     25  N5  UNL A   1      25.847  -9.998  24.243  1.00  0.00    +0.000 N 
ATOM    114  H24 UNL A   1      25.758  -9.095  23.860  1.00  0.00    +0.000 H 
BRANCH   25   24
ATOM    113  H23 UNL A   1      27.731 -10.535  24.852  1.00  0.00    +0.000 H 
ATOM    112  H22 UNL A   1      27.561 -10.228  23.119  1.00  0.00    +0.000 H 
ATOM     24  C17 UNL A   1      27.114 -10.663  23.987  1.00  0.00    +0.000 C 
BRANCH   24   23
ATOM    111  H21 UNL A   1      27.560 -12.405  22.912  1.00  0.00    +0.000 H 
ATOM    110  H20 UNL A   1      25.906 -12.357  23.590  1.00  0.00    +0.000 H 
ATOM     23  C16 UNL A   1      26.945 -12.161  23.753  1.00  0.00    +0.000 C 
BRANCH   23   22
ATOM    108  H18 UNL A   1      26.586 -13.238  25.545  1.00  0.00    +0.000 H 
ATOM    109  H19 UNL A   1      27.820 -13.933  24.451  1.00  0.00    +0.000 H 
ATOM     22  C15 UNL A   1      27.422 -13.051  24.905  1.00  0.00    +0.000 C 
BRANCH   22   21
ATOM    106  H16 UNL A   1      28.415 -11.406  25.809  1.00  0.00    +0.000 H 
ATOM    107  H17 UNL A   1      28.486 -12.950  26.711  1.00  0.00    +0.000 H 
ATOM     21  C14 UNL A   1      28.552 -12.466  25.759  1.00  0.00    +0.000 C 
BRANCH   21   20
ATOM    105  H15 UNL A   1      29.864 -13.237  24.301  1.00  0.00    +0.000 H 
ATOM     20  C13 UNL A   1      29.969 -12.737  25.241  1.00  0.00    +0.000 C 
ATOM    104  H14 UNL A   1      30.485 -13.328  25.968  1.00  0.00    +0.000 H 
BRANCH   20   19
ATOM     19  C12 UNL A   1      30.789 -11.476  24.980  1.00  0.00    +0.000 C 
ATOM    102  H12 UNL A   1      31.602 -11.715  24.327  1.00  0.00    +0.000 H 
ATOM    103  H13 UNL A   1      30.154 -10.742  24.529  1.00  0.00    +0.000 H 
BRANCH   19   18
ATOM     18  N4  UNL A   1      31.315 -10.937  26.220  1.00  0.00    +0.000 N 
ATOM    101  H11 UNL A   1      31.110  -9.986  26.372  1.00  0.00    +0.000 H 
BRANCH   18   16
ATOM     17  O2  UNL A   1      33.087 -12.095  26.874  1.00  0.00    +0.000 O 
ATOM     16  C11 UNL A   1      32.042 -11.527  27.209  1.00  0.00    +0.000 C 
BRANCH   16    2
ATOM      2  C2  UNL A   1      31.607 -11.497  28.678  1.00  0.00    +0.000 C 
ATOM     94  H4  UNL A   1      30.571 -11.745  28.773  1.00  0.00    +0.000 H 
BRANCH    2    1
ATOM      1  C1  UNL A   1      32.259 -12.598  29.509  1.00  0.00    +0.000 C 
ATOM     91  H1  UNL A   1      32.737 -13.300  28.857  1.00  0.00    +0.000 H 
ATOM     92  H2  UNL A   1      31.510 -13.101  30.086  1.00  0.00    +0.000 H 
ATOM     93  H3  UNL A   1      32.985 -12.167  30.165  1.00  0.00    +0.000 H 
ENDBRANCH    2    1
BRANCH    2    3
ATOM      3  S1  UNL A   1      31.799  -9.787  29.299  1.00  0.00    +0.000 S 
BRANCH    3    4
ATOM     97  H7  UNL A   1      25.212  -8.539  33.060  1.00  0.00    +0.000 H 
ATOM     98  H8  UNL A   1      25.854  -7.656  30.887  1.00  0.00    +0.000 H 
ATOM      4  C3  UNL A   1      30.181  -9.418  29.839  1.00  0.00    +0.000 C 
ATOM      5  N1  UNL A   1      29.816  -9.927  30.970  1.00  0.00    +0.000 N 
ATOM      6  C4  UNL A   1      28.565  -9.560  31.487  1.00  0.00    +0.000 C 
ATOM      7  C5  UNL A   1      28.181 -10.064  32.732  1.00  0.00    +0.000 C 
ATOM      8  C6  UNL A   1      26.962  -9.692  33.306  1.00  0.00    +0.000 C 
ATOM      9  C7  UNL A   1      26.112  -8.812  32.636  1.00  0.00    +0.000 C 
ATOM     10  C8  UNL A   1      26.480  -8.304  31.390  1.00  0.00    +0.000 C 
ATOM     11  C9  UNL A   1      27.706  -8.681  30.827  1.00  0.00    +0.000 C 
ATOM     12  C10 UNL A   1      28.140  -8.134  29.530  1.00  0.00    +0.000 C 
ATOM     13  O1  UNL A   1      27.430  -7.343  28.909  1.00  0.00    +0.000 O 
ATOM     14  N2  UNL A   1      29.398  -8.548  29.089  1.00  0.00    +0.000 N 
ATOM     95  H5  UNL A   1      28.803 -10.718  33.233  1.00  0.00    +0.000 H 
ATOM     96  H6  UNL A   1      26.690 -10.067  34.228  1.00  0.00    +0.000 H 
BRANCH   14   15
ATOM     99  H9  UNL A   1      29.186  -7.721  27.164  1.00  0.00    +0.000 H 
ATOM    100  H10 UNL A   1      30.806  -7.945  27.644  1.00  0.00    +0.000 H 
ATOM     15  N3  UNL A   1      29.843  -8.017  27.835  1.00  0.00    +0.000 N 
ENDBRANCH   14   15
ENDBRANCH    3    4
ENDBRANCH    2    3
ENDBRANCH   16    2
ENDBRANCH   18   16
ENDBRANCH   19   18
ENDBRANCH   20   19
ENDBRANCH   21   20
ENDBRANCH   22   21
ENDBRANCH   23   22
ENDBRANCH   24   23
ENDBRANCH   25   24
ENDBRANCH   26   25
ENDBRANCH   28   26
ENDBRANCH   32   31
BRANCH   36   37
ATOM     37  C27 UNL A   1      22.035 -10.594  35.010  1.00  0.00    +0.000 C 
ATOM     38  C28 UNL A   1      20.756 -11.167  35.072  1.00  0.00    +0.000 C 
ATOM     39  F1  UNL A   1      20.580 -12.462  34.769  1.00  0.00    +0.000 F 
ATOM     40  C29 UNL A   1      19.642 -10.399  35.403  1.00  0.00    +0.000 C 
ATOM     41  F2  UNL A   1      18.423 -10.955  35.404  1.00  0.00    +0.000 F 
ATOM     42  C30 UNL A   1      19.791  -9.056  35.714  1.00  0.00    +0.000 C 
ATOM     43  F3  UNL A   1      18.719  -8.319  36.036  1.00  0.00    +0.000 F 
ATOM     44  C31 UNL A   1      21.050  -8.474  35.684  1.00  0.00    +0.000 C 
ATOM     45  F4  UNL A   1      21.196  -7.180  35.996  1.00  0.00    +0.000 F 
ATOM     46  C32 UNL A   1      22.161  -9.233  35.324  1.00  0.00    +0.000 C 
ATOM     47  F5  UNL A   1      23.363  -8.638  35.286  1.00  0.00    +0.000 F 
ENDBRANCH   36   37
BRANCH   53   54
ATOM     54  C38 UNL A   1      26.925 -14.761  38.286  1.00  0.00    +0.000 C 
ATOM     55  C39 UNL A   1      27.773 -14.084  39.173  1.00  0.00    +0.000 C 
ATOM     56  F6  UNL A   1      28.408 -12.968  38.782  1.00  0.00    +0.000 F 
ATOM     57  C40 UNL A   1      28.001 -14.571  40.457  1.00  0.00    +0.000 C 
ATOM     58  F7  UNL A   1      28.849 -13.931  41.274  1.00  0.00    +0.000 F 
ATOM     59  C41 UNL A   1      27.363 -15.725  40.887  1.00  0.00    +0.000 C 
ATOM     60  F8  UNL A   1      27.579 -16.189  42.127  1.00  0.00    +0.000 F 
ATOM     61  C42 UNL A   1      26.507 -16.402  40.033  1.00  0.00    +0.000 C 
ATOM     62  F9  UNL A   1      25.882 -17.511  40.450  1.00  0.00    +0.000 F 
ATOM     63  C43 UNL A   1      26.298 -15.932  38.739  1.00  0.00    +0.000 C 
ATOM     64  F10 UNL A   1      25.473 -16.614  37.930  1.00  0.00    +0.000 F 
ENDBRANCH   53   54
BRANCH   68   69
ATOM     69  C47 UNL A   1      30.208 -15.586  32.196  1.00  0.00    +0.000 C 
ATOM     70  C48 UNL A   1      30.145 -16.900  31.713  1.00  0.00    +0.000 C 
ATOM     71  F11 UNL A   1      28.964 -17.532  31.645  1.00  0.00    +0.000 F 
ATOM     72  C49 UNL A   1      31.297 -17.580  31.328  1.00  0.00    +0.000 C 
ATOM     73  F12 UNL A   1      31.214 -18.850  30.903  1.00  0.00    +0.000 F 
ATOM     74  C50 UNL A   1      32.532 -16.953  31.395  1.00  0.00    +0.000 C 
ATOM     75  F13 UNL A   1      33.640 -17.606  31.019  1.00  0.00    +0.000 F 
ATOM     76  C51 UNL A   1      32.617 -15.648  31.860  1.00  0.00    +0.000 C 
ATOM     77  F14 UNL A   1      33.806 -15.034  31.915  1.00  0.00    +0.000 F 
ATOM     78  C52 UNL A   1      31.468 -14.975  32.268  1.00  0.00    +0.000 C 
ATOM     79  F15 UNL A   1      31.580 -13.717  32.720  1.00  0.00    +0.000 F 
ENDBRANCH   68   69
TORSDOF 19
ENDMDL
MODEL 4
REMARK VINA RESULT:      -8.8     23.959     31.454
ROOT
ATOM     32  C23 UNL A   1      21.807  24.182   1.652  1.00  0.00    +0.000 C 
ATOM     33  C24 UNL A   1      20.431  23.689   1.308  1.00  0.00    +0.000 C 
ATOM     34  N6  UNL A   1      19.893  22.516   1.528  1.00  0.00    +0.000 N 
ATOM     35  C25 UNL A   1      18.589  22.605   1.058  1.00  0.00    +0.000 C 
ATOM     36  C26 UNL A   1      17.642  21.638   1.006  1.00  0.00    +0.000 C 
ATOM     48  C33 UNL A   1      17.842  20.283   1.449  1.00  0.00    +0.000 C 
ATOM     49  C34 UNL A   1      16.966  19.214   1.378  1.00  0.00    +0.000 C 
ATOM     50  C35 UNL A   1      17.582  18.104   1.970  1.00  0.00    +0.000 C 
ATOM     51  C36 UNL A   1      18.857  18.472   2.370  1.00  0.00    +0.000 C 
ATOM     52  N7  UNL A   1      19.001  19.812   2.048  1.00  0.00    +0.000 N 
ATOM     53  C37 UNL A   1      19.869  17.663   2.999  1.00  0.00    +0.000 C 
ATOM     65  C44 UNL A   1      21.103  18.096   3.354  1.00  0.00    +0.000 C 
ATOM     66  N8  UNL A   1      21.663  19.357   3.200  1.00  0.00    +0.000 N 
ATOM     67  C45 UNL A   1      22.869  19.280   3.703  1.00  0.00    +0.000 C 
ATOM     68  C46 UNL A   1      23.933  20.339   3.782  1.00  0.00    +0.000 C 
ATOM     80  C53 UNL A   1      23.693  21.556   3.258  1.00  0.00    +0.000 C 
ATOM     81  C54 UNL A   1      24.629  22.676   3.251  1.00  0.00    +0.000 C 
ATOM     82  C55 UNL A   1      24.036  23.738   2.684  1.00  0.00    +0.000 C 
ATOM     83  C56 UNL A   1      22.688  23.363   2.257  1.00  0.00    +0.000 C 
ATOM     84  N9  UNL A   1      22.574  22.048   2.632  1.00  0.00    +0.000 N 
ATOM     85  C57 UNL A   1      23.204  17.962   4.262  1.00  0.00    +0.000 C 
ATOM     86  C58 UNL A   1      22.107  17.269   3.990  1.00  0.00    +0.000 C 
ATOM     87  C59 UNL A   1      18.401  23.960   0.586  1.00  0.00    +0.000 C 
ATOM     88  C60 UNL A   1      19.530  24.651   0.657  1.00  0.00    +0.000 C 
ATOM    117  H27 UNL A   1      16.023  19.230   0.960  1.00  0.00    +0.000 H 
ATOM    118  H28 UNL A   1      17.158  17.171   2.089  1.00  0.00    +0.000 H 
ATOM    119  H29 UNL A   1      19.807  20.351   2.219  1.00  0.00    +0.000 H 
ATOM    120  H30 UNL A   1      25.591  22.654   3.622  1.00  0.00    +0.000 H 
ATOM    121  H31 UNL A   1      24.462  24.671   2.568  1.00  0.00    +0.000 H 
ATOM    122  H32 UNL A   1      21.767  21.508   2.469  1.00  0.00    +0.000 H 
ATOM    123  H33 UNL A   1      24.066  17.657   4.740  1.00  0.00    +0.000 H 
ATOM    124  H34 UNL A   1      21.985  16.266   4.204  1.00  0.00    +0.000 H 
ATOM    125  H35 UNL A   1      17.506  24.339   0.241  1.00  0.00    +0.000 H 
ATOM    126  H36 UNL A   1      19.725  25.613   0.337  1.00  0.00    +0.000 H 
ENDROOT
BRANCH   32   31
ATOM    115  H25 UNL A   1      21.889  28.692   2.670  1.00  0.00    +0.000 H 
ATOM    116  H26 UNL A   1      21.373  26.377   3.185  1.00  0.00    +0.000 H 
ATOM     89  C61 UNL A   1      22.877  25.921   0.219  1.00  0.00    +0.000 C 
ATOM     90  C62 UNL A   1      23.241  27.241  -0.038  1.00  0.00    +0.000 C 
ATOM    127  H37 UNL A   1      23.121  25.181  -0.457  1.00  0.00    +0.000 H 
ATOM     28  C19 UNL A   1      22.829  28.258   0.827  1.00  0.00    +0.000 C 
ATOM     29  C20 UNL A   1      22.157  27.943   2.011  1.00  0.00    +0.000 C 
ATOM     30  C21 UNL A   1      21.847  26.613   2.300  1.00  0.00    +0.000 C 
ATOM     31  C22 UNL A   1      22.179  25.595   1.392  1.00  0.00    +0.000 C 
ATOM    128  H38 UNL A   1      23.815  27.466  -0.866  1.00  0.00    +0.000 H 
BRANCH   28   26
ATOM     26  C18 UNL A   1      23.105  29.678   0.520  1.00  0.00    +0.000 C 
ATOM     27  O3  UNL A   1      24.229  30.014   0.156  1.00  0.00    +0.000 O 
BRANCH   26   25
ATOM     25  N5  UNL A   1      22.114  30.615   0.661  1.00  0.00    +0.000 N 
ATOM    114  H24 UNL A   1      22.323  31.362   1.269  1.00  0.00    +0.000 H 
BRANCH   25   24
ATOM    113  H23 UNL A   1      20.119  31.081   0.751  1.00  0.00    +0.000 H 
ATOM    112  H22 UNL A   1      20.516  29.669  -0.237  1.00  0.00    +0.000 H 
ATOM     24  C17 UNL A   1      20.800  30.662   0.041  1.00  0.00    +0.000 C 
BRANCH   24   23
ATOM    111  H21 UNL A   1      21.737  32.019  -1.251  1.00  0.00    +0.000 H 
ATOM    110  H20 UNL A   1      19.968  32.235  -1.107  1.00  0.00    +0.000 H 
ATOM     23  C16 UNL A   1      20.779  31.544  -1.203  1.00  0.00    +0.000 C 
BRANCH   23   22
ATOM    108  H18 UNL A   1      19.571  30.813  -2.787  1.00  0.00    +0.000 H 
ATOM    109  H19 UNL A   1      21.239  31.285  -3.232  1.00  0.00    +0.000 H 
ATOM     22  C15 UNL A   1      20.608  30.790  -2.525  1.00  0.00    +0.000 C 
BRANCH   22   21
ATOM    106  H16 UNL A   1      21.786  29.213  -1.731  1.00  0.00    +0.000 H 
ATOM    107  H17 UNL A   1      20.173  28.744  -2.348  1.00  0.00    +0.000 H 
ATOM     21  C14 UNL A   1      21.058  29.325  -2.506  1.00  0.00    +0.000 C 
BRANCH   21   20
ATOM    105  H15 UNL A   1      21.485  29.561  -4.557  1.00  0.00    +0.000 H 
ATOM     20  C13 UNL A   1      21.674  28.814  -3.813  1.00  0.00    +0.000 C 
ATOM    104  H14 UNL A   1      21.225  27.872  -4.051  1.00  0.00    +0.000 H 
BRANCH   20   19
ATOM     19  C12 UNL A   1      23.187  28.623  -3.756  1.00  0.00    +0.000 C 
ATOM    102  H12 UNL A   1      23.607  28.853  -4.713  1.00  0.00    +0.000 H 
ATOM    103  H13 UNL A   1      23.587  29.276  -3.008  1.00  0.00    +0.000 H 
BRANCH   19   18
ATOM     18  N4  UNL A   1      23.521  27.255  -3.406  1.00  0.00    +0.000 N 
ATOM    101  H11 UNL A   1      23.866  27.139  -2.492  1.00  0.00    +0.000 H 
BRANCH   18   16
ATOM     17  O2  UNL A   1      23.920  26.120  -5.267  1.00  0.00    +0.000 O 
ATOM     16  C11 UNL A   1      23.434  26.105  -4.131  1.00  0.00    +0.000 C 
BRANCH   16    2
ATOM      2  C2  UNL A   1      22.774  24.835  -3.583  1.00  0.00    +0.000 C 
ATOM     94  H4  UNL A   1      23.348  24.426  -2.779  1.00  0.00    +0.000 H 
BRANCH    2    1
ATOM      1  C1  UNL A   1      21.442  25.113  -2.893  1.00  0.00    +0.000 C 
ATOM     91  H1  UNL A   1      21.483  26.067  -2.411  1.00  0.00    +0.000 H 
ATOM     92  H2  UNL A   1      21.253  24.352  -2.164  1.00  0.00    +0.000 H 
ATOM     93  H3  UNL A   1      20.658  25.113  -3.621  1.00  0.00    +0.000 H 
ENDBRANCH    2    1
BRANCH    2    3
ATOM      3  S1  UNL A   1      22.757  23.579  -4.912  1.00  0.00    +0.000 S 
BRANCH    3    4
ATOM     97  H7  UNL A   1      28.260  19.220  -1.779  1.00  0.00    +0.000 H 
ATOM     98  H8  UNL A   1      25.883  18.726  -1.898  1.00  0.00    +0.000 H 
ATOM      4  C3  UNL A   1      23.777  22.332  -4.240  1.00  0.00    +0.000 C 
ATOM      5  N1  UNL A   1      25.048  22.568  -4.221  1.00  0.00    +0.000 N 
ATOM      6  C4  UNL A   1      25.884  21.637  -3.588  1.00  0.00    +0.000 C 
ATOM      7  C5  UNL A   1      27.253  21.906  -3.518  1.00  0.00    +0.000 C 
ATOM      8  C6  UNL A   1      28.119  21.028  -2.858  1.00  0.00    +0.000 C 
ATOM      9  C7  UNL A   1      27.621  19.869  -2.265  1.00  0.00    +0.000 C 
ATOM     10  C8  UNL A   1      26.257  19.585  -2.331  1.00  0.00    +0.000 C 
ATOM     11  C9  UNL A   1      25.399  20.473  -2.990  1.00  0.00    +0.000 C 
ATOM     12  C10 UNL A   1      23.948  20.221  -3.046  1.00  0.00    +0.000 C 
ATOM     13  O1  UNL A   1      23.462  19.218  -2.524  1.00  0.00    +0.000 O 
ATOM     14  N2  UNL A   1      23.189  21.197  -3.693  1.00  0.00    +0.000 N 
ATOM     95  H5  UNL A   1      27.630  22.761  -3.957  1.00  0.00    +0.000 H 
ATOM     96  H6  UNL A   1      29.127  21.239  -2.809  1.00  0.00    +0.000 H 
BRANCH   14   15
ATOM     99  H9  UNL A   1      21.384  20.461  -4.490  1.00  0.00    +0.000 H 
ATOM    100  H10 UNL A   1      21.191  21.336  -3.039  1.00  0.00    +0.000 H 
ATOM     15  N3  UNL A   1      21.774  20.975  -3.746  1.00  0.00    +0.000 N 
ENDBRANCH   14   15
ENDBRANCH    3    4
ENDBRANCH    2    3
ENDBRANCH   16    2
ENDBRANCH   18   16
ENDBRANCH   19   18
ENDBRANCH   20   19
ENDBRANCH   21   20
ENDBRANCH   22   21
ENDBRANCH   23   22
ENDBRANCH   24   23
ENDBRANCH   25   24
ENDBRANCH   26   25
ENDBRANCH   28   26
ENDBRANCH   32   31
BRANCH   36   37
ATOM     37  C27 UNL A   1      16.300  22.014   0.448  1.00  0.00    +0.000 C 
ATOM     38  C28 UNL A   1      15.989  21.825  -0.907  1.00  0.00    +0.000 C 
ATOM     39  F1  UNL A   1      16.910  21.330  -1.749  1.00  0.00    +0.000 F 
ATOM     40  C29 UNL A   1      14.743  22.185  -1.414  1.00  0.00    +0.000 C 
ATOM     41  F2  UNL A   1      14.487  22.045  -2.722  1.00  0.00    +0.000 F 
ATOM     42  C30 UNL A   1      13.774  22.706  -0.571  1.00  0.00    +0.000 C 
ATOM     43  F3  UNL A   1      12.574  23.050  -1.059  1.00  0.00    +0.000 F 
ATOM     44  C31 UNL A   1      14.050  22.879   0.777  1.00  0.00    +0.000 C 
ATOM     45  F4  UNL A   1      13.110  23.371   1.596  1.00  0.00    +0.000 F 
ATOM     46  C32 UNL A   1      15.305  22.547   1.281  1.00  0.00    +0.000 C 
ATOM     47  F5  UNL A   1      15.549  22.742   2.586  1.00  0.00    +0.000 F 
ENDBRANCH   36   37
BRANCH   53   54
ATOM     54  C38 UNL A   1      19.544  16.222   3.264  1.00  0.00    +0.000 C 
ATOM     55  C39 UNL A   1      19.807  15.224   2.316  1.00  0.00    +0.000 C 
ATOM     56  F6  UNL A   1      20.311  15.548   1.115  1.00  0.00    +0.000 F 
ATOM     57  C40 UNL A   1      19.519  13.889   2.585  1.00  0.00    +0.000 C 
ATOM     58  F7  UNL A   1      19.739  12.956   1.648  1.00  0.00    +0.000 F 
ATOM     59  C41 UNL A   1      18.992  13.524   3.815  1.00  0.00    +0.000 C 
ATOM     60  F8  UNL A   1      18.722  12.237   4.075  1.00  0.00    +0.000 F 
ATOM     61  C42 UNL A   1      18.740  14.493   4.774  1.00  0.00    +0.000 C 
ATOM     62  F9  UNL A   1      18.242  14.142   5.967  1.00  0.00    +0.000 F 
ATOM     63  C43 UNL A   1      19.002  15.832   4.497  1.00  0.00    +0.000 C 
ATOM     64  F10 UNL A   1      18.738  16.749   5.440  1.00  0.00    +0.000 F 
ENDBRANCH   53   54
BRANCH   68   69
ATOM     69  C47 UNL A   1      25.253  20.052   4.399  1.00  0.00    +0.000 C 
ATOM     70  C48 UNL A   1      25.403  20.028   5.792  1.00  0.00    +0.000 C 
ATOM     71  F11 UNL A   1      24.353  20.296   6.583  1.00  0.00    +0.000 F 
ATOM     72  C49 UNL A   1      26.638  19.760   6.378  1.00  0.00    +0.000 C 
ATOM     73  F12 UNL A   1      26.763  19.779   7.713  1.00  0.00    +0.000 F 
ATOM     74  C50 UNL A   1      27.741  19.488   5.583  1.00  0.00    +0.000 C 
ATOM     75  F13 UNL A   1      28.928  19.224   6.147  1.00  0.00    +0.000 F 
ATOM     76  C51 UNL A   1      27.613  19.494   4.202  1.00  0.00    +0.000 C 
ATOM     77  F14 UNL A   1      28.674  19.220   3.431  1.00  0.00    +0.000 F 
ATOM     78  C52 UNL A   1      26.385  19.786   3.615  1.00  0.00    +0.000 C 
ATOM     79  F15 UNL A   1      26.291  19.793   2.277  1.00  0.00    +0.000 F 
ENDBRANCH   68   69
TORSDOF 19
ENDMDL
MODEL 5
REMARK VINA RESULT:      -8.8     22.046     28.122
ROOT
ATOM     32  C23 UNL A   1      29.306 -14.332  30.869  1.00  0.00    +0.000 C 
ATOM     33  C24 UNL A   1      29.036 -14.414  32.344  1.00  0.00    +0.000 C 
ATOM     34  N6  UNL A   1      28.011 -13.967  33.025  1.00  0.00    +0.000 N 
ATOM     35  C25 UNL A   1      28.237 -14.349  34.341  1.00  0.00    +0.000 C 
ATOM     36  C26 UNL A   1      27.494 -14.075  35.439  1.00  0.00    +0.000 C 
ATOM     48  C33 UNL A   1      26.283 -13.297  35.425  1.00  0.00    +0.000 C 
ATOM     49  C34 UNL A   1      25.494 -12.908  36.493  1.00  0.00    +0.000 C 
ATOM     50  C35 UNL A   1      24.397 -12.198  35.992  1.00  0.00    +0.000 C 
ATOM     51  C36 UNL A   1      24.527 -12.105  34.615  1.00  0.00    +0.000 C 
ATOM     52  N7  UNL A   1      25.686 -12.787  34.281  1.00  0.00    +0.000 N 
ATOM     53  C37 UNL A   1      23.660 -11.445  33.673  1.00  0.00    +0.000 C 
ATOM     65  C44 UNL A   1      23.861 -11.391  32.334  1.00  0.00    +0.000 C 
ATOM     66  N8  UNL A   1      24.901 -11.927  31.586  1.00  0.00    +0.000 N 
ATOM     67  C45 UNL A   1      24.646 -11.616  30.340  1.00  0.00    +0.000 C 
ATOM     68  C46 UNL A   1      25.448 -11.916  29.104  1.00  0.00    +0.000 C 
ATOM     80  C53 UNL A   1      26.618 -12.571  29.221  1.00  0.00    +0.000 C 
ATOM     81  C54 UNL A   1      27.507 -12.923  28.118  1.00  0.00    +0.000 C 
ATOM     82  C55 UNL A   1      28.557 -13.606  28.602  1.00  0.00    +0.000 C 
ATOM     83  C56 UNL A   1      28.431 -13.710  30.055  1.00  0.00    +0.000 C 
ATOM     84  N9  UNL A   1      27.255 -13.062  30.335  1.00  0.00    +0.000 N 
ATOM     85  C57 UNL A   1      23.395 -10.868  30.152  1.00  0.00    +0.000 C 
ATOM     86  C58 UNL A   1      22.976 -10.726  31.401  1.00  0.00    +0.000 C 
ATOM     87  C59 UNL A   1      29.470 -15.106  34.356  1.00  0.00    +0.000 C 
ATOM     88  C60 UNL A   1      30.038 -15.117  33.158  1.00  0.00    +0.000 C 
ATOM    117  H27 UNL A   1      25.681 -13.107  37.488  1.00  0.00    +0.000 H 
ATOM    118  H28 UNL A   1      23.623 -11.808  36.552  1.00  0.00    +0.000 H 
ATOM    119  H29 UNL A   1      26.035 -12.895  33.366  1.00  0.00    +0.000 H 
ATOM    120  H30 UNL A   1      27.352 -12.685  27.126  1.00  0.00    +0.000 H 
ATOM    121  H31 UNL A   1      29.329 -13.995  28.038  1.00  0.00    +0.000 H 
ATOM    122  H32 UNL A   1      26.899 -12.958  31.248  1.00  0.00    +0.000 H 
ATOM    123  H33 UNL A   1      22.958 -10.539  29.276  1.00  0.00    +0.000 H 
ATOM    124  H34 UNL A   1      22.126 -10.207  31.674  1.00  0.00    +0.000 H 
ATOM    125  H35 UNL A   1      29.857 -15.575  35.189  1.00  0.00    +0.000 H 
ATOM    126  H36 UNL A   1      30.946 -15.516  32.873  1.00  0.00    +0.000 H 
ENDROOT
BRANCH   32   31
ATOM    115  H25 UNL A   1      33.747 -14.472  29.591  1.00  0.00    +0.000 H 
ATOM    116  H26 UNL A   1      31.844 -13.403  30.653  1.00  0.00    +0.000 H 
ATOM     89  C61 UNL A   1      30.388 -16.300  29.783  1.00  0.00    +0.000 C 
ATOM     90  C62 UNL A   1      31.500 -16.942  29.244  1.00  0.00    +0.000 C 
ATOM    127  H37 UNL A   1      29.478 -16.785  29.809  1.00  0.00    +0.000 H 
ATOM     28  C19 UNL A   1      32.710 -16.252  29.121  1.00  0.00    +0.000 C 
ATOM     29  C20 UNL A   1      32.841 -14.965  29.645  1.00  0.00    +0.000 C 
ATOM     30  C21 UNL A   1      31.743 -14.344  30.243  1.00  0.00    +0.000 C 
ATOM     31  C22 UNL A   1      30.500 -14.996  30.291  1.00  0.00    +0.000 C 
ATOM    128  H38 UNL A   1      31.430 -17.925  28.937  1.00  0.00    +0.000 H 
BRANCH   28   26
ATOM     26  C18 UNL A   1      33.874 -16.871  28.450  1.00  0.00    +0.000 C 
ATOM     27  O3  UNL A   1      34.775 -17.362  29.125  1.00  0.00    +0.000 O 
BRANCH   26   25
ATOM     25  N5  UNL A   1      33.953 -16.877  27.081  1.00  0.00    +0.000 N 
ATOM    114  H24 UNL A   1      34.457 -17.628  26.690  1.00  0.00    +0.000 H 
BRANCH   25   24
ATOM    113  H23 UNL A   1      32.606 -15.402  26.614  1.00  0.00    +0.000 H 
ATOM    112  H22 UNL A   1      33.039 -16.474  25.276  1.00  0.00    +0.000 H 
ATOM     24  C17 UNL A   1      33.397 -15.933  26.126  1.00  0.00    +0.000 C 
BRANCH   24   23
ATOM    111  H21 UNL A   1      35.162 -15.454  25.106  1.00  0.00    +0.000 H 
ATOM    110  H20 UNL A   1      34.823 -14.417  26.522  1.00  0.00    +0.000 H 
ATOM     23  C16 UNL A   1      34.426 -14.909  25.658  1.00  0.00    +0.000 C 
BRANCH   23   22
ATOM    108  H18 UNL A   1      33.471 -14.331  23.854  1.00  0.00    +0.000 H 
ATOM    109  H19 UNL A   1      33.163 -13.282  25.271  1.00  0.00    +0.000 H 
ATOM     22  C15 UNL A   1      33.883 -13.837  24.708  1.00  0.00    +0.000 C 
BRANCH   22   21
ATOM    106  H16 UNL A   1      35.837 -13.009  24.720  1.00  0.00    +0.000 H 
ATOM    107  H17 UNL A   1      34.974 -12.946  23.153  1.00  0.00    +0.000 H 
ATOM     21  C14 UNL A   1      34.914 -12.818  24.214  1.00  0.00    +0.000 C 
BRANCH   21   20
ATOM    105  H15 UNL A   1      33.522 -11.335  24.768  1.00  0.00    +0.000 H 
ATOM     20  C13 UNL A   1      34.542 -11.348  24.445  1.00  0.00    +0.000 C 
ATOM    104  H14 UNL A   1      34.693 -10.816  23.529  1.00  0.00    +0.000 H 
BRANCH   20   19
ATOM     19  C12 UNL A   1      35.359 -10.663  25.536  1.00  0.00    +0.000 C 
ATOM    102  H12 UNL A   1      36.362 -11.035  25.511  1.00  0.00    +0.000 H 
ATOM    103  H13 UNL A   1      35.351  -9.607  25.359  1.00  0.00    +0.000 H 
BRANCH   19   18
ATOM     18  N4  UNL A   1      34.789 -10.919  26.845  1.00  0.00    +0.000 N 
ATOM    101  H11 UNL A   1      35.437 -10.903  27.585  1.00  0.00    +0.000 H 
BRANCH   18   16
ATOM     17  O2  UNL A   1      33.282 -12.276  27.739  1.00  0.00    +0.000 O 
ATOM     16  C11 UNL A   1      33.505 -11.176  27.222  1.00  0.00    +0.000 C 
BRANCH   16    2
ATOM      2  C2  UNL A   1      32.372 -10.162  27.028  1.00  0.00    +0.000 C 
ATOM     94  H4  UNL A   1      32.472  -9.657  26.091  1.00  0.00    +0.000 H 
BRANCH    2    1
ATOM      1  C1  UNL A   1      31.008 -10.823  26.872  1.00  0.00    +0.000 C 
ATOM     91  H1  UNL A   1      30.466 -10.341  26.085  1.00  0.00    +0.000 H 
ATOM     92  H2  UNL A   1      30.461 -10.734  27.788  1.00  0.00    +0.000 H 
ATOM     93  H3  UNL A   1      31.138 -11.858  26.634  1.00  0.00    +0.000 H 
ENDBRANCH    2    1
BRANCH    2    3
ATOM      3  S1  UNL A   1      32.516  -8.886  28.332  1.00  0.00    +0.000 S 
BRANCH    3    4
ATOM     97  H7  UNL A   1      26.110  -9.433  32.546  1.00  0.00    +0.000 H 
ATOM     98  H8  UNL A   1      26.469  -8.033  30.591  1.00  0.00    +0.000 H 
ATOM      4  C3  UNL A   1      30.906  -8.880  29.007  1.00  0.00    +0.000 C 
ATOM      5  N1  UNL A   1      30.696  -9.662  30.015  1.00  0.00    +0.000 N 
ATOM      6  C4  UNL A   1      29.448  -9.599  30.650  1.00  0.00    +0.000 C 
ATOM      7  C5  UNL A   1      29.226 -10.403  31.772  1.00  0.00    +0.000 C 
ATOM      8  C6  UNL A   1      28.013 -10.341  32.464  1.00  0.00    +0.000 C 
ATOM      9  C7  UNL A   1      27.006  -9.477  32.036  1.00  0.00    +0.000 C 
ATOM     10  C8  UNL A   1      27.211  -8.672  30.915  1.00  0.00    +0.000 C 
ATOM     11  C9  UNL A   1      28.432  -8.738  30.233  1.00  0.00    +0.000 C 
ATOM     12  C10 UNL A   1      28.694  -7.875  29.068  1.00  0.00    +0.000 C 
ATOM     13  O1  UNL A   1      27.841  -7.086  28.663  1.00  0.00    +0.000 O 
ATOM     14  N2  UNL A   1      29.960  -7.998  28.495  1.00  0.00    +0.000 N 
ATOM     95  H5  UNL A   1      29.966 -11.047  32.093  1.00  0.00    +0.000 H 
ATOM     96  H6  UNL A   1      27.862 -10.937  33.293  1.00  0.00    +0.000 H 
BRANCH   14   15
ATOM     99  H9  UNL A   1      30.301  -6.182  27.487  1.00  0.00    +0.000 H 
ATOM    100  H10 UNL A   1      30.368  -7.554  26.478  1.00  0.00    +0.000 H 
ATOM     15  N3  UNL A   1      30.238  -7.158  27.369  1.00  0.00    +0.000 N 
ENDBRANCH   14   15
ENDBRANCH    3    4
ENDBRANCH    2    3
ENDBRANCH   16    2
ENDBRANCH   18   16
ENDBRANCH   19   18
ENDBRANCH   20   19
ENDBRANCH   21   20
ENDBRANCH   22   21
ENDBRANCH   23   22
ENDBRANCH   24   23
ENDBRANCH   25   24
ENDBRANCH   26   25
ENDBRANCH   28   26
ENDBRANCH   32   31
BRANCH   36   37
ATOM     37  C27 UNL A   1      27.973 -14.623  36.752  1.00  0.00    +0.000 C 
ATOM     38  C28 UNL A   1      27.579 -15.891  37.207  1.00  0.00    +0.000 C 
ATOM     39  F1  UNL A   1      26.728 -16.634  36.483  1.00  0.00    +0.000 F 
ATOM     40  C29 UNL A   1      28.025 -16.384  38.431  1.00  0.00    +0.000 C 
ATOM     41  F2  UNL A   1      27.594 -17.574  38.869  1.00  0.00    +0.000 F 
ATOM     42  C30 UNL A   1      28.899 -15.636  39.205  1.00  0.00    +0.000 C 
ATOM     43  F3  UNL A   1      29.330 -16.112  40.381  1.00  0.00    +0.000 F 
ATOM     44  C31 UNL A   1      29.321 -14.391  38.764  1.00  0.00    +0.000 C 
ATOM     45  F4  UNL A   1      30.176 -13.672  39.506  1.00  0.00    +0.000 F 
ATOM     46  C32 UNL A   1      28.854 -13.883  37.554  1.00  0.00    +0.000 C 
ATOM     47  F5  UNL A   1      29.266 -12.667  37.163  1.00  0.00    +0.000 F 
ENDBRANCH   36   37
BRANCH   53   54
ATOM     54  C38 UNL A   1      22.450 -10.742  34.214  1.00  0.00    +0.000 C 
ATOM     55  C39 UNL A   1      22.543  -9.481  34.820  1.00  0.00    +0.000 C 
ATOM     56  F6  UNL A   1      23.739  -8.894  34.979  1.00  0.00    +0.000 F 
ATOM     57  C40 UNL A   1      21.407  -8.833  35.299  1.00  0.00    +0.000 C 
ATOM     58  F7  UNL A   1      21.523  -7.648  35.913  1.00  0.00    +0.000 F 
ATOM     59  C41 UNL A   1      20.158  -9.418  35.154  1.00  0.00    +0.000 C 
ATOM     60  F8  UNL A   1      19.065  -8.789  35.609  1.00  0.00    +0.000 F 
ATOM     61  C42 UNL A   1      20.041 -10.657  34.543  1.00  0.00    +0.000 C 
ATOM     62  F9  UNL A   1      18.835 -11.219  34.392  1.00  0.00    +0.000 F 
ATOM     63  C43 UNL A   1      21.178 -11.320  34.087  1.00  0.00    +0.000 C 
ATOM     64  F10 UNL A   1      21.036 -12.523  33.510  1.00  0.00    +0.000 F 
ENDBRANCH   53   54
BRANCH   68   69
ATOM     69  C47 UNL A   1      24.984 -11.473  27.765  1.00  0.00    +0.000 C 
ATOM     70  C48 UNL A   1      25.291 -10.191  27.289  1.00  0.00    +0.000 C 
ATOM     71  F11 UNL A   1      25.985  -9.339  28.059  1.00  0.00    +0.000 F 
ATOM     72  C49 UNL A   1      24.859  -9.767  26.035  1.00  0.00    +0.000 C 
ATOM     73  F12 UNL A   1      25.135  -8.523  25.618  1.00  0.00    +0.000 F 
ATOM     74  C50 UNL A   1      24.133 -10.625  25.222  1.00  0.00    +0.000 C 
ATOM     75  F13 UNL A   1      23.723 -10.219  24.013  1.00  0.00    +0.000 F 
ATOM     76  C51 UNL A   1      23.828 -11.903  25.668  1.00  0.00    +0.000 C 
ATOM     77  F14 UNL A   1      23.138 -12.738  24.881  1.00  0.00    +0.000 F 
ATOM     78  C52 UNL A   1      24.239 -12.319  26.932  1.00  0.00    +0.000 C 
ATOM     79  F15 UNL A   1      23.924 -13.556  27.340  1.00  0.00    +0.000 F 
ENDBRANCH   68   69
TORSDOF 19
ENDMDL
MODEL 6
REMARK VINA RESULT:      -8.8     22.882     31.487
ROOT
ATOM     32  C23 UNL A   1      10.960  27.102   2.033  1.00  0.00    +0.000 C 
ATOM     33  C24 UNL A   1      10.462  26.654   3.378  1.00  0.00    +0.000 C 
ATOM     34  N6  UNL A   1      10.741  25.561   4.042  1.00  0.00    +0.000 N 
ATOM     35  C25 UNL A   1      10.057  25.666   5.246  1.00  0.00    +0.000 C 
ATOM     36  C26 UNL A   1       9.976  24.765   6.253  1.00  0.00    +0.000 C 
ATOM     48  C33 UNL A   1      10.617  23.476   6.240  1.00  0.00    +0.000 C 
ATOM     49  C34 UNL A   1      10.542  22.465   7.183  1.00  0.00    +0.000 C 
ATOM     50  C35 UNL A   1      11.365  21.413   6.763  1.00  0.00    +0.000 C 
ATOM     51  C36 UNL A   1      11.917  21.751   5.537  1.00  0.00    +0.000 C 
ATOM     52  N7  UNL A   1      11.453  23.020   5.231  1.00  0.00    +0.000 N 
ATOM     53  C37 UNL A   1      12.802  20.975   4.707  1.00  0.00    +0.000 C 
ATOM     65  C44 UNL A   1      13.295  21.374   3.509  1.00  0.00    +0.000 C 
ATOM     66  N8  UNL A   1      13.073  22.562   2.826  1.00  0.00    +0.000 N 
ATOM     67  C45 UNL A   1      13.772  22.480   1.722  1.00  0.00    +0.000 C 
ATOM     68  C46 UNL A   1      13.887  23.469   0.596  1.00  0.00    +0.000 C 
ATOM     80  C53 UNL A   1      13.178  24.613   0.648  1.00  0.00    +0.000 C 
ATOM     81  C54 UNL A   1      13.179  25.658  -0.371  1.00  0.00    +0.000 C 
ATOM     82  C55 UNL A   1      12.391  26.666   0.035  1.00  0.00    +0.000 C 
ATOM     83  C56 UNL A   1      11.802  26.321   1.329  1.00  0.00    +0.000 C 
ATOM     84  N9  UNL A   1      12.320  25.082   1.612  1.00  0.00    +0.000 N 
ATOM     85  C57 UNL A   1      14.543  21.236   1.591  1.00  0.00    +0.000 C 
ATOM     86  C58 UNL A   1      14.187  20.582   2.689  1.00  0.00    +0.000 C 
ATOM     87  C59 UNL A   1       9.390  26.950   5.241  1.00  0.00    +0.000 C 
ATOM     88  C60 UNL A   1       9.554  27.571   4.082  1.00  0.00    +0.000 C 
ATOM    117  H27 UNL A   1       9.977  22.483   8.046  1.00  0.00    +0.000 H 
ATOM    118  H28 UNL A   1      11.532  20.535   7.278  1.00  0.00    +0.000 H 
ATOM    119  H29 UNL A   1      11.682  23.525   4.417  1.00  0.00    +0.000 H 
ATOM    120  H30 UNL A   1      13.703  25.627  -1.259  1.00  0.00    +0.000 H 
ATOM    121  H31 UNL A   1      12.227  27.543  -0.483  1.00  0.00    +0.000 H 
ATOM    122  H32 UNL A   1      12.097  24.577   2.427  1.00  0.00    +0.000 H 
ATOM    123  H33 UNL A   1      15.192  20.946   0.842  1.00  0.00    +0.000 H 
ATOM    124  H34 UNL A   1      14.506  19.630   2.928  1.00  0.00    +0.000 H 
ATOM    125  H35 UNL A   1       8.857  27.333   6.038  1.00  0.00    +0.000 H 
ATOM    126  H36 UNL A   1       9.149  28.463   3.759  1.00  0.00    +0.000 H 
ENDROOT
BRANCH   32   31
ATOM    115  H25 UNL A   1       8.398  29.956  -0.550  1.00  0.00    +0.000 H 
ATOM    116  H26 UNL A   1       8.911  27.777   0.391  1.00  0.00    +0.000 H 
ATOM     89  C61 UNL A   1      11.331  29.564   1.880  1.00  0.00    +0.000 C 
ATOM     90  C62 UNL A   1      10.988  30.826   1.400  1.00  0.00    +0.000 C 
ATOM    127  H37 UNL A   1      12.139  29.458   2.514  1.00  0.00    +0.000 H 
ATOM     28  C19 UNL A   1       9.955  30.959   0.468  1.00  0.00    +0.000 C 
ATOM     29  C20 UNL A   1       9.188  29.849   0.107  1.00  0.00    +0.000 C 
ATOM     30  C21 UNL A   1       9.492  28.594   0.637  1.00  0.00    +0.000 C 
ATOM     31  C22 UNL A   1      10.584  28.437   1.505  1.00  0.00    +0.000 C 
ATOM    128  H38 UNL A   1      11.496  31.661   1.734  1.00  0.00    +0.000 H 
BRANCH   28   26
ATOM     26  C18 UNL A   1       9.644  32.270  -0.141  1.00  0.00    +0.000 C 
ATOM     27  O3  UNL A   1       8.968  33.085   0.481  1.00  0.00    +0.000 O 
BRANCH   26   25
ATOM     25  N5  UNL A   1      10.092  32.562  -1.404  1.00  0.00    +0.000 N 
ATOM    114  H24 UNL A   1       9.527  33.182  -1.920  1.00  0.00    +0.000 H 
BRANCH   25   24
ATOM    113  H23 UNL A   1      10.998  31.790  -3.074  1.00  0.00    +0.000 H 
ATOM    112  H22 UNL A   1      11.694  31.268  -1.534  1.00  0.00    +0.000 H 
ATOM     24  C17 UNL A   1      11.284  32.087  -2.087  1.00  0.00    +0.000 C 
BRANCH   24   23
ATOM    111  H21 UNL A   1      11.961  33.892  -2.907  1.00  0.00    +0.000 H 
ATOM    110  H20 UNL A   1      13.255  32.711  -2.550  1.00  0.00    +0.000 H 
ATOM     23  C16 UNL A   1      12.348  33.172  -2.217  1.00  0.00    +0.000 C 
BRANCH   23   22
ATOM    108  H18 UNL A   1      12.753  34.971  -1.169  1.00  0.00    +0.000 H 
ATOM    109  H19 UNL A   1      11.836  33.730  -0.262  1.00  0.00    +0.000 H 
ATOM     22  C15 UNL A   1      12.651  33.935  -0.924  1.00  0.00    +0.000 C 
BRANCH   22   21
ATOM    106  H16 UNL A   1      14.275  32.597  -0.645  1.00  0.00    +0.000 H 
ATOM    107  H17 UNL A   1      14.605  34.313  -0.260  1.00  0.00    +0.000 H 
ATOM     21  C14 UNL A   1      13.919  33.495  -0.186  1.00  0.00    +0.000 C 
BRANCH   21   20
ATOM    105  H15 UNL A   1      12.755  32.828   1.440  1.00  0.00    +0.000 H 
ATOM     20  C13 UNL A   1      13.741  33.223   1.313  1.00  0.00    +0.000 C 
ATOM    104  H14 UNL A   1      13.890  34.142   1.841  1.00  0.00    +0.000 H 
BRANCH   20   19
ATOM     19  C12 UNL A   1      14.708  32.185   1.876  1.00  0.00    +0.000 C 
ATOM    102  H12 UNL A   1      14.753  32.288   2.941  1.00  0.00    +0.000 H 
ATOM    103  H13 UNL A   1      14.355  31.209   1.613  1.00  0.00    +0.000 H 
BRANCH   19   18
ATOM     18  N4  UNL A   1      16.037  32.363   1.323  1.00  0.00    +0.000 N 
ATOM    101  H11 UNL A   1      16.362  33.292   1.330  1.00  0.00    +0.000 H 
BRANCH   18   16
ATOM     17  O2  UNL A   1      16.570  30.889  -0.243  1.00  0.00    +0.000 O 
ATOM     16  C11 UNL A   1      16.911  31.460   0.799  1.00  0.00    +0.000 C 
BRANCH   16    2
ATOM      2  C2  UNL A   1      18.264  31.152   1.449  1.00  0.00    +0.000 C 
ATOM     94  H4  UNL A   1      19.023  31.804   1.073  1.00  0.00    +0.000 H 
BRANCH    2    1
ATOM      1  C1  UNL A   1      18.293  31.480   2.938  1.00  0.00    +0.000 C 
ATOM     91  H1  UNL A   1      17.338  31.259   3.369  1.00  0.00    +0.000 H 
ATOM     92  H2  UNL A   1      18.512  32.520   3.070  1.00  0.00    +0.000 H 
ATOM     93  H3  UNL A   1      19.046  30.892   3.418  1.00  0.00    +0.000 H 
ENDBRANCH    2    1
BRANCH    2    3
ATOM      3  S1  UNL A   1      18.751  29.452   0.980  1.00  0.00    +0.000 S 
BRANCH    3    4
ATOM     97  H7  UNL A   1      25.970  30.151  -1.568  1.00  0.00    +0.000 H 
ATOM     98  H8  UNL A   1      23.943  30.040  -2.906  1.00  0.00    +0.000 H 
ATOM      4  C3  UNL A   1      20.240  29.731   0.113  1.00  0.00    +0.000 C 
ATOM      5  N1  UNL A   1      21.314  29.842   0.823  1.00  0.00    +0.000 N 
ATOM      6  C4  UNL A   1      22.540  29.955   0.153  1.00  0.00    +0.000 C 
ATOM      7  C5  UNL A   1      23.713  30.026   0.910  1.00  0.00    +0.000 C 
ATOM      8  C6  UNL A   1      24.962  30.095   0.284  1.00  0.00    +0.000 C 
ATOM      9  C7  UNL A   1      25.048  30.099  -1.107  1.00  0.00    +0.000 C 
ATOM     10  C8  UNL A   1      23.886  30.033  -1.876  1.00  0.00    +0.000 C 
ATOM     11  C9  UNL A   1      22.641  29.960  -1.239  1.00  0.00    +0.000 C 
ATOM     12  C10 UNL A   1      21.398  29.853  -2.021  1.00  0.00    +0.000 C 
ATOM     13  O1  UNL A   1      21.426  29.837  -3.252  1.00  0.00    +0.000 O 
ATOM     14  N2  UNL A   1      20.222  29.743  -1.278  1.00  0.00    +0.000 N 
ATOM     95  H5  UNL A   1      23.657  30.026   1.941  1.00  0.00    +0.000 H 
ATOM     96  H6  UNL A   1      25.821  30.143   0.854  1.00  0.00    +0.000 H 
BRANCH   14   15
ATOM     99  H9  UNL A   1      18.224  30.178  -1.782  1.00  0.00    +0.000 H 
ATOM    100  H10 UNL A   1      18.943  28.991  -2.773  1.00  0.00    +0.000 H 
ATOM     15  N3  UNL A   1      19.003  29.624  -2.022  1.00  0.00    +0.000 N 
ENDBRANCH   14   15
ENDBRANCH    3    4
ENDBRANCH    2    3
ENDBRANCH   16    2
ENDBRANCH   18   16
ENDBRANCH   19   18
ENDBRANCH   20   19
ENDBRANCH   21   20
ENDBRANCH   22   21
ENDBRANCH   23   22
ENDBRANCH   24   23
ENDBRANCH   25   24
ENDBRANCH   26   25
ENDBRANCH   28   26
ENDBRANCH   32   31
BRANCH   36   37
ATOM     37  C27 UNL A   1       9.162  25.144   7.456  1.00  0.00    +0.000 C 
ATOM     38  C28 UNL A   1       7.761  25.062   7.451  1.00  0.00    +0.000 C 
ATOM     39  F1  UNL A   1       7.111  24.671   6.343  1.00  0.00    +0.000 F 
ATOM     40  C29 UNL A   1       7.018  25.423   8.571  1.00  0.00    +0.000 C 
ATOM     41  F2  UNL A   1       5.679  25.388   8.525  1.00  0.00    +0.000 F 
ATOM     42  C30 UNL A   1       7.660  25.838   9.728  1.00  0.00    +0.000 C 
ATOM     43  F3  UNL A   1       6.944  26.183  10.807  1.00  0.00    +0.000 F 
ATOM     44  C31 UNL A   1       9.045  25.903   9.764  1.00  0.00    +0.000 C 
ATOM     45  F4  UNL A   1       9.667  26.292  10.886  1.00  0.00    +0.000 F 
ATOM     46  C32 UNL A   1       9.790  25.570   8.635  1.00  0.00    +0.000 C 
ATOM     47  F5  UNL A   1      11.127  25.660   8.696  1.00  0.00    +0.000 F 
ENDBRANCH   36   37
BRANCH   53   54
ATOM     54  C38 UNL A   1      13.194  19.610   5.190  1.00  0.00    +0.000 C 
ATOM     55  C39 UNL A   1      14.299  19.419   6.031  1.00  0.00    +0.000 C 
ATOM     56  F6  UNL A   1      15.070  20.460   6.381  1.00  0.00    +0.000 F 
ATOM     57  C40 UNL A   1      14.637  18.148   6.488  1.00  0.00    +0.000 C 
ATOM     58  F7  UNL A   1      15.722  17.981   7.256  1.00  0.00    +0.000 F 
ATOM     59  C41 UNL A   1      13.861  17.052   6.138  1.00  0.00    +0.000 C 
ATOM     60  F8  UNL A   1      14.185  15.830   6.585  1.00  0.00    +0.000 F 
ATOM     61  C42 UNL A   1      12.755  17.221   5.321  1.00  0.00    +0.000 C 
ATOM     62  F9  UNL A   1      11.998  16.167   4.990  1.00  0.00    +0.000 F 
ATOM     63  C43 UNL A   1      12.430  18.487   4.841  1.00  0.00    +0.000 C 
ATOM     64  F10 UNL A   1      11.359  18.619   4.042  1.00  0.00    +0.000 F 
ENDBRANCH   53   54
BRANCH   68   69
ATOM     69  C47 UNL A   1      14.743  23.188  -0.585  1.00  0.00    +0.000 C 
ATOM     70  C48 UNL A   1      16.118  23.456  -0.553  1.00  0.00    +0.000 C 
ATOM     71  F11 UNL A   1      16.668  24.002   0.542  1.00  0.00    +0.000 F 
ATOM     72  C49 UNL A   1      16.927  23.196  -1.656  1.00  0.00    +0.000 C 
ATOM     73  F12 UNL A   1      18.234  23.496  -1.613  1.00  0.00    +0.000 F 
ATOM     74  C50 UNL A   1      16.382  22.640  -2.804  1.00  0.00    +0.000 C 
ATOM     75  F13 UNL A   1      17.162  22.384  -3.863  1.00  0.00    +0.000 F 
ATOM     76  C51 UNL A   1      15.025  22.354  -2.853  1.00  0.00    +0.000 C 
ATOM     77  F14 UNL A   1      14.497  21.806  -3.955  1.00  0.00    +0.000 F 
ATOM     78  C52 UNL A   1      14.211  22.637  -1.759  1.00  0.00    +0.000 C 
ATOM     79  F15 UNL A   1      12.902  22.359  -1.837  1.00  0.00    +0.000 F 
ENDBRANCH   68   69
TORSDOF 19
ENDMDL
MODEL 7
REMARK VINA RESULT:      -8.8     22.611     31.275
ROOT
ATOM     32  C23 UNL A   1      11.125  27.193   2.147  1.00  0.00    +0.000 C 
ATOM     33  C24 UNL A   1      10.562  26.694   3.447  1.00  0.00    +0.000 C 
ATOM     34  N6  UNL A   1      10.699  25.522   4.014  1.00  0.00    +0.000 N 
ATOM     35  C25 UNL A   1      10.019  25.605   5.222  1.00  0.00    +0.000 C 
ATOM     36  C26 UNL A   1       9.819  24.637   6.147  1.00  0.00    +0.000 C 
ATOM     48  C33 UNL A   1      10.300  23.286   6.022  1.00  0.00    +0.000 C 
ATOM     49  C34 UNL A   1      10.093  22.214   6.873  1.00  0.00    +0.000 C 
ATOM     50  C35 UNL A   1      10.787  21.110   6.364  1.00  0.00    +0.000 C 
ATOM     51  C36 UNL A   1      11.390  21.484   5.172  1.00  0.00    +0.000 C 
ATOM     52  N7  UNL A   1      11.086  22.821   4.978  1.00  0.00    +0.000 N 
ATOM     53  C37 UNL A   1      12.184  20.681   4.278  1.00  0.00    +0.000 C 
ATOM     65  C44 UNL A   1      12.734  21.119   3.119  1.00  0.00    +0.000 C 
ATOM     66  N8  UNL A   1      12.665  22.380   2.543  1.00  0.00    +0.000 N 
ATOM     67  C45 UNL A   1      13.362  22.308   1.437  1.00  0.00    +0.000 C 
ATOM     68  C46 UNL A   1      13.607  23.370   0.400  1.00  0.00    +0.000 C 
ATOM     80  C53 UNL A   1      13.041  24.582   0.551  1.00  0.00    +0.000 C 
ATOM     81  C54 UNL A   1      13.180  25.704  -0.372  1.00  0.00    +0.000 C 
ATOM     82  C55 UNL A   1      12.514  26.761   0.120  1.00  0.00    +0.000 C 
ATOM     83  C56 UNL A   1      11.874  26.380   1.378  1.00  0.00    +0.000 C 
ATOM     84  N9  UNL A   1      12.235  25.068   1.552  1.00  0.00    +0.000 N 
ATOM     85  C57 UNL A   1      13.978  20.996   1.198  1.00  0.00    +0.000 C 
ATOM     86  C58 UNL A   1      13.534  20.299   2.234  1.00  0.00    +0.000 C 
ATOM     87  C59 UNL A   1       9.512  26.957   5.329  1.00  0.00    +0.000 C 
ATOM     88  C60 UNL A   1       9.763  27.650   4.228  1.00  0.00    +0.000 C 
ATOM    117  H27 UNL A   1       9.525  22.226   7.734  1.00  0.00    +0.000 H 
ATOM    118  H28 UNL A   1      10.842  20.177   6.801  1.00  0.00    +0.000 H 
ATOM    119  H29 UNL A   1      11.383  23.363   4.211  1.00  0.00    +0.000 H 
ATOM    120  H30 UNL A   1      13.705  25.687  -1.260  1.00  0.00    +0.000 H 
ATOM    121  H31 UNL A   1      12.463  27.693  -0.320  1.00  0.00    +0.000 H 
ATOM    122  H32 UNL A   1      11.945  24.525   2.321  1.00  0.00    +0.000 H 
ATOM    123  H33 UNL A   1      14.595  20.696   0.426  1.00  0.00    +0.000 H 
ATOM    124  H34 UNL A   1      13.733  19.297   2.389  1.00  0.00    +0.000 H 
ATOM    125  H35 UNL A   1       9.020  27.331   6.156  1.00  0.00    +0.000 H 
ATOM    126  H36 UNL A   1       9.473  28.610   3.984  1.00  0.00    +0.000 H 
ENDROOT
BRANCH   32   31
ATOM    115  H25 UNL A   1       9.234  30.507  -0.466  1.00  0.00    +0.000 H 
ATOM    116  H26 UNL A   1       9.457  28.201   0.261  1.00  0.00    +0.000 H 
ATOM     89  C61 UNL A   1      11.633  29.624   2.384  1.00  0.00    +0.000 C 
ATOM     90  C62 UNL A   1      11.447  30.955   2.018  1.00  0.00    +0.000 C 
ATOM    127  H37 UNL A   1      12.301  29.387   3.135  1.00  0.00    +0.000 H 
ATOM     28  C19 UNL A   1      10.616  31.270   0.939  1.00  0.00    +0.000 C 
ATOM     29  C20 UNL A   1       9.880  30.267   0.304  1.00  0.00    +0.000 C 
ATOM     30  C21 UNL A   1      10.019  28.940   0.713  1.00  0.00    +0.000 C 
ATOM     31  C22 UNL A   1      10.919  28.604   1.737  1.00  0.00    +0.000 C 
ATOM    128  H38 UNL A   1      11.921  31.706   2.544  1.00  0.00    +0.000 H 
BRANCH   28   26
ATOM     26  C18 UNL A   1      10.488  32.662   0.458  1.00  0.00    +0.000 C 
ATOM     27  O3  UNL A   1       9.415  33.053   0.007  1.00  0.00    +0.000 O 
BRANCH   26   25
ATOM     25  N5  UNL A   1      11.570  33.503   0.499  1.00  0.00    +0.000 N 
ATOM    114  H24 UNL A   1      11.539  34.199   1.195  1.00  0.00    +0.000 H 
BRANCH   25   24
ATOM    113  H23 UNL A   1      12.728  34.398  -0.938  1.00  0.00    +0.000 H 
ATOM    112  H22 UNL A   1      12.757  32.630  -0.945  1.00  0.00    +0.000 H 
ATOM     24  C17 UNL A   1      12.757  33.512  -0.340  1.00  0.00    +0.000 C 
BRANCH   24   23
ATOM    111  H21 UNL A   1      14.060  34.491   0.976  1.00  0.00    +0.000 H 
ATOM    110  H20 UNL A   1      14.867  33.402  -0.190  1.00  0.00    +0.000 H 
ATOM     23  C16 UNL A   1      14.044  33.544   0.479  1.00  0.00    +0.000 C 
BRANCH   23   22
ATOM    108  H18 UNL A   1      13.656  32.868   2.452  1.00  0.00    +0.000 H 
ATOM    109  H19 UNL A   1      13.664  31.606   1.182  1.00  0.00    +0.000 H 
ATOM     22  C15 UNL A   1      14.135  32.481   1.578  1.00  0.00    +0.000 C 
BRANCH   22   21
ATOM    106  H16 UNL A   1      15.747  32.407   2.957  1.00  0.00    +0.000 H 
ATOM    107  H17 UNL A   1      15.587  30.994   1.871  1.00  0.00    +0.000 H 
ATOM     21  C14 UNL A   1      15.557  32.060   1.964  1.00  0.00    +0.000 C 
BRANCH   21   20
ATOM    105  H15 UNL A   1      16.454  33.632   0.883  1.00  0.00    +0.000 H 
ATOM     20  C13 UNL A   1      16.667  32.597   1.052  1.00  0.00    +0.000 C 
ATOM    104  H14 UNL A   1      16.668  32.023   0.149  1.00  0.00    +0.000 H 
BRANCH   20   19
ATOM     19  C12 UNL A   1      18.063  32.529   1.664  1.00  0.00    +0.000 C 
ATOM    102  H12 UNL A   1      18.465  33.519   1.732  1.00  0.00    +0.000 H 
ATOM    103  H13 UNL A   1      17.990  32.091   2.638  1.00  0.00    +0.000 H 
BRANCH   19   18
ATOM     18  N4  UNL A   1      18.943  31.711   0.852  1.00  0.00    +0.000 N 
ATOM    101  H11 UNL A   1      19.131  30.819   1.222  1.00  0.00    +0.000 H 
BRANCH   18   16
ATOM     17  O2  UNL A   1      19.954  33.125  -0.523  1.00  0.00    +0.000 O 
ATOM     16  C11 UNL A   1      19.552  31.971  -0.339  1.00  0.00    +0.000 C 
BRANCH   16    2
ATOM      2  C2  UNL A   1      19.746  30.898  -1.415  1.00  0.00    +0.000 C 
ATOM     94  H4  UNL A   1      19.018  31.003  -2.191  1.00  0.00    +0.000 H 
BRANCH    2    1
ATOM      1  C1  UNL A   1      21.046  31.070  -2.194  1.00  0.00    +0.000 C 
ATOM     91  H1  UNL A   1      21.653  30.197  -2.071  1.00  0.00    +0.000 H 
ATOM     92  H2  UNL A   1      21.572  31.926  -1.825  1.00  0.00    +0.000 H 
ATOM     93  H3  UNL A   1      20.824  31.207  -3.231  1.00  0.00    +0.000 H 
ENDBRANCH    2    1
BRANCH    2    3
ATOM      3  S1  UNL A   1      19.467  29.261  -0.648  1.00  0.00    +0.000 S 
BRANCH    3    4
ATOM     97  H7  UNL A   1      12.236  28.975  -3.244  1.00  0.00    +0.000 H 
ATOM     98  H8  UNL A   1      13.947  27.262  -3.467  1.00  0.00    +0.000 H 
ATOM      4  C3  UNL A   1      17.877  28.853  -1.242  1.00  0.00    +0.000 C 
ATOM      5  N1  UNL A   1      16.951  29.740  -1.080  1.00  0.00    +0.000 N 
ATOM      6  C4  UNL A   1      15.692  29.491  -1.644  1.00  0.00    +0.000 C 
ATOM      7  C5  UNL A   1      14.697  30.464  -1.519  1.00  0.00    +0.000 C 
ATOM      8  C6  UNL A   1      13.440  30.279  -2.102  1.00  0.00    +0.000 C 
ATOM      9  C7  UNL A   1      13.165  29.112  -2.814  1.00  0.00    +0.000 C 
ATOM     10  C8  UNL A   1      14.146  28.129  -2.944  1.00  0.00    +0.000 C 
ATOM     11  C9  UNL A   1      15.403  28.328  -2.360  1.00  0.00    +0.000 C 
ATOM     12  C10 UNL A   1      16.472  27.326  -2.509  1.00  0.00    +0.000 C 
ATOM     13  O1  UNL A   1      16.280  26.288  -3.142  1.00  0.00    +0.000 O 
ATOM     14  N2  UNL A   1      17.694  27.652  -1.920  1.00  0.00    +0.000 N 
ATOM     95  H5  UNL A   1      14.892  31.330  -0.991  1.00  0.00    +0.000 H 
ATOM     96  H6  UNL A   1      12.715  31.007  -2.006  1.00  0.00    +0.000 H 
BRANCH   14   15
ATOM     99  H9  UNL A   1      19.678  26.949  -1.849  1.00  0.00    +0.000 H 
ATOM    100  H10 UNL A   1      18.551  25.784  -2.382  1.00  0.00    +0.000 H 
ATOM     15  N3  UNL A   1      18.751  26.695  -2.066  1.00  0.00    +0.000 N 
ENDBRANCH   14   15
ENDBRANCH    3    4
ENDBRANCH    2    3
ENDBRANCH   16    2
ENDBRANCH   18   16
ENDBRANCH   19   18
ENDBRANCH   20   19
ENDBRANCH   21   20
ENDBRANCH   22   21
ENDBRANCH   23   22
ENDBRANCH   24   23
ENDBRANCH   25   24
ENDBRANCH   26   25
ENDBRANCH   28   26
ENDBRANCH   32   31
BRANCH   36   37
ATOM     37  C27 UNL A   1       9.043  25.006   7.378  1.00  0.00    +0.000 C 
ATOM     38  C28 UNL A   1       9.684  25.443   8.547  1.00  0.00    +0.000 C 
ATOM     39  F1  UNL A   1      11.024  25.507   8.599  1.00  0.00    +0.000 F 
ATOM     40  C29 UNL A   1       8.954  25.775   9.685  1.00  0.00    +0.000 C 
ATOM     41  F2  UNL A   1       9.590  26.139  10.806  1.00  0.00    +0.000 F 
ATOM     42  C30 UNL A   1       7.569  25.712   9.664  1.00  0.00    +0.000 C 
ATOM     43  F3  UNL A   1       6.865  26.035  10.758  1.00  0.00    +0.000 F 
ATOM     44  C31 UNL A   1       6.912  25.307   8.512  1.00  0.00    +0.000 C 
ATOM     45  F4  UNL A   1       5.573  25.258   8.487  1.00  0.00    +0.000 F 
ATOM     46  C32 UNL A   1       7.642  24.946   7.382  1.00  0.00    +0.000 C 
ATOM     47  F5  UNL A   1       6.979  24.541   6.288  1.00  0.00    +0.000 F 
ENDBRANCH   36   37
BRANCH   53   54
ATOM     54  C38 UNL A   1      12.403  19.242   4.641  1.00  0.00    +0.000 C 
ATOM     55  C39 UNL A   1      13.485  18.842   5.437  1.00  0.00    +0.000 C 
ATOM     56  F6  UNL A   1      14.390  19.743   5.850  1.00  0.00    +0.000 F 
ATOM     57  C40 UNL A   1      13.663  17.505   5.782  1.00  0.00    +0.000 C 
ATOM     58  F7  UNL A   1      14.728  17.138   6.507  1.00  0.00    +0.000 F 
ATOM     59  C41 UNL A   1      12.747  16.550   5.364  1.00  0.00    +0.000 C 
ATOM     60  F8  UNL A   1      12.917  15.264   5.704  1.00  0.00    +0.000 F 
ATOM     61  C42 UNL A   1      11.660  16.926   4.591  1.00  0.00    +0.000 C 
ATOM     62  F9  UNL A   1      10.769  16.007   4.196  1.00  0.00    +0.000 F 
ATOM     63  C43 UNL A   1      11.495  18.258   4.222  1.00  0.00    +0.000 C 
ATOM     64  F10 UNL A   1      10.439  18.591   3.464  1.00  0.00    +0.000 F 
ENDBRANCH   53   54
BRANCH   68   69
ATOM     69  C47 UNL A   1      14.436  23.090  -0.799  1.00  0.00    +0.000 C 
ATOM     70  C48 UNL A   1      15.813  23.347  -0.795  1.00  0.00    +0.000 C 
ATOM     71  F11 UNL A   1      16.391  23.881   0.292  1.00  0.00    +0.000 F 
ATOM     72  C49 UNL A   1      16.597  23.088  -1.916  1.00  0.00    +0.000 C 
ATOM     73  F12 UNL A   1      17.907  23.378  -1.899  1.00  0.00    +0.000 F 
ATOM     74  C50 UNL A   1      16.024  22.544  -3.056  1.00  0.00    +0.000 C 
ATOM     75  F13 UNL A   1      16.779  22.290  -4.133  1.00  0.00    +0.000 F 
ATOM     76  C51 UNL A   1      14.664  22.270  -3.079  1.00  0.00    +0.000 C 
ATOM     77  F14 UNL A   1      14.108  21.734  -4.173  1.00  0.00    +0.000 F 
ATOM     78  C52 UNL A   1      13.875  22.552  -1.966  1.00  0.00    +0.000 C 
ATOM     79  F15 UNL A   1      12.562  22.284  -2.019  1.00  0.00    +0.000 F 
ENDBRANCH   68   69
TORSDOF 19
ENDMDL
MODEL 8
REMARK VINA RESULT:      -8.7     39.527     46.757
ROOT
ATOM     32  C23 UNL A   1      42.228  12.778  52.572  1.00  0.00    +0.000 C 
ATOM     33  C24 UNL A   1      42.453  11.930  53.790  1.00  0.00    +0.000 C 
ATOM     34  N6  UNL A   1      43.302  10.949  53.972  1.00  0.00    +0.000 N 
ATOM     35  C25 UNL A   1      43.132  10.542  55.289  1.00  0.00    +0.000 C 
ATOM     36  C26 UNL A   1      43.736   9.522  55.942  1.00  0.00    +0.000 C 
ATOM     48  C33 UNL A   1      44.705   8.639  55.347  1.00  0.00    +0.000 C 
ATOM     49  C34 UNL A   1      45.325   7.536  55.906  1.00  0.00    +0.000 C 
ATOM     50  C35 UNL A   1      46.220   7.013  54.964  1.00  0.00    +0.000 C 
ATOM     51  C36 UNL A   1      46.123   7.765  53.803  1.00  0.00    +0.000 C 
ATOM     52  N7  UNL A   1      45.193   8.761  54.054  1.00  0.00    +0.000 N 
ATOM     53  C37 UNL A   1      46.826   7.588  52.559  1.00  0.00    +0.000 C 
ATOM     65  C44 UNL A   1      46.668   8.364  51.459  1.00  0.00    +0.000 C 
ATOM     66  N8  UNL A   1      45.832   9.456  51.275  1.00  0.00    +0.000 N 
ATOM     67  C45 UNL A   1      46.045   9.872  50.051  1.00  0.00    +0.000 C 
ATOM     68  C46 UNL A   1      45.396  11.006  49.307  1.00  0.00    +0.000 C 
ATOM     80  C53 UNL A   1      44.431  11.724  49.912  1.00  0.00    +0.000 C 
ATOM     81  C54 UNL A   1      43.706  12.842  49.316  1.00  0.00    +0.000 C 
ATOM     82  C55 UNL A   1      42.850  13.342  50.221  1.00  0.00    +0.000 C 
ATOM     83  C56 UNL A   1      42.943  12.557  51.452  1.00  0.00    +0.000 C 
ATOM     84  N9  UNL A   1      43.901  11.614  51.175  1.00  0.00    +0.000 N 
ATOM     85  C57 UNL A   1      47.067   9.104  49.326  1.00  0.00    +0.000 C 
ATOM     86  C58 UNL A   1      47.387   8.175  50.216  1.00  0.00    +0.000 C 
ATOM     87  C59 UNL A   1      42.136  11.414  55.875  1.00  0.00    +0.000 C 
ATOM     88  C60 UNL A   1      41.637  12.245  54.972  1.00  0.00    +0.000 C 
ATOM    117  H27 UNL A   1      45.158   7.162  56.853  1.00  0.00    +0.000 H 
ATOM    118  H28 UNL A   1      46.845   6.205  55.109  1.00  0.00    +0.000 H 
ATOM    119  H29 UNL A   1      44.919   9.453  53.410  1.00  0.00    +0.000 H 
ATOM    120  H30 UNL A   1      43.832  13.191  48.353  1.00  0.00    +0.000 H 
ATOM    121  H31 UNL A   1      42.227  14.151  50.073  1.00  0.00    +0.000 H 
ATOM    122  H32 UNL A   1      44.182  10.924  51.818  1.00  0.00    +0.000 H 
ATOM    123  H33 UNL A   1      47.438   9.249  48.373  1.00  0.00    +0.000 H 
ATOM    124  H34 UNL A   1      48.063   7.413  50.044  1.00  0.00    +0.000 H 
ATOM    125  H35 UNL A   1      41.852  11.391  56.867  1.00  0.00    +0.000 H 
ATOM    126  H36 UNL A   1      40.874  12.933  55.072  1.00  0.00    +0.000 H 
ENDROOT
BRANCH   32   31
ATOM    115  H25 UNL A   1      38.078  14.710  51.920  1.00  0.00    +0.000 H 
ATOM    116  H26 UNL A   1      39.589  12.810  51.949  1.00  0.00    +0.000 H 
ATOM     89  C61 UNL A   1      41.706  15.169  53.055  1.00  0.00    +0.000 C 
ATOM     90  C62 UNL A   1      40.818  16.241  53.111  1.00  0.00    +0.000 C 
ATOM    127  H37 UNL A   1      42.690  15.303  53.336  1.00  0.00    +0.000 H 
ATOM     28  C19 UNL A   1      39.511  16.086  52.641  1.00  0.00    +0.000 C 
ATOM     29  C20 UNL A   1      39.057  14.832  52.227  1.00  0.00    +0.000 C 
ATOM     30  C21 UNL A   1      39.930  13.743  52.231  1.00  0.00    +0.000 C 
ATOM     31  C22 UNL A   1      41.270  13.910  52.617  1.00  0.00    +0.000 C 
ATOM    128  H38 UNL A   1      41.126  17.146  53.500  1.00  0.00    +0.000 H 
BRANCH   28   26
ATOM     26  C18 UNL A   1      38.582  17.235  52.585  1.00  0.00    +0.000 C 
ATOM     27  O3  UNL A   1      37.506  17.177  53.175  1.00  0.00    +0.000 O 
BRANCH   26   25
ATOM     25  N5  UNL A   1      38.914  18.351  51.861  1.00  0.00    +0.000 N 
ATOM    114  H24 UNL A   1      39.033  19.176  52.385  1.00  0.00    +0.000 H 
BRANCH   25   24
ATOM    113  H23 UNL A   1      38.800  19.468  50.145  1.00  0.00    +0.000 H 
ATOM    112  H22 UNL A   1      38.552  17.731  49.927  1.00  0.00    +0.000 H 
ATOM     24  C17 UNL A   1      39.118  18.487  50.428  1.00  0.00    +0.000 C 
BRANCH   24   23
ATOM    111  H21 UNL A   1      41.151  18.481  50.932  1.00  0.00    +0.000 H 
ATOM    110  H20 UNL A   1      40.801  19.069  49.280  1.00  0.00    +0.000 H 
ATOM     23  C16 UNL A   1      40.584  18.341  50.035  1.00  0.00    +0.000 C 
BRANCH   23   22
ATOM    108  H18 UNL A   1      40.753  16.237  50.246  1.00  0.00    +0.000 H 
ATOM    109  H19 UNL A   1      40.409  16.830  48.593  1.00  0.00    +0.000 H 
ATOM     22  C15 UNL A   1      40.972  16.963  49.492  1.00  0.00    +0.000 C 
BRANCH   22   21
ATOM    106  H16 UNL A   1      42.605  15.787  48.814  1.00  0.00    +0.000 H 
ATOM    107  H17 UNL A   1      42.616  17.503  48.305  1.00  0.00    +0.000 H 
ATOM     21  C14 UNL A   1      42.445  16.806  49.098  1.00  0.00    +0.000 C 
BRANCH   21   20
ATOM    105  H15 UNL A   1      44.051  16.281  50.359  1.00  0.00    +0.000 H 
ATOM     20  C13 UNL A   1      43.455  17.155  50.197  1.00  0.00    +0.000 C 
ATOM    104  H14 UNL A   1      42.913  17.453  51.070  1.00  0.00    +0.000 H 
BRANCH   20   19
ATOM     19  C12 UNL A   1      44.417  18.280  49.825  1.00  0.00    +0.000 C 
ATOM    102  H12 UNL A   1      44.211  19.135  50.436  1.00  0.00    +0.000 H 
ATOM    103  H13 UNL A   1      45.420  17.942  49.985  1.00  0.00    +0.000 H 
BRANCH   19   18
ATOM     18  N4  UNL A   1      44.267  18.646  48.429  1.00  0.00    +0.000 N 
ATOM    101  H11 UNL A   1      43.402  19.059  48.204  1.00  0.00    +0.000 H 
BRANCH   18   16
ATOM     17  O2  UNL A   1      46.331  18.614  47.623  1.00  0.00    +0.000 O 
ATOM     16  C11 UNL A   1      45.124  18.515  47.378  1.00  0.00    +0.000 C 
BRANCH   16    2
ATOM      2  C2  UNL A   1      44.638  18.251  45.948  1.00  0.00    +0.000 C 
ATOM     94  H4  UNL A   1      43.617  17.934  45.947  1.00  0.00    +0.000 H 
BRANCH    2    1
ATOM      1  C1  UNL A   1      44.562  19.520  45.107  1.00  0.00    +0.000 C 
ATOM     91  H1  UNL A   1      43.728  19.455  44.439  1.00  0.00    +0.000 H 
ATOM     92  H2  UNL A   1      45.464  19.629  44.542  1.00  0.00    +0.000 H 
ATOM     93  H3  UNL A   1      44.439  20.367  45.749  1.00  0.00    +0.000 H 
ENDBRANCH    2    1
BRANCH    2    3
ATOM      3  S1  UNL A   1      45.619  16.872  45.255  1.00  0.00    +0.000 S 
BRANCH    3    4
ATOM     97  H7  UNL A   1      41.319  13.811  39.666  1.00  0.00    +0.000 H 
ATOM     98  H8  UNL A   1      41.353  13.172  42.011  1.00  0.00    +0.000 H 
ATOM      4  C3  UNL A   1      44.443  16.066  44.248  1.00  0.00    +0.000 C 
ATOM      5  N1  UNL A   1      44.385  16.438  43.011  1.00  0.00    +0.000 N 
ATOM      6  C4  UNL A   1      43.531  15.736  42.149  1.00  0.00    +0.000 C 
ATOM      7  C5  UNL A   1      43.497  16.096  40.800  1.00  0.00    +0.000 C 
ATOM      8  C6  UNL A   1      42.694  15.395  39.895  1.00  0.00    +0.000 C 
ATOM      9  C7  UNL A   1      41.912  14.328  40.334  1.00  0.00    +0.000 C 
ATOM     10  C8  UNL A   1      41.933  13.959  41.679  1.00  0.00    +0.000 C 
ATOM     11  C9  UNL A   1      42.744  14.665  42.576  1.00  0.00    +0.000 C 
ATOM     12  C10 UNL A   1      42.816  14.277  43.995  1.00  0.00    +0.000 C 
ATOM     13  O1  UNL A   1      42.156  13.332  44.425  1.00  0.00    +0.000 O 
ATOM     14  N2  UNL A   1      43.690  15.026  44.784  1.00  0.00    +0.000 N 
ATOM     95  H5  UNL A   1      44.071  16.887  40.467  1.00  0.00    +0.000 H 
ATOM     96  H6  UNL A   1      42.680  15.668  38.900  1.00  0.00    +0.000 H 
BRANCH   14   15
ATOM     99  H9  UNL A   1      44.288  13.851  46.426  1.00  0.00    +0.000 H 
ATOM    100  H10 UNL A   1      43.346  15.206  46.853  1.00  0.00    +0.000 H 
ATOM     15  N3  UNL A   1      43.784  14.656  46.165  1.00  0.00    +0.000 N 
ENDBRANCH   14   15
ENDBRANCH    3    4
ENDBRANCH    2    3
ENDBRANCH   16    2
ENDBRANCH   18   16
ENDBRANCH   19   18
ENDBRANCH   20   19
ENDBRANCH   21   20
ENDBRANCH   22   21
ENDBRANCH   23   22
ENDBRANCH   24   23
ENDBRANCH   25   24
ENDBRANCH   26   25
ENDBRANCH   28   26
ENDBRANCH   32   31
BRANCH   36   37
ATOM     37  C27 UNL A   1      43.365   9.306  57.381  1.00  0.00    +0.000 C 
ATOM     38  C28 UNL A   1      43.982  10.026  58.415  1.00  0.00    +0.000 C 
ATOM     39  F1  UNL A   1      44.953  10.909  58.137  1.00  0.00    +0.000 F 
ATOM     40  C29 UNL A   1      43.634   9.810  59.746  1.00  0.00    +0.000 C 
ATOM     41  F2  UNL A   1      44.274  10.471  60.720  1.00  0.00    +0.000 F 
ATOM     42  C30 UNL A   1      42.639   8.899  60.065  1.00  0.00    +0.000 C 
ATOM     43  F3  UNL A   1      42.302   8.694  61.346  1.00  0.00    +0.000 F 
ATOM     44  C31 UNL A   1      41.998   8.194  59.058  1.00  0.00    +0.000 C 
ATOM     45  F4  UNL A   1      41.028   7.321  59.364  1.00  0.00    +0.000 F 
ATOM     46  C32 UNL A   1      42.365   8.386  57.728  1.00  0.00    +0.000 C 
ATOM     47  F5  UNL A   1      41.739   7.676  56.777  1.00  0.00    +0.000 F 
ENDBRANCH   36   37
BRANCH   53   54
ATOM     54  C38 UNL A   1      47.792   6.444  52.459  1.00  0.00    +0.000 C 
ATOM     55  C39 UNL A   1      47.359   5.140  52.183  1.00  0.00    +0.000 C 
ATOM     56  F6  UNL A   1      46.049   4.875  52.054  1.00  0.00    +0.000 F 
ATOM     57  C40 UNL A   1      48.270   4.093  52.074  1.00  0.00    +0.000 C 
ATOM     58  F7  UNL A   1      47.832   2.846  51.852  1.00  0.00    +0.000 F 
ATOM     59  C41 UNL A   1      49.629   4.335  52.208  1.00  0.00    +0.000 C 
ATOM     60  F8  UNL A   1      50.505   3.326  52.095  1.00  0.00    +0.000 F 
ATOM     61  C42 UNL A   1      50.080   5.620  52.465  1.00  0.00    +0.000 C 
ATOM     62  F9  UNL A   1      51.393   5.859  52.584  1.00  0.00    +0.000 F 
ATOM     63  C43 UNL A   1      49.169   6.665  52.601  1.00  0.00    +0.000 C 
ATOM     64  F10 UNL A   1      49.634   7.896  52.861  1.00  0.00    +0.000 F 
ENDBRANCH   53   54
BRANCH   68   69
ATOM     69  C47 UNL A   1      45.780  11.322  47.908  1.00  0.00    +0.000 C 
ATOM     70  C48 UNL A   1      45.356  10.510  46.848  1.00  0.00    +0.000 C 
ATOM     71  F11 UNL A   1      44.619   9.417  47.095  1.00  0.00    +0.000 F 
ATOM     72  C49 UNL A   1      45.713  10.800  45.533  1.00  0.00    +0.000 C 
ATOM     73  F12 UNL A   1      45.324   9.986  44.541  1.00  0.00    +0.000 F 
ATOM     74  C50 UNL A   1      46.480  11.920  45.250  1.00  0.00    +0.000 C 
ATOM     75  F13 UNL A   1      46.819  12.201  43.985  1.00  0.00    +0.000 F 
ATOM     76  C51 UNL A   1      46.902  12.745  46.284  1.00  0.00    +0.000 C 
ATOM     77  F14 UNL A   1      47.633  13.834  46.014  1.00  0.00    +0.000 F 
ATOM     78  C52 UNL A   1      46.565  12.442  47.601  1.00  0.00    +0.000 C 
ATOM     79  F15 UNL A   1      46.993  13.252  48.580  1.00  0.00    +0.000 F 
ENDBRANCH   68   69
TORSDOF 19
ENDMDL
MODEL 9
REMARK VINA RESULT:      -8.7     16.463     22.031
ROOT
ATOM     32  C23 UNL A   1      18.495  17.049   7.010  1.00  0.00    +0.000 C 
ATOM     33  C24 UNL A   1      18.504  18.205   6.052  1.00  0.00    +0.000 C 
ATOM     34  N6  UNL A   1      17.666  19.206   5.954  1.00  0.00    +0.000 N 
ATOM     35  C25 UNL A   1      18.162  20.015   4.940  1.00  0.00    +0.000 C 
ATOM     36  C26 UNL A   1      17.623  21.143   4.420  1.00  0.00    +0.000 C 
ATOM     48  C33 UNL A   1      16.377  21.720   4.852  1.00  0.00    +0.000 C 
ATOM     49  C34 UNL A   1      15.714  22.824   4.344  1.00  0.00    +0.000 C 
ATOM     50  C35 UNL A   1      14.561  23.033   5.109  1.00  0.00    +0.000 C 
ATOM     51  C36 UNL A   1      14.483  22.032   6.066  1.00  0.00    +0.000 C 
ATOM     52  N7  UNL A   1      15.605  21.237   5.899  1.00  0.00    +0.000 N 
ATOM     53  C37 UNL A   1      13.462  21.817   7.059  1.00  0.00    +0.000 C 
ATOM     65  C44 UNL A   1      13.451  20.804   7.959  1.00  0.00    +0.000 C 
ATOM     66  N8  UNL A   1      14.373  19.780   8.129  1.00  0.00    +0.000 N 
ATOM     67  C45 UNL A   1      13.929  19.059   9.128  1.00  0.00    +0.000 C 
ATOM     68  C46 UNL A   1      14.513  17.811   9.730  1.00  0.00    +0.000 C 
ATOM     80  C53 UNL A   1      15.635  17.287   9.202  1.00  0.00    +0.000 C 
ATOM     81  C54 UNL A   1      16.310  16.080   9.670  1.00  0.00    +0.000 C 
ATOM     82  C55 UNL A   1      17.416  15.883   8.935  1.00  0.00    +0.000 C 
ATOM     83  C56 UNL A   1      17.509  16.933   7.921  1.00  0.00    +0.000 C 
ATOM     84  N9  UNL A   1      16.407  17.717   8.150  1.00  0.00    +0.000 N 
ATOM     85  C57 UNL A   1      12.685  19.563   9.727  1.00  0.00    +0.000 C 
ATOM     86  C58 UNL A   1      12.418  20.605   8.953  1.00  0.00    +0.000 C 
ATOM     87  C59 UNL A   1      19.398  19.415   4.487  1.00  0.00    +0.000 C 
ATOM     88  C60 UNL A   1      19.620  18.260   5.096  1.00  0.00    +0.000 C 
ATOM    117  H27 UNL A   1      16.017  23.394   3.540  1.00  0.00    +0.000 H 
ATOM    118  H28 UNL A   1      13.884  23.801   4.983  1.00  0.00    +0.000 H 
ATOM    119  H29 UNL A   1      15.824  20.446   6.443  1.00  0.00    +0.000 H 
ATOM    120  H30 UNL A   1      15.987  15.476  10.442  1.00  0.00    +0.000 H 
ATOM    121  H31 UNL A   1      18.091  15.114   9.065  1.00  0.00    +0.000 H 
ATOM    122  H32 UNL A   1      16.189  18.513   7.612  1.00  0.00    +0.000 H 
ATOM    123  H33 UNL A   1      12.158  19.200  10.537  1.00  0.00    +0.000 H 
ATOM    124  H34 UNL A   1      11.580  21.200   9.048  1.00  0.00    +0.000 H 
ATOM    125  H35 UNL A   1      20.026  19.833   3.783  1.00  0.00    +0.000 H 
ATOM    126  H36 UNL A   1      20.378  17.577   4.940  1.00  0.00    +0.000 H 
ENDROOT
BRANCH   32   31
ATOM    115  H25 UNL A   1      22.632  15.483   8.356  1.00  0.00    +0.000 H 
ATOM    116  H26 UNL A   1      20.775  17.042   8.477  1.00  0.00    +0.000 H 
ATOM     89  C61 UNL A   1      19.536  14.944   6.168  1.00  0.00    +0.000 C 
ATOM     90  C62 UNL A   1      20.568  14.009   6.157  1.00  0.00    +0.000 C 
ATOM    127  H37 UNL A   1      18.715  14.810   5.557  1.00  0.00    +0.000 H 
ATOM     28  C19 UNL A   1      21.723  14.237   6.911  1.00  0.00    +0.000 C 
ATOM     29  C20 UNL A   1      21.796  15.338   7.768  1.00  0.00    +0.000 C 
ATOM     30  C21 UNL A   1      20.734  16.242   7.827  1.00  0.00    +0.000 C 
ATOM     31  C22 UNL A   1      19.608  16.068   7.006  1.00  0.00    +0.000 C 
ATOM    128  H38 UNL A   1      20.479  13.149   5.592  1.00  0.00    +0.000 H 
BRANCH   28   26
ATOM     26  C18 UNL A   1      22.879  13.318   6.830  1.00  0.00    +0.000 C 
ATOM     27  O3  UNL A   1      23.736  13.341   7.709  1.00  0.00    +0.000 O 
BRANCH   26   25
ATOM     25  N5  UNL A   1      22.999  12.461   5.767  1.00  0.00    +0.000 N 
ATOM    114  H24 UNL A   1      22.488  11.622   5.840  1.00  0.00    +0.000 H 
BRANCH   25   24
ATOM    113  H23 UNL A   1      23.865  11.652   4.093  1.00  0.00    +0.000 H 
ATOM    112  H22 UNL A   1      24.730  13.025   4.796  1.00  0.00    +0.000 H 
ATOM     24  C17 UNL A   1      23.773  12.616   4.547  1.00  0.00    +0.000 C 
BRANCH   24   23
ATOM    111  H21 UNL A   1      22.069  13.613   3.846  1.00  0.00    +0.000 H 
ATOM    110  H20 UNL A   1      23.215  13.121   2.566  1.00  0.00    +0.000 H 
ATOM     23  C16 UNL A   1      23.092  13.541   3.543  1.00  0.00    +0.000 C 
BRANCH   23   22
ATOM    108  H18 UNL A   1      24.417  15.045   4.241  1.00  0.00    +0.000 H 
ATOM    109  H19 UNL A   1      23.963  15.146   2.512  1.00  0.00    +0.000 H 
ATOM     22  C15 UNL A   1      23.634  14.973   3.515  1.00  0.00    +0.000 C 
BRANCH   22   21
ATOM    106  H16 UNL A   1      22.375  16.569   2.903  1.00  0.00    +0.000 H 
ATOM    107  H17 UNL A   1      21.764  15.571   4.257  1.00  0.00    +0.000 H 
ATOM     21  C14 UNL A   1      22.605  16.068   3.819  1.00  0.00    +0.000 C 
BRANCH   21   20
ATOM    105  H15 UNL A   1      22.400  17.038   5.679  1.00  0.00    +0.000 H 
ATOM     20  C13 UNL A   1      23.055  17.122   4.837  1.00  0.00    +0.000 C 
ATOM    104  H14 UNL A   1      23.007  18.083   4.370  1.00  0.00    +0.000 H 
BRANCH   20   19
ATOM     19  C12 UNL A   1      24.473  16.916   5.362  1.00  0.00    +0.000 C 
ATOM    102  H12 UNL A   1      24.826  15.954   5.053  1.00  0.00    +0.000 H 
ATOM    103  H13 UNL A   1      25.101  17.686   4.964  1.00  0.00    +0.000 H 
BRANCH   19   18
ATOM     18  N4  UNL A   1      24.504  16.993   6.810  1.00  0.00    +0.000 N 
ATOM    101  H11 UNL A   1      24.402  16.128   7.268  1.00  0.00    +0.000 H 
BRANCH   18   16
ATOM     17  O2  UNL A   1      24.056  19.098   7.334  1.00  0.00    +0.000 O 
ATOM     16  C11 UNL A   1      24.653  18.061   7.641  1.00  0.00    +0.000 C 
BRANCH   16    2
ATOM      2  C2  UNL A   1      25.513  18.004   8.909  1.00  0.00    +0.000 C 
ATOM     94  H4  UNL A   1      25.203  17.199   9.541  1.00  0.00    +0.000 H 
BRANCH    2    1
ATOM      1  C1  UNL A   1      26.962  17.624   8.622  1.00  0.00    +0.000 C 
ATOM     91  H1  UNL A   1      27.430  18.405   8.059  1.00  0.00    +0.000 H 
ATOM     92  H2  UNL A   1      26.988  16.714   8.060  1.00  0.00    +0.000 H 
ATOM     93  H3  UNL A   1      27.484  17.488   9.546  1.00  0.00    +0.000 H 
ENDBRANCH    2    1
BRANCH    2    3
ATOM      3  S1  UNL A   1      25.246  19.548   9.853  1.00  0.00    +0.000 S 
BRANCH    3    4
ATOM     97  H7  UNL A   1      22.060  15.740  15.721  1.00  0.00    +0.000 H 
ATOM     98  H8  UNL A   1      22.110  18.147  15.385  1.00  0.00    +0.000 H 
ATOM      4  C3  UNL A   1      24.340  18.975  11.230  1.00  0.00    +0.000 C 
ATOM      5  N1  UNL A   1      24.266  17.693  11.385  1.00  0.00    +0.000 N 
ATOM      6  C4  UNL A   1      23.642  17.202  12.539  1.00  0.00    +0.000 C 
ATOM      7  C5  UNL A   1      23.601  15.821  12.743  1.00  0.00    +0.000 C 
ATOM      8  C6  UNL A   1      23.027  15.287  13.901  1.00  0.00    +0.000 C 
ATOM      9  C7  UNL A   1      22.484  16.134  14.867  1.00  0.00    +0.000 C 
ATOM     10  C8  UNL A   1      22.514  17.515  14.676  1.00  0.00    +0.000 C 
ATOM     11  C9  UNL A   1      23.095  18.038  13.514  1.00  0.00    +0.000 C 
ATOM     12  C10 UNL A   1      23.175  19.493  13.299  1.00  0.00    +0.000 C 
ATOM     13  O1  UNL A   1      22.723  20.280  14.131  1.00  0.00    +0.000 O 
ATOM     14  N2  UNL A   1      23.813  19.898  12.126  1.00  0.00    +0.000 N 
ATOM     95  H5  UNL A   1      23.998  15.187  12.031  1.00  0.00    +0.000 H 
ATOM     96  H6  UNL A   1      23.006  14.265  14.042  1.00  0.00    +0.000 H 
BRANCH   14   15
ATOM     99  H9  UNL A   1      24.286  21.893  12.607  1.00  0.00    +0.000 H 
ATOM    100  H10 UNL A   1      23.608  21.699  11.054  1.00  0.00    +0.000 H 
ATOM     15  N3  UNL A   1      23.912  21.311  11.906  1.00  0.00    +0.000 N 
ENDBRANCH   14   15
ENDBRANCH    3    4
ENDBRANCH    2    3
ENDBRANCH   16    2
ENDBRANCH   18   16
ENDBRANCH   19   18
ENDBRANCH   20   19
ENDBRANCH   21   20
ENDBRANCH   22   21
ENDBRANCH   23   22
ENDBRANCH   24   23
ENDBRANCH   25   24
ENDBRANCH   26   25
ENDBRANCH   28   26
ENDBRANCH   32   31
BRANCH   36   37
ATOM     37  C27 UNL A   1      18.382  21.829   3.320  1.00  0.00    +0.000 C 
ATOM     38  C28 UNL A   1      19.233  22.913   3.581  1.00  0.00    +0.000 C 
ATOM     39  F1  UNL A   1      19.361  23.387   4.830  1.00  0.00    +0.000 F 
ATOM     40  C29 UNL A   1      19.925  23.545   2.551  1.00  0.00    +0.000 C 
ATOM     41  F2  UNL A   1      20.692  24.612   2.817  1.00  0.00    +0.000 F 
ATOM     42  C30 UNL A   1      19.808  23.083   1.249  1.00  0.00    +0.000 C 
ATOM     43  F3  UNL A   1      20.477  23.690   0.259  1.00  0.00    +0.000 F 
ATOM     44  C31 UNL A   1      18.992  21.997   0.971  1.00  0.00    +0.000 C 
ATOM     45  F4  UNL A   1      18.887  21.543  -0.285  1.00  0.00    +0.000 F 
ATOM     46  C32 UNL A   1      18.275  21.382   1.995  1.00  0.00    +0.000 C 
ATOM     47  F5  UNL A   1      17.480  20.345   1.692  1.00  0.00    +0.000 F 
ENDBRANCH   36   37
BRANCH   53   54
ATOM     54  C38 UNL A   1      12.306  22.773   7.088  1.00  0.00    +0.000 C 
ATOM     55  C39 UNL A   1      12.339  23.942   7.861  1.00  0.00    +0.000 C 
ATOM     56  F6  UNL A   1      13.398  24.206   8.643  1.00  0.00    +0.000 F 
ATOM     57  C40 UNL A   1      11.266  24.829   7.862  1.00  0.00    +0.000 C 
ATOM     58  F7  UNL A   1      11.301  25.919   8.641  1.00  0.00    +0.000 F 
ATOM     59  C41 UNL A   1      10.156  24.580   7.069  1.00  0.00    +0.000 C 
ATOM     60  F8  UNL A   1       9.127  25.440   7.065  1.00  0.00    +0.000 F 
ATOM     61  C42 UNL A   1      10.109  23.439   6.284  1.00  0.00    +0.000 C 
ATOM     62  F9  UNL A   1       9.043  23.202   5.508  1.00  0.00    +0.000 F 
ATOM     63  C43 UNL A   1      11.169  22.537   6.301  1.00  0.00    +0.000 C 
ATOM     64  F10 UNL A   1      11.091  21.435   5.540  1.00  0.00    +0.000 F 
ENDBRANCH   53   54
BRANCH   68   69
ATOM     69  C47 UNL A   1      13.853  17.132  10.874  1.00  0.00    +0.000 C 
ATOM     70  C48 UNL A   1      12.898  16.130  10.658  1.00  0.00    +0.000 C 
ATOM     71  F11 UNL A   1      12.549  15.797   9.407  1.00  0.00    +0.000 F 
ATOM     72  C49 UNL A   1      12.273  15.490  11.725  1.00  0.00    +0.000 C 
ATOM     73  F12 UNL A   1      11.335  14.560  11.491  1.00  0.00    +0.000 F 
ATOM     74  C50 UNL A   1      12.609  15.822  13.030  1.00  0.00    +0.000 C 
ATOM     75  F13 UNL A   1      12.012  15.201  14.056  1.00  0.00    +0.000 F 
ATOM     76  C51 UNL A   1      13.562  16.802  13.267  1.00  0.00    +0.000 C 
ATOM     77  F14 UNL A   1      13.898  17.117  14.525  1.00  0.00    +0.000 F 
ATOM     78  C52 UNL A   1      14.169  17.460  12.200  1.00  0.00    +0.000 C 
ATOM     79  F15 UNL A   1      15.080  18.409  12.459  1.00  0.00    +0.000 F 
ENDBRANCH   68   69
TORSDOF 19
ENDMDL
MODEL 10
REMARK VINA RESULT:      -8.6     22.118     27.753
ROOT
ATOM     32  C23 UNL A   1      24.822 -12.282  30.207  1.00  0.00    +0.000 C 
ATOM     33  C24 UNL A   1      25.861 -13.318  30.533  1.00  0.00    +0.000 C 
ATOM     34  N6  UNL A   1      26.182 -13.832  31.693  1.00  0.00    +0.000 N 
ATOM     35  C25 UNL A   1      27.164 -14.777  31.428  1.00  0.00    +0.000 C 
ATOM     36  C26 UNL A   1      27.860 -15.539  32.304  1.00  0.00    +0.000 C 
ATOM     48  C33 UNL A   1      27.692 -15.492  33.733  1.00  0.00    +0.000 C 
ATOM     49  C34 UNL A   1      28.395 -16.177  34.708  1.00  0.00    +0.000 C 
ATOM     50  C35 UNL A   1      27.853 -15.842  35.955  1.00  0.00    +0.000 C 
ATOM     51  C36 UNL A   1      26.841 -14.915  35.758  1.00  0.00    +0.000 C 
ATOM     52  N7  UNL A   1      26.751 -14.713  34.390  1.00  0.00    +0.000 N 
ATOM     53  C37 UNL A   1      26.018 -14.263  36.743  1.00  0.00    +0.000 C 
ATOM     65  C44 UNL A   1      25.049 -13.355  36.471  1.00  0.00    +0.000 C 
ATOM     66  N8  UNL A   1      24.642 -12.857  35.241  1.00  0.00    +0.000 N 
ATOM     67  C45 UNL A   1      23.672 -12.015  35.496  1.00  0.00    +0.000 C 
ATOM     68  C46 UNL A   1      22.878 -11.165  34.543  1.00  0.00    +0.000 C 
ATOM     80  C53 UNL A   1      23.166 -11.204  33.228  1.00  0.00    +0.000 C 
ATOM     81  C54 UNL A   1      22.491 -10.432  32.189  1.00  0.00    +0.000 C 
ATOM     82  C55 UNL A   1      23.012 -10.756  30.995  1.00  0.00    +0.000 C 
ATOM     83  C56 UNL A   1      24.082 -11.734  31.189  1.00  0.00    +0.000 C 
ATOM     84  N9  UNL A   1      24.107 -11.936  32.546  1.00  0.00    +0.000 N 
ATOM     85  C57 UNL A   1      23.334 -11.902  36.922  1.00  0.00    +0.000 C 
ATOM     86  C58 UNL A   1      24.227 -12.711  37.474  1.00  0.00    +0.000 C 
ATOM     87  C59 UNL A   1      27.352 -14.800  29.994  1.00  0.00    +0.000 C 
ATOM     88  C60 UNL A   1      26.618 -13.870  29.400  1.00  0.00    +0.000 C 
ATOM    117  H27 UNL A   1      29.184 -16.822  34.546  1.00  0.00    +0.000 H 
ATOM    118  H28 UNL A   1      28.155 -16.221  36.866  1.00  0.00    +0.000 H 
ATOM    119  H29 UNL A   1      26.113 -14.106  33.949  1.00  0.00    +0.000 H 
ATOM    120  H30 UNL A   1      21.735  -9.748  32.348  1.00  0.00    +0.000 H 
ATOM    121  H31 UNL A   1      22.707 -10.375  30.086  1.00  0.00    +0.000 H 
ATOM    122  H32 UNL A   1      24.739 -12.547  32.990  1.00  0.00    +0.000 H 
ATOM    123  H33 UNL A   1      22.595 -11.340  37.374  1.00  0.00    +0.000 H 
ATOM    124  H34 UNL A   1      24.324 -12.863  38.491  1.00  0.00    +0.000 H 
ATOM    125  H35 UNL A   1      27.975 -15.456  29.497  1.00  0.00    +0.000 H 
ATOM    126  H36 UNL A   1      26.587 -13.603  28.404  1.00  0.00    +0.000 H 
ENDROOT
BRANCH   32   31
ATOM    115  H25 UNL A   1      22.896 -12.922  26.052  1.00  0.00    +0.000 H 
ATOM    116  H26 UNL A   1      23.211 -13.491  28.392  1.00  0.00    +0.000 H 
ATOM     89  C61 UNL A   1      25.173 -10.771  28.253  1.00  0.00    +0.000 C 
ATOM     90  C62 UNL A   1      24.931 -10.402  26.932  1.00  0.00    +0.000 C 
ATOM    127  H37 UNL A   1      25.809 -10.203  28.836  1.00  0.00    +0.000 H 
ATOM     28  C19 UNL A   1      24.147 -11.220  26.114  1.00  0.00    +0.000 C 
ATOM     29  C20 UNL A   1      23.509 -12.342  26.648  1.00  0.00    +0.000 C 
ATOM     30  C21 UNL A   1      23.701 -12.677  27.990  1.00  0.00    +0.000 C 
ATOM     31  C22 UNL A   1      24.558 -11.910  28.795  1.00  0.00    +0.000 C 
ATOM    128  H38 UNL A   1      25.329  -9.525  26.560  1.00  0.00    +0.000 H 
BRANCH   28   26
ATOM     26  C18 UNL A   1      23.966 -10.912  24.679  1.00  0.00    +0.000 C 
ATOM     27  O3  UNL A   1      23.430  -9.858  24.347  1.00  0.00    +0.000 O 
BRANCH   26   25
ATOM     25  N5  UNL A   1      24.377 -11.810  23.728  1.00  0.00    +0.000 N 
ATOM    114  H24 UNL A   1      23.656 -12.297  23.267  1.00  0.00    +0.000 H 
BRANCH   25   24
ATOM    113  H23 UNL A   1      25.709 -12.294  22.245  1.00  0.00    +0.000 H 
ATOM    112  H22 UNL A   1      26.041 -13.025  23.821  1.00  0.00    +0.000 H 
ATOM     24  C17 UNL A   1      25.727 -12.144  23.304  1.00  0.00    +0.000 C 
BRANCH   24   23
ATOM    111  H21 UNL A   1      26.167 -10.254  24.096  1.00  0.00    +0.000 H 
ATOM    110  H20 UNL A   1      27.147 -10.705  22.670  1.00  0.00    +0.000 H 
ATOM     23  C16 UNL A   1      26.720 -11.024  23.598  1.00  0.00    +0.000 C 
BRANCH   23   22
ATOM    108  H18 UNL A   1      27.545 -11.213  25.544  1.00  0.00    +0.000 H 
ATOM    109  H19 UNL A   1      28.071 -12.439  24.350  1.00  0.00    +0.000 H 
ATOM     22  C15 UNL A   1      27.864 -11.408  24.541  1.00  0.00    +0.000 C 
BRANCH   22   21
ATOM    106  H16 UNL A   1      29.747 -10.696  25.216  1.00  0.00    +0.000 H 
ATOM    107  H17 UNL A   1      29.660 -11.150  23.487  1.00  0.00    +0.000 H 
ATOM     21  C14 UNL A   1      29.181 -10.660  24.309  1.00  0.00    +0.000 C 
BRANCH   21   20
ATOM    105  H15 UNL A   1      28.090  -8.856  24.279  1.00  0.00    +0.000 H 
ATOM     20  C13 UNL A   1      29.034  -9.189  23.901  1.00  0.00    +0.000 C 
ATOM    104  H14 UNL A   1      29.096  -9.129  22.834  1.00  0.00    +0.000 H 
BRANCH   20   19
ATOM     19  C12 UNL A   1      30.096  -8.268  24.495  1.00  0.00    +0.000 C 
ATOM    102  H12 UNL A   1      30.962  -8.280  23.866  1.00  0.00    +0.000 H 
ATOM    103  H13 UNL A   1      29.695  -7.277  24.557  1.00  0.00    +0.000 H 
BRANCH   19   18
ATOM     18  N4  UNL A   1      30.469  -8.703  25.828  1.00  0.00    +0.000 N 
ATOM    101  H11 UNL A   1      31.063  -9.487  25.852  1.00  0.00    +0.000 H 
BRANCH   18   16
ATOM     17  O2  UNL A   1      30.929  -7.412  27.569  1.00  0.00    +0.000 O 
ATOM     16  C11 UNL A   1      30.135  -8.206  27.051  1.00  0.00    +0.000 C 
BRANCH   16    2
ATOM      2  C2  UNL A   1      28.839  -8.593  27.771  1.00  0.00    +0.000 C 
ATOM     94  H4  UNL A   1      28.749  -8.068  28.699  1.00  0.00    +0.000 H 
BRANCH    2    1
ATOM      1  C1  UNL A   1      27.591  -8.123  27.034  1.00  0.00    +0.000 C 
ATOM     91  H1  UNL A   1      26.875  -7.759  27.741  1.00  0.00    +0.000 H 
ATOM     92  H2  UNL A   1      27.168  -8.942  26.489  1.00  0.00    +0.000 H 
ATOM     93  H3  UNL A   1      27.852  -7.339  26.355  1.00  0.00    +0.000 H 
ENDBRANCH    2    1
BRANCH    2    3
ATOM      3  S1  UNL A   1      28.922 -10.374  28.181  1.00  0.00    +0.000 S 
BRANCH    3    4
ATOM     97  H7  UNL A   1      25.826  -9.609  35.175  1.00  0.00    +0.000 H 
ATOM     98  H8  UNL A   1      27.498 -11.230  34.477  1.00  0.00    +0.000 H 
ATOM      4  C3  UNL A   1      28.501 -10.373  29.874  1.00  0.00    +0.000 C 
ATOM      5  N1  UNL A   1      27.650  -9.480  30.261  1.00  0.00    +0.000 N 
ATOM      6  C4  UNL A   1      27.206  -9.522  31.590  1.00  0.00    +0.000 C 
ATOM      7  C5  UNL A   1      26.249  -8.593  32.007  1.00  0.00    +0.000 C 
ATOM      8  C6  UNL A   1      25.745  -8.625  33.310  1.00  0.00    +0.000 C 
ATOM      9  C7  UNL A   1      26.198  -9.587  34.212  1.00  0.00    +0.000 C 
ATOM     10  C8  UNL A   1      27.156 -10.518  33.813  1.00  0.00    +0.000 C 
ATOM     11  C9  UNL A   1      27.650 -10.480  32.503  1.00  0.00    +0.000 C 
ATOM     12  C10 UNL A   1      28.636 -11.472  32.039  1.00  0.00    +0.000 C 
ATOM     13  O1  UNL A   1      29.053 -12.348  32.795  1.00  0.00    +0.000 O 
ATOM     14  N2  UNL A   1      29.024 -11.360  30.703  1.00  0.00    +0.000 N 
ATOM     95  H5  UNL A   1      25.911  -7.876  31.345  1.00  0.00    +0.000 H 
ATOM     96  H6  UNL A   1      25.035  -7.936  33.605  1.00  0.00    +0.000 H 
BRANCH   14   15
ATOM     99  H9  UNL A   1      29.673 -13.231  29.989  1.00  0.00    +0.000 H 
ATOM    100  H10 UNL A   1      30.922 -12.080  30.143  1.00  0.00    +0.000 H 
ATOM     15  N3  UNL A   1      29.972 -12.324  30.229  1.00  0.00    +0.000 N 
ENDBRANCH   14   15
ENDBRANCH    3    4
ENDBRANCH    2    3
ENDBRANCH   16    2
ENDBRANCH   18   16
ENDBRANCH   19   18
ENDBRANCH   20   19
ENDBRANCH   21   20
ENDBRANCH   22   21
ENDBRANCH   23   22
ENDBRANCH   24   23
ENDBRANCH   25   24
ENDBRANCH   26   25
ENDBRANCH   28   26
ENDBRANCH   32   31
BRANCH   36   37
ATOM     37  C27 UNL A   1      28.872 -16.493  31.737  1.00  0.00    +0.000 C 
ATOM     38  C28 UNL A   1      28.518 -17.793  31.345  1.00  0.00    +0.000 C 
ATOM     39  F1  UNL A   1      27.257 -18.226  31.502  1.00  0.00    +0.000 F 
ATOM     40  C29 UNL A   1      29.468 -18.670  30.828  1.00  0.00    +0.000 C 
ATOM     41  F2  UNL A   1      29.117 -19.923  30.510  1.00  0.00    +0.000 F 
ATOM     42  C30 UNL A   1      30.780 -18.254  30.661  1.00  0.00    +0.000 C 
ATOM     43  F3  UNL A   1      31.693 -19.098  30.161  1.00  0.00    +0.000 F 
ATOM     44  C31 UNL A   1      31.148 -16.966  31.018  1.00  0.00    +0.000 C 
ATOM     45  F4  UNL A   1      32.413 -16.559  30.845  1.00  0.00    +0.000 F 
ATOM     46  C32 UNL A   1      30.206 -16.096  31.563  1.00  0.00    +0.000 C 
ATOM     47  F5  UNL A   1      30.597 -14.862  31.916  1.00  0.00    +0.000 F 
ENDBRANCH   36   37
BRANCH   53   54
ATOM     54  C38 UNL A   1      26.262 -14.593  38.186  1.00  0.00    +0.000 C 
ATOM     55  C39 UNL A   1      27.303 -13.995  38.910  1.00  0.00    +0.000 C 
ATOM     56  F6  UNL A   1      28.145 -13.144  38.305  1.00  0.00    +0.000 F 
ATOM     57  C40 UNL A   1      27.504 -14.297  40.254  1.00  0.00    +0.000 C 
ATOM     58  F7  UNL A   1      28.530 -13.746  40.917  1.00  0.00    +0.000 F 
ATOM     59  C41 UNL A   1      26.652 -15.178  40.905  1.00  0.00    +0.000 C 
ATOM     60  F8  UNL A   1      26.844 -15.462  42.202  1.00  0.00    +0.000 F 
ATOM     61  C42 UNL A   1      25.607 -15.768  40.213  1.00  0.00    +0.000 C 
ATOM     62  F9  UNL A   1      24.777 -16.610  40.842  1.00  0.00    +0.000 F 
ATOM     63  C43 UNL A   1      25.420 -15.488  38.862  1.00  0.00    +0.000 C 
ATOM     64  F10 UNL A   1      24.406 -16.083  38.214  1.00  0.00    +0.000 F 
ENDBRANCH   53   54
BRANCH   68   69
ATOM     69  C47 UNL A   1      21.806 -10.262  35.034  1.00  0.00    +0.000 C 
ATOM     70  C48 UNL A   1      22.107  -8.964  35.469  1.00  0.00    +0.000 C 
ATOM     71  F11 UNL A   1      23.378  -8.537  35.472  1.00  0.00    +0.000 F 
ATOM     72  C49 UNL A   1      21.107  -8.112  35.932  1.00  0.00    +0.000 C 
ATOM     73  F12 UNL A   1      21.426  -6.888  36.377  1.00  0.00    +0.000 F 
ATOM     74  C50 UNL A   1      19.785  -8.531  35.947  1.00  0.00    +0.000 C 
ATOM     75  F13 UNL A   1      18.824  -7.709  36.387  1.00  0.00    +0.000 F 
ATOM     76  C51 UNL A   1      19.463  -9.808  35.510  1.00  0.00    +0.000 C 
ATOM     77  F14 UNL A   1      18.187 -10.213  35.511  1.00  0.00    +0.000 F 
ATOM     78  C52 UNL A   1      20.465 -10.670  35.069  1.00  0.00    +0.000 C 
ATOM     79  F15 UNL A   1      20.127 -11.901  34.660  1.00  0.00    +0.000 F 
ENDBRANCH   68   69
TORSDOF 19
ENDMDL
