MODEL 1
REMARK VINA RESULT:      -9.6      0.000      0.000
ROOT
ATOM    138  H33 UNL A   1      46.977  27.862  30.554  1.00  0.00    +0.000 H 
ATOM    139  H34 UNL A   1      45.519  28.082  32.774  1.00  0.00    +0.000 H 
ATOM    140  H35 UNL A   1      44.767  31.212  30.361  1.00  0.00    +0.000 H 
ATOM    141  H36 UNL A   1      37.472  27.329  30.491  1.00  0.00    +0.000 H 
ATOM    142  H37 UNL A   1      39.002  25.439  29.731  1.00  0.00    +0.000 H 
ATOM    143  H38 UNL A   1      41.326  28.876  29.973  1.00  0.00    +0.000 H 
ATOM    144  H39 UNL A   1      40.400  31.856  29.131  1.00  0.00    +0.000 H 
ATOM    145  H40 UNL A   1      42.864  31.516  29.812  1.00  0.00    +0.000 H 
ATOM    146  H41 UNL A   1      44.657  27.981  25.855  1.00  0.00    +0.000 H 
ATOM    147  H42 UNL A   1      42.383  26.792  26.051  1.00  0.00    +0.000 H 
ATOM     47  C36 UNL A   1      41.566  26.382  28.765  1.00  0.00    +0.000 C 
ATOM     48  C37 UNL A   1      42.754  27.129  28.265  1.00  0.00    +0.000 C 
ATOM     49  N8  UNL A   1      43.707  27.673  28.952  1.00  0.00    +0.000 N 
ATOM     50  C38 UNL A   1      44.539  28.299  28.024  1.00  0.00    +0.000 C 
ATOM     51  C39 UNL A   1      45.349  29.334  28.382  1.00  0.00    +0.000 C 
ATOM     63  C46 UNL A   1      45.584  29.347  29.803  1.00  0.00    +0.000 C 
ATOM     64  C47 UNL A   1      46.162  28.477  30.707  1.00  0.00    +0.000 C 
ATOM     65  C48 UNL A   1      45.388  28.612  31.898  1.00  0.00    +0.000 C 
ATOM     66  C49 UNL A   1      44.423  29.590  31.664  1.00  0.00    +0.000 C 
ATOM     67  N9  UNL A   1      44.896  30.258  30.566  1.00  0.00    +0.000 N 
ATOM     68  C50 UNL A   1      43.151  29.881  32.274  1.00  0.00    +0.000 C 
ATOM     80  C57 UNL A   1      42.136  30.556  31.661  1.00  0.00    +0.000 C 
ATOM     81  N10 UNL A   1      40.825  30.412  32.088  1.00  0.00    +0.000 N 
ATOM     82  C58 UNL A   1      40.104  30.656  31.027  1.00  0.00    +0.000 C 
ATOM     83  C59 UNL A   1      38.873  29.900  30.685  1.00  0.00    +0.000 C 
ATOM     95  C66 UNL A   1      39.253  28.636  30.369  1.00  0.00    +0.000 C 
ATOM     96  C67 UNL A   1      38.474  27.422  30.263  1.00  0.00    +0.000 C 
ATOM     97  C68 UNL A   1      39.274  26.430  29.818  1.00  0.00    +0.000 C 
ATOM     98  C69 UNL A   1      40.587  26.978  29.476  1.00  0.00    +0.000 C 
ATOM     99  N11 UNL A   1      40.546  28.275  29.942  1.00  0.00    +0.000 N 
ATOM    100  C70 UNL A   1      40.781  31.369  29.957  1.00  0.00    +0.000 C 
ATOM    101  C71 UNL A   1      42.045  31.211  30.359  1.00  0.00    +0.000 C 
ATOM    102  C72 UNL A   1      44.128  27.829  26.729  1.00  0.00    +0.000 C 
ATOM    103  C73 UNL A   1      42.972  27.172  26.810  1.00  0.00    +0.000 C 
ENDROOT
BRANCH   47   46
ATOM    104  C74 UNL A   1      42.303  24.018  28.825  1.00  0.00    +0.000 C 
ATOM    105  C75 UNL A   1      42.176  22.712  28.372  1.00  0.00    +0.000 C 
ATOM    136  H31 UNL A   1      39.570  23.101  26.309  1.00  0.00    +0.000 H 
ATOM     43  C32 UNL A   1      41.220  22.367  27.397  1.00  0.00    +0.000 C 
ATOM     44  C33 UNL A   1      40.330  23.351  26.961  1.00  0.00    +0.000 C 
ATOM     45  C34 UNL A   1      40.461  24.665  27.401  1.00  0.00    +0.000 C 
ATOM    137  H32 UNL A   1      39.808  25.390  27.062  1.00  0.00    +0.000 H 
ATOM     46  C35 UNL A   1      41.474  25.002  28.297  1.00  0.00    +0.000 C 
ATOM    148  H43 UNL A   1      43.005  24.255  29.543  1.00  0.00    +0.000 H 
ATOM    149  H44 UNL A   1      42.791  21.980  28.759  1.00  0.00    +0.000 H 
BRANCH   43    2
ATOM      1  O1  UNL A   1      40.274  20.342  26.693  1.00  0.00    +0.000 O 
ATOM      2  C1  UNL A   1      41.316  20.976  26.877  1.00  0.00    +0.000 C 
BRANCH    2    3
ATOM    106  H1  UNL A   1      42.773  19.774  27.421  1.00  0.00    +0.000 H 
ATOM      3  N1  UNL A   1      42.479  20.301  26.643  1.00  0.00    +0.000 N 
BRANCH    3    4
ATOM    108  H3  UNL A   1      43.975  19.307  25.692  1.00  0.00    +0.000 H 
ATOM    107  H2  UNL A   1      42.796  20.109  24.626  1.00  0.00    +0.000 H 
ATOM      4  C2  UNL A   1      43.380  20.180  25.519  1.00  0.00    +0.000 C 
BRANCH    4    5
ATOM    109  H4  UNL A   1      45.147  21.044  24.726  1.00  0.00    +0.000 H 
ATOM      5  C3  UNL A   1      44.348  21.353  25.367  1.00  0.00    +0.000 C 
ATOM    110  H5  UNL A   1      44.671  21.606  26.356  1.00  0.00    +0.000 H 
BRANCH    5    6
ATOM      6  C4  UNL A   1      43.732  22.628  24.778  1.00  0.00    +0.000 C 
ATOM    111  H6  UNL A   1      42.669  22.547  24.861  1.00  0.00    +0.000 H 
ATOM    112  H7  UNL A   1      44.087  22.683  23.769  1.00  0.00    +0.000 H 
BRANCH    6    7
ATOM    113  H8  UNL A   1      44.322  23.749  26.480  1.00  0.00    +0.000 H 
ATOM    114  H9  UNL A   1      43.366  24.636  25.251  1.00  0.00    +0.000 H 
ATOM      7  C5  UNL A   1      44.158  23.942  25.440  1.00  0.00    +0.000 C 
BRANCH    7    8
ATOM    115  H10 UNL A   1      45.137  25.441  24.300  1.00  0.00    +0.000 H 
ATOM    116  H11 UNL A   1      45.913  23.831  24.291  1.00  0.00    +0.000 H 
ATOM      8  C6  UNL A   1      45.426  24.585  24.874  1.00  0.00    +0.000 C 
BRANCH    8    9
ATOM      9  C7  UNL A   1      46.438  25.037  25.922  1.00  0.00    +0.000 C 
ATOM    117  H12 UNL A   1      46.989  24.183  26.257  1.00  0.00    +0.000 H 
ATOM    118  H13 UNL A   1      45.895  25.493  26.724  1.00  0.00    +0.000 H 
BRANCH    9   10
ATOM     10  N2  UNL A   1      47.374  26.022  25.404  1.00  0.00    +0.000 N 
ATOM    119  H14 UNL A   1      47.499  26.018  24.428  1.00  0.00    +0.000 H 
BRANCH   10   11
ATOM     11  C8  UNL A   1      48.104  26.957  26.092  1.00  0.00    +0.000 C 
ATOM     12  O2  UNL A   1      48.142  28.126  25.713  1.00  0.00    +0.000 O 
BRANCH   11   13
ATOM    134  H29 UNL A   1      51.634  25.029  28.322  1.00  0.00    +0.000 H 
ATOM    135  H30 UNL A   1      50.508  25.756  26.293  1.00  0.00    +0.000 H 
ATOM     41  C30 UNL A   1      50.715  25.496  28.377  1.00  0.00    +0.000 C 
ATOM     42  C31 UNL A   1      50.073  25.916  27.215  1.00  0.00    +0.000 C 
ATOM     13  C9  UNL A   1      48.834  26.556  27.310  1.00  0.00    +0.000 C 
ATOM     14  C10 UNL A   1      48.260  26.824  28.558  1.00  0.00    +0.000 C 
ATOM     15  C11 UNL A   1      48.878  26.368  29.724  1.00  0.00    +0.000 C 
ATOM     16  C12 UNL A   1      50.105  25.710  29.627  1.00  0.00    +0.000 C 
ATOM    120  H15 UNL A   1      47.380  27.360  28.618  1.00  0.00    +0.000 H 
ATOM    121  H16 UNL A   1      48.434  26.513  30.644  1.00  0.00    +0.000 H 
BRANCH   16   17
ATOM     39  N6  UNL A   1      52.385  25.176  32.264  1.00  0.00    +0.000 N 
ATOM     40  N7  UNL A   1      52.114  25.560  31.015  1.00  0.00    +0.000 N 
ATOM     17  N3  UNL A   1      50.798  25.362  30.800  1.00  0.00    +0.000 N 
ATOM     18  C13 UNL A   1      50.238  24.779  31.899  1.00  0.00    +0.000 C 
ATOM     19  C14 UNL A   1      51.248  24.624  32.811  1.00  0.00    +0.000 C 
ATOM    122  H17 UNL A   1      49.249  24.510  32.019  1.00  0.00    +0.000 H 
BRANCH   19   20
ATOM    124  H19 UNL A   1      51.079  23.167  34.149  1.00  0.00    +0.000 H 
ATOM    123  H18 UNL A   1      52.014  24.677  34.710  1.00  0.00    +0.000 H 
ATOM     20  C15 UNL A   1      51.165  24.231  34.237  1.00  0.00    +0.000 C 
BRANCH   20   21
ATOM     21  S1  UNL A   1      49.768  24.594  35.304  1.00  0.00    +0.000 S 
BRANCH   21   22
ATOM    127  H22 UNL A   1      42.533  22.837  33.637  1.00  0.00    +0.000 H 
ATOM    126  H21 UNL A   1      43.413  24.564  32.172  1.00  0.00    +0.000 H 
ATOM    128  H23 UNL A   1      44.014  21.735  35.225  1.00  0.00    +0.000 H 
ATOM    125  H20 UNL A   1      45.694  25.354  32.449  1.00  0.00    +0.000 H 
ATOM     22  C16 UNL A   1      48.308  23.743  34.881  1.00  0.00    +0.000 C 
ATOM     23  N4  UNL A   1      47.448  24.510  34.271  1.00  0.00    +0.000 N 
ATOM     24  C17 UNL A   1      46.181  23.988  33.979  1.00  0.00    +0.000 C 
ATOM     25  C18 UNL A   1      45.342  24.583  33.038  1.00  0.00    +0.000 C 
ATOM     26  C19 UNL A   1      44.020  24.139  32.890  1.00  0.00    +0.000 C 
ATOM     27  C20 UNL A   1      43.522  23.123  33.709  1.00  0.00    +0.000 C 
ATOM     28  C21 UNL A   1      44.366  22.495  34.621  1.00  0.00    +0.000 C 
ATOM     29  C22 UNL A   1      45.697  22.912  34.707  1.00  0.00    +0.000 C 
ATOM     30  C23 UNL A   1      46.699  22.175  35.486  1.00  0.00    +0.000 C 
ATOM     31  O3  UNL A   1      46.315  21.428  36.384  1.00  0.00    +0.000 O 
ATOM     32  N5  UNL A   1      48.030  22.408  35.120  1.00  0.00    +0.000 N 
BRANCH   32   33
ATOM     33  C24 UNL A   1      48.941  21.282  35.100  1.00  0.00    +0.000 C 
ATOM     34  C25 UNL A   1      49.409  20.744  36.319  1.00  0.00    +0.000 C 
ATOM    129  H24 UNL A   1      48.943  21.018  37.196  1.00  0.00    +0.000 H 
ATOM     35  C26 UNL A   1      50.485  19.854  36.375  1.00  0.00    +0.000 C 
ATOM    133  H28 UNL A   1      48.967  20.854  33.035  1.00  0.00    +0.000 H 
ATOM     38  C29 UNL A   1      49.435  20.678  33.939  1.00  0.00    +0.000 C 
ATOM     37  C28 UNL A   1      50.558  19.837  33.985  1.00  0.00    +0.000 C 
ATOM    130  H25 UNL A   1      50.814  19.496  37.285  1.00  0.00    +0.000 H 
ATOM     36  C27 UNL A   1      51.106  19.456  35.203  1.00  0.00    +0.000 C 
ATOM    132  H27 UNL A   1      50.979  19.498  33.106  1.00  0.00    +0.000 H 
ATOM    131  H26 UNL A   1      51.964  18.884  35.235  1.00  0.00    +0.000 H 
ENDBRANCH   32   33
ENDBRANCH   21   22
ENDBRANCH   20   21
ENDBRANCH   19   20
ENDBRANCH   16   17
ENDBRANCH   11   13
ENDBRANCH   10   11
ENDBRANCH    9   10
ENDBRANCH    8    9
ENDBRANCH    7    8
ENDBRANCH    6    7
ENDBRANCH    5    6
ENDBRANCH    4    5
ENDBRANCH    3    4
ENDBRANCH    2    3
ENDBRANCH   43    2
ENDBRANCH   47   46
BRANCH   51   52
ATOM     52  C40 UNL A   1      45.601  30.555  27.522  1.00  0.00    +0.000 C 
ATOM     53  C41 UNL A   1      46.917  31.057  27.423  1.00  0.00    +0.000 C 
ATOM     54  F1  UNL A   1      47.964  30.313  27.808  1.00  0.00    +0.000 F 
ATOM     55  C42 UNL A   1      47.181  32.372  27.031  1.00  0.00    +0.000 C 
ATOM     56  F2  UNL A   1      48.432  32.847  27.097  1.00  0.00    +0.000 F 
ATOM     57  C43 UNL A   1      46.149  33.211  26.654  1.00  0.00    +0.000 C 
ATOM     58  F3  UNL A   1      46.389  34.494  26.353  1.00  0.00    +0.000 F 
ATOM     59  C44 UNL A   1      44.859  32.727  26.639  1.00  0.00    +0.000 C 
ATOM     60  F4  UNL A   1      43.844  33.528  26.283  1.00  0.00    +0.000 F 
ATOM     61  C45 UNL A   1      44.587  31.432  27.077  1.00  0.00    +0.000 C 
ATOM     62  F5  UNL A   1      43.289  31.123  27.147  1.00  0.00    +0.000 F 
ENDBRANCH   51   52
BRANCH   68   69
ATOM     69  C51 UNL A   1      42.842  29.181  33.566  1.00  0.00    +0.000 C 
ATOM     70  C52 UNL A   1      42.432  27.838  33.645  1.00  0.00    +0.000 C 
ATOM     71  F6  UNL A   1      42.261  27.107  32.535  1.00  0.00    +0.000 F 
ATOM     72  C53 UNL A   1      42.252  27.211  34.877  1.00  0.00    +0.000 C 
ATOM     73  F7  UNL A   1      41.851  25.932  34.927  1.00  0.00    +0.000 F 
ATOM     74  C54 UNL A   1      42.526  27.894  36.051  1.00  0.00    +0.000 C 
ATOM     75  F8  UNL A   1      42.397  27.278  37.233  1.00  0.00    +0.000 F 
ATOM     76  C55 UNL A   1      42.966  29.208  35.996  1.00  0.00    +0.000 C 
ATOM     77  F9  UNL A   1      43.282  29.855  37.125  1.00  0.00    +0.000 F 
ATOM     78  C56 UNL A   1      43.110  29.848  34.768  1.00  0.00    +0.000 C 
ATOM     79  F10 UNL A   1      43.562  31.111  34.750  1.00  0.00    +0.000 F 
ENDBRANCH   68   69
BRANCH   83   84
ATOM     84  C60 UNL A   1      37.587  30.570  30.381  1.00  0.00    +0.000 C 
ATOM     85  C61 UNL A   1      36.750  31.042  31.404  1.00  0.00    +0.000 C 
ATOM     86  F11 UNL A   1      36.993  30.710  32.681  1.00  0.00    +0.000 F 
ATOM     87  C62 UNL A   1      35.691  31.918  31.140  1.00  0.00    +0.000 C 
ATOM     88  F12 UNL A   1      34.948  32.394  32.149  1.00  0.00    +0.000 F 
ATOM     89  C63 UNL A   1      35.440  32.344  29.846  1.00  0.00    +0.000 C 
ATOM     90  F13 UNL A   1      34.465  33.230  29.599  1.00  0.00    +0.000 F 
ATOM     91  C64 UNL A   1      36.233  31.881  28.812  1.00  0.00    +0.000 C 
ATOM     92  F14 UNL A   1      36.026  32.316  27.562  1.00  0.00    +0.000 F 
ATOM     93  C65 UNL A   1      37.291  31.011  29.076  1.00  0.00    +0.000 C 
ATOM     94  F15 UNL A   1      38.082  30.684  28.045  1.00  0.00    +0.000 F 
ENDBRANCH   83   84
TORSDOF 20
ENDMDL
MODEL 2
REMARK VINA RESULT:      -9.4      1.354      2.463
ROOT
ATOM    138  H33 UNL A   1      46.886  28.217  30.541  1.00  0.00    +0.000 H 
ATOM    139  H34 UNL A   1      45.411  28.374  32.755  1.00  0.00    +0.000 H 
ATOM    140  H35 UNL A   1      44.598  31.516  30.376  1.00  0.00    +0.000 H 
ATOM    141  H36 UNL A   1      37.398  27.458  30.414  1.00  0.00    +0.000 H 
ATOM    142  H37 UNL A   1      38.977  25.615  29.640  1.00  0.00    +0.000 H 
ATOM    143  H38 UNL A   1      41.216  29.103  29.939  1.00  0.00    +0.000 H 
ATOM    144  H39 UNL A   1      40.224  32.070  29.129  1.00  0.00    +0.000 H 
ATOM    145  H40 UNL A   1      42.692  31.781  29.819  1.00  0.00    +0.000 H 
ATOM    146  H41 UNL A   1      44.591  28.339  25.830  1.00  0.00    +0.000 H 
ATOM    147  H42 UNL A   1      42.346  27.094  25.997  1.00  0.00    +0.000 H 
ATOM     47  C36 UNL A   1      41.523  26.631  28.701  1.00  0.00    +0.000 C 
ATOM     48  C37 UNL A   1      42.696  27.413  28.217  1.00  0.00    +0.000 C 
ATOM     49  N8  UNL A   1      43.631  27.971  28.918  1.00  0.00    +0.000 N 
ATOM     50  C38 UNL A   1      44.454  28.628  28.002  1.00  0.00    +0.000 C 
ATOM     51  C39 UNL A   1      45.237  29.678  28.378  1.00  0.00    +0.000 C 
ATOM     63  C46 UNL A   1      45.463  29.678  29.801  1.00  0.00    +0.000 C 
ATOM     64  C47 UNL A   1      46.056  28.811  30.697  1.00  0.00    +0.000 C 
ATOM     65  C48 UNL A   1      45.273  28.912  31.885  1.00  0.00    +0.000 C 
ATOM     66  C49 UNL A   1      44.286  29.870  31.657  1.00  0.00    +0.000 C 
ATOM     67  N9  UNL A   1      44.749  30.562  30.570  1.00  0.00    +0.000 N 
ATOM     68  C50 UNL A   1      43.004  30.122  32.263  1.00  0.00    +0.000 C 
ATOM     80  C57 UNL A   1      41.977  30.781  31.652  1.00  0.00    +0.000 C 
ATOM     81  N10 UNL A   1      40.666  30.600  32.069  1.00  0.00    +0.000 N 
ATOM     82  C58 UNL A   1      39.946  30.840  31.008  1.00  0.00    +0.000 C 
ATOM     83  C59 UNL A   1      38.736  30.059  30.649  1.00  0.00    +0.000 C 
ATOM     95  C66 UNL A   1      39.148  28.809  30.319  1.00  0.00    +0.000 C 
ATOM     96  C67 UNL A   1      38.398  27.578  30.193  1.00  0.00    +0.000 C 
ATOM     97  C68 UNL A   1      39.225  26.611  29.741  1.00  0.00    +0.000 C 
ATOM     98  C69 UNL A   1      40.526  27.195  29.414  1.00  0.00    +0.000 C 
ATOM     99  N11 UNL A   1      40.451  28.485  29.895  1.00  0.00    +0.000 N 
ATOM    100  C70 UNL A   1      40.612  31.583  29.951  1.00  0.00    +0.000 C 
ATOM    101  C71 UNL A   1      41.877  31.449  30.358  1.00  0.00    +0.000 C 
ATOM    102  C72 UNL A   1      44.062  28.165  26.699  1.00  0.00    +0.000 C 
ATOM    103  C73 UNL A   1      42.921  27.479  26.765  1.00  0.00    +0.000 C 
ENDROOT
BRANCH   47   46
ATOM    104  C74 UNL A   1      42.314  24.284  28.739  1.00  0.00    +0.000 C 
ATOM    105  C75 UNL A   1      42.220  22.981  28.269  1.00  0.00    +0.000 C 
ATOM    136  H31 UNL A   1      39.624  23.336  26.188  1.00  0.00    +0.000 H 
ATOM     43  C32 UNL A   1      41.281  22.627  27.281  1.00  0.00    +0.000 C 
ATOM     44  C33 UNL A   1      40.372  23.595  26.850  1.00  0.00    +0.000 C 
ATOM     45  C34 UNL A   1      40.470  24.906  27.306  1.00  0.00    +0.000 C 
ATOM    137  H32 UNL A   1      39.803  25.620  26.971  1.00  0.00    +0.000 H 
ATOM     46  C35 UNL A   1      41.467  25.256  28.216  1.00  0.00    +0.000 C 
ATOM    148  H43 UNL A   1      43.004  24.528  29.466  1.00  0.00    +0.000 H 
ATOM    149  H44 UNL A   1      42.849  22.258  28.652  1.00  0.00    +0.000 H 
BRANCH   43    2
ATOM      1  O1  UNL A   1      40.387  20.610  26.491  1.00  0.00    +0.000 O 
ATOM      2  C1  UNL A   1      41.414  21.245  26.745  1.00  0.00    +0.000 C 
BRANCH    2    3
ATOM    106  H1  UNL A   1      42.817  19.999  27.332  1.00  0.00    +0.000 H 
ATOM      3  N1  UNL A   1      42.591  20.578  26.567  1.00  0.00    +0.000 N 
BRANCH    3    4
ATOM    108  H3  UNL A   1      44.217  19.687  25.734  1.00  0.00    +0.000 H 
ATOM    107  H2  UNL A   1      43.080  20.428  24.581  1.00  0.00    +0.000 H 
ATOM      4  C2  UNL A   1      43.585  20.525  25.519  1.00  0.00    +0.000 C 
BRANCH    4    5
ATOM    109  H4  UNL A   1      45.395  21.477  24.957  1.00  0.00    +0.000 H 
ATOM      5  C3  UNL A   1      44.490  21.756  25.453  1.00  0.00    +0.000 C 
ATOM    110  H5  UNL A   1      44.640  22.072  26.465  1.00  0.00    +0.000 H 
BRANCH    5    6
ATOM      6  C4  UNL A   1      43.892  22.958  24.712  1.00  0.00    +0.000 C 
ATOM    111  H6  UNL A   1      42.831  22.827  24.677  1.00  0.00    +0.000 H 
ATOM    112  H7  UNL A   1      44.361  22.968  23.750  1.00  0.00    +0.000 H 
BRANCH    6    7
ATOM    113  H8  UNL A   1      44.142  24.228  26.393  1.00  0.00    +0.000 H 
ATOM    114  H9  UNL A   1      43.433  24.990  24.935  1.00  0.00    +0.000 H 
ATOM      7  C5  UNL A   1      44.178  24.330  25.329  1.00  0.00    +0.000 C 
BRANCH    7    8
ATOM    115  H10 UNL A   1      45.341  25.846  24.403  1.00  0.00    +0.000 H 
ATOM    116  H11 UNL A   1      46.057  24.209  24.399  1.00  0.00    +0.000 H 
ATOM      8  C6  UNL A   1      45.528  24.951  24.959  1.00  0.00    +0.000 C 
BRANCH    8    9
ATOM      9  C7  UNL A   1      46.415  25.306  26.148  1.00  0.00    +0.000 C 
ATOM    117  H12 UNL A   1      46.894  24.415  26.497  1.00  0.00    +0.000 H 
ATOM    118  H13 UNL A   1      45.792  25.738  26.902  1.00  0.00    +0.000 H 
BRANCH    9   10
ATOM     10  N2  UNL A   1      47.439  26.281  25.806  1.00  0.00    +0.000 N 
ATOM    119  H14 UNL A   1      47.666  26.343  24.850  1.00  0.00    +0.000 H 
BRANCH   10   11
ATOM     11  C8  UNL A   1      48.128  27.129  26.635  1.00  0.00    +0.000 C 
ATOM     12  O2  UNL A   1      48.304  28.305  26.324  1.00  0.00    +0.000 O 
BRANCH   11   13
ATOM    134  H29 UNL A   1      51.360  25.254  29.316  1.00  0.00    +0.000 H 
ATOM    135  H30 UNL A   1      50.579  26.161  27.199  1.00  0.00    +0.000 H 
ATOM     41  C30 UNL A   1      50.396  25.611  29.228  1.00  0.00    +0.000 C 
ATOM     42  C31 UNL A   1      49.951  26.135  28.018  1.00  0.00    +0.000 C 
ATOM     13  C9  UNL A   1      48.645  26.624  27.922  1.00  0.00    +0.000 C 
ATOM     14  C10 UNL A   1      47.802  26.642  29.039  1.00  0.00    +0.000 C 
ATOM     15  C11 UNL A   1      48.228  26.079  30.244  1.00  0.00    +0.000 C 
ATOM     16  C12 UNL A   1      49.525  25.571  30.333  1.00  0.00    +0.000 C 
ATOM    120  H15 UNL A   1      46.865  27.070  28.974  1.00  0.00    +0.000 H 
ATOM    121  H16 UNL A   1      47.593  26.039  31.057  1.00  0.00    +0.000 H 
BRANCH   16   17
ATOM     39  N6  UNL A   1      51.305  24.838  33.288  1.00  0.00    +0.000 N 
ATOM     40  N7  UNL A   1      51.247  25.348  32.056  1.00  0.00    +0.000 N 
ATOM     17  N3  UNL A   1      50.008  25.122  31.575  1.00  0.00    +0.000 N 
ATOM     18  C13 UNL A   1      49.291  24.397  32.480  1.00  0.00    +0.000 C 
ATOM     19  C14 UNL A   1      50.122  24.182  33.548  1.00  0.00    +0.000 C 
ATOM    122  H17 UNL A   1      48.316  24.076  32.382  1.00  0.00    +0.000 H 
BRANCH   19   20
ATOM    124  H19 UNL A   1      50.231  22.651  34.807  1.00  0.00    +0.000 H 
ATOM    123  H18 UNL A   1      50.172  24.340  35.589  1.00  0.00    +0.000 H 
ATOM     20  C15 UNL A   1      49.799  23.627  34.884  1.00  0.00    +0.000 C 
BRANCH   20   21
ATOM     21  S1  UNL A   1      48.141  23.221  35.434  1.00  0.00    +0.000 S 
BRANCH   21   22
ATOM    127  H22 UNL A   1      45.497  29.045  39.594  1.00  0.00    +0.000 H 
ATOM    126  H21 UNL A   1      47.866  29.274  39.105  1.00  0.00    +0.000 H 
ATOM    128  H23 UNL A   1      44.227  27.233  38.576  1.00  0.00    +0.000 H 
ATOM    125  H20 UNL A   1      49.013  27.576  37.801  1.00  0.00    +0.000 H 
ATOM     22  C16 UNL A   1      47.225  24.588  36.007  1.00  0.00    +0.000 C 
ATOM     23  N4  UNL A   1      47.928  25.362  36.786  1.00  0.00    +0.000 N 
ATOM     24  C17 UNL A   1      47.282  26.436  37.415  1.00  0.00    +0.000 C 
ATOM     25  C18 UNL A   1      47.996  27.502  37.961  1.00  0.00    +0.000 C 
ATOM     26  C19 UNL A   1      47.338  28.473  38.728  1.00  0.00    +0.000 C 
ATOM     27  C20 UNL A   1      45.968  28.360  38.982  1.00  0.00    +0.000 C 
ATOM     28  C21 UNL A   1      45.241  27.323  38.406  1.00  0.00    +0.000 C 
ATOM     29  C22 UNL A   1      45.908  26.401  37.593  1.00  0.00    +0.000 C 
ATOM     30  C23 UNL A   1      45.191  25.407  36.786  1.00  0.00    +0.000 C 
ATOM     31  O3  UNL A   1      44.045  25.101  37.110  1.00  0.00    +0.000 O 
ATOM     32  N5  UNL A   1      45.908  24.888  35.702  1.00  0.00    +0.000 N 
BRANCH   32   33
ATOM     33  C24 UNL A   1      45.201  24.671  34.456  1.00  0.00    +0.000 C 
ATOM     34  C25 UNL A   1      44.510  23.458  34.251  1.00  0.00    +0.000 C 
ATOM    129  H24 UNL A   1      44.341  22.838  35.057  1.00  0.00    +0.000 H 
ATOM     35  C26 UNL A   1      44.045  23.069  32.992  1.00  0.00    +0.000 C 
ATOM    133  H28 UNL A   1      45.442  26.561  33.552  1.00  0.00    +0.000 H 
ATOM     38  C29 UNL A   1      45.168  25.579  33.392  1.00  0.00    +0.000 C 
ATOM     37  C28 UNL A   1      44.766  25.172  32.110  1.00  0.00    +0.000 C 
ATOM    130  H25 UNL A   1      43.561  22.166  32.874  1.00  0.00    +0.000 H 
ATOM     36  C27 UNL A   1      44.241  23.903  31.902  1.00  0.00    +0.000 C 
ATOM    132  H27 UNL A   1      44.863  25.822  31.314  1.00  0.00    +0.000 H 
ATOM    131  H26 UNL A   1      43.999  23.585  30.951  1.00  0.00    +0.000 H 
ENDBRANCH   32   33
ENDBRANCH   21   22
ENDBRANCH   20   21
ENDBRANCH   19   20
ENDBRANCH   16   17
ENDBRANCH   11   13
ENDBRANCH   10   11
ENDBRANCH    9   10
ENDBRANCH    8    9
ENDBRANCH    7    8
ENDBRANCH    6    7
ENDBRANCH    5    6
ENDBRANCH    4    5
ENDBRANCH    3    4
ENDBRANCH    2    3
ENDBRANCH   43    2
ENDBRANCH   47   46
BRANCH   51   52
ATOM     52  C40 UNL A   1      45.464  30.915  27.535  1.00  0.00    +0.000 C 
ATOM     53  C41 UNL A   1      46.743  31.511  27.535  1.00  0.00    +0.000 C 
ATOM     54  F1  UNL A   1      47.810  30.845  28.002  1.00  0.00    +0.000 F 
ATOM     55  C42 UNL A   1      46.940  32.843  27.159  1.00  0.00    +0.000 C 
ATOM     56  F2  UNL A   1      48.145  33.408  27.318  1.00  0.00    +0.000 F 
ATOM     57  C43 UNL A   1      45.882  33.605  26.700  1.00  0.00    +0.000 C 
ATOM     58  F3  UNL A   1      46.050  34.902  26.413  1.00  0.00    +0.000 F 
ATOM     59  C44 UNL A   1      44.636  33.028  26.588  1.00  0.00    +0.000 C 
ATOM     60  F4  UNL A   1      43.596  33.753  26.153  1.00  0.00    +0.000 F 
ATOM     61  C45 UNL A   1      44.426  31.716  27.010  1.00  0.00    +0.000 C 
ATOM     62  F5  UNL A   1      43.152  31.313  26.981  1.00  0.00    +0.000 F 
ENDBRANCH   51   52
BRANCH   68   69
ATOM     69  C51 UNL A   1      42.704  29.399  33.544  1.00  0.00    +0.000 C 
ATOM     70  C52 UNL A   1      42.354  28.039  33.607  1.00  0.00    +0.000 C 
ATOM     71  F6  UNL A   1      42.236  27.309  32.489  1.00  0.00    +0.000 F 
ATOM     72  C53 UNL A   1      42.181  27.394  34.830  1.00  0.00    +0.000 C 
ATOM     73  F7  UNL A   1      41.837  26.098  34.865  1.00  0.00    +0.000 F 
ATOM     74  C54 UNL A   1      42.403  28.080  36.014  1.00  0.00    +0.000 C 
ATOM     75  F8  UNL A   1      42.281  27.450  37.189  1.00  0.00    +0.000 F 
ATOM     76  C55 UNL A   1      42.783  29.413  35.976  1.00  0.00    +0.000 C 
ATOM     77  F9  UNL A   1      43.051  30.065  37.116  1.00  0.00    +0.000 F 
ATOM     78  C56 UNL A   1      42.920  30.068  34.756  1.00  0.00    +0.000 C 
ATOM     79  F10 UNL A   1      43.315  31.351  34.754  1.00  0.00    +0.000 F 
ENDBRANCH   68   69
BRANCH   83   84
ATOM     84  C60 UNL A   1      37.436  30.702  30.345  1.00  0.00    +0.000 C 
ATOM     85  C61 UNL A   1      36.559  31.095  31.369  1.00  0.00    +0.000 C 
ATOM     86  F11 UNL A   1      36.782  30.707  32.633  1.00  0.00    +0.000 F 
ATOM     87  C62 UNL A   1      35.478  31.949  31.121  1.00  0.00    +0.000 C 
ATOM     88  F12 UNL A   1      34.696  32.349  32.133  1.00  0.00    +0.000 F 
ATOM     89  C63 UNL A   1      35.244  32.431  29.843  1.00  0.00    +0.000 C 
ATOM     90  F13 UNL A   1      34.246  33.297  29.616  1.00  0.00    +0.000 F 
ATOM     91  C64 UNL A   1      36.076  32.046  28.809  1.00  0.00    +0.000 C 
ATOM     92  F14 UNL A   1      35.886  32.537  27.576  1.00  0.00    +0.000 F 
ATOM     93  C65 UNL A   1      37.156  31.199  29.056  1.00  0.00    +0.000 C 
ATOM     94  F15 UNL A   1      37.983  30.949  28.030  1.00  0.00    +0.000 F 
ENDBRANCH   83   84
TORSDOF 20
ENDMDL
MODEL 3
REMARK VINA RESULT:      -8.9     23.331     29.189
ROOT
ATOM    138  H33 UNL A   1      19.244  37.489  44.089  1.00  0.00    +0.000 H 
ATOM    139  H34 UNL A   1      18.402  38.620  46.351  1.00  0.00    +0.000 H 
ATOM    140  H35 UNL A   1      18.955  34.680  46.947  1.00  0.00    +0.000 H 
ATOM    141  H36 UNL A   1      24.697  38.006  51.876  1.00  0.00    +0.000 H 
ATOM    142  H37 UNL A   1      25.303  39.082  49.648  1.00  0.00    +0.000 H 
ATOM    143  H38 UNL A   1      22.216  36.398  48.914  1.00  0.00    +0.000 H 
ATOM    144  H39 UNL A   1      21.857  33.496  50.291  1.00  0.00    +0.000 H 
ATOM    145  H40 UNL A   1      20.218  34.137  48.406  1.00  0.00    +0.000 H 
ATOM    146  H41 UNL A   1      23.675  34.689  44.034  1.00  0.00    +0.000 H 
ATOM    147  H42 UNL A   1      25.347  35.798  45.645  1.00  0.00    +0.000 H 
ATOM     47  C36 UNL A   1      24.122  37.721  47.379  1.00  0.00    +0.000 C 
ATOM     48  C37 UNL A   1      23.461  36.807  46.405  1.00  0.00    +0.000 C 
ATOM     49  N8  UNL A   1      22.208  36.752  46.079  1.00  0.00    +0.000 N 
ATOM     50  C38 UNL A   1      22.093  35.693  45.179  1.00  0.00    +0.000 C 
ATOM     51  C39 UNL A   1      20.907  35.049  44.989  1.00  0.00    +0.000 C 
ATOM     63  C46 UNL A   1      19.797  35.862  45.414  1.00  0.00    +0.000 C 
ATOM     64  C47 UNL A   1      19.283  37.088  45.040  1.00  0.00    +0.000 C 
ATOM     65  C48 UNL A   1      18.819  37.681  46.251  1.00  0.00    +0.000 C 
ATOM     66  C49 UNL A   1      19.030  36.761  47.277  1.00  0.00    +0.000 C 
ATOM     67  N9  UNL A   1      19.206  35.574  46.618  1.00  0.00    +0.000 N 
ATOM     68  C50 UNL A   1      19.159  36.896  48.706  1.00  0.00    +0.000 C 
ATOM     80  C57 UNL A   1      19.804  36.003  49.511  1.00  0.00    +0.000 C 
ATOM     81  N10 UNL A   1      20.292  36.385  50.752  1.00  0.00    +0.000 N 
ATOM     82  C58 UNL A   1      21.293  35.579  50.975  1.00  0.00    +0.000 C 
ATOM     83  C59 UNL A   1      22.561  36.010  51.616  1.00  0.00    +0.000 C 
ATOM     95  C66 UNL A   1      23.184  36.849  50.750  1.00  0.00    +0.000 C 
ATOM     96  C67 UNL A   1      24.266  37.785  50.965  1.00  0.00    +0.000 C 
ATOM     97  C68 UNL A   1      24.617  38.323  49.778  1.00  0.00    +0.000 C 
ATOM     98  C69 UNL A   1      23.875  37.661  48.704  1.00  0.00    +0.000 C 
ATOM     99  N11 UNL A   1      22.950  36.878  49.361  1.00  0.00    +0.000 N 
ATOM    100  C70 UNL A   1      21.317  34.368  50.172  1.00  0.00    +0.000 C 
ATOM    101  C71 UNL A   1      20.433  34.714  49.233  1.00  0.00    +0.000 C 
ATOM    102  C72 UNL A   1      23.434  35.327  44.809  1.00  0.00    +0.000 C 
ATOM    103  C73 UNL A   1      24.323  35.923  45.603  1.00  0.00    +0.000 C 
ENDROOT
BRANCH   47   46
ATOM    104  C74 UNL A   1      26.432  38.069  46.556  1.00  0.00    +0.000 C 
ATOM    105  C75 UNL A   1      27.390  38.899  45.992  1.00  0.00    +0.000 C 
ATOM    136  H31 UNL A   1      25.524  41.635  45.510  1.00  0.00    +0.000 H 
ATOM     43  C32 UNL A   1      27.094  40.236  45.662  1.00  0.00    +0.000 C 
ATOM     44  C33 UNL A   1      25.782  40.686  45.822  1.00  0.00    +0.000 C 
ATOM     45  C34 UNL A   1      24.820  39.862  46.400  1.00  0.00    +0.000 C 
ATOM    137  H32 UNL A   1      23.855  40.207  46.530  1.00  0.00    +0.000 H 
ATOM     46  C35 UNL A   1      25.160  38.572  46.805  1.00  0.00    +0.000 C 
ATOM    148  H43 UNL A   1      26.662  37.090  46.789  1.00  0.00    +0.000 H 
ATOM    149  H44 UNL A   1      28.336  38.531  45.809  1.00  0.00    +0.000 H 
BRANCH   43    2
ATOM      1  O1  UNL A   1      28.285  42.252  45.547  1.00  0.00    +0.000 O 
ATOM      2  C1  UNL A   1      28.258  41.059  45.234  1.00  0.00    +0.000 C 
BRANCH    2    3
ATOM    106  H1  UNL A   1      29.236  40.961  43.531  1.00  0.00    +0.000 H 
ATOM      3  N1  UNL A   1      29.289  40.619  44.453  1.00  0.00    +0.000 N 
BRANCH    3    4
ATOM    108  H3  UNL A   1      31.273  40.416  44.842  1.00  0.00    +0.000 H 
ATOM    107  H2  UNL A   1      30.232  39.127  45.497  1.00  0.00    +0.000 H 
ATOM      4  C2  UNL A   1      30.438  39.769  44.666  1.00  0.00    +0.000 C 
BRANCH    4    5
ATOM    109  H4  UNL A   1      31.748  39.221  43.091  1.00  0.00    +0.000 H 
ATOM      5  C3  UNL A   1      30.800  38.897  43.463  1.00  0.00    +0.000 C 
ATOM    110  H5  UNL A   1      30.004  39.014  42.758  1.00  0.00    +0.000 H 
BRANCH    5    6
ATOM      6  C4  UNL A   1      30.894  37.395  43.759  1.00  0.00    +0.000 C 
ATOM    111  H6  UNL A   1      31.639  37.255  44.513  1.00  0.00    +0.000 H 
ATOM    112  H7  UNL A   1      31.128  36.929  42.824  1.00  0.00    +0.000 H 
BRANCH    6    7
ATOM    113  H8  UNL A   1      29.099  36.325  43.391  1.00  0.00    +0.000 H 
ATOM    114  H9  UNL A   1      29.050  37.493  44.749  1.00  0.00    +0.000 H 
ATOM      7  C5  UNL A   1      29.603  36.729  44.244  1.00  0.00    +0.000 C 
BRANCH    7    8
ATOM    115  H10 UNL A   1      29.067  35.737  46.043  1.00  0.00    +0.000 H 
ATOM    116  H11 UNL A   1      30.798  35.663  45.604  1.00  0.00    +0.000 H 
ATOM      8  C6  UNL A   1      29.785  35.600  45.262  1.00  0.00    +0.000 C 
BRANCH    8    9
ATOM      9  C7  UNL A   1      29.610  34.194  44.697  1.00  0.00    +0.000 C 
ATOM    117  H12 UNL A   1      30.509  33.914  44.189  1.00  0.00    +0.000 H 
ATOM    118  H13 UNL A   1      28.773  34.212  44.031  1.00  0.00    +0.000 H 
BRANCH    9   10
ATOM     10  N2  UNL A   1      29.333  33.209  45.731  1.00  0.00    +0.000 N 
ATOM    119  H14 UNL A   1      30.109  32.920  46.262  1.00  0.00    +0.000 H 
BRANCH   10   11
ATOM     11  C8  UNL A   1      28.136  32.631  46.066  1.00  0.00    +0.000 C 
ATOM     12  O2  UNL A   1      27.123  32.859  45.406  1.00  0.00    +0.000 O 
BRANCH   11   13
ATOM    134  H29 UNL A   1      26.759  28.787  48.182  1.00  0.00    +0.000 H 
ATOM    135  H30 UNL A   1      26.918  30.233  46.233  1.00  0.00    +0.000 H 
ATOM     41  C30 UNL A   1      27.270  29.682  48.240  1.00  0.00    +0.000 C 
ATOM     42  C31 UNL A   1      27.365  30.507  47.122  1.00  0.00    +0.000 C 
ATOM     13  C9  UNL A   1      28.071  31.710  47.217  1.00  0.00    +0.000 C 
ATOM     14  C10 UNL A   1      28.725  32.066  48.402  1.00  0.00    +0.000 C 
ATOM     15  C11 UNL A   1      28.597  31.264  49.537  1.00  0.00    +0.000 C 
ATOM     16  C12 UNL A   1      27.875  30.074  49.449  1.00  0.00    +0.000 C 
ATOM    120  H15 UNL A   1      29.301  32.922  48.437  1.00  0.00    +0.000 H 
ATOM    121  H16 UNL A   1      29.031  31.548  50.430  1.00  0.00    +0.000 H 
BRANCH   16   17
ATOM     39  N6  UNL A   1      27.461  28.400  52.525  1.00  0.00    +0.000 N 
ATOM     40  N7  UNL A   1      27.402  29.506  51.781  1.00  0.00    +0.000 N 
ATOM     17  N3  UNL A   1      27.849  29.196  50.547  1.00  0.00    +0.000 N 
ATOM     18  C13 UNL A   1      28.264  27.897  50.524  1.00  0.00    +0.000 C 
ATOM     19  C14 UNL A   1      28.057  27.403  51.785  1.00  0.00    +0.000 C 
ATOM    122  H17 UNL A   1      28.654  27.388  49.717  1.00  0.00    +0.000 H 
BRANCH   19   20
ATOM    124  H19 UNL A   1      27.197  25.899  52.753  1.00  0.00    +0.000 H 
ATOM    123  H18 UNL A   1      28.384  25.418  51.401  1.00  0.00    +0.000 H 
ATOM     20  C15 UNL A   1      28.143  26.003  52.263  1.00  0.00    +0.000 C 
BRANCH   20   21
ATOM     21  S1  UNL A   1      29.256  25.445  53.556  1.00  0.00    +0.000 S 
BRANCH   21   22
ATOM    127  H22 UNL A   1      24.729  20.772  57.541  1.00  0.00    +0.000 H 
ATOM    126  H21 UNL A   1      23.877  21.178  55.302  1.00  0.00    +0.000 H 
ATOM    128  H23 UNL A   1      26.916  21.637  58.172  1.00  0.00    +0.000 H 
ATOM    125  H20 UNL A   1      25.088  22.633  53.780  1.00  0.00    +0.000 H 
ATOM     22  C16 UNL A   1      28.638  24.121  54.505  1.00  0.00    +0.000 C 
ATOM     23  N4  UNL A   1      27.367  23.916  54.299  1.00  0.00    +0.000 N 
ATOM     24  C17 UNL A   1      26.712  22.958  55.085  1.00  0.00    +0.000 C 
ATOM     25  C18 UNL A   1      25.481  22.421  54.710  1.00  0.00    +0.000 C 
ATOM     26  C19 UNL A   1      24.774  21.595  55.595  1.00  0.00    +0.000 C 
ATOM     27  C20 UNL A   1      25.278  21.334  56.872  1.00  0.00    +0.000 C 
ATOM     28  C21 UNL A   1      26.526  21.831  57.237  1.00  0.00    +0.000 C 
ATOM     29  C22 UNL A   1      27.242  22.601  56.315  1.00  0.00    +0.000 C 
ATOM     30  C23 UNL A   1      28.639  22.988  56.537  1.00  0.00    +0.000 C 
ATOM     31  O3  UNL A   1      29.073  22.994  57.688  1.00  0.00    +0.000 O 
ATOM     32  N5  UNL A   1      29.356  23.329  55.384  1.00  0.00    +0.000 N 
BRANCH   32   33
ATOM     33  C24 UNL A   1      30.731  22.885  55.278  1.00  0.00    +0.000 C 
ATOM     34  C25 UNL A   1      31.777  23.780  55.594  1.00  0.00    +0.000 C 
ATOM    129  H24 UNL A   1      31.551  24.656  56.090  1.00  0.00    +0.000 H 
ATOM     35  C26 UNL A   1      33.108  23.520  55.257  1.00  0.00    +0.000 C 
ATOM    133  H28 UNL A   1      30.438  20.846  54.829  1.00  0.00    +0.000 H 
ATOM     38  C29 UNL A   1      31.127  21.614  54.849  1.00  0.00    +0.000 C 
ATOM     37  C28 UNL A   1      32.449  21.369  54.445  1.00  0.00    +0.000 C 
ATOM    130  H25 UNL A   1      33.844  24.205  55.485  1.00  0.00    +0.000 H 
ATOM     36  C27 UNL A   1      33.432  22.336  54.614  1.00  0.00    +0.000 C 
ATOM    132  H27 UNL A   1      32.693  20.461  54.019  1.00  0.00    +0.000 H 
ATOM    131  H26 UNL A   1      34.390  22.176  54.265  1.00  0.00    +0.000 H 
ENDBRANCH   32   33
ENDBRANCH   21   22
ENDBRANCH   20   21
ENDBRANCH   19   20
ENDBRANCH   16   17
ENDBRANCH   11   13
ENDBRANCH   10   11
ENDBRANCH    9   10
ENDBRANCH    8    9
ENDBRANCH    7    8
ENDBRANCH    6    7
ENDBRANCH    5    6
ENDBRANCH    4    5
ENDBRANCH    3    4
ENDBRANCH    2    3
ENDBRANCH   43    2
ENDBRANCH   47   46
BRANCH   51   52
ATOM     52  C40 UNL A   1      20.772  33.552  44.800  1.00  0.00    +0.000 C 
ATOM     53  C41 UNL A   1      19.730  33.063  43.984  1.00  0.00    +0.000 C 
ATOM     54  F1  UNL A   1      19.072  33.880  43.149  1.00  0.00    +0.000 F 
ATOM     55  C42 UNL A   1      19.264  31.749  44.087  1.00  0.00    +0.000 C 
ATOM     56  F2  UNL A   1      18.175  31.374  43.401  1.00  0.00    +0.000 F 
ATOM     57  C43 UNL A   1      19.868  30.857  44.952  1.00  0.00    +0.000 C 
ATOM     58  F3  UNL A   1      19.377  29.621  45.110  1.00  0.00    +0.000 F 
ATOM     59  C44 UNL A   1      20.956  31.268  45.691  1.00  0.00    +0.000 C 
ATOM     60  F4  UNL A   1      21.551  30.420  46.541  1.00  0.00    +0.000 F 
ATOM     61  C45 UNL A   1      21.391  32.591  45.628  1.00  0.00    +0.000 C 
ATOM     62  F5  UNL A   1      22.363  32.905  46.490  1.00  0.00    +0.000 F 
ENDBRANCH   51   52
BRANCH   68   69
ATOM     69  C51 UNL A   1      18.777  38.220  49.300  1.00  0.00    +0.000 C 
ATOM     70  C52 UNL A   1      17.585  38.437  50.015  1.00  0.00    +0.000 C 
ATOM     71  F6  UNL A   1      16.693  37.450  50.176  1.00  0.00    +0.000 F 
ATOM     72  C53 UNL A   1      17.325  39.662  50.628  1.00  0.00    +0.000 C 
ATOM     73  F7  UNL A   1      16.177  39.848  51.296  1.00  0.00    +0.000 F 
ATOM     74  C54 UNL A   1      18.269  40.675  50.583  1.00  0.00    +0.000 C 
ATOM     75  F8  UNL A   1      18.039  41.836  51.211  1.00  0.00    +0.000 F 
ATOM     76  C55 UNL A   1      19.466  40.471  49.915  1.00  0.00    +0.000 C 
ATOM     77  F9  UNL A   1      20.404  41.429  49.914  1.00  0.00    +0.000 F 
ATOM     78  C56 UNL A   1      19.711  39.262  49.270  1.00  0.00    +0.000 C 
ATOM     79  F10 UNL A   1      20.891  39.089  48.654  1.00  0.00    +0.000 F 
ENDBRANCH   68   69
BRANCH   83   84
ATOM     84  C60 UNL A   1      23.144  35.304  52.781  1.00  0.00    +0.000 C 
ATOM     85  C61 UNL A   1      22.411  35.122  53.965  1.00  0.00    +0.000 C 
ATOM     86  F11 UNL A   1      21.248  35.765  54.143  1.00  0.00    +0.000 F 
ATOM     87  C62 UNL A   1      22.827  34.223  54.954  1.00  0.00    +0.000 C 
ATOM     88  F12 UNL A   1      22.073  34.032  56.045  1.00  0.00    +0.000 F 
ATOM     89  C63 UNL A   1      23.987  33.485  54.787  1.00  0.00    +0.000 C 
ATOM     90  F13 UNL A   1      24.356  32.580  55.705  1.00  0.00    +0.000 F 
ATOM     91  C64 UNL A   1      24.743  33.657  53.642  1.00  0.00    +0.000 C 
ATOM     92  F14 UNL A   1      25.846  32.920  53.449  1.00  0.00    +0.000 F 
ATOM     93  C65 UNL A   1      24.326  34.549  52.654  1.00  0.00    +0.000 C 
ATOM     94  F15 UNL A   1      25.049  34.590  51.525  1.00  0.00    +0.000 F 
ENDBRANCH   83   84
TORSDOF 20
ENDMDL
MODEL 4
REMARK VINA RESULT:      -8.7     23.390     29.563
ROOT
ATOM    138  H33 UNL A   1      19.277  37.441  44.081  1.00  0.00    +0.000 H 
ATOM    139  H34 UNL A   1      18.391  38.564  46.331  1.00  0.00    +0.000 H 
ATOM    140  H35 UNL A   1      19.004  34.635  46.944  1.00  0.00    +0.000 H 
ATOM    141  H36 UNL A   1      24.634  38.070  51.926  1.00  0.00    +0.000 H 
ATOM    142  H37 UNL A   1      25.247  39.151  49.702  1.00  0.00    +0.000 H 
ATOM    143  H38 UNL A   1      22.214  36.413  48.941  1.00  0.00    +0.000 H 
ATOM    144  H39 UNL A   1      21.888  33.509  50.322  1.00  0.00    +0.000 H 
ATOM    145  H40 UNL A   1      20.259  34.117  48.418  1.00  0.00    +0.000 H 
ATOM    146  H41 UNL A   1      23.754  34.717  44.083  1.00  0.00    +0.000 H 
ATOM    147  H42 UNL A   1      25.390  35.858  45.708  1.00  0.00    +0.000 H 
ATOM     47  C36 UNL A   1      24.113  37.764  47.423  1.00  0.00    +0.000 C 
ATOM     48  C37 UNL A   1      23.478  36.836  46.445  1.00  0.00    +0.000 C 
ATOM     49  N8  UNL A   1      22.231  36.760  46.106  1.00  0.00    +0.000 N 
ATOM     50  C38 UNL A   1      22.143  35.696  45.208  1.00  0.00    +0.000 C 
ATOM     51  C39 UNL A   1      20.971  35.032  45.007  1.00  0.00    +0.000 C 
ATOM     63  C46 UNL A   1      19.842  35.827  45.417  1.00  0.00    +0.000 C 
ATOM     64  C47 UNL A   1      19.312  37.044  45.034  1.00  0.00    +0.000 C 
ATOM     65  C48 UNL A   1      18.824  37.631  46.238  1.00  0.00    +0.000 C 
ATOM     66  C49 UNL A   1      19.040  36.718  47.269  1.00  0.00    +0.000 C 
ATOM     67  N9  UNL A   1      19.243  35.532  46.615  1.00  0.00    +0.000 N 
ATOM     68  C50 UNL A   1      19.151  36.858  48.698  1.00  0.00    +0.000 C 
ATOM     80  C57 UNL A   1      19.802  35.979  49.513  1.00  0.00    +0.000 C 
ATOM     81  N10 UNL A   1      20.270  36.372  50.758  1.00  0.00    +0.000 N 
ATOM     82  C58 UNL A   1      21.282  35.583  50.994  1.00  0.00    +0.000 C 
ATOM     83  C59 UNL A   1      22.535  36.038  51.648  1.00  0.00    +0.000 C 
ATOM     95  C66 UNL A   1      23.153  36.885  50.786  1.00  0.00    +0.000 C 
ATOM     96  C67 UNL A   1      24.217  37.840  51.011  1.00  0.00    +0.000 C 
ATOM     97  C68 UNL A   1      24.572  38.380  49.826  1.00  0.00    +0.000 C 
ATOM     98  C69 UNL A   1      23.853  37.704  48.746  1.00  0.00    +0.000 C 
ATOM     99  N11 UNL A   1      22.935  36.906  49.395  1.00  0.00    +0.000 N 
ATOM    100  C70 UNL A   1      21.335  34.371  50.195  1.00  0.00    +0.000 C 
ATOM    101  C71 UNL A   1      20.455  34.700  49.245  1.00  0.00    +0.000 C 
ATOM    102  C72 UNL A   1      23.494  35.352  44.853  1.00  0.00    +0.000 C 
ATOM    103  C73 UNL A   1      24.364  35.966  45.655  1.00  0.00    +0.000 C 
ENDROOT
BRANCH   47   46
ATOM    104  C74 UNL A   1      26.426  38.148  46.623  1.00  0.00    +0.000 C 
ATOM    105  C75 UNL A   1      27.375  38.993  46.067  1.00  0.00    +0.000 C 
ATOM    136  H31 UNL A   1      25.470  41.698  45.563  1.00  0.00    +0.000 H 
ATOM     43  C32 UNL A   1      27.061  40.325  45.732  1.00  0.00    +0.000 C 
ATOM     44  C33 UNL A   1      25.740  40.753  45.879  1.00  0.00    +0.000 C 
ATOM     45  C34 UNL A   1      24.786  39.915  46.449  1.00  0.00    +0.000 C 
ATOM    137  H32 UNL A   1      23.815  40.244  46.568  1.00  0.00    +0.000 H 
ATOM     46  C35 UNL A   1      25.143  38.631  46.859  1.00  0.00    +0.000 C 
ATOM    148  H43 UNL A   1      26.669  37.173  46.860  1.00  0.00    +0.000 H 
ATOM    149  H44 UNL A   1      28.329  38.640  45.894  1.00  0.00    +0.000 H 
BRANCH   43    2
ATOM      1  O1  UNL A   1      28.237  42.350  45.657  1.00  0.00    +0.000 O 
ATOM      2  C1  UNL A   1      28.216  41.165  45.315  1.00  0.00    +0.000 C 
BRANCH    2    3
ATOM    106  H1  UNL A   1      29.135  41.047  43.581  1.00  0.00    +0.000 H 
ATOM      3  N1  UNL A   1      29.242  40.753  44.515  1.00  0.00    +0.000 N 
BRANCH    3    4
ATOM    108  H3  UNL A   1      31.195  40.666  45.072  1.00  0.00    +0.000 H 
ATOM    107  H2  UNL A   1      30.237  39.207  45.423  1.00  0.00    +0.000 H 
ATOM      4  C2  UNL A   1      30.449  39.984  44.719  1.00  0.00    +0.000 C 
BRANCH    4    5
ATOM    109  H4  UNL A   1      32.024  39.642  43.341  1.00  0.00    +0.000 H 
ATOM      5  C3  UNL A   1      31.003  39.342  43.447  1.00  0.00    +0.000 C 
ATOM    110  H5  UNL A   1      30.377  39.674  42.646  1.00  0.00    +0.000 H 
BRANCH    5    6
ATOM      6  C4  UNL A   1      30.954  37.809  43.423  1.00  0.00    +0.000 C 
ATOM    111  H6  UNL A   1      31.719  37.445  44.076  1.00  0.00    +0.000 H 
ATOM    112  H7  UNL A   1      31.089  37.530  42.398  1.00  0.00    +0.000 H 
BRANCH    6    7
ATOM    113  H8  UNL A   1      29.219  36.658  43.013  1.00  0.00    +0.000 H 
ATOM    114  H9  UNL A   1      29.016  37.986  44.199  1.00  0.00    +0.000 H 
ATOM      7  C5  UNL A   1      29.627  37.178  43.854  1.00  0.00    +0.000 C 
BRANCH    7    8
ATOM    115  H10 UNL A   1      28.832  36.297  45.615  1.00  0.00    +0.000 H 
ATOM    116  H11 UNL A   1      30.613  36.430  45.552  1.00  0.00    +0.000 H 
ATOM      8  C6  UNL A   1      29.715  36.190  45.021  1.00  0.00    +0.000 C 
BRANCH    8    9
ATOM      9  C7  UNL A   1      29.837  34.725  44.611  1.00  0.00    +0.000 C 
ATOM    117  H12 UNL A   1      30.855  34.528  44.345  1.00  0.00    +0.000 H 
ATOM    118  H13 UNL A   1      29.176  34.561  43.786  1.00  0.00    +0.000 H 
BRANCH    9   10
ATOM     10  N2  UNL A   1      29.450  33.816  45.678  1.00  0.00    +0.000 N 
ATOM    119  H14 UNL A   1      30.073  33.760  46.437  1.00  0.00    +0.000 H 
BRANCH   10   11
ATOM     11  C8  UNL A   1      28.332  33.026  45.768  1.00  0.00    +0.000 C 
ATOM     12  O2  UNL A   1      27.429  33.120  44.938  1.00  0.00    +0.000 O 
BRANCH   11   13
ATOM    134  H29 UNL A   1      29.728  31.065  49.686  1.00  0.00    +0.000 H 
ATOM    135  H30 UNL A   1      29.885  32.765  47.954  1.00  0.00    +0.000 H 
ATOM     41  C30 UNL A   1      29.060  31.069  48.900  1.00  0.00    +0.000 C 
ATOM     42  C31 UNL A   1      29.147  32.045  47.911  1.00  0.00    +0.000 C 
ATOM     13  C9  UNL A   1      28.225  32.040  46.860  1.00  0.00    +0.000 C 
ATOM     14  C10 UNL A   1      27.189  31.100  46.820  1.00  0.00    +0.000 C 
ATOM     15  C11 UNL A   1      27.122  30.094  47.786  1.00  0.00    +0.000 C 
ATOM     16  C12 UNL A   1      28.055  30.087  48.823  1.00  0.00    +0.000 C 
ATOM    120  H15 UNL A   1      26.473  31.151  46.078  1.00  0.00    +0.000 H 
ATOM    121  H16 UNL A   1      26.393  29.365  47.732  1.00  0.00    +0.000 H 
BRANCH   16   17
ATOM     39  N6  UNL A   1      27.953  27.290  50.969  1.00  0.00    +0.000 N 
ATOM     40  N7  UNL A   1      28.083  27.824  49.753  1.00  0.00    +0.000 N 
ATOM     17  N3  UNL A   1      27.919  29.157  49.870  1.00  0.00    +0.000 N 
ATOM     18  C13 UNL A   1      27.610  29.469  51.161  1.00  0.00    +0.000 C 
ATOM     19  C14 UNL A   1      27.591  28.285  51.850  1.00  0.00    +0.000 C 
ATOM    122  H17 UNL A   1      27.428  30.410  51.543  1.00  0.00    +0.000 H 
BRANCH   19   20
ATOM    124  H19 UNL A   1      28.352  27.418  53.465  1.00  0.00    +0.000 H 
ATOM    123  H18 UNL A   1      27.470  29.033  53.753  1.00  0.00    +0.000 H 
ATOM     20  C15 UNL A   1      27.508  28.059  53.312  1.00  0.00    +0.000 C 
BRANCH   20   21
ATOM     21  S1  UNL A   1      26.214  27.111  54.115  1.00  0.00    +0.000 S 
BRANCH   21   22
ATOM    127  H22 UNL A   1      30.110  20.700  55.505  1.00  0.00    +0.000 H 
ATOM    126  H21 UNL A   1      31.498  22.681  55.738  1.00  0.00    +0.000 H 
ATOM    128  H23 UNL A   1      27.719  20.946  55.117  1.00  0.00    +0.000 H 
ATOM    125  H20 UNL A   1      30.554  24.886  55.355  1.00  0.00    +0.000 H 
ATOM     22  C16 UNL A   1      26.745  25.583  54.763  1.00  0.00    +0.000 C 
ATOM     23  N4  UNL A   1      28.036  25.428  54.664  1.00  0.00    +0.000 N 
ATOM     24  C17 UNL A   1      28.588  24.195  55.038  1.00  0.00    +0.000 C 
ATOM     25  C18 UNL A   1      29.949  24.052  55.307  1.00  0.00    +0.000 C 
ATOM     26  C19 UNL A   1      30.497  22.778  55.512  1.00  0.00    +0.000 C 
ATOM     27  C20 UNL A   1      29.693  21.640  55.411  1.00  0.00    +0.000 C 
ATOM     28  C21 UNL A   1      28.326  21.777  55.184  1.00  0.00    +0.000 C 
ATOM     29  C22 UNL A   1      27.790  23.061  55.045  1.00  0.00    +0.000 C 
ATOM     30  C23 UNL A   1      26.344  23.305  55.011  1.00  0.00    +0.000 C 
ATOM     31  O3  UNL A   1      25.597  22.379  54.700  1.00  0.00    +0.000 O 
ATOM     32  N5  UNL A   1      25.950  24.608  55.339  1.00  0.00    +0.000 N 
BRANCH   32   33
ATOM     33  C24 UNL A   1      24.766  24.779  56.156  1.00  0.00    +0.000 C 
ATOM     34  C25 UNL A   1      23.694  25.560  55.672  1.00  0.00    +0.000 C 
ATOM    129  H24 UNL A   1      23.678  25.821  54.674  1.00  0.00    +0.000 H 
ATOM     35  C26 UNL A   1      22.654  25.992  56.499  1.00  0.00    +0.000 C 
ATOM    133  H28 UNL A   1      25.220  23.483  57.756  1.00  0.00    +0.000 H 
ATOM     38  C29 UNL A   1      24.599  24.243  57.437  1.00  0.00    +0.000 C 
ATOM     37  C28 UNL A   1      23.596  24.724  58.294  1.00  0.00    +0.000 C 
ATOM    130  H25 UNL A   1      21.897  26.579  56.116  1.00  0.00    +0.000 H 
ATOM     36  C27 UNL A   1      22.647  25.628  57.836  1.00  0.00    +0.000 C 
ATOM    132  H27 UNL A   1      23.565  24.402  59.274  1.00  0.00    +0.000 H 
ATOM    131  H26 UNL A   1      21.946  26.024  58.481  1.00  0.00    +0.000 H 
ENDBRANCH   32   33
ENDBRANCH   21   22
ENDBRANCH   20   21
ENDBRANCH   19   20
ENDBRANCH   16   17
ENDBRANCH   11   13
ENDBRANCH   10   11
ENDBRANCH    9   10
ENDBRANCH    8    9
ENDBRANCH    7    8
ENDBRANCH    6    7
ENDBRANCH    5    6
ENDBRANCH    4    5
ENDBRANCH    3    4
ENDBRANCH    2    3
ENDBRANCH   43    2
ENDBRANCH   47   46
BRANCH   51   52
ATOM     52  C40 UNL A   1      20.863  33.533  44.819  1.00  0.00    +0.000 C 
ATOM     53  C41 UNL A   1      19.843  33.024  43.987  1.00  0.00    +0.000 C 
ATOM     54  F1  UNL A   1      19.187  33.828  43.138  1.00  0.00    +0.000 F 
ATOM     55  C42 UNL A   1      19.396  31.703  44.086  1.00  0.00    +0.000 C 
ATOM     56  F2  UNL A   1      18.327  31.309  43.382  1.00  0.00    +0.000 F 
ATOM     57  C43 UNL A   1      20.000  30.824  44.964  1.00  0.00    +0.000 C 
ATOM     58  F3  UNL A   1      19.525  29.581  45.118  1.00  0.00    +0.000 F 
ATOM     59  C44 UNL A   1      21.068  31.254  45.721  1.00  0.00    +0.000 C 
ATOM     60  F4  UNL A   1      21.661  30.418  46.585  1.00  0.00    +0.000 F 
ATOM     61  C45 UNL A   1      21.483  32.584  45.662  1.00  0.00    +0.000 C 
ATOM     62  F5  UNL A   1      22.434  32.916  46.540  1.00  0.00    +0.000 F 
ENDBRANCH   51   52
BRANCH   68   69
ATOM     69  C51 UNL A   1      18.740  38.178  49.285  1.00  0.00    +0.000 C 
ATOM     70  C52 UNL A   1      17.540  38.375  49.991  1.00  0.00    +0.000 C 
ATOM     71  F6  UNL A   1      16.665  37.372  50.151  1.00  0.00    +0.000 F 
ATOM     72  C53 UNL A   1      17.252  39.596  50.598  1.00  0.00    +0.000 C 
ATOM     73  F7  UNL A   1      16.097  39.764  51.258  1.00  0.00    +0.000 F 
ATOM     74  C54 UNL A   1      18.178  40.627  50.555  1.00  0.00    +0.000 C 
ATOM     75  F8  UNL A   1      17.922  41.786  51.176  1.00  0.00    +0.000 F 
ATOM     76  C55 UNL A   1      19.382  40.444  49.894  1.00  0.00    +0.000 C 
ATOM     77  F9  UNL A   1      20.302  41.419  49.895  1.00  0.00    +0.000 F 
ATOM     78  C56 UNL A   1      19.655  39.237  49.256  1.00  0.00    +0.000 C 
ATOM     79  F10 UNL A   1      20.841  39.084  48.648  1.00  0.00    +0.000 F 
ENDBRANCH   68   69
BRANCH   83   84
ATOM     84  C60 UNL A   1      23.117  35.345  52.821  1.00  0.00    +0.000 C 
ATOM     85  C61 UNL A   1      22.391  35.195  54.014  1.00  0.00    +0.000 C 
ATOM     86  F11 UNL A   1      21.239  35.858  54.190  1.00  0.00    +0.000 F 
ATOM     87  C62 UNL A   1      22.802  34.308  55.016  1.00  0.00    +0.000 C 
ATOM     88  F12 UNL A   1      22.054  34.148  56.117  1.00  0.00    +0.000 F 
ATOM     89  C63 UNL A   1      23.950  33.550  54.854  1.00  0.00    +0.000 C 
ATOM     90  F13 UNL A   1      24.313  32.657  55.785  1.00  0.00    +0.000 F 
ATOM     91  C64 UNL A   1      24.699  33.690  53.700  1.00  0.00    +0.000 C 
ATOM     92  F14 UNL A   1      25.790  32.934  53.512  1.00  0.00    +0.000 F 
ATOM     93  C65 UNL A   1      24.287  34.570  52.699  1.00  0.00    +0.000 C 
ATOM     94  F15 UNL A   1      25.001  34.580  51.564  1.00  0.00    +0.000 F 
ENDBRANCH   83   84
TORSDOF 20
ENDMDL
MODEL 5
REMARK VINA RESULT:      -8.7     31.302     37.712
ROOT
ATOM    138  H33 UNL A   1      24.887  20.619   9.514  1.00  0.00    +0.000 H 
ATOM    139  H34 UNL A   1      26.524  19.695   7.624  1.00  0.00    +0.000 H 
ATOM    140  H35 UNL A   1      25.312  16.648   9.956  1.00  0.00    +0.000 H 
ATOM    141  H36 UNL A   1      21.943  14.701   2.664  1.00  0.00    +0.000 H 
ATOM    142  H37 UNL A   1      21.014  17.048   3.003  1.00  0.00    +0.000 H 
ATOM    143  H38 UNL A   1      23.141  16.062   6.435  1.00  0.00    +0.000 H 
ATOM    144  H39 UNL A   1      23.219  13.157   7.850  1.00  0.00    +0.000 H 
ATOM    145  H40 UNL A   1      24.396  15.108   9.058  1.00  0.00    +0.000 H 
ATOM    146  H41 UNL A   1      20.106  18.554  10.101  1.00  0.00    +0.000 H 
ATOM    147  H42 UNL A   1      19.202  17.945   7.770  1.00  0.00    +0.000 H 
ATOM     47  C36 UNL A   1      21.228  17.960   5.746  1.00  0.00    +0.000 C 
ATOM     48  C37 UNL A   1      21.393  18.147   7.215  1.00  0.00    +0.000 C 
ATOM     49  N8  UNL A   1      22.472  18.440   7.869  1.00  0.00    +0.000 N 
ATOM     50  C38 UNL A   1      22.113  18.441   9.217  1.00  0.00    +0.000 C 
ATOM     51  C39 UNL A   1      23.038  18.244  10.198  1.00  0.00    +0.000 C 
ATOM     63  C46 UNL A   1      24.369  18.522   9.725  1.00  0.00    +0.000 C 
ATOM     64  C47 UNL A   1      25.017  19.636   9.227  1.00  0.00    +0.000 C 
ATOM     65  C48 UNL A   1      25.903  19.133   8.228  1.00  0.00    +0.000 C 
ATOM     66  C49 UNL A   1      25.779  17.745   8.216  1.00  0.00    +0.000 C 
ATOM     67  N9  UNL A   1      25.182  17.461   9.416  1.00  0.00    +0.000 N 
ATOM     68  C50 UNL A   1      26.065  16.742   7.223  1.00  0.00    +0.000 C 
ATOM     80  C57 UNL A   1      25.480  15.510   7.177  1.00  0.00    +0.000 C 
ATOM     81  N10 UNL A   1      25.435  14.786   5.995  1.00  0.00    +0.000 N 
ATOM     82  C58 UNL A   1      24.379  14.029   6.114  1.00  0.00    +0.000 C 
ATOM     83  C59 UNL A   1      23.451  13.740   4.991  1.00  0.00    +0.000 C 
ATOM     95  C66 UNL A   1      22.817  14.901   4.687  1.00  0.00    +0.000 C 
ATOM     96  C67 UNL A   1      22.059  15.275   3.512  1.00  0.00    +0.000 C 
ATOM     97  C68 UNL A   1      21.529  16.501   3.710  1.00  0.00    +0.000 C 
ATOM     98  C69 UNL A   1      21.799  16.934   5.082  1.00  0.00    +0.000 C 
ATOM     99  N11 UNL A   1      22.673  15.987   5.572  1.00  0.00    +0.000 N 
ATOM    100  C70 UNL A   1      23.882  13.848   7.467  1.00  0.00    +0.000 C 
ATOM    101  C71 UNL A   1      24.539  14.843   8.072  1.00  0.00    +0.000 C 
ATOM    102  C72 UNL A   1      20.676  18.396   9.255  1.00  0.00    +0.000 C 
ATOM    103  C73 UNL A   1      20.180  18.124   8.047  1.00  0.00    +0.000 C 
ENDROOT
BRANCH   47   46
ATOM    104  C74 UNL A   1      20.723  20.076   4.561  1.00  0.00    +0.000 C 
ATOM    105  C75 UNL A   1      19.801  20.917   3.954  1.00  0.00    +0.000 C 
ATOM    136  H31 UNL A   1      17.058  19.024   4.244  1.00  0.00    +0.000 H 
ATOM     43  C32 UNL A   1      18.436  20.579   3.887  1.00  0.00    +0.000 C 
ATOM     44  C33 UNL A   1      18.038  19.326   4.358  1.00  0.00    +0.000 C 
ATOM     45  C34 UNL A   1      18.954  18.483   4.980  1.00  0.00    +0.000 C 
ATOM    137  H32 UNL A   1      18.649  17.564   5.339  1.00  0.00    +0.000 H 
ATOM     46  C35 UNL A   1      20.284  18.879   5.118  1.00  0.00    +0.000 C 
ATOM    148  H43 UNL A   1      21.721  20.335   4.600  1.00  0.00    +0.000 H 
ATOM    149  H44 UNL A   1      20.123  21.808   3.543  1.00  0.00    +0.000 H 
BRANCH   43    2
ATOM      1  O1  UNL A   1      17.939  22.817   3.399  1.00  0.00    +0.000 O 
ATOM      2  C1  UNL A   1      17.540  21.650   3.373  1.00  0.00    +0.000 C 
BRANCH    2    3
ATOM    106  H1  UNL A   1      16.214  21.374   1.947  1.00  0.00    +0.000 H 
ATOM      3  N1  UNL A   1      16.263  21.462   2.927  1.00  0.00    +0.000 N 
BRANCH    3    4
ATOM    108  H3  UNL A   1      15.075  21.753   4.549  1.00  0.00    +0.000 H 
ATOM    107  H2  UNL A   1      14.264  21.917   2.972  1.00  0.00    +0.000 H 
ATOM      4  C2  UNL A   1      14.967  21.363   3.558  1.00  0.00    +0.000 C 
BRANCH    4    5
ATOM    109  H4  UNL A   1      13.701  19.922   4.464  1.00  0.00    +0.000 H 
ATOM      5  C3  UNL A   1      14.450  19.931   3.701  1.00  0.00    +0.000 C 
ATOM    110  H5  UNL A   1      15.302  19.327   3.934  1.00  0.00    +0.000 H 
BRANCH    5    6
ATOM      6  C4  UNL A   1      13.836  19.335   2.428  1.00  0.00    +0.000 C 
ATOM    111  H6  UNL A   1      13.848  20.092   1.673  1.00  0.00    +0.000 H 
ATOM    112  H7  UNL A   1      12.855  19.010   2.703  1.00  0.00    +0.000 H 
BRANCH    6    7
ATOM    113  H8  UNL A   1      13.899  17.657   1.131  1.00  0.00    +0.000 H 
ATOM    114  H9  UNL A   1      14.738  17.464   2.703  1.00  0.00    +0.000 H 
ATOM      7  C5  UNL A   1      14.542  18.098   1.864  1.00  0.00    +0.000 C 
BRANCH    7    8
ATOM    115  H10 UNL A   1      16.532  17.516   1.409  1.00  0.00    +0.000 H 
ATOM    116  H11 UNL A   1      16.268  19.271   1.622  1.00  0.00    +0.000 H 
ATOM      8  C6  UNL A   1      15.900  18.356   1.206  1.00  0.00    +0.000 C 
BRANCH    8    9
ATOM      9  C7  UNL A   1      15.851  18.560  -0.305  1.00  0.00    +0.000 C 
ATOM    117  H12 UNL A   1      15.121  17.895  -0.717  1.00  0.00    +0.000 H 
ATOM    118  H13 UNL A   1      16.828  18.359  -0.693  1.00  0.00    +0.000 H 
BRANCH    9   10
ATOM     10  N2  UNL A   1      15.500  19.923  -0.671  1.00  0.00    +0.000 N 
ATOM    119  H14 UNL A   1      14.683  20.279  -0.254  1.00  0.00    +0.000 H 
BRANCH   10   11
ATOM     11  C8  UNL A   1      16.155  20.780  -1.518  1.00  0.00    +0.000 C 
ATOM     12  O2  UNL A   1      15.876  20.813  -2.716  1.00  0.00    +0.000 O 
BRANCH   11   13
ATOM    134  H29 UNL A   1      20.127  21.668   0.622  1.00  0.00    +0.000 H 
ATOM    135  H30 UNL A   1      18.490  20.145  -0.334  1.00  0.00    +0.000 H 
ATOM     41  C30 UNL A   1      19.271  22.037   0.178  1.00  0.00    +0.000 C 
ATOM     42  C31 UNL A   1      18.337  21.165  -0.374  1.00  0.00    +0.000 C 
ATOM     13  C9  UNL A   1      17.189  21.683  -0.980  1.00  0.00    +0.000 C 
ATOM     14  C10 UNL A   1      16.997  23.066  -1.086  1.00  0.00    +0.000 C 
ATOM     15  C11 UNL A   1      17.909  23.944  -0.498  1.00  0.00    +0.000 C 
ATOM     16  C12 UNL A   1      19.044  23.425   0.127  1.00  0.00    +0.000 C 
ATOM    120  H15 UNL A   1      16.182  23.437  -1.599  1.00  0.00    +0.000 H 
ATOM    121  H16 UNL A   1      17.746  24.963  -0.524  1.00  0.00    +0.000 H 
BRANCH   16   17
ATOM     39  N6  UNL A   1      21.974  25.144   1.074  1.00  0.00    +0.000 N 
ATOM     40  N7  UNL A   1      21.357  24.051   0.622  1.00  0.00    +0.000 N 
ATOM     17  N3  UNL A   1      20.032  24.303   0.607  1.00  0.00    +0.000 N 
ATOM     18  C13 UNL A   1      19.797  25.544   1.121  1.00  0.00    +0.000 C 
ATOM     19  C14 UNL A   1      21.020  26.062   1.455  1.00  0.00    +0.000 C 
ATOM    122  H17 UNL A   1      18.879  26.002   1.236  1.00  0.00    +0.000 H 
BRANCH   19   20
ATOM    124  H19 UNL A   1      20.393  27.862   2.007  1.00  0.00    +0.000 H 
ATOM    123  H18 UNL A   1      22.047  27.339   2.683  1.00  0.00    +0.000 H 
ATOM     20  C15 UNL A   1      21.367  27.443   1.864  1.00  0.00    +0.000 C 
BRANCH   20   21
ATOM     21  S1  UNL A   1      22.103  28.665   0.775  1.00  0.00    +0.000 S 
BRANCH   21   22
ATOM    127  H22 UNL A   1      22.903  27.075  -6.645  1.00  0.00    +0.000 H 
ATOM    126  H21 UNL A   1      23.733  25.281  -5.232  1.00  0.00    +0.000 H 
ATOM    128  H23 UNL A   1      21.752  28.969  -5.634  1.00  0.00    +0.000 H 
ATOM    125  H20 UNL A   1      23.628  25.482  -2.814  1.00  0.00    +0.000 H 
ATOM     22  C16 UNL A   1      21.802  28.383  -0.918  1.00  0.00    +0.000 C 
ATOM     23  N4  UNL A   1      22.661  27.554  -1.442  1.00  0.00    +0.000 N 
ATOM     24  C17 UNL A   1      22.610  27.329  -2.824  1.00  0.00    +0.000 C 
ATOM     25  C18 UNL A   1      23.226  26.223  -3.409  1.00  0.00    +0.000 C 
ATOM     26  C19 UNL A   1      23.301  26.114  -4.805  1.00  0.00    +0.000 C 
ATOM     27  C20 UNL A   1      22.795  27.130  -5.620  1.00  0.00    +0.000 C 
ATOM     28  C21 UNL A   1      22.141  28.216  -5.044  1.00  0.00    +0.000 C 
ATOM     29  C22 UNL A   1      22.022  28.272  -3.652  1.00  0.00    +0.000 C 
ATOM     30  C23 UNL A   1      21.178  29.265  -2.979  1.00  0.00    +0.000 C 
ATOM     31  O3  UNL A   1      20.887  30.297  -3.581  1.00  0.00    +0.000 O 
ATOM     32  N5  UNL A   1      20.782  28.930  -1.678  1.00  0.00    +0.000 N 
BRANCH   32   33
ATOM     33  C24 UNL A   1      19.426  29.242  -1.275  1.00  0.00    +0.000 C 
ATOM     34  C25 UNL A   1      18.344  28.627  -1.941  1.00  0.00    +0.000 C 
ATOM    129  H24 UNL A   1      18.530  27.818  -2.554  1.00  0.00    +0.000 H 
ATOM     35  C26 UNL A   1      17.029  29.077  -1.799  1.00  0.00    +0.000 C 
ATOM    133  H28 UNL A   1      19.801  30.454   0.409  1.00  0.00    +0.000 H 
ATOM     38  C29 UNL A   1      19.084  30.150  -0.268  1.00  0.00    +0.000 C 
ATOM     37  C28 UNL A   1      17.778  30.656  -0.166  1.00  0.00    +0.000 C 
ATOM    130  H25 UNL A   1      16.265  28.617  -2.317  1.00  0.00    +0.000 H 
ATOM     36  C27 UNL A   1      16.758  30.145  -0.959  1.00  0.00    +0.000 C 
ATOM    132  H27 UNL A   1      17.574  31.414   0.504  1.00  0.00    +0.000 H 
ATOM    131  H26 UNL A   1      15.812  30.555  -0.924  1.00  0.00    +0.000 H 
ENDBRANCH   32   33
ENDBRANCH   21   22
ENDBRANCH   20   21
ENDBRANCH   19   20
ENDBRANCH   16   17
ENDBRANCH   11   13
ENDBRANCH   10   11
ENDBRANCH    9   10
ENDBRANCH    8    9
ENDBRANCH    7    8
ENDBRANCH    6    7
ENDBRANCH    5    6
ENDBRANCH    4    5
ENDBRANCH    3    4
ENDBRANCH    2    3
ENDBRANCH   43    2
ENDBRANCH   47   46
BRANCH   51   52
ATOM     52  C40 UNL A   1      22.791  17.424  11.448  1.00  0.00    +0.000 C 
ATOM     53  C41 UNL A   1      22.364  18.085  12.620  1.00  0.00    +0.000 C 
ATOM     54  F1  UNL A   1      21.883  19.336  12.564  1.00  0.00    +0.000 F 
ATOM     55  C42 UNL A   1      22.522  17.520  13.888  1.00  0.00    +0.000 C 
ATOM     56  F2  UNL A   1      22.240  18.246  14.979  1.00  0.00    +0.000 F 
ATOM     57  C43 UNL A   1      23.043  16.248  14.029  1.00  0.00    +0.000 C 
ATOM     58  F3  UNL A   1      23.268  15.733  15.244  1.00  0.00    +0.000 F 
ATOM     59  C44 UNL A   1      23.377  15.529  12.901  1.00  0.00    +0.000 C 
ATOM     60  F4  UNL A   1      23.891  14.297  13.017  1.00  0.00    +0.000 F 
ATOM     61  C45 UNL A   1      23.268  16.109  11.638  1.00  0.00    +0.000 C 
ATOM     62  F5  UNL A   1      23.750  15.368  10.636  1.00  0.00    +0.000 F 
ENDBRANCH   51   52
BRANCH   68   69
ATOM     69  C51 UNL A   1      26.869  17.176   6.031  1.00  0.00    +0.000 C 
ATOM     70  C52 UNL A   1      28.224  16.851   5.846  1.00  0.00    +0.000 C 
ATOM     71  F6  UNL A   1      28.892  16.143   6.767  1.00  0.00    +0.000 F 
ATOM     72  C53 UNL A   1      28.896  17.199   4.675  1.00  0.00    +0.000 C 
ATOM     73  F7  UNL A   1      30.191  16.886   4.525  1.00  0.00    +0.000 F 
ATOM     74  C54 UNL A   1      28.215  17.832   3.647  1.00  0.00    +0.000 C 
ATOM     75  F8  UNL A   1      28.848  18.127   2.503  1.00  0.00    +0.000 F 
ATOM     76  C55 UNL A   1      26.870  18.131   3.793  1.00  0.00    +0.000 C 
ATOM     77  F9  UNL A   1      26.195  18.696   2.782  1.00  0.00    +0.000 F 
ATOM     78  C56 UNL A   1      26.208  17.818   4.977  1.00  0.00    +0.000 C 
ATOM     79  F10 UNL A   1      24.899  18.098   5.076  1.00  0.00    +0.000 F 
ENDBRANCH   68   69
BRANCH   83   84
ATOM     84  C60 UNL A   1      23.061  12.361   4.615  1.00  0.00    +0.000 C 
ATOM     85  C61 UNL A   1      21.976  11.716   5.231  1.00  0.00    +0.000 C 
ATOM     86  F11 UNL A   1      21.403  12.252   6.319  1.00  0.00    +0.000 F 
ATOM     87  C62 UNL A   1      21.420  10.547   4.700  1.00  0.00    +0.000 C 
ATOM     88  F12 UNL A   1      20.349   9.990   5.282  1.00  0.00    +0.000 F 
ATOM     89  C63 UNL A   1      21.935   9.991   3.540  1.00  0.00    +0.000 C 
ATOM     90  F13 UNL A   1      21.366   8.906   2.996  1.00  0.00    +0.000 F 
ATOM     91  C64 UNL A   1      23.016  10.589   2.921  1.00  0.00    +0.000 C 
ATOM     92  F14 UNL A   1      23.498  10.084   1.777  1.00  0.00    +0.000 F 
ATOM     93  C65 UNL A   1      23.568  11.757   3.448  1.00  0.00    +0.000 C 
ATOM     94  F15 UNL A   1      24.546  12.342   2.742  1.00  0.00    +0.000 F 
ENDBRANCH   83   84
TORSDOF 20
ENDMDL
MODEL 6
REMARK VINA RESULT:      -8.6      9.701     18.934
ROOT
ATOM    138  H33 UNL A   1      43.826  19.354  44.001  1.00  0.00    +0.000 H 
ATOM    139  H34 UNL A   1      45.288  20.748  45.739  1.00  0.00    +0.000 H 
ATOM    140  H35 UNL A   1      45.900  16.815  46.323  1.00  0.00    +0.000 H 
ATOM    141  H36 UNL A   1      53.344  19.375  43.803  1.00  0.00    +0.000 H 
ATOM    142  H37 UNL A   1      51.885  20.194  41.882  1.00  0.00    +0.000 H 
ATOM    143  H38 UNL A   1      49.429  18.051  44.460  1.00  0.00    +0.000 H 
ATOM    144  H39 UNL A   1      50.231  15.345  46.034  1.00  0.00    +0.000 H 
ATOM    145  H40 UNL A   1      47.786  16.148  46.205  1.00  0.00    +0.000 H 
ATOM    146  H41 UNL A   1      46.110  15.825  40.871  1.00  0.00    +0.000 H 
ATOM    147  H42 UNL A   1      48.430  16.719  40.209  1.00  0.00    +0.000 H 
ATOM     47  C36 UNL A   1      49.279  18.926  41.824  1.00  0.00    +0.000 C 
ATOM     48  C37 UNL A   1      48.060  18.085  41.983  1.00  0.00    +0.000 C 
ATOM     49  N8  UNL A   1      47.090  18.231  42.829  1.00  0.00    +0.000 N 
ATOM     50  C38 UNL A   1      46.228  17.156  42.612  1.00  0.00    +0.000 C 
ATOM     51  C39 UNL A   1      45.380  16.719  43.585  1.00  0.00    +0.000 C 
ATOM     63  C46 UNL A   1      45.154  17.738  44.578  1.00  0.00    +0.000 C 
ATOM     64  C47 UNL A   1      44.617  19.010  44.569  1.00  0.00    +0.000 C 
ATOM     65  C48 UNL A   1      45.392  19.747  45.513  1.00  0.00    +0.000 C 
ATOM     66  C49 UNL A   1      46.316  18.867  46.075  1.00  0.00    +0.000 C 
ATOM     67  N9  UNL A   1      45.810  17.630  45.778  1.00  0.00    +0.000 N 
ATOM     68  C50 UNL A   1      47.579  19.062  46.739  1.00  0.00    +0.000 C 
ATOM     80  C57 UNL A   1      48.563  18.120  46.821  1.00  0.00    +0.000 C 
ATOM     81  N10 UNL A   1      49.882  18.485  47.046  1.00  0.00    +0.000 N 
ATOM     82  C58 UNL A   1      50.585  17.531  46.500  1.00  0.00    +0.000 C 
ATOM     83  C59 UNL A   1      51.843  17.771  45.750  1.00  0.00    +0.000 C 
ATOM     95  C66 UNL A   1      51.511  18.435  44.613  1.00  0.00    +0.000 C 
ATOM     96  C67 UNL A   1      52.337  19.179  43.687  1.00  0.00    +0.000 C 
ATOM     97  C68 UNL A   1      51.574  19.575  42.646  1.00  0.00    +0.000 C 
ATOM     98  C69 UNL A   1      50.238  18.991  42.771  1.00  0.00    +0.000 C 
ATOM     99  N11 UNL A   1      50.231  18.421  44.026  1.00  0.00    +0.000 N 
ATOM    100  C70 UNL A   1      49.874  16.288  46.251  1.00  0.00    +0.000 C 
ATOM    101  C71 UNL A   1      48.620  16.727  46.386  1.00  0.00    +0.000 C 
ATOM    102  C72 UNL A   1      46.649  16.540  41.383  1.00  0.00    +0.000 C 
ATOM    103  C73 UNL A   1      47.832  17.019  40.995  1.00  0.00    +0.000 C 
ENDROOT
BRANCH   47   46
ATOM    104  C74 UNL A   1      48.750  20.726  40.206  1.00  0.00    +0.000 C 
ATOM    105  C75 UNL A   1      48.925  21.300  38.955  1.00  0.00    +0.000 C 
ATOM    136  H31 UNL A   1      51.208  19.199  37.702  1.00  0.00    +0.000 H 
ATOM     43  C32 UNL A   1      49.774  20.716  37.995  1.00  0.00    +0.000 C 
ATOM     44  C33 UNL A   1      50.519  19.594  38.362  1.00  0.00    +0.000 C 
ATOM     45  C34 UNL A   1      50.338  19.005  39.609  1.00  0.00    +0.000 C 
ATOM    137  H32 UNL A   1      50.882  18.165  39.868  1.00  0.00    +0.000 H 
ATOM     46  C35 UNL A   1      49.423  19.547  40.511  1.00  0.00    +0.000 C 
ATOM    148  H43 UNL A   1      48.128  21.167  40.901  1.00  0.00    +0.000 H 
ATOM    149  H44 UNL A   1      48.425  22.173  38.724  1.00  0.00    +0.000 H 
BRANCH   43    2
ATOM      1  O1  UNL A   1      50.332  20.786  35.720  1.00  0.00    +0.000 O 
ATOM      2  C1  UNL A   1      49.726  21.336  36.643  1.00  0.00    +0.000 C 
BRANCH    2    3
ATOM    106  H1  UNL A   1      49.500  23.280  36.831  1.00  0.00    +0.000 H 
ATOM      3  N1  UNL A   1      49.115  22.519  36.339  1.00  0.00    +0.000 N 
BRANCH    3    4
ATOM    108  H3  UNL A   1      47.685  23.863  35.812  1.00  0.00    +0.000 H 
ATOM    107  H2  UNL A   1      48.410  22.954  34.463  1.00  0.00    +0.000 H 
ATOM      4  C2  UNL A   1      48.034  22.913  35.464  1.00  0.00    +0.000 C 
BRANCH    4    5
ATOM    109  H4  UNL A   1      46.529  21.842  36.505  1.00  0.00    +0.000 H 
ATOM      5  C3  UNL A   1      46.835  21.965  35.488  1.00  0.00    +0.000 C 
ATOM    110  H5  UNL A   1      47.163  21.055  35.029  1.00  0.00    +0.000 H 
BRANCH    5    6
ATOM      6  C4  UNL A   1      45.620  22.439  34.680  1.00  0.00    +0.000 C 
ATOM    111  H6  UNL A   1      44.845  22.691  35.372  1.00  0.00    +0.000 H 
ATOM    112  H7  UNL A   1      45.373  21.629  34.025  1.00  0.00    +0.000 H 
BRANCH    6    7
ATOM    113  H8  UNL A   1      46.247  23.295  32.842  1.00  0.00    +0.000 H 
ATOM    114  H9  UNL A   1      46.525  24.291  34.306  1.00  0.00    +0.000 H 
ATOM      7  C5  UNL A   1      45.855  23.650  33.772  1.00  0.00    +0.000 C 
BRANCH    7    8
ATOM    115  H10 UNL A   1      44.345  25.021  34.362  1.00  0.00    +0.000 H 
ATOM    116  H11 UNL A   1      43.860  23.816  33.134  1.00  0.00    +0.000 H 
ATOM      8  C6  UNL A   1      44.615  24.496  33.469  1.00  0.00    +0.000 C 
BRANCH    8    9
ATOM      9  C7  UNL A   1      44.797  25.520  32.353  1.00  0.00    +0.000 C 
ATOM    117  H12 UNL A   1      45.484  26.270  32.684  1.00  0.00    +0.000 H 
ATOM    118  H13 UNL A   1      43.836  25.936  32.133  1.00  0.00    +0.000 H 
BRANCH    9   10
ATOM     10  N2  UNL A   1      45.311  24.924  31.130  1.00  0.00    +0.000 N 
ATOM    119  H14 UNL A   1      45.905  24.149  31.251  1.00  0.00    +0.000 H 
BRANCH   10   11
ATOM     11  C8  UNL A   1      45.077  25.295  29.830  1.00  0.00    +0.000 C 
ATOM     12  O2  UNL A   1      45.741  26.185  29.303  1.00  0.00    +0.000 O 
BRANCH   11   13
ATOM    134  H29 UNL A   1      40.797  24.806  28.221  1.00  0.00    +0.000 H 
ATOM    135  H30 UNL A   1      42.515  26.028  29.435  1.00  0.00    +0.000 H 
ATOM     41  C30 UNL A   1      41.754  24.426  28.290  1.00  0.00    +0.000 C 
ATOM     42  C31 UNL A   1      42.738  25.128  28.981  1.00  0.00    +0.000 C 
ATOM     13  C9  UNL A   1      44.031  24.602  29.054  1.00  0.00    +0.000 C 
ATOM     14  C10 UNL A   1      44.358  23.409  28.398  1.00  0.00    +0.000 C 
ATOM     15  C11 UNL A   1      43.366  22.680  27.740  1.00  0.00    +0.000 C 
ATOM     16  C12 UNL A   1      42.070  23.195  27.686  1.00  0.00    +0.000 C 
ATOM    120  H15 UNL A   1      45.332  23.068  28.400  1.00  0.00    +0.000 H 
ATOM    121  H16 UNL A   1      43.587  21.772  27.301  1.00  0.00    +0.000 H 
BRANCH   16   17
ATOM     39  N6  UNL A   1      40.164  21.126  25.558  1.00  0.00    +0.000 N 
ATOM     40  N7  UNL A   1      41.339  21.555  26.024  1.00  0.00    +0.000 N 
ATOM     17  N3  UNL A   1      41.095  22.535  26.917  1.00  0.00    +0.000 N 
ATOM     18  C13 UNL A   1      39.755  22.783  26.969  1.00  0.00    +0.000 C 
ATOM     19  C14 UNL A   1      39.167  21.921  26.080  1.00  0.00    +0.000 C 
ATOM    122  H17 UNL A   1      39.277  23.481  27.560  1.00  0.00    +0.000 H 
BRANCH   19   20
ATOM    124  H19 UNL A   1      37.744  20.554  25.871  1.00  0.00    +0.000 H 
ATOM    123  H18 UNL A   1      37.215  22.160  26.651  1.00  0.00    +0.000 H 
ATOM     20  C15 UNL A   1      37.729  21.624  25.881  1.00  0.00    +0.000 C 
BRANCH   20   21
ATOM     21  S1  UNL A   1      36.829  21.964  24.367  1.00  0.00    +0.000 S 
BRANCH   21   22
ATOM    127  H22 UNL A   1      31.268  26.942  25.953  1.00  0.00    +0.000 H 
ATOM    126  H21 UNL A   1      32.771  27.770  24.233  1.00  0.00    +0.000 H 
ATOM    128  H23 UNL A   1      31.517  24.662  26.774  1.00  0.00    +0.000 H 
ATOM    125  H20 UNL A   1      34.655  26.421  23.505  1.00  0.00    +0.000 H 
ATOM     22  C16 UNL A   1      35.276  22.716  24.615  1.00  0.00    +0.000 C 
ATOM     23  N4  UNL A   1      35.315  24.004  24.419  1.00  0.00    +0.000 N 
ATOM     24  C17 UNL A   1      34.164  24.754  24.699  1.00  0.00    +0.000 C 
ATOM     25  C18 UNL A   1      33.989  26.043  24.196  1.00  0.00    +0.000 C 
ATOM     26  C19 UNL A   1      32.911  26.828  24.629  1.00  0.00    +0.000 C 
ATOM     27  C20 UNL A   1      32.026  26.340  25.594  1.00  0.00    +0.000 C 
ATOM     28  C21 UNL A   1      32.170  25.040  26.069  1.00  0.00    +0.000 C 
ATOM     29  C22 UNL A   1      33.215  24.253  25.577  1.00  0.00    +0.000 C 
ATOM     30  C23 UNL A   1      33.316  22.818  25.864  1.00  0.00    +0.000 C 
ATOM     31  O3  UNL A   1      32.732  22.372  26.850  1.00  0.00    +0.000 O 
ATOM     32  N5  UNL A   1      34.098  22.081  24.965  1.00  0.00    +0.000 N 
BRANCH   32   33
ATOM     33  C24 UNL A   1      33.632  20.767  24.573  1.00  0.00    +0.000 C 
ATOM     34  C25 UNL A   1      34.372  19.625  24.951  1.00  0.00    +0.000 C 
ATOM    129  H24 UNL A   1      35.107  19.723  25.668  1.00  0.00    +0.000 H 
ATOM     35  C26 UNL A   1      34.142  18.368  24.387  1.00  0.00    +0.000 C 
ATOM    133  H28 UNL A   1      31.783  21.268  23.691  1.00  0.00    +0.000 H 
ATOM     38  C29 UNL A   1      32.490  20.524  23.803  1.00  0.00    +0.000 C 
ATOM     37  C28 UNL A   1      32.292  19.282  23.178  1.00  0.00    +0.000 C 
ATOM    130  H25 UNL A   1      34.716  17.560  24.672  1.00  0.00    +0.000 H 
ATOM     36  C27 UNL A   1      33.141  18.215  23.441  1.00  0.00    +0.000 C 
ATOM    132  H27 UNL A   1      31.508  19.161  22.518  1.00  0.00    +0.000 H 
ATOM    131  H26 UNL A   1      33.029  17.320  22.940  1.00  0.00    +0.000 H 
ENDBRANCH   32   33
ENDBRANCH   21   22
ENDBRANCH   20   21
ENDBRANCH   19   20
ENDBRANCH   16   17
ENDBRANCH   11   13
ENDBRANCH   10   11
ENDBRANCH    9   10
ENDBRANCH    8    9
ENDBRANCH    7    8
ENDBRANCH    6    7
ENDBRANCH    5    6
ENDBRANCH    4    5
ENDBRANCH    3    4
ENDBRANCH    2    3
ENDBRANCH   43    2
ENDBRANCH   47   46
BRANCH   51   52
ATOM     52  C40 UNL A   1      45.075  15.261  43.856  1.00  0.00    +0.000 C 
ATOM     53  C41 UNL A   1      43.726  14.852  43.932  1.00  0.00    +0.000 C 
ATOM     54  F1  UNL A   1      42.744  15.641  43.471  1.00  0.00    +0.000 F 
ATOM     55  C42 UNL A   1      43.344  13.674  44.582  1.00  0.00    +0.000 C 
ATOM     56  F2  UNL A   1      42.044  13.405  44.759  1.00  0.00    +0.000 F 
ATOM     57  C43 UNL A   1      44.297  12.827  45.113  1.00  0.00    +0.000 C 
ATOM     58  F3  UNL A   1      43.934  11.739  45.804  1.00  0.00    +0.000 F 
ATOM     59  C44 UNL A   1      45.632  13.140  44.969  1.00  0.00    +0.000 C 
ATOM     60  F4  UNL A   1      46.571  12.335  45.485  1.00  0.00    +0.000 F 
ATOM     61  C45 UNL A   1      46.014  14.338  44.367  1.00  0.00    +0.000 C 
ATOM     62  F5  UNL A   1      47.325  14.595  44.409  1.00  0.00    +0.000 F 
ENDBRANCH   51   52
BRANCH   68   69
ATOM     69  C51 UNL A   1      47.924  20.466  47.144  1.00  0.00    +0.000 C 
ATOM     70  C52 UNL A   1      48.705  21.333  46.359  1.00  0.00    +0.000 C 
ATOM     71  F6  UNL A   1      49.222  20.924  45.193  1.00  0.00    +0.000 F 
ATOM     72  C53 UNL A   1      48.913  22.658  46.738  1.00  0.00    +0.000 C 
ATOM     73  F7  UNL A   1      49.670  23.464  45.979  1.00  0.00    +0.000 F 
ATOM     74  C54 UNL A   1      48.306  23.157  47.880  1.00  0.00    +0.000 C 
ATOM     75  F8  UNL A   1      48.468  24.443  48.220  1.00  0.00    +0.000 F 
ATOM     76  C55 UNL A   1      47.503  22.331  48.650  1.00  0.00    +0.000 C 
ATOM     77  F9  UNL A   1      46.871  22.823  49.724  1.00  0.00    +0.000 F 
ATOM     78  C56 UNL A   1      47.324  20.997  48.293  1.00  0.00    +0.000 C 
ATOM     79  F10 UNL A   1      46.519  20.231  49.046  1.00  0.00    +0.000 F 
ENDBRANCH   68   69
BRANCH   83   84
ATOM     84  C60 UNL A   1      53.099  17.046  46.049  1.00  0.00    +0.000 C 
ATOM     85  C61 UNL A   1      53.563  16.014  45.217  1.00  0.00    +0.000 C 
ATOM     86  F11 UNL A   1      52.772  15.521  44.252  1.00  0.00    +0.000 F 
ATOM     87  C62 UNL A   1      54.868  15.521  45.317  1.00  0.00    +0.000 C 
ATOM     88  F12 UNL A   1      55.294  14.575  44.468  1.00  0.00    +0.000 F 
ATOM     89  C63 UNL A   1      55.745  16.043  46.254  1.00  0.00    +0.000 C 
ATOM     90  F13 UNL A   1      57.014  15.614  46.312  1.00  0.00    +0.000 F 
ATOM     91  C64 UNL A   1      55.314  17.046  47.103  1.00  0.00    +0.000 C 
ATOM     92  F14 UNL A   1      56.163  17.588  47.987  1.00  0.00    +0.000 F 
ATOM     93  C65 UNL A   1      54.014  17.540  47.000  1.00  0.00    +0.000 C 
ATOM     94  F15 UNL A   1      53.694  18.582  47.782  1.00  0.00    +0.000 F 
ENDBRANCH   83   84
TORSDOF 20
ENDMDL
MODEL 7
REMARK VINA RESULT:      -8.6     29.061     34.873
ROOT
ATOM    138  H33 UNL A   1      23.014  15.739   1.570  1.00  0.00    +0.000 H 
ATOM    139  H34 UNL A   1      25.334  16.517   2.626  1.00  0.00    +0.000 H 
ATOM    140  H35 UNL A   1      22.354  18.749   4.150  1.00  0.00    +0.000 H 
ATOM    141  H36 UNL A   1      25.036  14.654  10.809  1.00  0.00    +0.000 H 
ATOM    142  H37 UNL A   1      24.536  12.717   9.232  1.00  0.00    +0.000 H 
ATOM    143  H38 UNL A   1      23.338  16.204   7.313  1.00  0.00    +0.000 H 
ATOM    144  H39 UNL A   1      21.910  18.744   8.711  1.00  0.00    +0.000 H 
ATOM    145  H40 UNL A   1      22.141  18.765   6.142  1.00  0.00    +0.000 H 
ATOM    146  H41 UNL A   1      19.041  14.334   4.687  1.00  0.00    +0.000 H 
ATOM    147  H42 UNL A   1      20.017  13.124   6.737  1.00  0.00    +0.000 H 
ATOM     47  C36 UNL A   1      22.845  13.484   7.006  1.00  0.00    +0.000 C 
ATOM     48  C37 UNL A   1      21.927  14.119   6.020  1.00  0.00    +0.000 C 
ATOM     49  N8  UNL A   1      22.228  14.896   5.029  1.00  0.00    +0.000 N 
ATOM     50  C38 UNL A   1      21.013  15.269   4.453  1.00  0.00    +0.000 C 
ATOM     51  C39 UNL A   1      20.898  16.410   3.716  1.00  0.00    +0.000 C 
ATOM     63  C46 UNL A   1      22.181  16.854   3.236  1.00  0.00    +0.000 C 
ATOM     64  C47 UNL A   1      23.153  16.323   2.410  1.00  0.00    +0.000 C 
ATOM     65  C48 UNL A   1      24.392  16.757   2.970  1.00  0.00    +0.000 C 
ATOM     66  C49 UNL A   1      24.097  17.565   4.068  1.00  0.00    +0.000 C 
ATOM     67  N9  UNL A   1      22.784  17.906   3.877  1.00  0.00    +0.000 N 
ATOM     68  C50 UNL A   1      24.848  17.947   5.236  1.00  0.00    +0.000 C 
ATOM     80  C57 UNL A   1      24.292  18.351   6.414  1.00  0.00    +0.000 C 
ATOM     81  N10 UNL A   1      25.000  18.262   7.604  1.00  0.00    +0.000 N 
ATOM     82  C58 UNL A   1      24.083  18.140   8.524  1.00  0.00    +0.000 C 
ATOM     83  C59 UNL A   1      24.221  17.246   9.701  1.00  0.00    +0.000 C 
ATOM     95  C66 UNL A   1      24.197  15.970   9.241  1.00  0.00    +0.000 C 
ATOM     96  C67 UNL A   1      24.593  14.734   9.881  1.00  0.00    +0.000 C 
ATOM     97  C68 UNL A   1      24.287  13.704   9.064  1.00  0.00    +0.000 C 
ATOM     98  C69 UNL A   1      23.547  14.204   7.905  1.00  0.00    +0.000 C 
ATOM     99  N11 UNL A   1      23.633  15.576   8.011  1.00  0.00    +0.000 N 
ATOM    100  C70 UNL A   1      22.743  18.546   8.135  1.00  0.00    +0.000 C 
ATOM    101  C71 UNL A   1      22.906  18.587   6.810  1.00  0.00    +0.000 C 
ATOM    102  C72 UNL A   1      20.011  14.415   5.031  1.00  0.00    +0.000 C 
ATOM    103  C73 UNL A   1      20.504  13.744   6.071  1.00  0.00    +0.000 C 
ENDROOT
BRANCH   47   46
ATOM    104  C74 UNL A   1      23.169  11.294   5.893  1.00  0.00    +0.000 C 
ATOM    105  C75 UNL A   1      23.141   9.908   5.947  1.00  0.00    +0.000 C 
ATOM    136  H31 UNL A   1      22.304   9.504   9.162  1.00  0.00    +0.000 H 
ATOM     43  C32 UNL A   1      22.760   9.231   7.122  1.00  0.00    +0.000 C 
ATOM     44  C33 UNL A   1      22.504   9.983   8.270  1.00  0.00    +0.000 C 
ATOM     45  C34 UNL A   1      22.517  11.373   8.219  1.00  0.00    +0.000 C 
ATOM    137  H32 UNL A   1      22.312  11.923   9.069  1.00  0.00    +0.000 H 
ATOM     46  C35 UNL A   1      22.807  12.024   7.020  1.00  0.00    +0.000 C 
ATOM    148  H43 UNL A   1      23.454  11.777   5.027  1.00  0.00    +0.000 H 
ATOM    149  H44 UNL A   1      23.405   9.363   5.112  1.00  0.00    +0.000 H 
BRANCH   43    2
ATOM      1  O1  UNL A   1      22.137   7.310   5.931  1.00  0.00    +0.000 O 
ATOM      2  C1  UNL A   1      22.601   7.757   6.983  1.00  0.00    +0.000 C 
BRANCH    2    3
ATOM    106  H1  UNL A   1      23.693   6.335   7.788  1.00  0.00    +0.000 H 
ATOM      3  N1  UNL A   1      22.866   6.841   7.959  1.00  0.00    +0.000 N 
BRANCH    3    4
ATOM    108  H3  UNL A   1      22.299   5.375   9.247  1.00  0.00    +0.000 H 
ATOM    107  H2  UNL A   1      22.696   6.939  10.001  1.00  0.00    +0.000 H 
ATOM      4  C2  UNL A   1      22.214   6.440   9.186  1.00  0.00    +0.000 C 
BRANCH    4    5
ATOM    109  H4  UNL A   1      20.197   5.887   9.532  1.00  0.00    +0.000 H 
ATOM      5  C3  UNL A   1      20.722   6.770   9.236  1.00  0.00    +0.000 C 
ATOM    110  H5  UNL A   1      20.458   7.114   8.258  1.00  0.00    +0.000 H 
BRANCH    5    6
ATOM      6  C4  UNL A   1      20.341   7.897  10.204  1.00  0.00    +0.000 C 
ATOM    111  H6  UNL A   1      20.082   8.756   9.623  1.00  0.00    +0.000 H 
ATOM    112  H7  UNL A   1      21.195   8.040  10.834  1.00  0.00    +0.000 H 
BRANCH    6    7
ATOM    113  H8  UNL A   1      18.488   8.417  11.098  1.00  0.00    +0.000 H 
ATOM    114  H9  UNL A   1      19.607   7.457  12.117  1.00  0.00    +0.000 H 
ATOM      7  C5  UNL A   1      19.174   7.597  11.149  1.00  0.00    +0.000 C 
BRANCH    7    8
ATOM    115  H10 UNL A   1      18.876   5.816  10.032  1.00  0.00    +0.000 H 
ATOM    116  H11 UNL A   1      17.392   6.614  10.627  1.00  0.00    +0.000 H 
ATOM      8  C6  UNL A   1      18.395   6.313  10.848  1.00  0.00    +0.000 C 
BRANCH    8    9
ATOM      9  C7  UNL A   1      18.302   5.333  12.013  1.00  0.00    +0.000 C 
ATOM    117  H12 UNL A   1      17.272   5.210  12.276  1.00  0.00    +0.000 H 
ATOM    118  H13 UNL A   1      18.869   5.738  12.826  1.00  0.00    +0.000 H 
BRANCH    9   10
ATOM     10  N2  UNL A   1      18.860   4.030  11.689  1.00  0.00    +0.000 N 
ATOM    119  H14 UNL A   1      18.822   3.360  12.409  1.00  0.00    +0.000 H 
BRANCH   10   11
ATOM     11  C8  UNL A   1      19.432   3.608  10.516  1.00  0.00    +0.000 C 
ATOM     12  O2  UNL A   1      18.861   3.788   9.441  1.00  0.00    +0.000 O 
BRANCH   11   13
ATOM    134  H29 UNL A   1      23.652   2.942  12.215  1.00  0.00    +0.000 H 
ATOM    135  H30 UNL A   1      21.453   3.980  12.258  1.00  0.00    +0.000 H 
ATOM     41  C30 UNL A   1      22.952   2.705  11.496  1.00  0.00    +0.000 C 
ATOM     42  C31 UNL A   1      21.692   3.295  11.523  1.00  0.00    +0.000 C 
ATOM     13  C9  UNL A   1      20.753   2.953  10.546  1.00  0.00    +0.000 C 
ATOM     14  C10 UNL A   1      21.047   1.986   9.577  1.00  0.00    +0.000 C 
ATOM     15  C11 UNL A   1      22.323   1.422   9.519  1.00  0.00    +0.000 C 
ATOM     16  C12 UNL A   1      23.267   1.781  10.482  1.00  0.00    +0.000 C 
ATOM    120  H15 UNL A   1      20.321   1.690   8.905  1.00  0.00    +0.000 H 
ATOM    121  H16 UNL A   1      22.565   0.750   8.773  1.00  0.00    +0.000 H 
BRANCH   16   17
ATOM     39  N6  UNL A   1      25.995  -0.453  10.461  1.00  0.00    +0.000 N 
ATOM     40  N7  UNL A   1      24.684  -0.214  10.510  1.00  0.00    +0.000 N 
ATOM     17  N3  UNL A   1      24.510   1.124  10.511  1.00  0.00    +0.000 N 
ATOM     18  C13 UNL A   1      25.724   1.743  10.535  1.00  0.00    +0.000 C 
ATOM     19  C14 UNL A   1      26.666   0.747  10.544  1.00  0.00    +0.000 C 
ATOM    122  H17 UNL A   1      25.900   2.760  10.543  1.00  0.00    +0.000 H 
BRANCH   19   20
ATOM    124  H19 UNL A   1      28.465   0.023  10.963  1.00  0.00    +0.000 H 
ATOM    123  H18 UNL A   1      28.298   0.872   9.314  1.00  0.00    +0.000 H 
ATOM     20  C15 UNL A   1      28.134   0.850  10.371  1.00  0.00    +0.000 C 
BRANCH   20   21
ATOM     21  S1  UNL A   1      29.140   2.173  11.046  1.00  0.00    +0.000 S 
BRANCH   21   22
ATOM    127  H22 UNL A   1      31.657   7.245   5.932  1.00  0.00    +0.000 H 
ATOM    126  H21 UNL A   1      31.168   8.277   8.077  1.00  0.00    +0.000 H 
ATOM    128  H23 UNL A   1      31.538   4.823   5.707  1.00  0.00    +0.000 H 
ATOM    125  H20 UNL A   1      30.340   6.929   9.920  1.00  0.00    +0.000 H 
ATOM     22  C16 UNL A   1      30.094   3.021   9.860  1.00  0.00    +0.000 C 
ATOM     23  N4  UNL A   1      29.870   4.305   9.872  1.00  0.00    +0.000 N 
ATOM     24  C17 UNL A   1      30.482   5.096   8.889  1.00  0.00    +0.000 C 
ATOM     25  C18 UNL A   1      30.597   6.479   9.028  1.00  0.00    +0.000 C 
ATOM     26  C19 UNL A   1      31.059   7.259   7.959  1.00  0.00    +0.000 C 
ATOM     27  C20 UNL A   1      31.372   6.662   6.735  1.00  0.00    +0.000 C 
ATOM     28  C21 UNL A   1      31.299   5.278   6.602  1.00  0.00    +0.000 C 
ATOM     29  C22 UNL A   1      30.897   4.514   7.701  1.00  0.00    +0.000 C 
ATOM     30  C23 UNL A   1      30.991   3.051   7.713  1.00  0.00    +0.000 C 
ATOM     31  O3  UNL A   1      31.039   2.454   6.639  1.00  0.00    +0.000 O 
ATOM     32  N5  UNL A   1      31.009   2.463   8.984  1.00  0.00    +0.000 N 
BRANCH   32   33
ATOM     33  C24 UNL A   1      31.900   1.343   9.206  1.00  0.00    +0.000 C 
ATOM     34  C25 UNL A   1      33.297   1.546   9.161  1.00  0.00    +0.000 C 
ATOM    129  H24 UNL A   1      33.661   2.511   9.181  1.00  0.00    +0.000 H 
ATOM     35  C26 UNL A   1      34.202   0.485   9.091  1.00  0.00    +0.000 C 
ATOM    133  H28 UNL A   1      30.507  -0.155   9.717  1.00  0.00    +0.000 H 
ATOM     38  C29 UNL A   1      31.484   0.028   9.440  1.00  0.00    +0.000 C 
ATOM     37  C28 UNL A   1      32.377  -1.046   9.303  1.00  0.00    +0.000 C 
ATOM    130  H25 UNL A   1      35.216   0.670   9.040  1.00  0.00    +0.000 H 
ATOM     36  C27 UNL A   1      33.731  -0.818   9.090  1.00  0.00    +0.000 C 
ATOM    132  H27 UNL A   1      32.025  -2.015   9.361  1.00  0.00    +0.000 H 
ATOM    131  H26 UNL A   1      34.377  -1.607   8.933  1.00  0.00    +0.000 H 
ENDBRANCH   32   33
ENDBRANCH   21   22
ENDBRANCH   20   21
ENDBRANCH   19   20
ENDBRANCH   16   17
ENDBRANCH   11   13
ENDBRANCH   10   11
ENDBRANCH    9   10
ENDBRANCH    8    9
ENDBRANCH    7    8
ENDBRANCH    6    7
ENDBRANCH    5    6
ENDBRANCH    4    5
ENDBRANCH    3    4
ENDBRANCH    2    3
ENDBRANCH   43    2
ENDBRANCH   47   46
BRANCH   51   52
ATOM     52  C40 UNL A   1      19.701  17.336   3.764  1.00  0.00    +0.000 C 
ATOM     53  C41 UNL A   1      18.964  17.555   2.580  1.00  0.00    +0.000 C 
ATOM     54  F1  UNL A   1      19.108  16.742   1.523  1.00  0.00    +0.000 F 
ATOM     55  C42 UNL A   1      18.147  18.677   2.413  1.00  0.00    +0.000 C 
ATOM     56  F2  UNL A   1      17.588  18.920   1.219  1.00  0.00    +0.000 F 
ATOM     57  C43 UNL A   1      17.977  19.580   3.445  1.00  0.00    +0.000 C 
ATOM     58  F3  UNL A   1      17.258  20.695   3.264  1.00  0.00    +0.000 F 
ATOM     59  C44 UNL A   1      18.598  19.346   4.653  1.00  0.00    +0.000 C 
ATOM     60  F4  UNL A   1      18.451  20.215   5.664  1.00  0.00    +0.000 F 
ATOM     61  C45 UNL A   1      19.453  18.257   4.806  1.00  0.00    +0.000 C 
ATOM     62  F5  UNL A   1      20.103  18.211   5.973  1.00  0.00    +0.000 F 
ENDBRANCH   51   52
BRANCH   68   69
ATOM     69  C51 UNL A   1      26.318  17.641   5.227  1.00  0.00    +0.000 C 
ATOM     70  C52 UNL A   1      26.866  16.441   5.713  1.00  0.00    +0.000 C 
ATOM     71  F6  UNL A   1      26.082  15.498   6.253  1.00  0.00    +0.000 F 
ATOM     72  C53 UNL A   1      28.228  16.170   5.593  1.00  0.00    +0.000 C 
ATOM     73  F7  UNL A   1      28.730  15.022   6.073  1.00  0.00    +0.000 F 
ATOM     74  C54 UNL A   1      29.060  17.066   4.941  1.00  0.00    +0.000 C 
ATOM     75  F8  UNL A   1      30.360  16.785   4.784  1.00  0.00    +0.000 F 
ATOM     76  C55 UNL A   1      28.535  18.240   4.422  1.00  0.00    +0.000 C 
ATOM     77  F9  UNL A   1      29.325  19.084   3.745  1.00  0.00    +0.000 F 
ATOM     78  C56 UNL A   1      27.182  18.530   4.575  1.00  0.00    +0.000 C 
ATOM     79  F10 UNL A   1      26.702  19.662   4.038  1.00  0.00    +0.000 F 
ENDBRANCH   68   69
BRANCH   83   84
ATOM     84  C60 UNL A   1      24.011  17.720  11.089  1.00  0.00    +0.000 C 
ATOM     85  C61 UNL A   1      24.492  18.969  11.515  1.00  0.00    +0.000 C 
ATOM     86  F11 UNL A   1      25.333  19.667  10.738  1.00  0.00    +0.000 F 
ATOM     87  C62 UNL A   1      24.062  19.551  12.713  1.00  0.00    +0.000 C 
ATOM     88  F12 UNL A   1      24.499  20.770  13.059  1.00  0.00    +0.000 F 
ATOM     89  C63 UNL A   1      23.143  18.899  13.518  1.00  0.00    +0.000 C 
ATOM     90  F13 UNL A   1      22.685  19.481  14.636  1.00  0.00    +0.000 F 
ATOM     91  C64 UNL A   1      22.666  17.658  13.139  1.00  0.00    +0.000 C 
ATOM     92  F14 UNL A   1      21.747  17.035  13.888  1.00  0.00    +0.000 F 
ATOM     93  C65 UNL A   1      23.091  17.080  11.942  1.00  0.00    +0.000 C 
ATOM     94  F15 UNL A   1      22.511  15.925  11.584  1.00  0.00    +0.000 F 
ENDBRANCH   83   84
TORSDOF 20
ENDMDL
MODEL 8
REMARK VINA RESULT:      -8.6     42.032     48.053
ROOT
ATOM    138  H33 UNL A   1       5.067  16.208  42.003  1.00  0.00    +0.000 H 
ATOM    139  H34 UNL A   1       6.241  15.451  39.733  1.00  0.00    +0.000 H 
ATOM    140  H35 UNL A   1       6.177  12.358  42.305  1.00  0.00    +0.000 H 
ATOM    141  H36 UNL A   1       1.267   9.663  36.228  1.00  0.00    +0.000 H 
ATOM    142  H37 UNL A   1       0.130  11.866  36.814  1.00  0.00    +0.000 H 
ATOM    143  H38 UNL A   1       3.236  11.330  39.523  1.00  0.00    +0.000 H 
ATOM    144  H39 UNL A   1       4.126   8.524  40.858  1.00  0.00    +0.000 H 
ATOM    145  H40 UNL A   1       5.288  10.669  41.694  1.00  0.00    +0.000 H 
ATOM    146  H41 UNL A   1       0.988  13.509  43.887  1.00  0.00    +0.000 H 
ATOM    147  H42 UNL A   1      -0.420  12.686  41.897  1.00  0.00    +0.000 H 
ATOM     47  C36 UNL A   1       0.950  12.908  39.392  1.00  0.00    +0.000 C 
ATOM     48  C37 UNL A   1       1.481  13.175  40.757  1.00  0.00    +0.000 C 
ATOM     49  N8  UNL A   1       2.642  13.644  41.088  1.00  0.00    +0.000 N 
ATOM     50  C38 UNL A   1       2.670  13.648  42.483  1.00  0.00    +0.000 C 
ATOM     51  C39 UNL A   1       3.846  13.623  43.170  1.00  0.00    +0.000 C 
ATOM     63  C46 UNL A   1       4.941  14.069  42.347  1.00  0.00    +0.000 C 
ATOM     64  C47 UNL A   1       5.256  15.242  41.690  1.00  0.00    +0.000 C 
ATOM     65  C48 UNL A   1       5.899  14.832  40.485  1.00  0.00    +0.000 C 
ATOM     66  C49 UNL A   1       5.982  13.440  40.506  1.00  0.00    +0.000 C 
ATOM     67  N9  UNL A   1       5.786  13.123  41.824  1.00  0.00    +0.000 N 
ATOM     68  C50 UNL A   1       6.131  12.449  39.471  1.00  0.00    +0.000 C 
ATOM     80  C57 UNL A   1       5.745  11.146  39.588  1.00  0.00    +0.000 C 
ATOM     81  N10 UNL A   1       5.484  10.377  38.464  1.00  0.00    +0.000 N 
ATOM     82  C58 UNL A   1       4.625   9.482  38.869  1.00  0.00    +0.000 C 
ATOM     83  C59 UNL A   1       3.479   9.020  38.047  1.00  0.00    +0.000 C 
ATOM     95  C66 UNL A   1       2.621  10.066  37.931  1.00  0.00    +0.000 C 
ATOM     96  C67 UNL A   1       1.524  10.282  37.012  1.00  0.00    +0.000 C 
ATOM     97  C68 UNL A   1       0.894  11.427  37.350  1.00  0.00    +0.000 C 
ATOM     98  C69 UNL A   1       1.462  11.947  38.594  1.00  0.00    +0.000 C 
ATOM     99  N11 UNL A   1       2.567  11.155  38.822  1.00  0.00    +0.000 N 
ATOM    100  C70 UNL A   1       4.550   9.287  40.307  1.00  0.00    +0.000 C 
ATOM    101  C71 UNL A   1       5.193  10.388  40.707  1.00  0.00    +0.000 C 
ATOM    102  C72 UNL A   1       1.321  13.401  42.916  1.00  0.00    +0.000 C 
ATOM    103  C73 UNL A   1       0.559  13.013  41.893  1.00  0.00    +0.000 C 
ENDROOT
BRANCH   47   46
ATOM    104  C74 UNL A   1      -0.168  14.873  38.379  1.00  0.00    +0.000 C 
ATOM    105  C75 UNL A   1      -1.334  15.550  38.053  1.00  0.00    +0.000 C 
ATOM    136  H31 UNL A   1      -3.583  13.320  39.132  1.00  0.00    +0.000 H 
ATOM     43  C32 UNL A   1      -2.600  15.027  38.381  1.00  0.00    +0.000 C 
ATOM     44  C33 UNL A   1      -2.665  13.757  38.958  1.00  0.00    +0.000 C 
ATOM     45  C34 UNL A   1      -1.499  13.079  39.301  1.00  0.00    +0.000 C 
ATOM    137  H32 UNL A   1      -1.555  12.146  39.742  1.00  0.00    +0.000 H 
ATOM     46  C35 UNL A   1      -0.255  13.658  39.051  1.00  0.00    +0.000 C 
ATOM    148  H43 UNL A   1       0.752  15.267  38.128  1.00  0.00    +0.000 H 
ATOM    149  H44 UNL A   1      -1.273  16.454  37.558  1.00  0.00    +0.000 H 
BRANCH   43    2
ATOM      1  O1  UNL A   1      -4.819  15.452  37.759  1.00  0.00    +0.000 O 
ATOM      2  C1  UNL A   1      -3.749  15.939  38.133  1.00  0.00    +0.000 C 
BRANCH    2    3
ATOM    106  H1  UNL A   1      -3.632  17.734  37.339  1.00  0.00    +0.000 H 
ATOM      3  N1  UNL A   1      -3.707  17.301  38.220  1.00  0.00    +0.000 N 
BRANCH    3    4
ATOM    108  H3  UNL A   1      -3.729  19.229  38.862  1.00  0.00    +0.000 H 
ATOM    107  H2  UNL A   1      -4.634  18.079  39.876  1.00  0.00    +0.000 H 
ATOM      4  C2  UNL A   1      -3.746  18.255  39.306  1.00  0.00    +0.000 C 
BRANCH    4    5
ATOM    109  H4  UNL A   1      -2.304  19.170  40.563  1.00  0.00    +0.000 H 
ATOM      5  C3  UNL A   1      -2.546  18.177  40.249  1.00  0.00    +0.000 C 
ATOM    110  H5  UNL A   1      -1.761  17.703  39.696  1.00  0.00    +0.000 H 
BRANCH    5    6
ATOM      6  C4  UNL A   1      -2.764  17.322  41.504  1.00  0.00    +0.000 C 
ATOM    111  H6  UNL A   1      -3.724  16.858  41.422  1.00  0.00    +0.000 H 
ATOM    112  H7  UNL A   1      -2.674  17.994  42.332  1.00  0.00    +0.000 H 
BRANCH    6    7
ATOM    113  H8  UNL A   1      -0.757  16.669  41.724  1.00  0.00    +0.000 H 
ATOM    114  H9  UNL A   1      -1.886  15.493  40.979  1.00  0.00    +0.000 H 
ATOM      7  C5  UNL A   1      -1.728  16.221  41.748  1.00  0.00    +0.000 C 
BRANCH    7    8
ATOM    115  H10 UNL A   1      -2.249  16.149  43.805  1.00  0.00    +0.000 H 
ATOM    116  H11 UNL A   1      -0.891  15.097  43.313  1.00  0.00    +0.000 H 
ATOM      8  C6  UNL A   1      -1.866  15.468  43.074  1.00  0.00    +0.000 C 
BRANCH    8    9
ATOM      9  C7  UNL A   1      -2.788  14.254  43.027  1.00  0.00    +0.000 C 
ATOM    117  H12 UNL A   1      -2.707  13.798  42.063  1.00  0.00    +0.000 H 
ATOM    118  H13 UNL A   1      -3.785  14.594  43.218  1.00  0.00    +0.000 H 
BRANCH    9   10
ATOM     10  N2  UNL A   1      -2.456  13.264  44.040  1.00  0.00    +0.000 N 
ATOM    119  H14 UNL A   1      -1.808  13.553  44.721  1.00  0.00    +0.000 H 
BRANCH   10   11
ATOM     11  C8  UNL A   1      -2.927  11.983  44.175  1.00  0.00    +0.000 C 
ATOM     12  O2  UNL A   1      -3.543  11.644  45.184  1.00  0.00    +0.000 O 
BRANCH   11   13
ATOM    134  H29 UNL A   1      -0.288   9.337  41.495  1.00  0.00    +0.000 H 
ATOM    135  H30 UNL A   1      -0.615  10.868  43.356  1.00  0.00    +0.000 H 
ATOM     41  C30 UNL A   1      -1.233   9.685  41.721  1.00  0.00    +0.000 C 
ATOM     42  C31 UNL A   1      -1.420  10.558  42.789  1.00  0.00    +0.000 C 
ATOM     13  C9  UNL A   1      -2.709  11.011  43.087  1.00  0.00    +0.000 C 
ATOM     14  C10 UNL A   1      -3.814  10.556  42.358  1.00  0.00    +0.000 C 
ATOM     15  C11 UNL A   1      -3.628   9.714  41.260  1.00  0.00    +0.000 C 
ATOM     16  C12 UNL A   1      -2.338   9.280  40.950  1.00  0.00    +0.000 C 
ATOM    120  H15 UNL A   1      -4.767  10.841  42.633  1.00  0.00    +0.000 H 
ATOM    121  H16 UNL A   1      -4.432   9.418  40.685  1.00  0.00    +0.000 H 
BRANCH   16   17
ATOM     39  N6  UNL A   1      -2.447   6.590  38.672  1.00  0.00    +0.000 N 
ATOM     40  N7  UNL A   1      -2.847   7.181  39.799  1.00  0.00    +0.000 N 
ATOM     17  N3  UNL A   1      -2.154   8.331  39.928  1.00  0.00    +0.000 N 
ATOM     18  C13 UNL A   1      -1.253   8.439  38.911  1.00  0.00    +0.000 C 
ATOM     19  C14 UNL A   1      -1.408   7.319  38.137  1.00  0.00    +0.000 C 
ATOM    122  H17 UNL A   1      -0.587   9.211  38.754  1.00  0.00    +0.000 H 
BRANCH   19   20
ATOM    124  H19 UNL A   1       0.201   7.250  36.977  1.00  0.00    +0.000 H 
ATOM    123  H18 UNL A   1      -1.140   6.020  36.576  1.00  0.00    +0.000 H 
ATOM     20  C15 UNL A   1      -0.830   7.018  36.806  1.00  0.00    +0.000 C 
BRANCH   20   21
ATOM     21  S1  UNL A   1      -1.151   7.979  35.325  1.00  0.00    +0.000 S 
BRANCH   21   22
ATOM    127  H22 UNL A   1      -8.580   7.031  33.866  1.00  0.00    +0.000 H 
ATOM    126  H21 UNL A   1      -7.886   5.851  35.874  1.00  0.00    +0.000 H 
ATOM    128  H23 UNL A   1      -7.005   8.498  32.728  1.00  0.00    +0.000 H 
ATOM    125  H20 UNL A   1      -5.574   5.948  36.610  1.00  0.00    +0.000 H 
ATOM     22  C16 UNL A   1      -2.842   8.253  35.006  1.00  0.00    +0.000 C 
ATOM     23  N4  UNL A   1      -3.588   7.263  35.410  1.00  0.00    +0.000 N 
ATOM     24  C17 UNL A   1      -4.956   7.296  35.110  1.00  0.00    +0.000 C 
ATOM     25  C18 UNL A   1      -5.875   6.493  35.787  1.00  0.00    +0.000 C 
ATOM     26  C19 UNL A   1      -7.206   6.424  35.353  1.00  0.00    +0.000 C 
ATOM     27  C20 UNL A   1      -7.614   7.128  34.217  1.00  0.00    +0.000 C 
ATOM     28  C21 UNL A   1      -6.715   7.964  33.561  1.00  0.00    +0.000 C 
ATOM     29  C22 UNL A   1      -5.409   8.066  34.050  1.00  0.00    +0.000 C 
ATOM     30  C23 UNL A   1      -4.463   9.070  33.550  1.00  0.00    +0.000 C 
ATOM     31  O3  UNL A   1      -4.657   9.561  32.440  1.00  0.00    +0.000 O 
ATOM     32  N5  UNL A   1      -3.400   9.371  34.411  1.00  0.00    +0.000 N 
BRANCH   32   33
ATOM     33  C24 UNL A   1      -2.983  10.754  34.524  1.00  0.00    +0.000 C 
ATOM     34  C25 UNL A   1      -1.666  11.114  34.166  1.00  0.00    +0.000 C 
ATOM    129  H24 UNL A   1      -1.091  10.440  33.638  1.00  0.00    +0.000 H 
ATOM     35  C26 UNL A   1      -1.115  12.353  34.503  1.00  0.00    +0.000 C 
ATOM    133  H28 UNL A   1      -4.813  11.659  35.054  1.00  0.00    +0.000 H 
ATOM     38  C29 UNL A   1      -3.791  11.793  34.999  1.00  0.00    +0.000 C 
ATOM     37  C28 UNL A   1      -3.230  13.015  35.403  1.00  0.00    +0.000 C 
ATOM    130  H25 UNL A   1      -0.142  12.576  34.244  1.00  0.00    +0.000 H 
ATOM     36  C27 UNL A   1      -1.884  13.280  35.190  1.00  0.00    +0.000 C 
ATOM    132  H27 UNL A   1      -3.824  13.723  35.862  1.00  0.00    +0.000 H 
ATOM    131  H26 UNL A   1      -1.460  14.154  35.537  1.00  0.00    +0.000 H 
ENDBRANCH   32   33
ENDBRANCH   21   22
ENDBRANCH   20   21
ENDBRANCH   19   20
ENDBRANCH   16   17
ENDBRANCH   11   13
ENDBRANCH   10   11
ENDBRANCH    9   10
ENDBRANCH    8    9
ENDBRANCH    7    8
ENDBRANCH    6    7
ENDBRANCH    5    6
ENDBRANCH    4    5
ENDBRANCH    3    4
ENDBRANCH    2    3
ENDBRANCH   43    2
ENDBRANCH   47   46
BRANCH   51   52
ATOM     52  C40 UNL A   1       4.075  12.828  44.438  1.00  0.00    +0.000 C 
ATOM     53  C41 UNL A   1       4.630  13.482  45.559  1.00  0.00    +0.000 C 
ATOM     54  F1  UNL A   1       4.663  14.821  45.623  1.00  0.00    +0.000 F 
ATOM     55  C42 UNL A   1       5.262  12.779  46.589  1.00  0.00    +0.000 C 
ATOM     56  F2  UNL A   1       5.904  13.451  47.554  1.00  0.00    +0.000 F 
ATOM     57  C43 UNL A   1       5.300  11.398  46.574  1.00  0.00    +0.000 C 
ATOM     58  F3  UNL A   1       5.971  10.724  47.517  1.00  0.00    +0.000 F 
ATOM     59  C44 UNL A   1       4.680  10.718  45.549  1.00  0.00    +0.000 C 
ATOM     60  F4  UNL A   1       4.712   9.379  45.513  1.00  0.00    +0.000 F 
ATOM     61  C45 UNL A   1       4.092  11.416  44.494  1.00  0.00    +0.000 C 
ATOM     62  F5  UNL A   1       3.646  10.652  43.493  1.00  0.00    +0.000 F 
ENDBRANCH   51   52
BRANCH   68   69
ATOM     69  C51 UNL A   1       6.504  12.946  38.104  1.00  0.00    +0.000 C 
ATOM     70  C52 UNL A   1       5.564  13.257  37.106  1.00  0.00    +0.000 C 
ATOM     71  F6  UNL A   1       4.252  13.090  37.323  1.00  0.00    +0.000 F 
ATOM     72  C53 UNL A   1       5.961  13.806  35.888  1.00  0.00    +0.000 C 
ATOM     73  F7  UNL A   1       5.047  14.086  34.947  1.00  0.00    +0.000 F 
ATOM     74  C54 UNL A   1       7.296  14.102  35.662  1.00  0.00    +0.000 C 
ATOM     75  F8  UNL A   1       7.672  14.671  34.509  1.00  0.00    +0.000 F 
ATOM     76  C55 UNL A   1       8.236  13.836  36.645  1.00  0.00    +0.000 C 
ATOM     77  F9  UNL A   1       9.519  14.168  36.451  1.00  0.00    +0.000 F 
ATOM     78  C56 UNL A   1       7.846  13.253  37.847  1.00  0.00    +0.000 C 
ATOM     79  F10 UNL A   1       8.778  13.033  38.788  1.00  0.00    +0.000 F 
ENDBRANCH   68   69
BRANCH   83   84
ATOM     84  C60 UNL A   1       3.208   7.586  37.792  1.00  0.00    +0.000 C 
ATOM     85  C61 UNL A   1       3.961   6.856  36.858  1.00  0.00    +0.000 C 
ATOM     86  F11 UNL A   1       4.798   7.490  36.024  1.00  0.00    +0.000 F 
ATOM     87  C62 UNL A   1       3.916   5.458  36.812  1.00  0.00    +0.000 C 
ATOM     88  F12 UNL A   1       4.692   4.792  35.945  1.00  0.00    +0.000 F 
ATOM     89  C63 UNL A   1       3.117   4.753  37.697  1.00  0.00    +0.000 C 
ATOM     90  F13 UNL A   1       3.119   3.412  37.694  1.00  0.00    +0.000 F 
ATOM     91  C64 UNL A   1       2.348   5.442  38.615  1.00  0.00    +0.000 C 
ATOM     92  F14 UNL A   1       1.601   4.771  39.503  1.00  0.00    +0.000 F 
ATOM     93  C65 UNL A   1       2.395   6.835  38.664  1.00  0.00    +0.000 C 
ATOM     94  F15 UNL A   1       1.705   7.435  39.645  1.00  0.00    +0.000 F 
ENDBRANCH   83   84
TORSDOF 20
ENDMDL
MODEL 9
REMARK VINA RESULT:      -8.5     20.337     27.024
ROOT
ATOM    138  H33 UNL A   1      47.849  10.439  53.985  1.00  0.00    +0.000 H 
ATOM    139  H34 UNL A   1      48.839  12.249  52.298  1.00  0.00    +0.000 H 
ATOM    140  H35 UNL A   1      47.968   8.876  50.285  1.00  0.00    +0.000 H 
ATOM    141  H36 UNL A   1      42.652  14.282  46.996  1.00  0.00    +0.000 H 
ATOM    142  H37 UNL A   1      42.084  14.505  49.469  1.00  0.00    +0.000 H 
ATOM    143  H38 UNL A   1      44.914  11.480  49.126  1.00  0.00    +0.000 H 
ATOM    144  H39 UNL A   1      45.060   9.276  46.767  1.00  0.00    +0.000 H 
ATOM    145  H40 UNL A   1      46.701   9.026  48.740  1.00  0.00    +0.000 H 
ATOM    146  H41 UNL A   1      43.197   8.219  53.034  1.00  0.00    +0.000 H 
ATOM    147  H42 UNL A   1      41.665   9.988  51.966  1.00  0.00    +0.000 H 
ATOM     47  C36 UNL A   1      43.091  12.301  51.060  1.00  0.00    +0.000 C 
ATOM     48  C37 UNL A   1      43.648  11.037  51.618  1.00  0.00    +0.000 C 
ATOM     49  N8  UNL A   1      44.882  10.756  51.889  1.00  0.00    +0.000 N 
ATOM     50  C38 UNL A   1      44.885   9.432  52.330  1.00  0.00    +0.000 C 
ATOM     51  C39 UNL A   1      46.007   8.662  52.257  1.00  0.00    +0.000 C 
ATOM     63  C46 UNL A   1      47.193   9.474  52.155  1.00  0.00    +0.000 C 
ATOM     64  C47 UNL A   1      47.799  10.424  52.953  1.00  0.00    +0.000 C 
ATOM     65  C48 UNL A   1      48.342  11.381  52.045  1.00  0.00    +0.000 C 
ATOM     66  C49 UNL A   1      48.078  10.929  50.752  1.00  0.00    +0.000 C 
ATOM     67  N9  UNL A   1      47.786   9.602  50.924  1.00  0.00    +0.000 N 
ATOM     68  C50 UNL A   1      47.996  11.594  49.477  1.00  0.00    +0.000 C 
ATOM     80  C57 UNL A   1      47.297  11.124  48.404  1.00  0.00    +0.000 C 
ATOM     81  N10 UNL A   1      46.875  11.980  47.398  1.00  0.00    +0.000 N 
ATOM     82  C58 UNL A   1      45.814  11.405  46.901  1.00  0.00    +0.000 C 
ATOM     83  C59 UNL A   1      44.604  12.153  46.477  1.00  0.00    +0.000 C 
ATOM     95  C66 UNL A   1      44.034  12.662  47.598  1.00  0.00    +0.000 C 
ATOM     96  C67 UNL A   1      43.040  13.703  47.755  1.00  0.00    +0.000 C 
ATOM     97  C68 UNL A   1      42.707  13.790  49.060  1.00  0.00    +0.000 C 
ATOM     98  C69 UNL A   1      43.364  12.716  49.805  1.00  0.00    +0.000 C 
ATOM     99  N11 UNL A   1      44.234  12.154  48.896  1.00  0.00    +0.000 N 
ATOM    100  C70 UNL A   1      45.668   9.990  47.196  1.00  0.00    +0.000 C 
ATOM    101  C71 UNL A   1      46.556   9.885  48.189  1.00  0.00    +0.000 C 
ATOM    102  C72 UNL A   1      43.510   9.074  52.550  1.00  0.00    +0.000 C 
ATOM    103  C73 UNL A   1      42.694   9.998  52.042  1.00  0.00    +0.000 C 
ENDROOT
BRANCH   47   46
ATOM    104  C74 UNL A   1      42.526  13.685  53.035  1.00  0.00    +0.000 C 
ATOM    105  C75 UNL A   1      41.573  14.323  53.817  1.00  0.00    +0.000 C 
ATOM    136  H31 UNL A   1      38.838  13.637  52.015  1.00  0.00    +0.000 H 
ATOM     43  C32 UNL A   1      40.203  14.261  53.495  1.00  0.00    +0.000 C 
ATOM     44  C33 UNL A   1      39.827  13.624  52.311  1.00  0.00    +0.000 C 
ATOM     45  C34 UNL A   1      40.775  12.970  51.530  1.00  0.00    +0.000 C 
ATOM    137  H32 UNL A   1      40.486  12.489  50.663  1.00  0.00    +0.000 H 
ATOM     46  C35 UNL A   1      42.115  12.966  51.917  1.00  0.00    +0.000 C 
ATOM    148  H43 UNL A   1      43.527  13.743  53.280  1.00  0.00    +0.000 H 
ATOM    149  H44 UNL A   1      41.874  14.854  54.649  1.00  0.00    +0.000 H 
BRANCH   43    2
ATOM      1  O1  UNL A   1      38.862  14.098  55.411  1.00  0.00    +0.000 O 
ATOM      2  C1  UNL A   1      39.284  14.835  54.515  1.00  0.00    +0.000 C 
BRANCH    2    3
ATOM    106  H1  UNL A   1      37.964  16.198  54.003  1.00  0.00    +0.000 H 
ATOM      3  N1  UNL A   1      38.802  16.112  54.512  1.00  0.00    +0.000 N 
BRANCH    3    4
ATOM    108  H3  UNL A   1      39.193  18.094  54.296  1.00  0.00    +0.000 H 
ATOM    107  H2  UNL A   1      38.592  17.607  55.900  1.00  0.00    +0.000 H 
ATOM      4  C2  UNL A   1      39.237  17.368  55.081  1.00  0.00    +0.000 C 
BRANCH    4    5
ATOM    109  H4  UNL A   1      40.943  16.343  55.814  1.00  0.00    +0.000 H 
ATOM      5  C3  UNL A   1      40.678  17.355  55.592  1.00  0.00    +0.000 C 
ATOM    110  H5  UNL A   1      40.698  17.997  56.448  1.00  0.00    +0.000 H 
BRANCH    5    6
ATOM      6  C4  UNL A   1      41.717  17.914  54.611  1.00  0.00    +0.000 C 
ATOM    111  H6  UNL A   1      41.634  18.980  54.618  1.00  0.00    +0.000 H 
ATOM    112  H7  UNL A   1      41.493  17.466  53.665  1.00  0.00    +0.000 H 
BRANCH    6    7
ATOM    113  H8  UNL A   1      43.179  16.748  55.613  1.00  0.00    +0.000 H 
ATOM    114  H9  UNL A   1      43.631  18.448  55.274  1.00  0.00    +0.000 H 
ATOM      7  C5  UNL A   1      43.175  17.552  54.908  1.00  0.00    +0.000 C 
BRANCH    7    8
ATOM    115  H10 UNL A   1      43.406  16.472  53.094  1.00  0.00    +0.000 H 
ATOM    116  H11 UNL A   1      44.882  16.644  54.087  1.00  0.00    +0.000 H 
ATOM      8  C6  UNL A   1      44.007  17.121  53.697  1.00  0.00    +0.000 C 
BRANCH    8    9
ATOM      9  C7  UNL A   1      44.498  18.267  52.818  1.00  0.00    +0.000 C 
ATOM    117  H12 UNL A   1      45.433  18.618  53.202  1.00  0.00    +0.000 H 
ATOM    118  H13 UNL A   1      43.753  19.034  52.836  1.00  0.00    +0.000 H 
BRANCH    9   10
ATOM     10  N2  UNL A   1      44.685  17.864  51.433  1.00  0.00    +0.000 N 
ATOM    119  H14 UNL A   1      45.616  17.861  51.112  1.00  0.00    +0.000 H 
BRANCH   10   11
ATOM     11  C8  UNL A   1      43.740  17.486  50.514  1.00  0.00    +0.000 C 
ATOM     12  O2  UNL A   1      44.050  16.801  49.540  1.00  0.00    +0.000 O 
BRANCH   11   13
ATOM    134  H29 UNL A   1      39.335  16.668  51.549  1.00  0.00    +0.000 H 
ATOM    135  H30 UNL A   1      41.658  15.982  51.327  1.00  0.00    +0.000 H 
ATOM     41  C30 UNL A   1      40.049  17.345  51.241  1.00  0.00    +0.000 C 
ATOM     42  C31 UNL A   1      41.380  16.954  51.119  1.00  0.00    +0.000 C 
ATOM     13  C9  UNL A   1      42.335  17.889  50.710  1.00  0.00    +0.000 C 
ATOM     14  C10 UNL A   1      41.978  19.222  50.475  1.00  0.00    +0.000 C 
ATOM     15  C11 UNL A   1      40.639  19.611  50.555  1.00  0.00    +0.000 C 
ATOM     16  C12 UNL A   1      39.683  18.671  50.942  1.00  0.00    +0.000 C 
ATOM    120  H15 UNL A   1      42.703  19.919  50.244  1.00  0.00    +0.000 H 
ATOM    121  H16 UNL A   1      40.361  20.579  50.330  1.00  0.00    +0.000 H 
BRANCH   16   17
ATOM     39  N6  UNL A   1      36.431  20.032  50.846  1.00  0.00    +0.000 N 
ATOM     40  N7  UNL A   1      37.680  19.959  50.381  1.00  0.00    +0.000 N 
ATOM     17  N3  UNL A   1      38.354  19.082  51.152  1.00  0.00    +0.000 N 
ATOM     18  C13 UNL A   1      37.548  18.645  52.161  1.00  0.00    +0.000 C 
ATOM     19  C14 UNL A   1      36.343  19.276  51.993  1.00  0.00    +0.000 C 
ATOM    122  H17 UNL A   1      37.795  17.972  52.903  1.00  0.00    +0.000 H 
BRANCH   19   20
ATOM    124  H19 UNL A   1      34.383  19.583  52.063  1.00  0.00    +0.000 H 
ATOM    123  H18 UNL A   1      34.973  17.959  52.757  1.00  0.00    +0.000 H 
ATOM     20  C15 UNL A   1      35.055  19.023  52.680  1.00  0.00    +0.000 C 
BRANCH   20   21
ATOM     21  S1  UNL A   1      34.634  19.661  54.303  1.00  0.00    +0.000 S 
BRANCH   21   22
ATOM    127  H22 UNL A   1      38.391  17.322  60.519  1.00  0.00    +0.000 H 
ATOM    126  H21 UNL A   1      37.484  15.461  59.246  1.00  0.00    +0.000 H 
ATOM    128  H23 UNL A   1      38.236  19.582  59.623  1.00  0.00    +0.000 H 
ATOM    125  H20 UNL A   1      36.225  15.873  57.210  1.00  0.00    +0.000 H 
ATOM     22  C16 UNL A   1      35.855  19.385  55.516  1.00  0.00    +0.000 C 
ATOM     23  N4  UNL A   1      35.681  18.256  56.143  1.00  0.00    +0.000 N 
ATOM     24  C17 UNL A   1      36.521  17.961  57.226  1.00  0.00    +0.000 C 
ATOM     25  C18 UNL A   1      36.653  16.662  57.718  1.00  0.00    +0.000 C 
ATOM     26  C19 UNL A   1      37.366  16.426  58.902  1.00  0.00    +0.000 C 
ATOM     27  C20 UNL A   1      37.916  17.493  59.618  1.00  0.00    +0.000 C 
ATOM     28  C21 UNL A   1      37.825  18.786  59.111  1.00  0.00    +0.000 C 
ATOM     29  C22 UNL A   1      37.164  18.990  57.896  1.00  0.00    +0.000 C 
ATOM     30  C23 UNL A   1      37.199  20.276  57.192  1.00  0.00    +0.000 C 
ATOM     31  O3  UNL A   1      37.460  21.292  57.835  1.00  0.00    +0.000 O 
ATOM     32  N5  UNL A   1      36.918  20.217  55.822  1.00  0.00    +0.000 N 
BRANCH   32   33
ATOM     33  C24 UNL A   1      37.698  21.048  54.928  1.00  0.00    +0.000 C 
ATOM     34  C25 UNL A   1      37.062  22.085  54.211  1.00  0.00    +0.000 C 
ATOM    129  H24 UNL A   1      36.110  22.370  54.486  1.00  0.00    +0.000 H 
ATOM     35  C26 UNL A   1      37.679  22.737  53.141  1.00  0.00    +0.000 C 
ATOM    133  H28 UNL A   1      39.636  20.322  55.330  1.00  0.00    +0.000 H 
ATOM     38  C29 UNL A   1      39.065  20.888  54.683  1.00  0.00    +0.000 C 
ATOM     37  C28 UNL A   1      39.673  21.489  53.568  1.00  0.00    +0.000 C 
ATOM    130  H25 UNL A   1      37.178  23.477  52.626  1.00  0.00    +0.000 H 
ATOM     36  C27 UNL A   1      38.968  22.384  52.775  1.00  0.00    +0.000 C 
ATOM    132  H27 UNL A   1      40.653  21.262  53.337  1.00  0.00    +0.000 H 
ATOM    131  H26 UNL A   1      39.397  22.781  51.925  1.00  0.00    +0.000 H 
ENDBRANCH   32   33
ENDBRANCH   21   22
ENDBRANCH   20   21
ENDBRANCH   19   20
ENDBRANCH   16   17
ENDBRANCH   11   13
ENDBRANCH   10   11
ENDBRANCH    9   10
ENDBRANCH    8    9
ENDBRANCH    7    8
ENDBRANCH    6    7
ENDBRANCH    5    6
ENDBRANCH    4    5
ENDBRANCH    3    4
ENDBRANCH    2    3
ENDBRANCH   43    2
ENDBRANCH   47   46
BRANCH   51   52
ATOM     52  C40 UNL A   1      46.010   7.197  51.876  1.00  0.00    +0.000 C 
ATOM     53  C41 UNL A   1      45.551   6.827  50.594  1.00  0.00    +0.000 C 
ATOM     54  F1  UNL A   1      45.413   7.744  49.625  1.00  0.00    +0.000 F 
ATOM     55  C42 UNL A   1      45.117   5.530  50.308  1.00  0.00    +0.000 C 
ATOM     56  F2  UNL A   1      44.550   5.265  49.123  1.00  0.00    +0.000 F 
ATOM     57  C43 UNL A   1      45.194   4.538  51.266  1.00  0.00    +0.000 C 
ATOM     58  F3  UNL A   1      44.708   3.314  51.023  1.00  0.00    +0.000 F 
ATOM     59  C44 UNL A   1      45.733   4.834  52.500  1.00  0.00    +0.000 C 
ATOM     60  F4  UNL A   1      45.809   3.887  53.446  1.00  0.00    +0.000 F 
ATOM     61  C45 UNL A   1      46.120   6.138  52.805  1.00  0.00    +0.000 C 
ATOM     62  F5  UNL A   1      46.497   6.331  54.072  1.00  0.00    +0.000 F 
ENDBRANCH   51   52
BRANCH   68   69
ATOM     69  C51 UNL A   1      48.504  13.006  49.414  1.00  0.00    +0.000 C 
ATOM     70  C52 UNL A   1      49.726  13.367  48.820  1.00  0.00    +0.000 C 
ATOM     71  F6  UNL A   1      50.535  12.436  48.295  1.00  0.00    +0.000 F 
ATOM     72  C53 UNL A   1      50.104  14.704  48.703  1.00  0.00    +0.000 C 
ATOM     73  F7  UNL A   1      51.280  15.023  48.141  1.00  0.00    +0.000 F 
ATOM     74  C54 UNL A   1      49.249  15.707  49.131  1.00  0.00    +0.000 C 
ATOM     75  F8  UNL A   1      49.591  16.993  48.978  1.00  0.00    +0.000 F 
ATOM     76  C55 UNL A   1      48.024  15.375  49.687  1.00  0.00    +0.000 C 
ATOM     77  F9  UNL A   1      47.171  16.342  50.053  1.00  0.00    +0.000 F 
ATOM     78  C56 UNL A   1      47.661  14.040  49.839  1.00  0.00    +0.000 C 
ATOM     79  F10 UNL A   1      46.457  13.755  50.358  1.00  0.00    +0.000 F 
ENDBRANCH   68   69
BRANCH   83   84
ATOM     84  C60 UNL A   1      43.992  11.984  45.138  1.00  0.00    +0.000 C 
ATOM     85  C61 UNL A   1      43.336  10.795  44.780  1.00  0.00    +0.000 C 
ATOM     86  F11 UNL A   1      43.433   9.710  45.564  1.00  0.00    +0.000 F 
ATOM     87  C62 UNL A   1      42.516  10.721  43.649  1.00  0.00    +0.000 C 
ATOM     88  F12 UNL A   1      41.860   9.586  43.370  1.00  0.00    +0.000 F 
ATOM     89  C63 UNL A   1      42.331  11.833  42.844  1.00  0.00    +0.000 C 
ATOM     90  F13 UNL A   1      41.498  11.782  41.795  1.00  0.00    +0.000 F 
ATOM     91  C64 UNL A   1      42.979  13.014  43.156  1.00  0.00    +0.000 C 
ATOM     92  F14 UNL A   1      42.777  14.108  42.409  1.00  0.00    +0.000 F 
ATOM     93  C65 UNL A   1      43.793  13.088  44.286  1.00  0.00    +0.000 C 
ATOM     94  F15 UNL A   1      44.308  14.289  44.589  1.00  0.00    +0.000 F 
ENDBRANCH   83   84
TORSDOF 20
ENDMDL
MODEL 10
REMARK VINA RESULT:      -8.4      4.711     10.160
ROOT
ATOM    138  H33 UNL A   1      49.086  30.461  31.503  1.00  0.00    +0.000 H 
ATOM    139  H34 UNL A   1      47.986  30.577  33.928  1.00  0.00    +0.000 H 
ATOM    140  H35 UNL A   1      46.732  33.708  31.736  1.00  0.00    +0.000 H 
ATOM    141  H36 UNL A   1      39.721  29.492  32.911  1.00  0.00    +0.000 H 
ATOM    142  H37 UNL A   1      41.192  27.687  31.879  1.00  0.00    +0.000 H 
ATOM    143  H38 UNL A   1      43.375  31.223  31.835  1.00  0.00    +0.000 H 
ATOM    144  H39 UNL A   1      42.202  34.170  31.218  1.00  0.00    +0.000 H 
ATOM    145  H40 UNL A   1      44.755  33.934  31.497  1.00  0.00    +0.000 H 
ATOM    146  H41 UNL A   1      46.055  30.550  27.229  1.00  0.00    +0.000 H 
ATOM    147  H42 UNL A   1      43.893  29.255  27.748  1.00  0.00    +0.000 H 
ATOM     47  C36 UNL A   1      43.530  28.763  30.546  1.00  0.00    +0.000 C 
ATOM     48  C37 UNL A   1      44.592  29.572  29.885  1.00  0.00    +0.000 C 
ATOM     49  N8  UNL A   1      45.616  30.148  30.428  1.00  0.00    +0.000 N 
ATOM     50  C38 UNL A   1      46.265  30.827  29.396  1.00  0.00    +0.000 C 
ATOM     51  C39 UNL A   1      47.076  31.892  29.647  1.00  0.00    +0.000 C 
ATOM     63  C46 UNL A   1      47.530  31.893  31.014  1.00  0.00    +0.000 C 
ATOM     64  C47 UNL A   1      48.279  31.035  31.796  1.00  0.00    +0.000 C 
ATOM     65  C48 UNL A   1      47.697  31.115  33.096  1.00  0.00    +0.000 C 
ATOM     66  C49 UNL A   1      46.666  32.051  33.038  1.00  0.00    +0.000 C 
ATOM     67  N9  UNL A   1      46.932  32.758  31.896  1.00  0.00    +0.000 N 
ATOM     68  C50 UNL A   1      45.494  32.273  33.846  1.00  0.00    +0.000 C 
ATOM     80  C57 UNL A   1      44.368  32.911  33.415  1.00  0.00    +0.000 C 
ATOM     81  N10 UNL A   1      43.147  32.700  34.038  1.00  0.00    +0.000 N 
ATOM     82  C58 UNL A   1      42.259  32.927  33.108  1.00  0.00    +0.000 C 
ATOM     83  C59 UNL A   1      41.023  32.122  32.945  1.00  0.00    +0.000 C 
ATOM     95  C66 UNL A   1      41.403  30.882  32.544  1.00  0.00    +0.000 C 
ATOM     96  C67 UNL A   1      40.669  29.635  32.532  1.00  0.00    +0.000 C 
ATOM     97  C68 UNL A   1      41.431  28.688  31.945  1.00  0.00    +0.000 C 
ATOM     98  C69 UNL A   1      42.650  29.302  31.415  1.00  0.00    +0.000 C 
ATOM     99  N11 UNL A   1      42.627  30.588  31.912  1.00  0.00    +0.000 N 
ATOM    100  C70 UNL A   1      42.729  33.689  31.963  1.00  0.00    +0.000 C 
ATOM    101  C71 UNL A   1      44.046  33.582  32.159  1.00  0.00    +0.000 C 
ATOM    102  C72 UNL A   1      45.677  30.360  28.170  1.00  0.00    +0.000 C 
ATOM    103  C73 UNL A   1      44.576  29.648  28.415  1.00  0.00    +0.000 C 
ENDROOT
BRANCH   47   46
ATOM    104  C74 UNL A   1      44.208  26.382  30.622  1.00  0.00    +0.000 C 
ATOM    105  C75 UNL A   1      44.068  25.082  30.156  1.00  0.00    +0.000 C 
ATOM    136  H31 UNL A   1      41.561  25.544  27.989  1.00  0.00    +0.000 H 
ATOM     43  C32 UNL A   1      43.147  24.765  29.140  1.00  0.00    +0.000 C 
ATOM     44  C33 UNL A   1      42.299  25.772  28.674  1.00  0.00    +0.000 C 
ATOM     45  C34 UNL A   1      42.442  27.080  29.126  1.00  0.00    +0.000 C 
ATOM    137  H32 UNL A   1      41.822  27.822  28.766  1.00  0.00    +0.000 H 
ATOM     46  C35 UNL A   1      43.425  27.388  30.067  1.00  0.00    +0.000 C 
ATOM    148  H43 UNL A   1      44.884  26.598  31.371  1.00  0.00    +0.000 H 
ATOM    149  H44 UNL A   1      44.650  24.333  30.564  1.00  0.00    +0.000 H 
BRANCH   43    2
ATOM      1  O1  UNL A   1      42.757  22.459  29.293  1.00  0.00    +0.000 O 
ATOM      2  C1  UNL A   1      43.231  23.375  28.615  1.00  0.00    +0.000 C 
BRANCH    2    3
ATOM    106  H1  UNL A   1      44.800  23.291  27.433  1.00  0.00    +0.000 H 
ATOM      3  N1  UNL A   1      43.858  23.005  27.460  1.00  0.00    +0.000 N 
BRANCH    3    4
ATOM    108  H3  UNL A   1      44.079  22.652  25.471  1.00  0.00    +0.000 H 
ATOM    107  H2  UNL A   1      43.585  21.244  26.445  1.00  0.00    +0.000 H 
ATOM      4  C2  UNL A   1      43.460  22.292  26.267  1.00  0.00    +0.000 C 
BRANCH    4    5
ATOM    109  H4  UNL A   1      41.974  22.562  24.779  1.00  0.00    +0.000 H 
ATOM      5  C3  UNL A   1      42.011  22.538  25.847  1.00  0.00    +0.000 C 
ATOM    110  H5  UNL A   1      41.720  23.462  26.303  1.00  0.00    +0.000 H 
BRANCH    5    6
ATOM      6  C4  UNL A   1      41.009  21.484  26.334  1.00  0.00    +0.000 C 
ATOM    111  H6  UNL A   1      41.272  21.219  27.336  1.00  0.00    +0.000 H 
ATOM    112  H7  UNL A   1      41.078  20.674  25.637  1.00  0.00    +0.000 H 
BRANCH    6    7
ATOM    113  H8  UNL A   1      39.476  22.877  25.874  1.00  0.00    +0.000 H 
ATOM    114  H9  UNL A   1      39.226  21.898  27.354  1.00  0.00    +0.000 H 
ATOM      7  C5  UNL A   1      39.538  21.911  26.331  1.00  0.00    +0.000 C 
BRANCH    7    8
ATOM    115  H10 UNL A   1      38.189  20.273  26.293  1.00  0.00    +0.000 H 
ATOM    116  H11 UNL A   1      39.153  20.517  24.808  1.00  0.00    +0.000 H 
ATOM      8  C6  UNL A   1      38.581  20.976  25.588  1.00  0.00    +0.000 C 
BRANCH    8    9
ATOM      9  C7  UNL A   1      37.406  21.671  24.907  1.00  0.00    +0.000 C 
ATOM    117  H12 UNL A   1      37.680  21.897  23.897  1.00  0.00    +0.000 H 
ATOM    118  H13 UNL A   1      37.187  22.559  25.462  1.00  0.00    +0.000 H 
BRANCH    9   10
ATOM     10  N2  UNL A   1      36.207  20.849  24.891  1.00  0.00    +0.000 N 
ATOM    119  H14 UNL A   1      36.354  19.879  24.968  1.00  0.00    +0.000 H 
BRANCH   10   11
ATOM     11  C8  UNL A   1      34.897  21.244  24.786  1.00  0.00    +0.000 C 
ATOM     12  O2  UNL A   1      33.988  20.416  24.814  1.00  0.00    +0.000 O 
BRANCH   11   13
ATOM    134  H29 UNL A   1      34.168  25.094  22.380  1.00  0.00    +0.000 H 
ATOM    135  H30 UNL A   1      34.602  22.707  22.543  1.00  0.00    +0.000 H 
ATOM     41  C30 UNL A   1      34.245  24.642  23.305  1.00  0.00    +0.000 C 
ATOM     42  C31 UNL A   1      34.489  23.275  23.397  1.00  0.00    +0.000 C 
ATOM     13  C9  UNL A   1      34.580  22.679  24.658  1.00  0.00    +0.000 C 
ATOM     14  C10 UNL A   1      34.375  23.429  25.822  1.00  0.00    +0.000 C 
ATOM     15  C11 UNL A   1      34.173  24.808  25.737  1.00  0.00    +0.000 C 
ATOM     16  C12 UNL A   1      34.104  25.406  24.478  1.00  0.00    +0.000 C 
ATOM    120  H15 UNL A   1      34.374  22.964  26.744  1.00  0.00    +0.000 H 
ATOM    121  H16 UNL A   1      34.076  25.377  26.593  1.00  0.00    +0.000 H 
BRANCH   16   17
ATOM     39  N6  UNL A   1      33.092  28.657  23.558  1.00  0.00    +0.000 N 
ATOM     40  N7  UNL A   1      33.403  27.398  23.243  1.00  0.00    +0.000 N 
ATOM     17  N3  UNL A   1      33.771  26.769  24.377  1.00  0.00    +0.000 N 
ATOM     18  C13 UNL A   1      33.764  27.654  25.414  1.00  0.00    +0.000 C 
ATOM     19  C14 UNL A   1      33.373  28.859  24.891  1.00  0.00    +0.000 C 
ATOM    122  H17 UNL A   1      34.004  27.456  26.398  1.00  0.00    +0.000 H 
BRANCH   19   20
ATOM    124  H19 UNL A   1      33.784  30.764  25.267  1.00  0.00    +0.000 H 
ATOM    123  H18 UNL A   1      31.984  30.293  25.346  1.00  0.00    +0.000 H 
ATOM     20  C15 UNL A   1      33.007  30.108  25.599  1.00  0.00    +0.000 C 
BRANCH   20   21
ATOM     21  S1  UNL A   1      33.115  30.329  27.377  1.00  0.00    +0.000 S 
BRANCH   21   22
ATOM    127  H22 UNL A   1      40.421  29.530  29.426  1.00  0.00    +0.000 H 
ATOM    126  H21 UNL A   1      40.050  28.906  27.107  1.00  0.00    +0.000 H 
ATOM    128  H23 UNL A   1      38.603  30.514  30.714  1.00  0.00    +0.000 H 
ATOM    125  H20 UNL A   1      37.823  29.042  26.148  1.00  0.00    +0.000 H 
ATOM     22  C16 UNL A   1      34.730  30.621  27.961  1.00  0.00    +0.000 C 
ATOM     23  N4  UNL A   1      35.607  29.834  27.402  1.00  0.00    +0.000 N 
ATOM     24  C17 UNL A   1      36.929  29.877  27.865  1.00  0.00    +0.000 C 
ATOM     25  C18 UNL A   1      37.985  29.358  27.116  1.00  0.00    +0.000 C 
ATOM     26  C19 UNL A   1      39.267  29.264  27.675  1.00  0.00    +0.000 C 
ATOM     27  C20 UNL A   1      39.489  29.654  28.999  1.00  0.00    +0.000 C 
ATOM     28  C21 UNL A   1      38.451  30.211  29.739  1.00  0.00    +0.000 C 
ATOM     29  C22 UNL A   1      37.195  30.354  29.139  1.00  0.00    +0.000 C 
ATOM     30  C23 UNL A   1      36.110  31.113  29.769  1.00  0.00    +0.000 C 
ATOM     31  O3  UNL A   1      36.143  31.291  30.985  1.00  0.00    +0.000 O 
ATOM     32  N5  UNL A   1      35.113  31.566  28.897  1.00  0.00    +0.000 N 
BRANCH   32   33
ATOM     33  C24 UNL A   1      34.573  32.894  29.106  1.00  0.00    +0.000 C 
ATOM     34  C25 UNL A   1      34.576  33.449  30.405  1.00  0.00    +0.000 C 
ATOM    129  H24 UNL A   1      35.144  32.998  31.138  1.00  0.00    +0.000 H 
ATOM     35  C26 UNL A   1      33.837  34.589  30.730  1.00  0.00    +0.000 C 
ATOM    133  H28 UNL A   1      34.175  33.461  27.115  1.00  0.00    +0.000 H 
ATOM     38  C29 UNL A   1      34.004  33.690  28.106  1.00  0.00    +0.000 C 
ATOM     37  C28 UNL A   1      33.204  34.796  28.433  1.00  0.00    +0.000 C 
ATOM    130  H25 UNL A   1      33.846  34.956  31.694  1.00  0.00    +0.000 H 
ATOM     36  C27 UNL A   1      33.089  35.222  29.750  1.00  0.00    +0.000 C 
ATOM    132  H27 UNL A   1      32.696  35.297  27.687  1.00  0.00    +0.000 H 
ATOM    131  H26 UNL A   1      32.457  35.999  29.996  1.00  0.00    +0.000 H 
ENDBRANCH   32   33
ENDBRANCH   21   22
ENDBRANCH   20   21
ENDBRANCH   19   20
ENDBRANCH   16   17
ENDBRANCH   11   13
ENDBRANCH   10   11
ENDBRANCH    9   10
ENDBRANCH    8    9
ENDBRANCH    7    8
ENDBRANCH    6    7
ENDBRANCH    5    6
ENDBRANCH    4    5
ENDBRANCH    3    4
ENDBRANCH    2    3
ENDBRANCH   43    2
ENDBRANCH   47   46
BRANCH   51   52
ATOM     52  C40 UNL A   1      47.137  33.138  28.787  1.00  0.00    +0.000 C 
ATOM     53  C41 UNL A   1      48.401  33.661  28.440  1.00  0.00    +0.000 C 
ATOM     54  F1  UNL A   1      49.512  32.925  28.587  1.00  0.00    +0.000 F 
ATOM     55  C42 UNL A   1      48.567  34.990  28.039  1.00  0.00    +0.000 C 
ATOM     56  F2  UNL A   1      49.801  35.482  27.865  1.00  0.00    +0.000 F 
ATOM     57  C43 UNL A   1      47.472  35.822  27.898  1.00  0.00    +0.000 C 
ATOM     58  F3  UNL A   1      47.633  37.115  27.590  1.00  0.00    +0.000 F 
ATOM     59  C44 UNL A   1      46.211  35.318  28.129  1.00  0.00    +0.000 C 
ATOM     60  F4  UNL A   1      45.137  36.111  28.006  1.00  0.00    +0.000 F 
ATOM     61  C45 UNL A   1      46.046  34.009  28.578  1.00  0.00    +0.000 C 
ATOM     62  F5  UNL A   1      44.791  33.678  28.899  1.00  0.00    +0.000 F 
ENDBRANCH   51   52
BRANCH   68   69
ATOM     69  C51 UNL A   1      45.422  31.539  35.154  1.00  0.00    +0.000 C 
ATOM     70  C52 UNL A   1      44.948  30.221  35.281  1.00  0.00    +0.000 C 
ATOM     71  F6  UNL A   1      44.493  29.550  34.214  1.00  0.00    +0.000 F 
ATOM     72  C53 UNL A   1      44.993  29.554  36.504  1.00  0.00    +0.000 C 
ATOM     73  F7  UNL A   1      44.525  28.301  36.604  1.00  0.00    +0.000 F 
ATOM     74  C54 UNL A   1      45.558  30.169  37.610  1.00  0.00    +0.000 C 
ATOM     75  F8  UNL A   1      45.643  29.512  38.774  1.00  0.00    +0.000 F 
ATOM     76  C55 UNL A   1      46.064  31.454  37.499  1.00  0.00    +0.000 C 
ATOM     77  F9  UNL A   1      46.659  32.033  38.551  1.00  0.00    +0.000 F 
ATOM     78  C56 UNL A   1      45.986  32.136  36.288  1.00  0.00    +0.000 C 
ATOM     79  F10 UNL A   1      46.509  33.370  36.208  1.00  0.00    +0.000 F 
ENDBRANCH   68   69
BRANCH   83   84
ATOM     84  C60 UNL A   1      39.678  32.737  32.860  1.00  0.00    +0.000 C 
ATOM     85  C61 UNL A   1      38.962  33.089  34.016  1.00  0.00    +0.000 C 
ATOM     86  F11 UNL A   1      39.389  32.684  35.222  1.00  0.00    +0.000 F 
ATOM     87  C62 UNL A   1      37.838  33.919  33.958  1.00  0.00    +0.000 C 
ATOM     88  F12 UNL A   1      37.213  34.281  35.087  1.00  0.00    +0.000 F 
ATOM     89  C63 UNL A   1      37.397  34.418  32.743  1.00  0.00    +0.000 C 
ATOM     90  F13 UNL A   1      36.357  35.262  32.692  1.00  0.00    +0.000 F 
ATOM     91  C64 UNL A   1      38.066  34.073  31.584  1.00  0.00    +0.000 C 
ATOM     92  F14 UNL A   1      37.675  34.581  30.407  1.00  0.00    +0.000 F 
ATOM     93  C65 UNL A   1      39.190  33.249  31.642  1.00  0.00    +0.000 C 
ATOM     94  F15 UNL A   1      39.852  33.039  30.495  1.00  0.00    +0.000 F 
ENDBRANCH   83   84
TORSDOF 20
ENDMDL
