MODEL 1
REMARK VINA RESULT:     -11.1      0.000      0.000
ROOT
ATOM    129  H39 UNL A   1      38.371  27.416  31.283  1.00  0.00    +0.000 H 
ATOM     28  C23 UNL A   1      39.841  28.908  29.297  1.00  0.00    +0.000 C 
ATOM     29  C24 UNL A   1      40.177  28.668  30.722  1.00  0.00    +0.000 C 
ATOM     30  N3  UNL A   1      41.163  29.184  31.377  1.00  0.00    +0.000 N 
ATOM     31  C25 UNL A   1      41.089  28.664  32.664  1.00  0.00    +0.000 C 
ATOM     32  C26 UNL A   1      42.194  28.638  33.461  1.00  0.00    +0.000 C 
ATOM     44  C33 UNL A   1      43.217  29.518  32.947  1.00  0.00    +0.000 C 
ATOM     45  C34 UNL A   1      43.292  30.876  32.705  1.00  0.00    +0.000 C 
ATOM     46  C35 UNL A   1      44.018  30.992  31.482  1.00  0.00    +0.000 C 
ATOM     47  C36 UNL A   1      44.404  29.710  31.092  1.00  0.00    +0.000 C 
ATOM     48  N4  UNL A   1      44.247  28.959  32.228  1.00  0.00    +0.000 N 
ATOM     49  C37 UNL A   1      44.805  29.156  29.820  1.00  0.00    +0.000 C 
ATOM     61  C44 UNL A   1      44.688  27.838  29.483  1.00  0.00    +0.000 C 
ATOM     62  N5  UNL A   1      44.660  27.434  28.155  1.00  0.00    +0.000 N 
ATOM     63  C45 UNL A   1      43.983  26.317  28.161  1.00  0.00    +0.000 C 
ATOM     64  C46 UNL A   1      42.990  25.968  27.108  1.00  0.00    +0.000 C 
ATOM     76  C53 UNL A   1      41.966  26.847  27.240  1.00  0.00    +0.000 C 
ATOM     77  C54 UNL A   1      40.971  27.275  26.284  1.00  0.00    +0.000 C 
ATOM     78  C55 UNL A   1      40.193  28.205  26.875  1.00  0.00    +0.000 C 
ATOM     79  C56 UNL A   1      40.515  28.290  28.303  1.00  0.00    +0.000 C 
ATOM     80  N6  UNL A   1      41.648  27.524  28.430  1.00  0.00    +0.000 N 
ATOM     81  C57 UNL A   1      43.853  25.668  29.455  1.00  0.00    +0.000 C 
ATOM     82  C58 UNL A   1      44.220  26.681  30.243  1.00  0.00    +0.000 C 
ATOM     83  C59 UNL A   1      39.804  28.020  32.760  1.00  0.00    +0.000 C 
ATOM     84  C60 UNL A   1      39.237  27.907  31.556  1.00  0.00    +0.000 C 
ATOM    120  H30 UNL A   1      42.906  31.640  33.282  1.00  0.00    +0.000 H 
ATOM    121  H31 UNL A   1      44.221  31.869  30.978  1.00  0.00    +0.000 H 
ATOM    122  H32 UNL A   1      44.775  28.168  32.483  1.00  0.00    +0.000 H 
ATOM    123  H33 UNL A   1      40.873  26.931  25.316  1.00  0.00    +0.000 H 
ATOM    124  H34 UNL A   1      39.479  28.773  26.394  1.00  0.00    +0.000 H 
ATOM    125  H35 UNL A   1      42.175  27.457  29.259  1.00  0.00    +0.000 H 
ATOM    126  H36 UNL A   1      43.562  24.706  29.694  1.00  0.00    +0.000 H 
ATOM    127  H37 UNL A   1      44.178  26.651  31.274  1.00  0.00    +0.000 H 
ATOM    128  H38 UNL A   1      39.379  27.688  33.640  1.00  0.00    +0.000 H 
ENDROOT
BRANCH   28   27
ATOM    130  H40 UNL A   1      37.500  28.128  28.406  1.00  0.00    +0.000 H 
ATOM    131  H41 UNL A   1      35.723  29.564  27.611  1.00  0.00    +0.000 H 
ATOM     27  C22 UNL A   1      38.670  29.743  29.078  1.00  0.00    +0.000 C 
ATOM     85  C61 UNL A   1      37.537  29.149  28.550  1.00  0.00    +0.000 C 
ATOM     86  C62 UNL A   1      36.466  29.936  28.222  1.00  0.00    +0.000 C 
ATOM    118  H28 UNL A   1      37.453  32.828  29.601  1.00  0.00    +0.000 H 
ATOM     24  C19 UNL A   1      36.380  31.235  28.707  1.00  0.00    +0.000 C 
ATOM     25  C20 UNL A   1      37.495  31.845  29.287  1.00  0.00    +0.000 C 
ATOM     26  C21 UNL A   1      38.666  31.104  29.432  1.00  0.00    +0.000 C 
ATOM    119  H29 UNL A   1      39.522  31.549  29.796  1.00  0.00    +0.000 H 
BRANCH   24   22
ATOM     22  C18 UNL A   1      35.083  31.944  28.607  1.00  0.00    +0.000 C 
ATOM     23  O3  UNL A   1      34.726  32.689  29.483  1.00  0.00    +0.000 O 
BRANCH   22   21
ATOM    117  H27 UNL A   1      34.564  32.184  26.662  1.00  0.00    +0.000 H 
ATOM     21  N2  UNL A   1      34.285  31.721  27.486  1.00  0.00    +0.000 N 
BRANCH   21   20
ATOM    116  H26 UNL A   1      32.297  31.530  27.047  1.00  0.00    +0.000 H 
ATOM    115  H25 UNL A   1      32.895  30.443  28.325  1.00  0.00    +0.000 H 
ATOM     20  C17 UNL A   1      33.088  30.887  27.371  1.00  0.00    +0.000 C 
BRANCH   20   19
ATOM    113  H23 UNL A   1      33.480  30.220  25.407  1.00  0.00    +0.000 H 
ATOM    114  H24 UNL A   1      33.923  29.089  26.735  1.00  0.00    +0.000 H 
ATOM     19  C16 UNL A   1      33.201  29.773  26.338  1.00  0.00    +0.000 C 
BRANCH   19   18
ATOM     18  C15 UNL A   1      31.932  28.934  26.095  1.00  0.00    +0.000 C 
ATOM    111  H21 UNL A   1      32.230  27.907  26.107  1.00  0.00    +0.000 H 
ATOM    112  H22 UNL A   1      31.266  29.255  26.869  1.00  0.00    +0.000 H 
BRANCH   18   17
ATOM     17  C14 UNL A   1      31.116  29.150  24.803  1.00  0.00    +0.000 C 
ATOM    109  H19 UNL A   1      30.287  28.476  24.838  1.00  0.00    +0.000 H 
ATOM    110  H20 UNL A   1      30.881  30.193  24.816  1.00  0.00    +0.000 H 
BRANCH   17   16
ATOM    107  H17 UNL A   1      31.883  29.894  22.964  1.00  0.00    +0.000 H 
ATOM    108  H18 UNL A   1      32.755  28.490  23.672  1.00  0.00    +0.000 H 
ATOM     16  C13 UNL A   1      31.812  28.941  23.444  1.00  0.00    +0.000 C 
BRANCH   16   15
ATOM    105  H15 UNL A   1      30.277  28.469  22.008  1.00  0.00    +0.000 H 
ATOM    106  H16 UNL A   1      31.856  27.664  21.741  1.00  0.00    +0.000 H 
ATOM     15  C12 UNL A   1      31.107  27.956  22.449  1.00  0.00    +0.000 C 
BRANCH   15   14
ATOM     14  N1  UNL A   1      30.579  26.646  23.076  1.00  0.00    +0.000 N 
ATOM    104  H14 UNL A   1      29.704  26.518  22.646  1.00  0.00    +0.000 H 
BRANCH   14   12
ATOM     12  C11 UNL A   1      30.690  25.570  23.917  1.00  0.00    +0.000 C 
ATOM     13  O2  UNL A   1      30.290  24.551  23.305  1.00  0.00    +0.000 O 
BRANCH   12   11
ATOM     11  C10 UNL A   1      31.022  25.298  25.494  1.00  0.00    +0.000 C 
ATOM    102  H12 UNL A   1      31.589  26.167  25.758  1.00  0.00    +0.000 H 
ATOM    103  H13 UNL A   1      30.033  24.955  25.717  1.00  0.00    +0.000 H 
BRANCH   11   10
ATOM     10  C9  UNL A   1      31.734  24.149  26.375  1.00  0.00    +0.000 C 
ATOM    100  H10 UNL A   1      32.776  24.357  26.246  1.00  0.00    +0.000 H 
ATOM    101  H11 UNL A   1      31.102  24.268  27.229  1.00  0.00    +0.000 H 
BRANCH   10    9
ATOM      9  C8  UNL A   1      31.678  22.559  26.362  1.00  0.00    +0.000 C 
ATOM     98  H8  UNL A   1      32.558  22.243  26.883  1.00  0.00    +0.000 H 
ATOM     99  H9  UNL A   1      30.695  22.404  26.753  1.00  0.00    +0.000 H 
BRANCH    9    8
ATOM      8  O1  UNL A   1      31.615  21.733  25.188  1.00  0.00    +0.000 O 
BRANCH    8    7
ATOM      2  C2  UNL A   1      36.602  21.583  24.969  1.00  0.00    +0.000 C 
ATOM      3  C3  UNL A   1      35.891  22.625  24.379  1.00  0.00    +0.000 C 
ATOM      4  C4  UNL A   1      34.555  22.448  23.966  1.00  0.00    +0.000 C 
ATOM      6  C6  UNL A   1      33.969  21.290  24.435  1.00  0.00    +0.000 C 
ATOM      7  C7  UNL A   1      32.639  20.948  24.765  1.00  0.00    +0.000 C 
ATOM     87  N7  UNL A   1      32.386  19.640  24.813  1.00  0.00    +0.000 N 
ATOM     88  S1  UNL A   1      33.857  18.834  24.785  1.00  0.00    +0.000 S 
ATOM     89  C63 UNL A   1      34.810  20.243  24.770  1.00  0.00    +0.000 C 
ATOM     90  N8  UNL A   1      36.133  20.318  25.015  1.00  0.00    +0.000 N 
ATOM     94  H4  UNL A   1      36.348  23.540  24.243  1.00  0.00    +0.000 H 
BRANCH    2    1
ATOM      1  C1  UNL A   1      37.948  21.858  25.588  1.00  0.00    +0.000 C 
ATOM     91  H1  UNL A   1      38.687  21.925  24.818  1.00  0.00    +0.000 H 
ATOM     92  H2  UNL A   1      38.201  21.063  26.258  1.00  0.00    +0.000 H 
ATOM     93  H3  UNL A   1      37.909  22.781  26.127  1.00  0.00    +0.000 H 
ENDBRANCH    2    1
BRANCH    4    5
ATOM     97  H7  UNL A   1      33.813  24.350  23.489  1.00  0.00    +0.000 H 
ATOM      5  C5  UNL A   1      33.689  23.339  23.159  1.00  0.00    +0.000 C 
ATOM     95  H5  UNL A   1      32.667  23.047  23.278  1.00  0.00    +0.000 H 
ATOM     96  H6  UNL A   1      33.965  23.266  22.128  1.00  0.00    +0.000 H 
ENDBRANCH    4    5
ENDBRANCH    8    7
ENDBRANCH    9    8
ENDBRANCH   10    9
ENDBRANCH   11   10
ENDBRANCH   12   11
ENDBRANCH   14   12
ENDBRANCH   15   14
ENDBRANCH   16   15
ENDBRANCH   17   16
ENDBRANCH   18   17
ENDBRANCH   19   18
ENDBRANCH   20   19
ENDBRANCH   21   20
ENDBRANCH   22   21
ENDBRANCH   24   22
ENDBRANCH   28   27
BRANCH   32   33
ATOM     33  C27 UNL A   1      42.510  27.564  34.474  1.00  0.00    +0.000 C 
ATOM     34  C28 UNL A   1      43.090  26.359  34.023  1.00  0.00    +0.000 C 
ATOM     35  F1  UNL A   1      43.630  26.275  32.797  1.00  0.00    +0.000 F 
ATOM     36  C29 UNL A   1      43.037  25.183  34.775  1.00  0.00    +0.000 C 
ATOM     37  F2  UNL A   1      43.470  24.033  34.242  1.00  0.00    +0.000 F 
ATOM     38  C30 UNL A   1      42.469  25.185  36.034  1.00  0.00    +0.000 C 
ATOM     39  F3  UNL A   1      42.347  24.046  36.728  1.00  0.00    +0.000 F 
ATOM     40  C31 UNL A   1      41.983  26.365  36.553  1.00  0.00    +0.000 C 
ATOM     41  F4  UNL A   1      41.420  26.385  37.769  1.00  0.00    +0.000 F 
ATOM     42  C32 UNL A   1      41.988  27.529  35.784  1.00  0.00    +0.000 C 
ATOM     43  F5  UNL A   1      41.366  28.576  36.337  1.00  0.00    +0.000 F 
ENDBRANCH   32   33
BRANCH   49   50
ATOM     50  C38 UNL A   1      45.137  30.145  28.737  1.00  0.00    +0.000 C 
ATOM     51  C39 UNL A   1      44.174  30.772  27.927  1.00  0.00    +0.000 C 
ATOM     52  F6  UNL A   1      42.878  30.445  28.023  1.00  0.00    +0.000 F 
ATOM     53  C40 UNL A   1      44.523  31.801  27.052  1.00  0.00    +0.000 C 
ATOM     54  F7  UNL A   1      43.584  32.383  26.290  1.00  0.00    +0.000 F 
ATOM     55  C41 UNL A   1      45.830  32.254  26.999  1.00  0.00    +0.000 C 
ATOM     56  F8  UNL A   1      46.157  33.278  26.197  1.00  0.00    +0.000 F 
ATOM     57  C42 UNL A   1      46.794  31.665  27.801  1.00  0.00    +0.000 C 
ATOM     58  F9  UNL A   1      48.050  32.132  27.791  1.00  0.00    +0.000 F 
ATOM     59  C43 UNL A   1      46.454  30.614  28.649  1.00  0.00    +0.000 C 
ATOM     60  F10 UNL A   1      47.407  30.090  29.436  1.00  0.00    +0.000 F 
ENDBRANCH   49   50
BRANCH   64   65
ATOM     65  C47 UNL A   1      42.981  24.663  26.407  1.00  0.00    +0.000 C 
ATOM     66  C48 UNL A   1      43.826  24.433  25.308  1.00  0.00    +0.000 C 
ATOM     67  F11 UNL A   1      44.472  25.458  24.732  1.00  0.00    +0.000 F 
ATOM     68  C49 UNL A   1      44.080  23.143  24.835  1.00  0.00    +0.000 C 
ATOM     69  F12 UNL A   1      44.946  22.957  23.829  1.00  0.00    +0.000 F 
ATOM     70  C50 UNL A   1      43.489  22.046  25.440  1.00  0.00    +0.000 C 
ATOM     71  F13 UNL A   1      43.786  20.803  25.032  1.00  0.00    +0.000 F 
ATOM     72  C51 UNL A   1      42.621  22.239  26.498  1.00  0.00    +0.000 C 
ATOM     73  F14 UNL A   1      42.069  21.184  27.114  1.00  0.00    +0.000 F 
ATOM     74  C52 UNL A   1      42.369  23.527  26.974  1.00  0.00    +0.000 C 
ATOM     75  F15 UNL A   1      41.591  23.633  28.060  1.00  0.00    +0.000 F 
ENDBRANCH   64   65
TORSDOF 21
ENDMDL
MODEL 2
REMARK VINA RESULT:     -11.0      1.298      2.156
ROOT
ATOM    129  H39 UNL A   1      38.493  27.251  31.031  1.00  0.00    +0.000 H 
ATOM     28  C23 UNL A   1      39.905  28.846  29.084  1.00  0.00    +0.000 C 
ATOM     29  C24 UNL A   1      40.233  28.610  30.511  1.00  0.00    +0.000 C 
ATOM     30  N3  UNL A   1      41.177  29.174  31.187  1.00  0.00    +0.000 N 
ATOM     31  C25 UNL A   1      41.114  28.637  32.468  1.00  0.00    +0.000 C 
ATOM     32  C26 UNL A   1      42.206  28.665  33.281  1.00  0.00    +0.000 C 
ATOM     44  C33 UNL A   1      43.185  29.608  32.792  1.00  0.00    +0.000 C 
ATOM     45  C34 UNL A   1      43.186  30.970  32.565  1.00  0.00    +0.000 C 
ATOM     46  C35 UNL A   1      43.922  31.141  31.355  1.00  0.00    +0.000 C 
ATOM     47  C36 UNL A   1      44.387  29.887  30.958  1.00  0.00    +0.000 C 
ATOM     48  N4  UNL A   1      44.256  29.116  32.084  1.00  0.00    +0.000 N 
ATOM     49  C37 UNL A   1      44.839  29.371  29.687  1.00  0.00    +0.000 C 
ATOM     61  C44 UNL A   1      44.803  28.052  29.335  1.00  0.00    +0.000 C 
ATOM     62  N5  UNL A   1      44.818  27.662  28.003  1.00  0.00    +0.000 N 
ATOM     63  C45 UNL A   1      44.205  26.507  27.987  1.00  0.00    +0.000 C 
ATOM     64  C46 UNL A   1      43.250  26.113  26.916  1.00  0.00    +0.000 C 
ATOM     76  C53 UNL A   1      42.176  26.931  27.040  1.00  0.00    +0.000 C 
ATOM     77  C54 UNL A   1      41.173  27.312  26.073  1.00  0.00    +0.000 C 
ATOM     78  C55 UNL A   1      40.334  28.190  26.661  1.00  0.00    +0.000 C 
ATOM     79  C56 UNL A   1      40.629  28.278  28.095  1.00  0.00    +0.000 C 
ATOM     80  N6  UNL A   1      41.801  27.576  28.231  1.00  0.00    +0.000 N 
ATOM     81  C57 UNL A   1      44.093  25.838  29.273  1.00  0.00    +0.000 C 
ATOM     82  C58 UNL A   1      44.390  26.862  30.076  1.00  0.00    +0.000 C 
ATOM     83  C59 UNL A   1      39.867  27.919  32.537  1.00  0.00    +0.000 C 
ATOM     84  C60 UNL A   1      39.325  27.787  31.322  1.00  0.00    +0.000 C 
ATOM    120  H30 UNL A   1      42.748  31.705  33.143  1.00  0.00    +0.000 H 
ATOM    121  H31 UNL A   1      44.083  32.034  30.862  1.00  0.00    +0.000 H 
ATOM    122  H32 UNL A   1      44.825  28.354  32.339  1.00  0.00    +0.000 H 
ATOM    123  H33 UNL A   1      41.109  26.974  25.100  1.00  0.00    +0.000 H 
ATOM    124  H34 UNL A   1      39.595  28.722  26.174  1.00  0.00    +0.000 H 
ATOM    125  H35 UNL A   1      42.319  27.531  29.068  1.00  0.00    +0.000 H 
ATOM    126  H36 UNL A   1      43.855  24.859  29.498  1.00  0.00    +0.000 H 
ATOM    127  H37 UNL A   1      44.334  26.819  31.106  1.00  0.00    +0.000 H 
ATOM    128  H38 UNL A   1      39.448  27.555  33.406  1.00  0.00    +0.000 H 
ENDROOT
BRANCH   28   27
ATOM    130  H40 UNL A   1      39.573  31.416  29.494  1.00  0.00    +0.000 H 
ATOM    131  H41 UNL A   1      37.458  32.590  29.557  1.00  0.00    +0.000 H 
ATOM     27  C22 UNL A   1      38.692  29.615  28.855  1.00  0.00    +0.000 C 
ATOM     85  C61 UNL A   1      38.701  30.959  29.184  1.00  0.00    +0.000 C 
ATOM     86  C62 UNL A   1      37.537  31.672  29.092  1.00  0.00    +0.000 C 
ATOM    118  H28 UNL A   1      35.623  29.423  27.506  1.00  0.00    +0.000 H 
ATOM     24  C19 UNL A   1      36.460  31.164  28.377  1.00  0.00    +0.000 C 
ATOM     25  C20 UNL A   1      36.443  29.821  27.991  1.00  0.00    +0.000 C 
ATOM     26  C21 UNL A   1      37.554  29.027  28.274  1.00  0.00    +0.000 C 
ATOM    119  H29 UNL A   1      37.541  28.019  28.059  1.00  0.00    +0.000 H 
BRANCH   24   22
ATOM     22  C18 UNL A   1      35.348  32.076  28.025  1.00  0.00    +0.000 C 
ATOM     23  O3  UNL A   1      35.563  33.237  27.786  1.00  0.00    +0.000 O 
BRANCH   22   21
ATOM    117  H27 UNL A   1      33.570  31.556  28.849  1.00  0.00    +0.000 H 
ATOM     21  N2  UNL A   1      34.051  31.565  27.989  1.00  0.00    +0.000 N 
BRANCH   21   20
ATOM    116  H26 UNL A   1      34.000  31.001  26.024  1.00  0.00    +0.000 H 
ATOM    115  H25 UNL A   1      32.482  31.688  26.652  1.00  0.00    +0.000 H 
ATOM     20  C17 UNL A   1      33.311  31.040  26.841  1.00  0.00    +0.000 C 
BRANCH   20   19
ATOM    113  H23 UNL A   1      33.584  28.946  26.845  1.00  0.00    +0.000 H 
ATOM    114  H24 UNL A   1      32.406  29.598  28.039  1.00  0.00    +0.000 H 
ATOM     19  C16 UNL A   1      32.780  29.626  27.036  1.00  0.00    +0.000 C 
BRANCH   19   18
ATOM     18  C15 UNL A   1      31.594  29.211  26.145  1.00  0.00    +0.000 C 
ATOM    111  H21 UNL A   1      31.289  28.237  26.465  1.00  0.00    +0.000 H 
ATOM    112  H22 UNL A   1      30.890  30.007  26.277  1.00  0.00    +0.000 H 
BRANCH   18   17
ATOM     17  C14 UNL A   1      31.782  29.144  24.615  1.00  0.00    +0.000 C 
ATOM    109  H19 UNL A   1      32.288  30.038  24.320  1.00  0.00    +0.000 H 
ATOM    110  H20 UNL A   1      32.310  28.227  24.459  1.00  0.00    +0.000 H 
BRANCH   17   16
ATOM    107  H17 UNL A   1      29.701  29.405  24.264  1.00  0.00    +0.000 H 
ATOM    108  H18 UNL A   1      30.768  29.546  22.824  1.00  0.00    +0.000 H 
ATOM     16  C13 UNL A   1      30.534  29.013  23.721  1.00  0.00    +0.000 C 
BRANCH   16   15
ATOM    105  H15 UNL A   1      29.986  26.971  24.134  1.00  0.00    +0.000 H 
ATOM    106  H16 UNL A   1      29.302  27.662  22.629  1.00  0.00    +0.000 H 
ATOM     15  C12 UNL A   1      30.162  27.561  23.259  1.00  0.00    +0.000 C 
BRANCH   15   14
ATOM     14  N1  UNL A   1      31.232  26.843  22.406  1.00  0.00    +0.000 N 
ATOM    104  H14 UNL A   1      31.277  27.385  21.585  1.00  0.00    +0.000 H 
BRANCH   14   12
ATOM     12  C11 UNL A   1      32.150  25.850  22.191  1.00  0.00    +0.000 C 
ATOM     13  O2  UNL A   1      33.028  26.288  21.411  1.00  0.00    +0.000 O 
BRANCH   12   11
ATOM     11  C10 UNL A   1      32.308  24.257  22.525  1.00  0.00    +0.000 C 
ATOM    102  H12 UNL A   1      31.666  24.140  23.374  1.00  0.00    +0.000 H 
ATOM    103  H13 UNL A   1      32.248  23.963  21.497  1.00  0.00    +0.000 H 
BRANCH   11   10
ATOM     10  C9  UNL A   1      33.504  23.228  22.860  1.00  0.00    +0.000 C 
ATOM    100  H10 UNL A   1      33.119  22.673  23.690  1.00  0.00    +0.000 H 
ATOM    101  H11 UNL A   1      33.674  22.935  21.846  1.00  0.00    +0.000 H 
BRANCH   10    9
ATOM      9  C8  UNL A   1      35.041  23.409  23.229  1.00  0.00    +0.000 C 
ATOM     98  H8  UNL A   1      35.531  22.550  22.820  1.00  0.00    +0.000 H 
ATOM     99  H9  UNL A   1      35.208  24.397  22.853  1.00  0.00    +0.000 H 
BRANCH    9    8
ATOM      8  O1  UNL A   1      35.572  23.553  24.556  1.00  0.00    +0.000 O 
BRANCH    8    7
ATOM      2  C2  UNL A   1      31.052  24.592  26.410  1.00  0.00    +0.000 C 
ATOM      3  C3  UNL A   1      31.878  25.605  25.928  1.00  0.00    +0.000 C 
ATOM      4  C4  UNL A   1      33.278  25.446  25.899  1.00  0.00    +0.000 C 
ATOM      6  C6  UNL A   1      33.704  24.153  26.123  1.00  0.00    +0.000 C 
ATOM      7  C7  UNL A   1      34.827  23.417  25.683  1.00  0.00    +0.000 C 
ATOM     87  N7  UNL A   1      35.110  22.332  26.404  1.00  0.00    +0.000 N 
ATOM     88  S1  UNL A   1      33.803  22.032  27.412  1.00  0.00    +0.000 S 
ATOM     89  C63 UNL A   1      32.855  23.318  26.828  1.00  0.00    +0.000 C 
ATOM     90  N8  UNL A   1      31.535  23.497  27.035  1.00  0.00    +0.000 N 
ATOM     94  H4  UNL A   1      31.459  26.483  25.586  1.00  0.00    +0.000 H 
BRANCH    2    1
ATOM      1  C1  UNL A   1      29.561  24.703  26.235  1.00  0.00    +0.000 C 
ATOM     91  H1  UNL A   1      29.313  24.580  25.201  1.00  0.00    +0.000 H 
ATOM     92  H2  UNL A   1      29.233  25.667  26.567  1.00  0.00    +0.000 H 
ATOM     93  H3  UNL A   1      29.076  23.943  26.811  1.00  0.00    +0.000 H 
ENDBRANCH    2    1
BRANCH    4    5
ATOM     97  H7  UNL A   1      34.252  26.773  24.601  1.00  0.00    +0.000 H 
ATOM      5  C5  UNL A   1      34.337  26.443  25.615  1.00  0.00    +0.000 C 
ATOM     95  H5  UNL A   1      35.297  25.998  25.767  1.00  0.00    +0.000 H 
ATOM     96  H6  UNL A   1      34.224  27.281  26.272  1.00  0.00    +0.000 H 
ENDBRANCH    4    5
ENDBRANCH    8    7
ENDBRANCH    9    8
ENDBRANCH   10    9
ENDBRANCH   11   10
ENDBRANCH   12   11
ENDBRANCH   14   12
ENDBRANCH   15   14
ENDBRANCH   16   15
ENDBRANCH   17   16
ENDBRANCH   18   17
ENDBRANCH   19   18
ENDBRANCH   20   19
ENDBRANCH   21   20
ENDBRANCH   22   21
ENDBRANCH   24   22
ENDBRANCH   28   27
BRANCH   32   33
ATOM     33  C27 UNL A   1      42.568  27.600  34.289  1.00  0.00    +0.000 C 
ATOM     34  C28 UNL A   1      43.162  26.406  33.826  1.00  0.00    +0.000 C 
ATOM     35  F1  UNL A   1      43.675  26.331  32.588  1.00  0.00    +0.000 F 
ATOM     36  C29 UNL A   1      43.151  25.232  34.581  1.00  0.00    +0.000 C 
ATOM     37  F2  UNL A   1      43.594  24.089  34.040  1.00  0.00    +0.000 F 
ATOM     38  C30 UNL A   1      42.612  25.225  35.853  1.00  0.00    +0.000 C 
ATOM     39  F3  UNL A   1      42.530  24.085  36.552  1.00  0.00    +0.000 F 
ATOM     40  C31 UNL A   1      42.114  26.396  36.382  1.00  0.00    +0.000 C 
ATOM     41  F4  UNL A   1      41.580  26.407  37.611  1.00  0.00    +0.000 F 
ATOM     42  C32 UNL A   1      42.078  27.558  35.611  1.00  0.00    +0.000 C 
ATOM     43  F5  UNL A   1      41.448  28.593  36.176  1.00  0.00    +0.000 F 
ENDBRANCH   32   33
BRANCH   49   50
ATOM     50  C38 UNL A   1      45.129  30.389  28.619  1.00  0.00    +0.000 C 
ATOM     51  C39 UNL A   1      44.155  30.917  27.754  1.00  0.00    +0.000 C 
ATOM     52  F6  UNL A   1      42.895  30.462  27.780  1.00  0.00    +0.000 F 
ATOM     53  C40 UNL A   1      44.448  31.976  26.895  1.00  0.00    +0.000 C 
ATOM     54  F7  UNL A   1      43.499  32.462  26.079  1.00  0.00    +0.000 F 
ATOM     55  C41 UNL A   1      45.704  32.557  26.912  1.00  0.00    +0.000 C 
ATOM     56  F8  UNL A   1      45.972  33.609  26.125  1.00  0.00    +0.000 F 
ATOM     57  C42 UNL A   1      46.676  32.068  27.769  1.00  0.00    +0.000 C 
ATOM     58  F9  UNL A   1      47.878  32.658  27.826  1.00  0.00    +0.000 F 
ATOM     59  C43 UNL A   1      46.396  30.987  28.602  1.00  0.00    +0.000 C 
ATOM     60  F10 UNL A   1      47.351  30.561  29.443  1.00  0.00    +0.000 F 
ENDBRANCH   49   50
BRANCH   64   65
ATOM     65  C47 UNL A   1      43.327  24.818  26.202  1.00  0.00    +0.000 C 
ATOM     66  C48 UNL A   1      44.325  24.586  25.241  1.00  0.00    +0.000 C 
ATOM     67  F11 UNL A   1      45.069  25.605  24.785  1.00  0.00    +0.000 F 
ATOM     68  C49 UNL A   1      44.627  23.297  24.793  1.00  0.00    +0.000 C 
ATOM     69  F12 UNL A   1      45.634  23.108  23.927  1.00  0.00    +0.000 F 
ATOM     70  C50 UNL A   1      43.933  22.204  25.284  1.00  0.00    +0.000 C 
ATOM     71  F13 UNL A   1      44.268  20.961  24.907  1.00  0.00    +0.000 F 
ATOM     72  C51 UNL A   1      42.917  22.401  26.200  1.00  0.00    +0.000 C 
ATOM     73  F14 UNL A   1      42.259  21.348  26.708  1.00  0.00    +0.000 F 
ATOM     74  C52 UNL A   1      42.617  23.687  26.652  1.00  0.00    +0.000 C 
ATOM     75  F15 UNL A   1      41.684  23.793  27.608  1.00  0.00    +0.000 F 
ENDBRANCH   64   65
TORSDOF 21
ENDMDL
MODEL 3
REMARK VINA RESULT:     -10.9      1.086      1.857
ROOT
ATOM    129  H39 UNL A   1      38.447  27.305  31.384  1.00  0.00    +0.000 H 
ATOM     28  C23 UNL A   1      39.883  28.788  29.366  1.00  0.00    +0.000 C 
ATOM     29  C24 UNL A   1      40.242  28.557  30.787  1.00  0.00    +0.000 C 
ATOM     30  N3  UNL A   1      41.237  29.077  31.423  1.00  0.00    +0.000 N 
ATOM     31  C25 UNL A   1      41.185  28.564  32.714  1.00  0.00    +0.000 C 
ATOM     32  C26 UNL A   1      42.302  28.544  33.493  1.00  0.00    +0.000 C 
ATOM     44  C33 UNL A   1      43.316  29.422  32.957  1.00  0.00    +0.000 C 
ATOM     45  C34 UNL A   1      43.385  30.779  32.706  1.00  0.00    +0.000 C 
ATOM     46  C35 UNL A   1      44.091  30.889  31.471  1.00  0.00    +0.000 C 
ATOM     47  C36 UNL A   1      44.473  29.605  31.083  1.00  0.00    +0.000 C 
ATOM     48  N4  UNL A   1      44.335  28.860  32.226  1.00  0.00    +0.000 N 
ATOM     49  C37 UNL A   1      44.854  29.044  29.807  1.00  0.00    +0.000 C 
ATOM     61  C44 UNL A   1      44.734  27.724  29.480  1.00  0.00    +0.000 C 
ATOM     62  N5  UNL A   1      44.685  27.312  28.156  1.00  0.00    +0.000 N 
ATOM     63  C45 UNL A   1      44.009  26.194  28.179  1.00  0.00    +0.000 C 
ATOM     64  C46 UNL A   1      43.000  25.837  27.144  1.00  0.00    +0.000 C 
ATOM     76  C53 UNL A   1      41.977  26.716  27.287  1.00  0.00    +0.000 C 
ATOM     77  C54 UNL A   1      40.967  27.138  26.345  1.00  0.00    +0.000 C 
ATOM     78  C55 UNL A   1      40.197  28.070  26.943  1.00  0.00    +0.000 C 
ATOM     79  C56 UNL A   1      40.541  28.164  28.365  1.00  0.00    +0.000 C 
ATOM     80  N6  UNL A   1      41.677  27.400  28.478  1.00  0.00    +0.000 N 
ATOM     81  C57 UNL A   1      43.901  25.552  29.479  1.00  0.00    +0.000 C 
ATOM     82  C58 UNL A   1      44.279  26.571  30.255  1.00  0.00    +0.000 C 
ATOM     83  C59 UNL A   1      39.903  27.919  32.834  1.00  0.00    +0.000 C 
ATOM     84  C60 UNL A   1      39.316  27.799  31.640  1.00  0.00    +0.000 C 
ATOM    120  H30 UNL A   1      43.008  31.546  33.285  1.00  0.00    +0.000 H 
ATOM    121  H31 UNL A   1      44.286  31.764  30.958  1.00  0.00    +0.000 H 
ATOM    122  H32 UNL A   1      44.868  28.072  32.476  1.00  0.00    +0.000 H 
ATOM    123  H33 UNL A   1      40.853  26.788  25.381  1.00  0.00    +0.000 H 
ATOM    124  H34 UNL A   1      39.474  28.635  26.470  1.00  0.00    +0.000 H 
ATOM    125  H35 UNL A   1      42.218  27.339  29.299  1.00  0.00    +0.000 H 
ATOM    126  H36 UNL A   1      43.615  24.592  29.728  1.00  0.00    +0.000 H 
ATOM    127  H37 UNL A   1      44.253  26.547  31.286  1.00  0.00    +0.000 H 
ATOM    128  H38 UNL A   1      39.492  27.593  33.723  1.00  0.00    +0.000 H 
ENDROOT
BRANCH   28   27
ATOM    130  H40 UNL A   1      39.736  31.393  29.636  1.00  0.00    +0.000 H 
ATOM    131  H41 UNL A   1      37.706  32.705  29.749  1.00  0.00    +0.000 H 
ATOM     27  C22 UNL A   1      38.707  29.620  29.161  1.00  0.00    +0.000 C 
ATOM     85  C61 UNL A   1      38.820  30.977  29.405  1.00  0.00    +0.000 C 
ATOM     86  C62 UNL A   1      37.698  31.759  29.338  1.00  0.00    +0.000 C 
ATOM    118  H28 UNL A   1      35.555  29.552  28.008  1.00  0.00    +0.000 H 
ATOM     24  C19 UNL A   1      36.551  31.281  28.719  1.00  0.00    +0.000 C 
ATOM     25  C20 UNL A   1      36.427  29.922  28.419  1.00  0.00    +0.000 C 
ATOM     26  C21 UNL A   1      37.502  29.075  28.685  1.00  0.00    +0.000 C 
ATOM    119  H29 UNL A   1      37.413  28.059  28.533  1.00  0.00    +0.000 H 
BRANCH   24   22
ATOM     22  C18 UNL A   1      35.477  32.243  28.378  1.00  0.00    +0.000 C 
ATOM     23  O3  UNL A   1      35.430  33.320  28.914  1.00  0.00    +0.000 O 
BRANCH   22   21
ATOM    117  H27 UNL A   1      34.645  32.239  26.529  1.00  0.00    +0.000 H 
ATOM     21  N2  UNL A   1      34.522  31.869  27.434  1.00  0.00    +0.000 N 
BRANCH   21   20
ATOM    116  H26 UNL A   1      32.493  31.616  27.502  1.00  0.00    +0.000 H 
ATOM    115  H25 UNL A   1      33.424  30.543  28.576  1.00  0.00    +0.000 H 
ATOM     20  C17 UNL A   1      33.360  30.998  27.610  1.00  0.00    +0.000 C 
BRANCH   20   19
ATOM    113  H23 UNL A   1      32.438  30.146  25.912  1.00  0.00    +0.000 H 
ATOM    114  H24 UNL A   1      34.204  29.849  26.093  1.00  0.00    +0.000 H 
ATOM     19  C16 UNL A   1      33.245  29.893  26.567  1.00  0.00    +0.000 C 
BRANCH   19   18
ATOM     18  C15 UNL A   1      32.987  28.471  27.102  1.00  0.00    +0.000 C 
ATOM    111  H21 UNL A   1      33.619  27.810  26.548  1.00  0.00    +0.000 H 
ATOM    112  H22 UNL A   1      33.179  28.559  28.152  1.00  0.00    +0.000 H 
BRANCH   18   17
ATOM     17  C14 UNL A   1      31.561  27.885  27.041  1.00  0.00    +0.000 C 
ATOM    109  H19 UNL A   1      31.467  27.200  27.857  1.00  0.00    +0.000 H 
ATOM    110  H20 UNL A   1      30.926  28.745  27.068  1.00  0.00    +0.000 H 
BRANCH   17   16
ATOM    107  H17 UNL A   1      30.519  27.803  25.189  1.00  0.00    +0.000 H 
ATOM    108  H18 UNL A   1      32.027  26.831  25.289  1.00  0.00    +0.000 H 
ATOM     16  C13 UNL A   1      31.122  27.136  25.769  1.00  0.00    +0.000 C 
BRANCH   16   15
ATOM    105  H15 UNL A   1      30.359  25.562  27.026  1.00  0.00    +0.000 H 
ATOM    106  H16 UNL A   1      29.305  26.032  25.656  1.00  0.00    +0.000 H 
ATOM     15  C12 UNL A   1      30.300  25.819  25.989  1.00  0.00    +0.000 C 
BRANCH   15   14
ATOM     14  N1  UNL A   1      30.773  24.599  25.166  1.00  0.00    +0.000 N 
ATOM    104  H14 UNL A   1      30.584  23.834  25.756  1.00  0.00    +0.000 H 
BRANCH   14   12
ATOM     12  C11 UNL A   1      31.316  24.023  24.049  1.00  0.00    +0.000 C 
ATOM     13  O2  UNL A   1      30.388  23.779  23.241  1.00  0.00    +0.000 O 
BRANCH   12   11
ATOM     11  C10 UNL A   1      32.766  23.432  23.578  1.00  0.00    +0.000 C 
ATOM    102  H12 UNL A   1      32.782  22.471  24.049  1.00  0.00    +0.000 H 
ATOM    103  H13 UNL A   1      32.653  23.766  22.567  1.00  0.00    +0.000 H 
BRANCH   11   10
ATOM     10  C9  UNL A   1      34.313  23.878  23.665  1.00  0.00    +0.000 C 
ATOM    100  H10 UNL A   1      34.839  22.966  23.471  1.00  0.00    +0.000 H 
ATOM    101  H11 UNL A   1      34.201  24.757  23.066  1.00  0.00    +0.000 H 
BRANCH   10    9
ATOM      9  C8  UNL A   1      35.198  24.572  24.792  1.00  0.00    +0.000 C 
ATOM     98  H8  UNL A   1      35.839  25.250  24.268  1.00  0.00    +0.000 H 
ATOM     99  H9  UNL A   1      34.427  24.908  25.453  1.00  0.00    +0.000 H 
BRANCH    9    8
ATOM      8  O1  UNL A   1      36.049  23.889  25.726  1.00  0.00    +0.000 O 
BRANCH    8    7
ATOM      2  C2  UNL A   1      33.642  19.585  24.939  1.00  0.00    +0.000 C 
ATOM      3  C3  UNL A   1      33.203  20.484  25.909  1.00  0.00    +0.000 C 
ATOM      4  C4  UNL A   1      34.095  21.396  26.508  1.00  0.00    +0.000 C 
ATOM      6  C6  UNL A   1      35.315  21.493  25.871  1.00  0.00    +0.000 C 
ATOM      7  C7  UNL A   1      36.245  22.546  25.722  1.00  0.00    +0.000 C 
ATOM     87  N7  UNL A   1      37.476  22.169  25.379  1.00  0.00    +0.000 N 
ATOM     88  S1  UNL A   1      37.407  20.559  24.910  1.00  0.00    +0.000 S 
ATOM     89  C63 UNL A   1      35.725  20.408  25.116  1.00  0.00    +0.000 C 
ATOM     90  N8  UNL A   1      34.948  19.408  24.651  1.00  0.00    +0.000 N 
ATOM     94  H4  UNL A   1      32.211  20.481  26.192  1.00  0.00    +0.000 H 
BRANCH    2    1
ATOM      1  C1  UNL A   1      32.634  18.771  24.170  1.00  0.00    +0.000 C 
ATOM     91  H1  UNL A   1      31.836  18.484  24.822  1.00  0.00    +0.000 H 
ATOM     92  H2  UNL A   1      33.108  17.895  23.778  1.00  0.00    +0.000 H 
ATOM     93  H3  UNL A   1      32.244  19.357  23.364  1.00  0.00    +0.000 H 
ENDBRANCH    2    1
BRANCH    4    5
ATOM     97  H7  UNL A   1      32.945  22.078  28.123  1.00  0.00    +0.000 H 
ATOM      5  C5  UNL A   1      33.892  22.289  27.672  1.00  0.00    +0.000 C 
ATOM     95  H5  UNL A   1      33.914  23.308  27.348  1.00  0.00    +0.000 H 
ATOM     96  H6  UNL A   1      34.671  22.125  28.388  1.00  0.00    +0.000 H 
ENDBRANCH    4    5
ENDBRANCH    8    7
ENDBRANCH    9    8
ENDBRANCH   10    9
ENDBRANCH   11   10
ENDBRANCH   12   11
ENDBRANCH   14   12
ENDBRANCH   15   14
ENDBRANCH   16   15
ENDBRANCH   17   16
ENDBRANCH   18   17
ENDBRANCH   19   18
ENDBRANCH   20   19
ENDBRANCH   21   20
ENDBRANCH   22   21
ENDBRANCH   24   22
ENDBRANCH   28   27
BRANCH   32   33
ATOM     33  C27 UNL A   1      42.636  27.477  34.507  1.00  0.00    +0.000 C 
ATOM     34  C28 UNL A   1      43.161  26.249  34.049  1.00  0.00    +0.000 C 
ATOM     35  F1  UNL A   1      43.640  26.132  32.801  1.00  0.00    +0.000 F 
ATOM     36  C29 UNL A   1      43.111  25.087  34.821  1.00  0.00    +0.000 C 
ATOM     37  F2  UNL A   1      43.486  23.917  34.287  1.00  0.00    +0.000 F 
ATOM     38  C30 UNL A   1      42.603  25.123  36.105  1.00  0.00    +0.000 C 
ATOM     39  F3  UNL A   1      42.482  23.999  36.822  1.00  0.00    +0.000 F 
ATOM     40  C31 UNL A   1      42.174  26.324  36.628  1.00  0.00    +0.000 C 
ATOM     41  F4  UNL A   1      41.670  26.378  37.868  1.00  0.00    +0.000 F 
ATOM     42  C32 UNL A   1      42.175  27.476  35.841  1.00  0.00    +0.000 C 
ATOM     43  F5  UNL A   1      41.610  28.548  36.405  1.00  0.00    +0.000 F 
ENDBRANCH   32   33
BRANCH   49   50
ATOM     50  C38 UNL A   1      45.167  30.027  28.714  1.00  0.00    +0.000 C 
ATOM     51  C39 UNL A   1      44.191  30.644  27.912  1.00  0.00    +0.000 C 
ATOM     52  F6  UNL A   1      42.898  30.311  28.027  1.00  0.00    +0.000 F 
ATOM     53  C40 UNL A   1      44.524  31.668  27.025  1.00  0.00    +0.000 C 
ATOM     54  F7  UNL A   1      43.572  32.240  26.271  1.00  0.00    +0.000 F 
ATOM     55  C41 UNL A   1      45.828  32.127  26.952  1.00  0.00    +0.000 C 
ATOM     56  F8  UNL A   1      46.140  33.146  26.139  1.00  0.00    +0.000 F 
ATOM     57  C42 UNL A   1      46.805  31.548  27.746  1.00  0.00    +0.000 C 
ATOM     58  F9  UNL A   1      48.059  32.021  27.716  1.00  0.00    +0.000 F 
ATOM     59  C43 UNL A   1      46.481  30.502  28.605  1.00  0.00    +0.000 C 
ATOM     60  F10 UNL A   1      47.446  29.988  29.384  1.00  0.00    +0.000 F 
ENDBRANCH   49   50
BRANCH   64   65
ATOM     65  C47 UNL A   1      42.982  24.528  26.451  1.00  0.00    +0.000 C 
ATOM     66  C48 UNL A   1      43.812  24.292  25.344  1.00  0.00    +0.000 C 
ATOM     67  F11 UNL A   1      44.453  25.312  24.753  1.00  0.00    +0.000 F 
ATOM     68  C49 UNL A   1      44.060  22.998  24.875  1.00  0.00    +0.000 C 
ATOM     69  F12 UNL A   1      44.914  22.806  23.860  1.00  0.00    +0.000 F 
ATOM     70  C50 UNL A   1      43.476  21.905  25.494  1.00  0.00    +0.000 C 
ATOM     71  F13 UNL A   1      43.766  20.660  25.089  1.00  0.00    +0.000 F 
ATOM     72  C51 UNL A   1      42.620  22.106  26.561  1.00  0.00    +0.000 C 
ATOM     73  F14 UNL A   1      42.075  21.055  27.190  1.00  0.00    +0.000 F 
ATOM     74  C52 UNL A   1      42.375  23.397  27.033  1.00  0.00    +0.000 C 
ATOM     75  F15 UNL A   1      41.611  23.510  28.127  1.00  0.00    +0.000 F 
ENDBRANCH   64   65
TORSDOF 21
ENDMDL
MODEL 4
REMARK VINA RESULT:     -10.5      4.968      7.703
ROOT
ATOM    129  H39 UNL A   1      39.172  27.308  32.314  1.00  0.00    +0.000 H 
ATOM     28  C23 UNL A   1      40.190  28.756  30.035  1.00  0.00    +0.000 C 
ATOM     29  C24 UNL A   1      40.807  28.564  31.370  1.00  0.00    +0.000 C 
ATOM     30  N3  UNL A   1      41.894  29.112  31.801  1.00  0.00    +0.000 N 
ATOM     31  C25 UNL A   1      42.088  28.630  33.091  1.00  0.00    +0.000 C 
ATOM     32  C26 UNL A   1      43.329  28.642  33.651  1.00  0.00    +0.000 C 
ATOM     44  C33 UNL A   1      44.214  29.518  32.919  1.00  0.00    +0.000 C 
ATOM     45  C34 UNL A   1      44.214  30.869  32.630  1.00  0.00    +0.000 C 
ATOM     46  C35 UNL A   1      44.680  30.957  31.284  1.00  0.00    +0.000 C 
ATOM     47  C36 UNL A   1      45.004  29.668  30.860  1.00  0.00    +0.000 C 
ATOM     48  N4  UNL A   1      45.090  28.950  32.025  1.00  0.00    +0.000 N 
ATOM     49  C37 UNL A   1      45.153  29.081  29.549  1.00  0.00    +0.000 C 
ATOM     61  C44 UNL A   1      44.995  27.751  29.278  1.00  0.00    +0.000 C 
ATOM     62  N5  UNL A   1      44.711  27.307  27.995  1.00  0.00    +0.000 N 
ATOM     63  C45 UNL A   1      44.068  26.182  28.167  1.00  0.00    +0.000 C 
ATOM     64  C46 UNL A   1      42.892  25.789  27.343  1.00  0.00    +0.000 C 
ATOM     76  C53 UNL A   1      41.899  26.659  27.652  1.00  0.00    +0.000 C 
ATOM     77  C54 UNL A   1      40.727  27.046  26.903  1.00  0.00    +0.000 C 
ATOM     78  C55 UNL A   1      40.065  27.984  27.612  1.00  0.00    +0.000 C 
ATOM     79  C56 UNL A   1      40.663  28.116  28.944  1.00  0.00    +0.000 C 
ATOM     80  N6  UNL A   1      41.812  27.368  28.863  1.00  0.00    +0.000 N 
ATOM     81  C57 UNL A   1      44.210  25.571  29.478  1.00  0.00    +0.000 C 
ATOM     82  C58 UNL A   1      44.709  26.613  30.149  1.00  0.00    +0.000 C 
ATOM     83  C59 UNL A   1      40.859  27.974  33.458  1.00  0.00    +0.000 C 
ATOM     84  C60 UNL A   1      40.066  27.817  32.395  1.00  0.00    +0.000 C 
ATOM    120  H30 UNL A   1      43.937  31.646  33.251  1.00  0.00    +0.000 H 
ATOM    121  H31 UNL A   1      44.763  31.821  30.725  1.00  0.00    +0.000 H 
ATOM    122  H32 UNL A   1      45.672  28.174  32.190  1.00  0.00    +0.000 H 
ATOM    123  H33 UNL A   1      40.443  26.671  25.984  1.00  0.00    +0.000 H 
ATOM    124  H34 UNL A   1      39.259  28.528  27.268  1.00  0.00    +0.000 H 
ATOM    125  H35 UNL A   1      42.495  27.333  29.571  1.00  0.00    +0.000 H 
ATOM    126  H36 UNL A   1      43.991  24.614  29.797  1.00  0.00    +0.000 H 
ATOM    127  H37 UNL A   1      44.873  26.614  31.168  1.00  0.00    +0.000 H 
ATOM    128  H38 UNL A   1      40.624  27.665  34.414  1.00  0.00    +0.000 H 
ENDROOT
BRANCH   28   27
ATOM    130  H40 UNL A   1      40.002  31.285  29.360  1.00  0.00    +0.000 H 
ATOM    131  H41 UNL A   1      38.119  32.742  29.790  1.00  0.00    +0.000 H 
ATOM     27  C22 UNL A   1      38.983  29.570  30.031  1.00  0.00    +0.000 C 
ATOM     85  C61 UNL A   1      39.101  30.906  29.690  1.00  0.00    +0.000 C 
ATOM     86  C62 UNL A   1      38.003  31.717  29.798  1.00  0.00    +0.000 C 
ATOM    118  H28 UNL A   1      35.647  29.401  30.364  1.00  0.00    +0.000 H 
ATOM     24  C19 UNL A   1      36.735  31.163  29.920  1.00  0.00    +0.000 C 
ATOM     25  C20 UNL A   1      36.585  29.807  30.219  1.00  0.00    +0.000 C 
ATOM     26  C21 UNL A   1      37.726  29.012  30.320  1.00  0.00    +0.000 C 
ATOM    119  H29 UNL A   1      37.647  28.023  30.604  1.00  0.00    +0.000 H 
BRANCH   24   22
ATOM     22  C18 UNL A   1      35.557  32.038  29.713  1.00  0.00    +0.000 C 
ATOM     23  O3  UNL A   1      34.827  32.305  30.632  1.00  0.00    +0.000 O 
BRANCH   22   21
ATOM    117  H27 UNL A   1      35.394  31.883  27.698  1.00  0.00    +0.000 H 
ATOM     21  N2  UNL A   1      35.311  32.533  28.433  1.00  0.00    +0.000 N 
BRANCH   21   20
ATOM    116  H26 UNL A   1      35.216  34.000  27.011  1.00  0.00    +0.000 H 
ATOM    115  H25 UNL A   1      35.459  34.580  28.677  1.00  0.00    +0.000 H 
ATOM     20  C17 UNL A   1      34.943  33.894  28.039  1.00  0.00    +0.000 C 
BRANCH   20   19
ATOM    113  H23 UNL A   1      33.094  34.370  27.138  1.00  0.00    +0.000 H 
ATOM    114  H24 UNL A   1      33.020  33.328  28.603  1.00  0.00    +0.000 H 
ATOM     19  C16 UNL A   1      33.450  34.186  28.130  1.00  0.00    +0.000 C 
BRANCH   19   18
ATOM     18  C15 UNL A   1      33.040  35.386  29.006  1.00  0.00    +0.000 C 
ATOM    111  H21 UNL A   1      33.370  36.268  28.500  1.00  0.00    +0.000 H 
ATOM    112  H22 UNL A   1      31.983  35.261  29.124  1.00  0.00    +0.000 H 
BRANCH   18   17
ATOM     17  C14 UNL A   1      33.558  35.478  30.456  1.00  0.00    +0.000 C 
ATOM    109  H19 UNL A   1      33.521  34.492  30.868  1.00  0.00    +0.000 H 
ATOM    110  H20 UNL A   1      34.529  35.915  30.358  1.00  0.00    +0.000 H 
BRANCH   17   16
ATOM    107  H17 UNL A   1      32.475  37.255  30.895  1.00  0.00    +0.000 H 
ATOM    108  H18 UNL A   1      32.057  35.813  31.883  1.00  0.00    +0.000 H 
ATOM     16  C13 UNL A   1      32.829  36.409  31.444  1.00  0.00    +0.000 C 
BRANCH   16   15
ATOM    105  H15 UNL A   1      34.404  37.630  32.262  1.00  0.00    +0.000 H 
ATOM    106  H16 UNL A   1      32.983  37.392  33.327  1.00  0.00    +0.000 H 
ATOM     15  C12 UNL A   1      33.680  36.944  32.648  1.00  0.00    +0.000 C 
BRANCH   15   14
ATOM     14  N1  UNL A   1      34.430  35.864  33.460  1.00  0.00    +0.000 N 
ATOM    104  H14 UNL A   1      34.513  36.262  34.356  1.00  0.00    +0.000 H 
BRANCH   14   12
ATOM     12  C11 UNL A   1      35.041  34.644  33.588  1.00  0.00    +0.000 C 
ATOM     13  O2  UNL A   1      34.151  33.761  33.624  1.00  0.00    +0.000 O 
BRANCH   12   11
ATOM     11  C10 UNL A   1      36.545  34.070  33.870  1.00  0.00    +0.000 C 
ATOM    102  H12 UNL A   1      36.485  33.776  34.898  1.00  0.00    +0.000 H 
ATOM    103  H13 UNL A   1      36.592  33.537  32.943  1.00  0.00    +0.000 H 
BRANCH   11   10
ATOM     10  C9  UNL A   1      38.061  34.610  33.760  1.00  0.00    +0.000 C 
ATOM    100  H10 UNL A   1      38.559  33.825  33.230  1.00  0.00    +0.000 H 
ATOM    101  H11 UNL A   1      37.795  35.599  33.450  1.00  0.00    +0.000 H 
BRANCH   10    9
ATOM      9  C8  UNL A   1      39.146  35.070  34.828  1.00  0.00    +0.000 C 
ATOM     98  H8  UNL A   1      39.658  35.892  34.373  1.00  0.00    +0.000 H 
ATOM     99  H9  UNL A   1      38.522  35.190  35.688  1.00  0.00    +0.000 H 
BRANCH    9    8
ATOM      8  O1  UNL A   1      40.180  34.240  35.382  1.00  0.00    +0.000 O 
BRANCH    8    7
ATOM      2  C2  UNL A   1      42.309  33.831  30.882  1.00  0.00    +0.000 C 
ATOM      3  C3  UNL A   1      41.284  32.972  31.270  1.00  0.00    +0.000 C 
ATOM      4  C4  UNL A   1      41.037  32.706  32.632  1.00  0.00    +0.000 C 
ATOM      6  C6  UNL A   1      41.694  33.553  33.499  1.00  0.00    +0.000 C 
ATOM      7  C7  UNL A   1      41.386  34.043  34.788  1.00  0.00    +0.000 C 
ATOM     87  N7  UNL A   1      42.422  34.526  35.473  1.00  0.00    +0.000 N 
ATOM     88  S1  UNL A   1      43.709  34.688  34.408  1.00  0.00    +0.000 S 
ATOM     89  C63 UNL A   1      42.845  34.168  33.038  1.00  0.00    +0.000 C 
ATOM     90  N8  UNL A   1      43.224  34.309  31.752  1.00  0.00    +0.000 N 
ATOM     94  H4  UNL A   1      40.697  32.523  30.550  1.00  0.00    +0.000 H 
BRANCH    2    1
ATOM      1  C1  UNL A   1      42.415  34.259  29.442  1.00  0.00    +0.000 C 
ATOM     91  H1  UNL A   1      41.485  34.076  28.946  1.00  0.00    +0.000 H 
ATOM     92  H2  UNL A   1      43.191  33.701  28.961  1.00  0.00    +0.000 H 
ATOM     93  H3  UNL A   1      42.645  35.303  29.396  1.00  0.00    +0.000 H 
ENDBRANCH    2    1
BRANCH    4    5
ATOM     97  H7  UNL A   1      40.209  31.774  34.317  1.00  0.00    +0.000 H 
ATOM      5  C5  UNL A   1      40.145  31.698  33.251  1.00  0.00    +0.000 C 
ATOM     95  H5  UNL A   1      40.446  30.718  32.944  1.00  0.00    +0.000 H 
ATOM     96  H6  UNL A   1      39.136  31.875  32.942  1.00  0.00    +0.000 H 
ENDBRANCH    4    5
ENDBRANCH    8    7
ENDBRANCH    9    8
ENDBRANCH   10    9
ENDBRANCH   11   10
ENDBRANCH   12   11
ENDBRANCH   14   12
ENDBRANCH   15   14
ENDBRANCH   16   15
ENDBRANCH   17   16
ENDBRANCH   18   17
ENDBRANCH   19   18
ENDBRANCH   20   19
ENDBRANCH   21   20
ENDBRANCH   22   21
ENDBRANCH   24   22
ENDBRANCH   28   27
BRANCH   32   33
ATOM     33  C27 UNL A   1      43.861  27.604  34.610  1.00  0.00    +0.000 C 
ATOM     34  C28 UNL A   1      43.871  26.252  34.204  1.00  0.00    +0.000 C 
ATOM     35  F1  UNL A   1      43.711  25.922  32.913  1.00  0.00    +0.000 F 
ATOM     36  C29 UNL A   1      43.940  25.203  35.123  1.00  0.00    +0.000 C 
ATOM     37  F2  UNL A   1      43.798  23.939  34.702  1.00  0.00    +0.000 F 
ATOM     38  C30 UNL A   1      44.075  25.464  36.473  1.00  0.00    +0.000 C 
ATOM     39  F3  UNL A   1      44.066  24.465  37.365  1.00  0.00    +0.000 F 
ATOM     40  C31 UNL A   1      44.172  26.771  36.900  1.00  0.00    +0.000 C 
ATOM     41  F4  UNL A   1      44.295  27.045  38.207  1.00  0.00    +0.000 F 
ATOM     42  C32 UNL A   1      44.051  27.821  35.991  1.00  0.00    +0.000 C 
ATOM     43  F5  UNL A   1      44.021  29.042  36.536  1.00  0.00    +0.000 F 
ENDBRANCH   32   33
BRANCH   49   50
ATOM     50  C38 UNL A   1      45.244  30.040  28.395  1.00  0.00    +0.000 C 
ATOM     51  C39 UNL A   1      44.143  30.731  27.862  1.00  0.00    +0.000 C 
ATOM     52  F6  UNL A   1      42.902  30.498  28.312  1.00  0.00    +0.000 F 
ATOM     53  C40 UNL A   1      44.309  31.729  26.902  1.00  0.00    +0.000 C 
ATOM     54  F7  UNL A   1      43.240  32.374  26.409  1.00  0.00    +0.000 F 
ATOM     55  C41 UNL A   1      45.581  32.088  26.487  1.00  0.00    +0.000 C 
ATOM     56  F8  UNL A   1      45.747  33.083  25.604  1.00  0.00    +0.000 F 
ATOM     57  C42 UNL A   1      46.684  31.435  27.012  1.00  0.00    +0.000 C 
ATOM     58  F9  UNL A   1      47.919  31.811  26.651  1.00  0.00    +0.000 F 
ATOM     59  C43 UNL A   1      46.517  30.414  27.943  1.00  0.00    +0.000 C 
ATOM     60  F10 UNL A   1      47.610  29.826  28.455  1.00  0.00    +0.000 F 
ENDBRANCH   49   50
BRANCH   64   65
ATOM     65  C47 UNL A   1      42.768  24.463  26.694  1.00  0.00    +0.000 C 
ATOM     66  C48 UNL A   1      43.333  24.227  25.430  1.00  0.00    +0.000 C 
ATOM     67  F11 UNL A   1      43.781  25.254  24.692  1.00  0.00    +0.000 F 
ATOM     68  C49 UNL A   1      43.517  22.932  24.939  1.00  0.00    +0.000 C 
ATOM     69  F12 UNL A   1      44.124  22.743  23.758  1.00  0.00    +0.000 F 
ATOM     70  C50 UNL A   1      43.133  21.835  25.693  1.00  0.00    +0.000 C 
ATOM     71  F13 UNL A   1      43.372  20.591  25.253  1.00  0.00    +0.000 F 
ATOM     72  C51 UNL A   1      42.536  22.033  26.924  1.00  0.00    +0.000 C 
ATOM     73  F14 UNL A   1      42.189  20.980  27.678  1.00  0.00    +0.000 F 
ATOM     74  C52 UNL A   1      42.354  23.326  27.417  1.00  0.00    +0.000 C 
ATOM     75  F15 UNL A   1      41.855  23.440  28.656  1.00  0.00    +0.000 F 
ENDBRANCH   64   65
TORSDOF 21
ENDMDL
MODEL 5
REMARK VINA RESULT:     -10.0      4.848      9.103
ROOT
ATOM    129  H39 UNL A   1      38.272  27.407  31.194  1.00  0.00    +0.000 H 
ATOM     28  C23 UNL A   1      39.769  28.909  29.235  1.00  0.00    +0.000 C 
ATOM     29  C24 UNL A   1      40.079  28.674  30.667  1.00  0.00    +0.000 C 
ATOM     30  N3  UNL A   1      41.047  29.198  31.340  1.00  0.00    +0.000 N 
ATOM     31  C25 UNL A   1      40.953  28.679  32.626  1.00  0.00    +0.000 C 
ATOM     32  C26 UNL A   1      42.042  28.662  33.444  1.00  0.00    +0.000 C 
ATOM     44  C33 UNL A   1      43.068  29.550  32.948  1.00  0.00    +0.000 C 
ATOM     45  C34 UNL A   1      43.137  30.908  32.706  1.00  0.00    +0.000 C 
ATOM     46  C35 UNL A   1      43.886  31.029  31.498  1.00  0.00    +0.000 C 
ATOM     47  C36 UNL A   1      44.289  29.749  31.117  1.00  0.00    +0.000 C 
ATOM     48  N4  UNL A   1      44.117  28.998  32.251  1.00  0.00    +0.000 N 
ATOM     49  C37 UNL A   1      44.720  29.197  29.853  1.00  0.00    +0.000 C 
ATOM     61  C44 UNL A   1      44.620  27.877  29.516  1.00  0.00    +0.000 C 
ATOM     62  N5  UNL A   1      44.621  27.472  28.189  1.00  0.00    +0.000 N 
ATOM     63  C45 UNL A   1      43.952  26.349  28.183  1.00  0.00    +0.000 C 
ATOM     64  C46 UNL A   1      42.983  25.991  27.112  1.00  0.00    +0.000 C 
ATOM     76  C53 UNL A   1      41.950  26.862  27.222  1.00  0.00    +0.000 C 
ATOM     77  C54 UNL A   1      40.970  27.281  26.247  1.00  0.00    +0.000 C 
ATOM     78  C55 UNL A   1      40.173  28.206  26.821  1.00  0.00    +0.000 C 
ATOM     79  C56 UNL A   1      40.467  28.295  28.256  1.00  0.00    +0.000 C 
ATOM     80  N6  UNL A   1      41.603  27.538  28.405  1.00  0.00    +0.000 N 
ATOM     81  C57 UNL A   1      43.802  25.700  29.476  1.00  0.00    +0.000 C 
ATOM     82  C58 UNL A   1      44.146  26.718  30.269  1.00  0.00    +0.000 C 
ATOM     83  C59 UNL A   1      39.672  28.024  32.698  1.00  0.00    +0.000 C 
ATOM     84  C60 UNL A   1      39.129  27.906  31.483  1.00  0.00    +0.000 C 
ATOM    120  H30 UNL A   1      42.734  31.670  33.275  1.00  0.00    +0.000 H 
ATOM    121  H31 UNL A   1      44.092  31.907  30.996  1.00  0.00    +0.000 H 
ATOM    122  H32 UNL A   1      44.646  28.212  32.517  1.00  0.00    +0.000 H 
ATOM    123  H33 UNL A   1      40.893  26.935  25.278  1.00  0.00    +0.000 H 
ATOM    124  H34 UNL A   1      39.464  28.768  26.326  1.00  0.00    +0.000 H 
ATOM    125  H35 UNL A   1      42.115  27.476  29.244  1.00  0.00    +0.000 H 
ATOM    126  H36 UNL A   1      43.515  24.737  29.710  1.00  0.00    +0.000 H 
ATOM    127  H37 UNL A   1      44.084  26.689  31.299  1.00  0.00    +0.000 H 
ATOM    128  H38 UNL A   1      39.232  27.691  33.570  1.00  0.00    +0.000 H 
ENDROOT
BRANCH   28   27
ATOM    130  H40 UNL A   1      37.362  28.072  28.610  1.00  0.00    +0.000 H 
ATOM    131  H41 UNL A   1      35.552  29.435  27.761  1.00  0.00    +0.000 H 
ATOM     27  C22 UNL A   1      38.595  29.734  28.992  1.00  0.00    +0.000 C 
ATOM     85  C61 UNL A   1      37.421  29.102  28.621  1.00  0.00    +0.000 C 
ATOM     86  C62 UNL A   1      36.340  29.865  28.269  1.00  0.00    +0.000 C 
ATOM    118  H28 UNL A   1      37.455  32.885  29.203  1.00  0.00    +0.000 H 
ATOM     24  C19 UNL A   1      36.303  31.215  28.592  1.00  0.00    +0.000 C 
ATOM     25  C20 UNL A   1      37.464  31.870  29.013  1.00  0.00    +0.000 C 
ATOM     26  C21 UNL A   1      38.633  31.128  29.171  1.00  0.00    +0.000 C 
ATOM    119  H29 UNL A   1      39.518  31.598  29.418  1.00  0.00    +0.000 H 
BRANCH   24   22
ATOM     22  C18 UNL A   1      35.011  31.933  28.491  1.00  0.00    +0.000 C 
ATOM     23  O3  UNL A   1      34.237  31.673  27.606  1.00  0.00    +0.000 O 
BRANCH   22   21
ATOM    117  H27 UNL A   1      34.471  33.798  29.071  1.00  0.00    +0.000 H 
ATOM     21  N2  UNL A   1      34.720  32.917  29.434  1.00  0.00    +0.000 N 
BRANCH   21   20
ATOM    116  H26 UNL A   1      35.697  32.434  31.164  1.00  0.00    +0.000 H 
ATOM    115  H25 UNL A   1      33.936  32.165  31.191  1.00  0.00    +0.000 H 
ATOM     20  C17 UNL A   1      34.734  32.813  30.893  1.00  0.00    +0.000 C 
BRANCH   20   19
ATOM    113  H23 UNL A   1      34.441  34.904  30.872  1.00  0.00    +0.000 H 
ATOM    114  H24 UNL A   1      33.722  34.013  32.261  1.00  0.00    +0.000 H 
ATOM     19  C16 UNL A   1      34.566  34.144  31.615  1.00  0.00    +0.000 C 
BRANCH   19   18
ATOM     18  C15 UNL A   1      35.724  34.574  32.535  1.00  0.00    +0.000 C 
ATOM    111  H21 UNL A   1      36.080  35.514  32.171  1.00  0.00    +0.000 H 
ATOM    112  H22 UNL A   1      35.285  34.568  33.512  1.00  0.00    +0.000 H 
BRANCH   18   17
ATOM     17  C14 UNL A   1      36.954  33.656  32.686  1.00  0.00    +0.000 C 
ATOM    109  H19 UNL A   1      36.934  33.262  33.681  1.00  0.00    +0.000 H 
ATOM    110  H20 UNL A   1      36.848  32.946  31.893  1.00  0.00    +0.000 H 
BRANCH   17   16
ATOM    107  H17 UNL A   1      38.441  35.125  33.082  1.00  0.00    +0.000 H 
ATOM    108  H18 UNL A   1      39.044  33.472  32.709  1.00  0.00    +0.000 H 
ATOM     16  C13 UNL A   1      38.357  34.255  32.465  1.00  0.00    +0.000 C 
BRANCH   16   15
ATOM    105  H15 UNL A   1      37.945  34.289  30.351  1.00  0.00    +0.000 H 
ATOM    106  H16 UNL A   1      38.763  35.745  30.999  1.00  0.00    +0.000 H 
ATOM     15  C12 UNL A   1      38.706  34.675  30.995  1.00  0.00    +0.000 C 
BRANCH   15   14
ATOM     14  N1  UNL A   1      40.072  34.178  30.472  1.00  0.00    +0.000 N 
ATOM    104  H14 UNL A   1      39.832  33.551  29.753  1.00  0.00    +0.000 H 
BRANCH   14   12
ATOM     12  C11 UNL A   1      41.442  34.151  30.483  1.00  0.00    +0.000 C 
ATOM     13  O2  UNL A   1      41.824  34.056  31.674  1.00  0.00    +0.000 O 
BRANCH   12   11
ATOM     11  C10 UNL A   1      42.664  34.377  29.420  1.00  0.00    +0.000 C 
ATOM    102  H12 UNL A   1      43.384  34.903  30.013  1.00  0.00    +0.000 H 
ATOM    103  H13 UNL A   1      42.602  33.383  29.030  1.00  0.00    +0.000 H 
BRANCH   11   10
ATOM     10  C9  UNL A   1      42.863  35.050  27.969  1.00  0.00    +0.000 C 
ATOM    100  H10 UNL A   1      43.919  34.973  27.810  1.00  0.00    +0.000 H 
ATOM    101  H11 UNL A   1      42.051  34.534  27.503  1.00  0.00    +0.000 H 
BRANCH   10    9
ATOM      9  C8  UNL A   1      42.509  36.477  27.358  1.00  0.00    +0.000 C 
ATOM     98  H8  UNL A   1      41.688  36.302  26.695  1.00  0.00    +0.000 H 
ATOM     99  H9  UNL A   1      42.407  37.045  28.259  1.00  0.00    +0.000 H 
BRANCH    9    8
ATOM      8  O1  UNL A   1      43.413  37.323  26.629  1.00  0.00    +0.000 O 
BRANCH    8    7
ATOM      2  C2  UNL A   1      42.328  40.982  29.851  1.00  0.00    +0.000 C 
ATOM      3  C3  UNL A   1      41.459  40.664  28.810  1.00  0.00    +0.000 C 
ATOM      4  C4  UNL A   1      41.932  40.053  27.631  1.00  0.00    +0.000 C 
ATOM      6  C6  UNL A   1      43.223  39.575  27.724  1.00  0.00    +0.000 C 
ATOM      7  C7  UNL A   1      43.899  38.496  27.111  1.00  0.00    +0.000 C 
ATOM     87  N7  UNL A   1      45.229  38.570  27.142  1.00  0.00    +0.000 N 
ATOM     88  S1  UNL A   1      45.649  39.789  28.215  1.00  0.00    +0.000 S 
ATOM     89  C63 UNL A   1      44.051  40.158  28.667  1.00  0.00    +0.000 C 
ATOM     90  N8  UNL A   1      43.670  40.898  29.728  1.00  0.00    +0.000 N 
ATOM     94  H4  UNL A   1      40.454  40.878  28.903  1.00  0.00    +0.000 H 
BRANCH    2    1
ATOM      1  C1  UNL A   1      41.768  41.437  31.173  1.00  0.00    +0.000 C 
ATOM     91  H1  UNL A   1      42.444  41.169  31.957  1.00  0.00    +0.000 H 
ATOM     92  H2  UNL A   1      40.822  40.966  31.340  1.00  0.00    +0.000 H 
ATOM     93  H3  UNL A   1      41.641  42.499  31.159  1.00  0.00    +0.000 H 
ENDBRANCH    2    1
BRANCH    4    5
ATOM     97  H7  UNL A   1      40.178  39.882  26.497  1.00  0.00    +0.000 H 
ATOM      5  C5  UNL A   1      41.235  39.808  26.347  1.00  0.00    +0.000 C 
ATOM     95  H5  UNL A   1      41.478  38.830  25.990  1.00  0.00    +0.000 H 
ATOM     96  H6  UNL A   1      41.544  40.538  25.628  1.00  0.00    +0.000 H 
ENDBRANCH    4    5
ENDBRANCH    8    7
ENDBRANCH    9    8
ENDBRANCH   10    9
ENDBRANCH   11   10
ENDBRANCH   12   11
ENDBRANCH   14   12
ENDBRANCH   15   14
ENDBRANCH   16   15
ENDBRANCH   17   16
ENDBRANCH   18   17
ENDBRANCH   19   18
ENDBRANCH   20   19
ENDBRANCH   21   20
ENDBRANCH   22   21
ENDBRANCH   24   22
ENDBRANCH   28   27
BRANCH   32   33
ATOM     33  C27 UNL A   1      42.347  27.592  34.465  1.00  0.00    +0.000 C 
ATOM     34  C28 UNL A   1      42.957  26.396  34.028  1.00  0.00    +0.000 C 
ATOM     35  F1  UNL A   1      43.531  26.321  32.818  1.00  0.00    +0.000 F 
ATOM     36  C29 UNL A   1      42.901  25.220  34.778  1.00  0.00    +0.000 C 
ATOM     37  F2  UNL A   1      43.365  24.076  34.256  1.00  0.00    +0.000 F 
ATOM     38  C30 UNL A   1      42.300  25.212  36.022  1.00  0.00    +0.000 C 
ATOM     39  F3  UNL A   1      42.176  24.071  36.712  1.00  0.00    +0.000 F 
ATOM     40  C31 UNL A   1      41.783  26.384  36.528  1.00  0.00    +0.000 C 
ATOM     41  F4  UNL A   1      41.187  26.395  37.729  1.00  0.00    +0.000 F 
ATOM     42  C32 UNL A   1      41.791  27.548  35.761  1.00  0.00    +0.000 C 
ATOM     43  F5  UNL A   1      41.140  28.586  36.297  1.00  0.00    +0.000 F 
ENDBRANCH   32   33
BRANCH   49   50
ATOM     50  C38 UNL A   1      45.064  30.187  28.776  1.00  0.00    +0.000 C 
ATOM     51  C39 UNL A   1      44.117  30.771  27.917  1.00  0.00    +0.000 C 
ATOM     52  F6  UNL A   1      42.831  30.399  27.958  1.00  0.00    +0.000 F 
ATOM     53  C40 UNL A   1      44.468  31.804  27.047  1.00  0.00    +0.000 C 
ATOM     54  F7  UNL A   1      43.545  32.344  26.237  1.00  0.00    +0.000 F 
ATOM     55  C41 UNL A   1      45.760  32.303  27.047  1.00  0.00    +0.000 C 
ATOM     56  F8  UNL A   1      46.086  33.331  26.250  1.00  0.00    +0.000 F 
ATOM     57  C42 UNL A   1      46.707  31.757  27.899  1.00  0.00    +0.000 C 
ATOM     58  F9  UNL A   1      47.945  32.269  27.940  1.00  0.00    +0.000 F 
ATOM     59  C43 UNL A   1      46.367  30.703  28.742  1.00  0.00    +0.000 C 
ATOM     60  F10 UNL A   1      47.301  30.221  29.577  1.00  0.00    +0.000 F 
ENDBRANCH   49   50
BRANCH   64   65
ATOM     65  C47 UNL A   1      42.998  24.685  26.412  1.00  0.00    +0.000 C 
ATOM     66  C48 UNL A   1      43.818  24.482  25.290  1.00  0.00    +0.000 C 
ATOM     67  F11 UNL A   1      44.412  25.526  24.694  1.00  0.00    +0.000 F 
ATOM     68  C49 UNL A   1      44.101  23.200  24.811  1.00  0.00    +0.000 C 
ATOM     69  F12 UNL A   1      44.944  23.042  23.780  1.00  0.00    +0.000 F 
ATOM     70  C50 UNL A   1      43.566  22.085  25.434  1.00  0.00    +0.000 C 
ATOM     71  F13 UNL A   1      43.893  20.852  25.018  1.00  0.00    +0.000 F 
ATOM     72  C51 UNL A   1      42.723  22.251  26.517  1.00  0.00    +0.000 C 
ATOM     73  F14 UNL A   1      42.225  21.178  27.149  1.00  0.00    +0.000 F 
ATOM     74  C52 UNL A   1      42.441  23.530  26.998  1.00  0.00    +0.000 C 
ATOM     75  F15 UNL A   1      41.692  23.612  28.106  1.00  0.00    +0.000 F 
ENDBRANCH   64   65
TORSDOF 21
ENDMDL
MODEL 6
REMARK VINA RESULT:      -9.8      4.945      8.867
ROOT
ATOM    129  H39 UNL A   1      38.425  27.542  31.157  1.00  0.00    +0.000 H 
ATOM     28  C23 UNL A   1      39.886  29.281  29.376  1.00  0.00    +0.000 C 
ATOM     29  C24 UNL A   1      40.193  28.912  30.780  1.00  0.00    +0.000 C 
ATOM     30  N3  UNL A   1      41.138  29.397  31.513  1.00  0.00    +0.000 N 
ATOM     31  C25 UNL A   1      41.051  28.747  32.740  1.00  0.00    +0.000 C 
ATOM     32  C26 UNL A   1      42.134  28.684  33.564  1.00  0.00    +0.000 C 
ATOM     44  C33 UNL A   1      43.134  29.650  33.172  1.00  0.00    +0.000 C 
ATOM     45  C34 UNL A   1      43.159  31.027  33.068  1.00  0.00    +0.000 C 
ATOM     46  C35 UNL A   1      43.912  31.293  31.886  1.00  0.00    +0.000 C 
ATOM     47  C36 UNL A   1      44.362  30.072  31.383  1.00  0.00    +0.000 C 
ATOM     48  N4  UNL A   1      44.205  29.205  32.434  1.00  0.00    +0.000 N 
ATOM     49  C37 UNL A   1      44.820  29.665  30.075  1.00  0.00    +0.000 C 
ATOM     61  C44 UNL A   1      44.766  28.383  29.606  1.00  0.00    +0.000 C 
ATOM     62  N5  UNL A   1      44.791  28.114  28.245  1.00  0.00    +0.000 N 
ATOM     63  C45 UNL A   1      44.160  26.976  28.118  1.00  0.00    +0.000 C 
ATOM     64  C46 UNL A   1      43.212  26.697  27.006  1.00  0.00    +0.000 C 
ATOM     76  C53 UNL A   1      42.150  27.519  27.192  1.00  0.00    +0.000 C 
ATOM     77  C54 UNL A   1      41.164  28.002  26.253  1.00  0.00    +0.000 C 
ATOM     78  C55 UNL A   1      40.333  28.838  26.909  1.00  0.00    +0.000 C 
ATOM     79  C56 UNL A   1      40.612  28.792  28.348  1.00  0.00    +0.000 C 
ATOM     80  N6  UNL A   1      41.771  28.060  28.432  1.00  0.00    +0.000 N 
ATOM     81  C57 UNL A   1      44.022  26.196  29.337  1.00  0.00    +0.000 C 
ATOM     82  C58 UNL A   1      44.325  27.139  30.233  1.00  0.00    +0.000 C 
ATOM     83  C59 UNL A   1      39.791  28.048  32.731  1.00  0.00    +0.000 C 
ATOM     84  C60 UNL A   1      39.262  28.036  31.504  1.00  0.00    +0.000 C 
ATOM    120  H30 UNL A   1      42.726  31.714  33.706  1.00  0.00    +0.000 H 
ATOM    121  H31 UNL A   1      44.094  32.224  31.478  1.00  0.00    +0.000 H 
ATOM    122  H32 UNL A   1      44.758  28.414  32.625  1.00  0.00    +0.000 H 
ATOM    123  H33 UNL A   1      41.106  27.754  25.253  1.00  0.00    +0.000 H 
ATOM    124  H34 UNL A   1      39.609  29.424  26.464  1.00  0.00    +0.000 H 
ATOM    125  H35 UNL A   1      42.278  27.931  29.267  1.00  0.00    +0.000 H 
ATOM    126  H36 UNL A   1      43.765  25.206  29.471  1.00  0.00    +0.000 H 
ATOM    127  H37 UNL A   1      44.257  27.004  31.254  1.00  0.00    +0.000 H 
ATOM    128  H38 UNL A   1      39.357  27.615  33.560  1.00  0.00    +0.000 H 
ENDROOT
BRANCH   28   27
ATOM    130  H40 UNL A   1      37.447  28.405  28.967  1.00  0.00    +0.000 H 
ATOM    131  H41 UNL A   1      35.560  29.726  28.228  1.00  0.00    +0.000 H 
ATOM     27  C22 UNL A   1      38.688  30.088  29.205  1.00  0.00    +0.000 C 
ATOM     85  C61 UNL A   1      37.495  29.435  28.945  1.00  0.00    +0.000 C 
ATOM     86  C62 UNL A   1      36.381  30.178  28.659  1.00  0.00    +0.000 C 
ATOM    118  H28 UNL A   1      37.532  33.233  29.418  1.00  0.00    +0.000 H 
ATOM     24  C19 UNL A   1      36.355  31.536  28.947  1.00  0.00    +0.000 C 
ATOM     25  C20 UNL A   1      37.537  32.213  29.256  1.00  0.00    +0.000 C 
ATOM     26  C21 UNL A   1      38.724  31.487  29.341  1.00  0.00    +0.000 C 
ATOM    119  H29 UNL A   1      39.620  31.971  29.504  1.00  0.00    +0.000 H 
BRANCH   24   22
ATOM     22  C18 UNL A   1      35.051  32.239  28.929  1.00  0.00    +0.000 C 
ATOM     23  O3  UNL A   1      34.415  32.319  27.909  1.00  0.00    +0.000 O 
BRANCH   22   21
ATOM    117  H27 UNL A   1      33.977  33.578  30.006  1.00  0.00    +0.000 H 
ATOM     21  N2  UNL A   1      34.585  32.811  30.112  1.00  0.00    +0.000 N 
BRANCH   21   20
ATOM    116  H26 UNL A   1      35.926  32.588  31.640  1.00  0.00    +0.000 H 
ATOM    115  H25 UNL A   1      34.606  31.393  31.614  1.00  0.00    +0.000 H 
ATOM     20  C17 UNL A   1      34.881  32.419  31.490  1.00  0.00    +0.000 C 
BRANCH   20   19
ATOM    113  H23 UNL A   1      33.679  34.065  32.044  1.00  0.00    +0.000 H 
ATOM    114  H24 UNL A   1      33.466  32.562  33.011  1.00  0.00    +0.000 H 
ATOM     19  C16 UNL A   1      34.147  33.242  32.543  1.00  0.00    +0.000 C 
BRANCH   19   18
ATOM     18  C15 UNL A   1      35.007  33.813  33.686  1.00  0.00    +0.000 C 
ATOM    111  H21 UNL A   1      35.183  34.843  33.459  1.00  0.00    +0.000 H 
ATOM    112  H22 UNL A   1      34.432  33.602  34.564  1.00  0.00    +0.000 H 
BRANCH   18   17
ATOM     17  C14 UNL A   1      36.380  33.180  33.992  1.00  0.00    +0.000 C 
ATOM    109  H19 UNL A   1      36.358  32.857  35.011  1.00  0.00    +0.000 H 
ATOM    110  H20 UNL A   1      36.483  32.413  33.254  1.00  0.00    +0.000 H 
BRANCH   17   16
ATOM    107  H17 UNL A   1      37.524  34.926  34.400  1.00  0.00    +0.000 H 
ATOM    108  H18 UNL A   1      38.460  33.416  34.124  1.00  0.00    +0.000 H 
ATOM     16  C13 UNL A   1      37.648  34.038  33.816  1.00  0.00    +0.000 C 
BRANCH   16   15
ATOM    105  H15 UNL A   1      37.253  34.054  31.698  1.00  0.00    +0.000 H 
ATOM    106  H16 UNL A   1      37.996  35.547  32.354  1.00  0.00    +0.000 H 
ATOM     15  C12 UNL A   1      37.990  34.476  32.349  1.00  0.00    +0.000 C 
BRANCH   15   14
ATOM     14  N1  UNL A   1      39.382  34.044  31.838  1.00  0.00    +0.000 N 
ATOM    104  H14 UNL A   1      39.182  33.332  31.189  1.00  0.00    +0.000 H 
BRANCH   14   12
ATOM     12  C11 UNL A   1      40.749  34.131  31.813  1.00  0.00    +0.000 C 
ATOM     13  O2  UNL A   1      41.159  34.222  32.995  1.00  0.00    +0.000 O 
BRANCH   12   11
ATOM     11  C10 UNL A   1      41.928  34.318  30.695  1.00  0.00    +0.000 C 
ATOM    102  H12 UNL A   1      42.493  35.133  31.098  1.00  0.00    +0.000 H 
ATOM    103  H13 UNL A   1      42.100  33.266  30.598  1.00  0.00    +0.000 H 
BRANCH   11   10
ATOM     10  C9  UNL A   1      42.025  34.589  29.109  1.00  0.00    +0.000 C 
ATOM    100  H10 UNL A   1      43.080  34.615  28.932  1.00  0.00    +0.000 H 
ATOM    101  H11 UNL A   1      41.292  33.860  28.835  1.00  0.00    +0.000 H 
BRANCH   10    9
ATOM      9  C8  UNL A   1      41.471  35.733  28.151  1.00  0.00    +0.000 C 
ATOM     98  H8  UNL A   1      40.617  35.306  27.668  1.00  0.00    +0.000 H 
ATOM     99  H9  UNL A   1      41.390  36.538  28.850  1.00  0.00    +0.000 H 
BRANCH    9    8
ATOM      8  O1  UNL A   1      42.213  36.381  27.105  1.00  0.00    +0.000 O 
BRANCH    8    7
ATOM      2  C2  UNL A   1      46.384  38.808  25.818  1.00  0.00    +0.000 C 
ATOM      3  C3  UNL A   1      46.443  37.604  26.515  1.00  0.00    +0.000 C 
ATOM      4  C4  UNL A   1      45.369  37.182  27.325  1.00  0.00    +0.000 C 
ATOM      6  C6  UNL A   1      44.209  37.905  27.143  1.00  0.00    +0.000 C 
ATOM      7  C7  UNL A   1      42.839  37.576  27.257  1.00  0.00    +0.000 C 
ATOM     87  N7  UNL A   1      42.016  38.617  27.386  1.00  0.00    +0.000 N 
ATOM     88  S1  UNL A   1      42.888  40.006  27.028  1.00  0.00    +0.000 S 
ATOM     89  C63 UNL A   1      44.333  39.192  26.650  1.00  0.00    +0.000 C 
ATOM     90  N8  UNL A   1      45.401  39.712  26.011  1.00  0.00    +0.000 N 
ATOM     94  H4  UNL A   1      47.285  37.012  26.438  1.00  0.00    +0.000 H 
BRANCH    2    1
ATOM      1  C1  UNL A   1      47.449  39.131  24.803  1.00  0.00    +0.000 C 
ATOM     91  H1  UNL A   1      47.154  39.991  24.238  1.00  0.00    +0.000 H 
ATOM     92  H2  UNL A   1      47.577  38.298  24.143  1.00  0.00    +0.000 H 
ATOM     93  H3  UNL A   1      48.371  39.334  25.306  1.00  0.00    +0.000 H 
ENDBRANCH    2    1
BRANCH    4    5
ATOM     97  H7  UNL A   1      45.959  35.277  27.973  1.00  0.00    +0.000 H 
ATOM      5  C5  UNL A   1      45.296  36.057  28.286  1.00  0.00    +0.000 C 
ATOM     95  H5  UNL A   1      44.295  35.682  28.321  1.00  0.00    +0.000 H 
ATOM     96  H6  UNL A   1      45.583  36.399  29.259  1.00  0.00    +0.000 H 
ENDBRANCH    4    5
ENDBRANCH    8    7
ENDBRANCH    9    8
ENDBRANCH   10    9
ENDBRANCH   11   10
ENDBRANCH   12   11
ENDBRANCH   14   12
ENDBRANCH   15   14
ENDBRANCH   16   15
ENDBRANCH   17   16
ENDBRANCH   18   17
ENDBRANCH   19   18
ENDBRANCH   20   19
ENDBRANCH   21   20
ENDBRANCH   22   21
ENDBRANCH   24   22
ENDBRANCH   28   27
BRANCH   32   33
ATOM     33  C27 UNL A   1      42.466  27.527  34.475  1.00  0.00    +0.000 C 
ATOM     34  C28 UNL A   1      43.040  26.366  33.912  1.00  0.00    +0.000 C 
ATOM     35  F1  UNL A   1      43.560  26.390  32.675  1.00  0.00    +0.000 F 
ATOM     36  C29 UNL A   1      42.999  25.130  34.560  1.00  0.00    +0.000 C 
ATOM     37  F2  UNL A   1      43.423  24.031  33.922  1.00  0.00    +0.000 F 
ATOM     38  C30 UNL A   1      42.450  25.021  35.823  1.00  0.00    +0.000 C 
ATOM     39  F3  UNL A   1      42.339  23.826  36.417  1.00  0.00    +0.000 F 
ATOM     40  C31 UNL A   1      41.972  26.152  36.450  1.00  0.00    +0.000 C 
ATOM     41  F4  UNL A   1      41.428  26.065  37.672  1.00  0.00    +0.000 F 
ATOM     42  C32 UNL A   1      41.965  27.377  35.785  1.00  0.00    +0.000 C 
ATOM     43  F5  UNL A   1      41.351  28.372  36.436  1.00  0.00    +0.000 F 
ENDBRANCH   32   33
BRANCH   49   50
ATOM     50  C38 UNL A   1      45.140  30.769  29.107  1.00  0.00    +0.000 C 
ATOM     51  C39 UNL A   1      46.446  31.144  28.751  1.00  0.00    +0.000 C 
ATOM     52  F6  UNL A   1      47.509  30.577  29.339  1.00  0.00    +0.000 F 
ATOM     53  C40 UNL A   1      46.683  32.062  27.727  1.00  0.00    +0.000 C 
ATOM     54  F7  UNL A   1      47.940  32.403  27.406  1.00  0.00    +0.000 F 
ATOM     55  C41 UNL A   1      45.622  32.591  27.011  1.00  0.00    +0.000 C 
ATOM     56  F8  UNL A   1      45.850  33.433  25.992  1.00  0.00    +0.000 F 
ATOM     57  C42 UNL A   1      44.326  32.222  27.330  1.00  0.00    +0.000 C 
ATOM     58  F9  UNL A   1      43.299  32.692  26.608  1.00  0.00    +0.000 F 
ATOM     59  C43 UNL A   1      44.087  31.334  28.375  1.00  0.00    +0.000 C 
ATOM     60  F10 UNL A   1      42.820  30.974  28.635  1.00  0.00    +0.000 F 
ENDBRANCH   49   50
BRANCH   64   65
ATOM     65  C47 UNL A   1      43.276  25.470  26.179  1.00  0.00    +0.000 C 
ATOM     66  C48 UNL A   1      44.374  25.229  25.337  1.00  0.00    +0.000 C 
ATOM     67  F11 UNL A   1      45.258  26.207  25.088  1.00  0.00    +0.000 F 
ATOM     68  C49 UNL A   1      44.624  23.962  24.801  1.00  0.00    +0.000 C 
ATOM     69  F12 UNL A   1      45.721  23.754  24.059  1.00  0.00    +0.000 F 
ATOM     70  C50 UNL A   1      43.778  22.903  25.084  1.00  0.00    +0.000 C 
ATOM     71  F13 UNL A   1      44.055  21.672  24.628  1.00  0.00    +0.000 F 
ATOM     72  C51 UNL A   1      42.665  23.115  25.877  1.00  0.00    +0.000 C 
ATOM     73  F14 UNL A   1      41.857  22.090  26.185  1.00  0.00    +0.000 F 
ATOM     74  C52 UNL A   1      42.416  24.378  26.415  1.00  0.00    +0.000 C 
ATOM     75  F15 UNL A   1      41.373  24.489  27.248  1.00  0.00    +0.000 F 
ENDBRANCH   64   65
TORSDOF 21
ENDMDL
MODEL 7
REMARK VINA RESULT:      -9.7      2.101      3.436
ROOT
ATOM    129  H39 UNL A   1      39.609  27.763  32.480  1.00  0.00    +0.000 H 
ATOM     28  C23 UNL A   1      41.363  28.883  30.480  1.00  0.00    +0.000 C 
ATOM     29  C24 UNL A   1      41.680  28.455  31.864  1.00  0.00    +0.000 C 
ATOM     30  N3  UNL A   1      42.806  28.607  32.477  1.00  0.00    +0.000 N 
ATOM     31  C25 UNL A   1      42.641  28.044  33.738  1.00  0.00    +0.000 C 
ATOM     32  C26 UNL A   1      43.724  27.634  34.455  1.00  0.00    +0.000 C 
ATOM     44  C33 UNL A   1      44.939  28.203  33.920  1.00  0.00    +0.000 C 
ATOM     45  C34 UNL A   1      45.408  29.490  33.744  1.00  0.00    +0.000 C 
ATOM     46  C35 UNL A   1      46.075  29.469  32.483  1.00  0.00    +0.000 C 
ATOM     47  C36 UNL A   1      46.037  28.160  32.001  1.00  0.00    +0.000 C 
ATOM     48  N4  UNL A   1      45.716  27.413  33.105  1.00  0.00    +0.000 N 
ATOM     49  C37 UNL A   1      46.189  27.602  30.678  1.00  0.00    +0.000 C 
ATOM     61  C44 UNL A   1      45.664  26.405  30.282  1.00  0.00    +0.000 C 
ATOM     62  N5  UNL A   1      45.450  26.121  28.941  1.00  0.00    +0.000 N 
ATOM     63  C45 UNL A   1      44.468  25.259  28.935  1.00  0.00    +0.000 C 
ATOM     64  C46 UNL A   1      43.366  25.296  27.934  1.00  0.00    +0.000 C 
ATOM     76  C53 UNL A   1      42.663  26.429  28.180  1.00  0.00    +0.000 C 
ATOM     77  C54 UNL A   1      41.799  27.200  27.317  1.00  0.00    +0.000 C 
ATOM     78  C55 UNL A   1      41.367  28.277  28.006  1.00  0.00    +0.000 C 
ATOM     79  C56 UNL A   1      41.769  28.162  29.412  1.00  0.00    +0.000 C 
ATOM     80  N6  UNL A   1      42.622  27.086  29.422  1.00  0.00    +0.000 N 
ATOM     81  C57 UNL A   1      44.212  24.590  30.200  1.00  0.00    +0.000 C 
ATOM     82  C58 UNL A   1      44.905  25.391  31.012  1.00  0.00    +0.000 C 
ATOM     83  C59 UNL A   1      41.228  27.807  33.886  1.00  0.00    +0.000 C 
ATOM     84  C60 UNL A   1      40.595  27.953  32.719  1.00  0.00    +0.000 C 
ATOM    120  H30 UNL A   1      45.300  30.292  34.384  1.00  0.00    +0.000 H 
ATOM    121  H31 UNL A   1      46.509  30.279  32.011  1.00  0.00    +0.000 H 
ATOM    122  H32 UNL A   1      45.992  26.485  33.283  1.00  0.00    +0.000 H 
ATOM    123  H33 UNL A   1      41.554  26.970  26.341  1.00  0.00    +0.000 H 
ATOM    124  H34 UNL A   1      40.835  29.064  27.605  1.00  0.00    +0.000 H 
ATOM    125  H35 UNL A   1      43.145  26.808  30.209  1.00  0.00    +0.000 H 
ATOM    126  H36 UNL A   1      43.657  23.745  30.408  1.00  0.00    +0.000 H 
ATOM    127  H37 UNL A   1      44.907  25.304  32.041  1.00  0.00    +0.000 H 
ATOM    128  H38 UNL A   1      40.767  27.558  34.775  1.00  0.00    +0.000 H 
ENDROOT
BRANCH   28   27
ATOM    130  H40 UNL A   1      38.789  28.872  29.968  1.00  0.00    +0.000 H 
ATOM    131  H41 UNL A   1      37.447  30.789  29.356  1.00  0.00    +0.000 H 
ATOM     27  C22 UNL A   1      40.489  30.042  30.383  1.00  0.00    +0.000 C 
ATOM     85  C61 UNL A   1      39.162  29.831  30.052  1.00  0.00    +0.000 C 
ATOM     86  C62 UNL A   1      38.352  30.913  29.835  1.00  0.00    +0.000 C 
ATOM    118  H28 UNL A   1      40.380  33.356  30.909  1.00  0.00    +0.000 H 
ATOM     24  C19 UNL A   1      38.745  32.175  30.259  1.00  0.00    +0.000 C 
ATOM     25  C20 UNL A   1      40.068  32.408  30.644  1.00  0.00    +0.000 C 
ATOM     26  C21 UNL A   1      40.960  31.337  30.662  1.00  0.00    +0.000 C 
ATOM    119  H29 UNL A   1      41.956  31.493  30.879  1.00  0.00    +0.000 H 
BRANCH   24   22
ATOM     22  C18 UNL A   1      37.732  33.255  30.305  1.00  0.00    +0.000 C 
ATOM     23  O3  UNL A   1      37.850  34.170  31.079  1.00  0.00    +0.000 O 
BRANCH   22   21
ATOM    117  H27 UNL A   1      36.854  33.085  28.486  1.00  0.00    +0.000 H 
ATOM     21  N2  UNL A   1      36.639  33.182  29.442  1.00  0.00    +0.000 N 
BRANCH   21   20
ATOM    116  H26 UNL A   1      34.933  34.262  29.768  1.00  0.00    +0.000 H 
ATOM    115  H25 UNL A   1      35.075  32.766  30.726  1.00  0.00    +0.000 H 
ATOM     20  C17 UNL A   1      35.214  33.230  29.772  1.00  0.00    +0.000 C 
BRANCH   20   19
ATOM    113  H23 UNL A   1      33.609  31.939  29.308  1.00  0.00    +0.000 H 
ATOM    114  H24 UNL A   1      33.885  33.307  28.172  1.00  0.00    +0.000 H 
ATOM     19  C16 UNL A   1      34.317  32.526  28.761  1.00  0.00    +0.000 C 
BRANCH   19   18
ATOM     18  C15 UNL A   1      35.020  31.595  27.755  1.00  0.00    +0.000 C 
ATOM    111  H21 UNL A   1      34.504  31.696  26.824  1.00  0.00    +0.000 H 
ATOM    112  H22 UNL A   1      36.040  31.919  27.781  1.00  0.00    +0.000 H 
BRANCH   18   17
ATOM     17  C14 UNL A   1      35.112  30.084  28.056  1.00  0.00    +0.000 C 
ATOM    109  H19 UNL A   1      36.108  29.775  27.815  1.00  0.00    +0.000 H 
ATOM    110  H20 UNL A   1      34.827  30.006  29.083  1.00  0.00    +0.000 H 
BRANCH   17   16
ATOM    107  H17 UNL A   1      34.266  28.155  27.766  1.00  0.00    +0.000 H 
ATOM    108  H18 UNL A   1      33.178  29.550  27.445  1.00  0.00    +0.000 H 
ATOM     16  C13 UNL A   1      34.152  29.124  27.328  1.00  0.00    +0.000 C 
BRANCH   16   15
ATOM    105  H15 UNL A   1      35.156  29.631  25.490  1.00  0.00    +0.000 H 
ATOM    106  H16 UNL A   1      34.573  27.941  25.608  1.00  0.00    +0.000 H 
ATOM     15  C12 UNL A   1      34.361  28.976  25.781  1.00  0.00    +0.000 C 
BRANCH   15   14
ATOM     14  N1  UNL A   1      33.127  29.308  24.912  1.00  0.00    +0.000 N 
ATOM    104  H14 UNL A   1      33.458  29.998  24.293  1.00  0.00    +0.000 H 
BRANCH   14   12
ATOM     12  C11 UNL A   1      31.815  29.148  24.551  1.00  0.00    +0.000 C 
ATOM     13  O2  UNL A   1      31.139  30.035  25.124  1.00  0.00    +0.000 O 
BRANCH   12   11
ATOM     11  C10 UNL A   1      30.909  28.050  23.746  1.00  0.00    +0.000 C 
ATOM    102  H12 UNL A   1      30.765  27.291  24.487  1.00  0.00    +0.000 H 
ATOM    103  H13 UNL A   1      30.277  28.792  23.304  1.00  0.00    +0.000 H 
BRANCH   11   10
ATOM     10  C9  UNL A   1      31.022  27.185  22.390  1.00  0.00    +0.000 C 
ATOM    100  H10 UNL A   1      30.023  27.205  22.007  1.00  0.00    +0.000 H 
ATOM    101  H11 UNL A   1      31.912  27.661  22.038  1.00  0.00    +0.000 H 
BRANCH   10    9
ATOM      9  C8  UNL A   1      31.503  25.702  22.067  1.00  0.00    +0.000 C 
ATOM     98  H8  UNL A   1      30.717  25.068  22.421  1.00  0.00    +0.000 H 
ATOM     99  H9  UNL A   1      31.732  25.804  21.027  1.00  0.00    +0.000 H 
BRANCH    9    8
ATOM      8  O1  UNL A   1      32.719  25.096  22.534  1.00  0.00    +0.000 O 
BRANCH    8    7
ATOM      2  C2  UNL A   1      30.536  22.946  26.479  1.00  0.00    +0.000 C 
ATOM      3  C3  UNL A   1      31.155  24.188  26.592  1.00  0.00    +0.000 C 
ATOM      4  C4  UNL A   1      32.187  24.567  25.710  1.00  0.00    +0.000 C 
ATOM      6  C6  UNL A   1      32.321  23.743  24.612  1.00  0.00    +0.000 C 
ATOM      7  C7  UNL A   1      32.755  23.966  23.286  1.00  0.00    +0.000 C 
ATOM     87  N7  UNL A   1      33.117  22.871  22.618  1.00  0.00    +0.000 N 
ATOM     88  S1  UNL A   1      32.607  21.539  23.502  1.00  0.00    +0.000 S 
ATOM     89  C63 UNL A   1      31.857  22.445  24.732  1.00  0.00    +0.000 C 
ATOM     90  N8  UNL A   1      30.996  21.978  25.658  1.00  0.00    +0.000 N 
ATOM     94  H4  UNL A   1      30.854  24.841  27.332  1.00  0.00    +0.000 H 
BRANCH    2    1
ATOM      1  C1  UNL A   1      29.303  22.653  27.293  1.00  0.00    +0.000 C 
ATOM     91  H1  UNL A   1      29.356  21.654  27.671  1.00  0.00    +0.000 H 
ATOM     92  H2  UNL A   1      28.436  22.755  26.675  1.00  0.00    +0.000 H 
ATOM     93  H3  UNL A   1      29.244  23.341  28.109  1.00  0.00    +0.000 H 
ENDBRANCH    2    1
BRANCH    4    5
ATOM     97  H7  UNL A   1      32.550  26.598  26.084  1.00  0.00    +0.000 H 
ATOM      5  C5  UNL A   1      33.098  25.735  25.767  1.00  0.00    +0.000 C 
ATOM     95  H5  UNL A   1      33.513  25.911  24.797  1.00  0.00    +0.000 H 
ATOM     96  H6  UNL A   1      33.887  25.539  26.463  1.00  0.00    +0.000 H 
ENDBRANCH    4    5
ENDBRANCH    8    7
ENDBRANCH    9    8
ENDBRANCH   10    9
ENDBRANCH   11   10
ENDBRANCH   12   11
ENDBRANCH   14   12
ENDBRANCH   15   14
ENDBRANCH   16   15
ENDBRANCH   17   16
ENDBRANCH   18   17
ENDBRANCH   19   18
ENDBRANCH   20   19
ENDBRANCH   21   20
ENDBRANCH   22   21
ENDBRANCH   24   22
ENDBRANCH   28   27
BRANCH   32   33
ATOM     33  C27 UNL A   1      43.751  26.447  35.389  1.00  0.00    +0.000 C 
ATOM     34  C28 UNL A   1      44.225  26.633  36.705  1.00  0.00    +0.000 C 
ATOM     35  F1  UNL A   1      44.357  27.866  37.218  1.00  0.00    +0.000 F 
ATOM     36  C29 UNL A   1      44.673  25.568  37.489  1.00  0.00    +0.000 C 
ATOM     37  F2  UNL A   1      45.251  25.811  38.673  1.00  0.00    +0.000 F 
ATOM     38  C30 UNL A   1      44.597  24.272  37.016  1.00  0.00    +0.000 C 
ATOM     39  F3  UNL A   1      45.095  23.255  37.731  1.00  0.00    +0.000 F 
ATOM     40  C31 UNL A   1      44.045  24.039  35.775  1.00  0.00    +0.000 C 
ATOM     41  F4  UNL A   1      43.970  22.789  35.295  1.00  0.00    +0.000 F 
ATOM     42  C32 UNL A   1      43.644  25.104  34.969  1.00  0.00    +0.000 C 
ATOM     43  F5  UNL A   1      43.255  24.767  33.735  1.00  0.00    +0.000 F 
ENDBRANCH   32   33
BRANCH   49   50
ATOM     50  C38 UNL A   1      46.751  28.520  29.628  1.00  0.00    +0.000 C 
ATOM     51  C39 UNL A   1      48.049  28.407  29.103  1.00  0.00    +0.000 C 
ATOM     52  F6  UNL A   1      48.910  27.502  29.587  1.00  0.00    +0.000 F 
ATOM     53  C40 UNL A   1      48.460  29.180  28.016  1.00  0.00    +0.000 C 
ATOM     54  F7  UNL A   1      49.706  29.053  27.533  1.00  0.00    +0.000 F 
ATOM     55  C41 UNL A   1      47.571  30.049  27.406  1.00  0.00    +0.000 C 
ATOM     56  F8  UNL A   1      47.948  30.753  26.329  1.00  0.00    +0.000 F 
ATOM     57  C42 UNL A   1      46.280  30.164  27.894  1.00  0.00    +0.000 C 
ATOM     58  F9  UNL A   1      45.400  30.965  27.277  1.00  0.00    +0.000 F 
ATOM     59  C43 UNL A   1      45.879  29.420  29.000  1.00  0.00    +0.000 C 
ATOM     60  F10 UNL A   1      44.611  29.532  29.425  1.00  0.00    +0.000 F 
ENDBRANCH   49   50
BRANCH   64   65
ATOM     65  C47 UNL A   1      42.930  24.105  27.169  1.00  0.00    +0.000 C 
ATOM     66  C48 UNL A   1      43.647  23.675  26.041  1.00  0.00    +0.000 C 
ATOM     67  F11 UNL A   1      44.588  24.465  25.501  1.00  0.00    +0.000 F 
ATOM     68  C49 UNL A   1      43.465  22.400  25.498  1.00  0.00    +0.000 C 
ATOM     69  F12 UNL A   1      44.219  22.000  24.463  1.00  0.00    +0.000 F 
ATOM     70  C50 UNL A   1      42.554  21.523  26.061  1.00  0.00    +0.000 C 
ATOM     71  F13 UNL A   1      42.428  20.275  25.584  1.00  0.00    +0.000 F 
ATOM     72  C51 UNL A   1      41.802  21.929  27.147  1.00  0.00    +0.000 C 
ATOM     73  F14 UNL A   1      40.940  21.077  27.722  1.00  0.00    +0.000 F 
ATOM     74  C52 UNL A   1      41.985  23.200  27.693  1.00  0.00    +0.000 C 
ATOM     75  F15 UNL A   1      41.290  23.492  28.801  1.00  0.00    +0.000 F 
ENDBRANCH   64   65
TORSDOF 21
ENDMDL
MODEL 8
REMARK VINA RESULT:      -9.6     37.140     44.992
ROOT
ATOM    129  H39 UNL A   1       6.807  32.552   1.237  1.00  0.00    +0.000 H 
ATOM     28  C23 UNL A   1       8.617  30.334   0.870  1.00  0.00    +0.000 C 
ATOM     29  C24 UNL A   1       7.876  31.113  -0.152  1.00  0.00    +0.000 C 
ATOM     30  N3  UNL A   1       7.826  30.867  -1.419  1.00  0.00    +0.000 N 
ATOM     31  C25 UNL A   1       7.032  31.862  -1.977  1.00  0.00    +0.000 C 
ATOM     32  C26 UNL A   1       7.136  32.165  -3.301  1.00  0.00    +0.000 C 
ATOM     44  C33 UNL A   1       7.825  31.114  -4.014  1.00  0.00    +0.000 C 
ATOM     45  C34 UNL A   1       7.582  29.772  -4.229  1.00  0.00    +0.000 C 
ATOM     46  C35 UNL A   1       8.861  29.147  -4.139  1.00  0.00    +0.000 C 
ATOM     47  C36 UNL A   1       9.813  30.149  -3.949  1.00  0.00    +0.000 C 
ATOM     48  N4  UNL A   1       9.156  31.299  -4.305  1.00  0.00    +0.000 N 
ATOM     49  C37 UNL A   1      11.160  30.130  -3.428  1.00  0.00    +0.000 C 
ATOM     61  C44 UNL A   1      11.781  31.206  -2.859  1.00  0.00    +0.000 C 
ATOM     62  N5  UNL A   1      12.857  31.043  -1.998  1.00  0.00    +0.000 N 
ATOM     63  C45 UNL A   1      12.823  32.094  -1.221  1.00  0.00    +0.000 C 
ATOM     64  C46 UNL A   1      13.099  32.028   0.240  1.00  0.00    +0.000 C 
ATOM     76  C53 UNL A   1      12.086  31.315   0.790  1.00  0.00    +0.000 C 
ATOM     77  C54 UNL A   1      12.025  30.576   2.030  1.00  0.00    +0.000 C 
ATOM     78  C55 UNL A   1      10.813  29.992   2.114  1.00  0.00    +0.000 C 
ATOM     79  C56 UNL A   1       9.950  30.475   1.031  1.00  0.00    +0.000 C 
ATOM     80  N6  UNL A   1      10.806  31.185   0.224  1.00  0.00    +0.000 N 
ATOM     81  C57 UNL A   1      12.034  33.212  -1.711  1.00  0.00    +0.000 C 
ATOM     82  C58 UNL A   1      11.344  32.587  -2.667  1.00  0.00    +0.000 C 
ATOM     83  C59 UNL A   1       6.405  32.538  -0.870  1.00  0.00    +0.000 C 
ATOM     84  C60 UNL A   1       6.967  32.179   0.288  1.00  0.00    +0.000 C 
ATOM    120  H30 UNL A   1       6.673  29.319  -4.414  1.00  0.00    +0.000 H 
ATOM    121  H31 UNL A   1       9.049  28.134  -4.205  1.00  0.00    +0.000 H 
ATOM    122  H32 UNL A   1       9.562  32.105  -4.699  1.00  0.00    +0.000 H 
ATOM    123  H33 UNL A   1      12.780  30.506   2.731  1.00  0.00    +0.000 H 
ATOM    124  H34 UNL A   1      10.533  29.305   2.832  1.00  0.00    +0.000 H 
ATOM    125  H35 UNL A   1      10.551  31.559  -0.651  1.00  0.00    +0.000 H 
ATOM    126  H36 UNL A   1      12.013  34.199  -1.408  1.00  0.00    +0.000 H 
ATOM    127  H37 UNL A   1      10.586  33.030  -3.212  1.00  0.00    +0.000 H 
ATOM    128  H38 UNL A   1       5.627  33.211  -0.959  1.00  0.00    +0.000 H 
ENDROOT
BRANCH   28   27
ATOM    130  H40 UNL A   1       7.153  31.188   2.873  1.00  0.00    +0.000 H 
ATOM    131  H41 UNL A   1       6.147  29.817   4.594  1.00  0.00    +0.000 H 
ATOM     27  C22 UNL A   1       7.782  29.526   1.746  1.00  0.00    +0.000 C 
ATOM     85  C61 UNL A   1       7.123  30.161   2.784  1.00  0.00    +0.000 C 
ATOM     86  C62 UNL A   1       6.432  29.404   3.692  1.00  0.00    +0.000 C 
ATOM    118  H28 UNL A   1       6.538  26.433   2.144  1.00  0.00    +0.000 H 
ATOM     24  C19 UNL A   1       6.114  28.084   3.403  1.00  0.00    +0.000 C 
ATOM     25  C20 UNL A   1       6.730  27.430   2.332  1.00  0.00    +0.000 C 
ATOM     26  C21 UNL A   1       7.608  28.149   1.522  1.00  0.00    +0.000 C 
ATOM    119  H29 UNL A   1       8.124  27.674   0.766  1.00  0.00    +0.000 H 
BRANCH   24   22
ATOM     22  C18 UNL A   1       5.106  27.397   4.243  1.00  0.00    +0.000 C 
ATOM     23  O3  UNL A   1       5.437  26.834   5.255  1.00  0.00    +0.000 O 
BRANCH   22   21
ATOM    117  H27 UNL A   1       3.117  27.678   4.515  1.00  0.00    +0.000 H 
ATOM     21  N2  UNL A   1       3.774  27.409   3.832  1.00  0.00    +0.000 N 
BRANCH   21   20
ATOM    116  H26 UNL A   1       2.432  26.377   2.684  1.00  0.00    +0.000 H 
ATOM    115  H25 UNL A   1       4.011  26.672   1.917  1.00  0.00    +0.000 H 
ATOM     20  C17 UNL A   1       3.224  27.076   2.517  1.00  0.00    +0.000 C 
BRANCH   20   19
ATOM    113  H23 UNL A   1       2.330  27.924   0.803  1.00  0.00    +0.000 H 
ATOM    114  H24 UNL A   1       1.803  28.592   2.389  1.00  0.00    +0.000 H 
ATOM     19  C16 UNL A   1       2.617  28.261   1.777  1.00  0.00    +0.000 C 
BRANCH   19   18
ATOM     18  C15 UNL A   1       3.523  29.494   1.599  1.00  0.00    +0.000 C 
ATOM    111  H21 UNL A   1       2.998  30.329   2.012  1.00  0.00    +0.000 H 
ATOM    112  H22 UNL A   1       4.435  29.208   2.083  1.00  0.00    +0.000 H 
BRANCH   18   17
ATOM     17  C14 UNL A   1       3.977  29.903   0.183  1.00  0.00    +0.000 C 
ATOM    109  H19 UNL A   1       3.108  30.235  -0.344  1.00  0.00    +0.000 H 
ATOM    110  H20 UNL A   1       4.736  30.637   0.356  1.00  0.00    +0.000 H 
BRANCH   17   16
ATOM    107  H17 UNL A   1       5.715  28.869  -0.475  1.00  0.00    +0.000 H 
ATOM    108  H18 UNL A   1       4.185  27.926  -0.484  1.00  0.00    +0.000 H 
ATOM     16  C13 UNL A   1       4.671  28.852  -0.705  1.00  0.00    +0.000 C 
BRANCH   16   15
ATOM    105  H15 UNL A   1       5.475  28.877  -2.703  1.00  0.00    +0.000 H 
ATOM    106  H16 UNL A   1       3.769  28.347  -2.567  1.00  0.00    +0.000 H 
ATOM     15  C12 UNL A   1       4.519  29.045  -2.254  1.00  0.00    +0.000 C 
BRANCH   15   14
ATOM     14  N1  UNL A   1       4.019  30.436  -2.702  1.00  0.00    +0.000 N 
ATOM    104  H14 UNL A   1       4.838  30.895  -2.995  1.00  0.00    +0.000 H 
BRANCH   14   12
ATOM     12  C11 UNL A   1       3.034  31.368  -2.904  1.00  0.00    +0.000 C 
ATOM     13  O2  UNL A   1       1.927  30.824  -2.680  1.00  0.00    +0.000 O 
BRANCH   12   11
ATOM     11  C10 UNL A   1       2.910  32.884  -3.504  1.00  0.00    +0.000 C 
ATOM    102  H12 UNL A   1       2.418  33.402  -2.707  1.00  0.00    +0.000 H 
ATOM    103  H13 UNL A   1       3.907  32.887  -3.895  1.00  0.00    +0.000 H 
BRANCH   11   10
ATOM     10  C9  UNL A   1       2.282  33.594  -4.809  1.00  0.00    +0.000 C 
ATOM    100  H10 UNL A   1       2.267  32.804  -5.530  1.00  0.00    +0.000 H 
ATOM    101  H11 UNL A   1       1.482  34.076  -4.289  1.00  0.00    +0.000 H 
BRANCH   10    9
ATOM      9  C8  UNL A   1       2.690  34.866  -5.674  1.00  0.00    +0.000 C 
ATOM     98  H8  UNL A   1       3.621  34.605  -6.135  1.00  0.00    +0.000 H 
ATOM     99  H9  UNL A   1       1.792  35.004  -6.237  1.00  0.00    +0.000 H 
BRANCH    9    8
ATOM      8  O1  UNL A   1       2.877  36.198  -5.168  1.00  0.00    +0.000 O 
BRANCH    8    7
ATOM      2  C2  UNL A   1       0.371  39.981  -3.083  1.00  0.00    +0.000 C 
ATOM      3  C3  UNL A   1       0.124  38.663  -2.704  1.00  0.00    +0.000 C 
ATOM      4  C4  UNL A   1       0.390  37.595  -3.583  1.00  0.00    +0.000 C 
ATOM      6  C6  UNL A   1       1.140  37.946  -4.686  1.00  0.00    +0.000 C 
ATOM      7  C7  UNL A   1       2.070  37.242  -5.485  1.00  0.00    +0.000 C 
ATOM     87  N7  UNL A   1       2.301  37.774  -6.685  1.00  0.00    +0.000 N 
ATOM     88  S1  UNL A   1       1.636  39.314  -6.700  1.00  0.00    +0.000 S 
ATOM     89  C63 UNL A   1       1.102  39.270  -5.085  1.00  0.00    +0.000 C 
ATOM     90  N8  UNL A   1       0.699  40.324  -4.346  1.00  0.00    +0.000 N 
ATOM     94  H4  UNL A   1      -0.259  38.467  -1.766  1.00  0.00    +0.000 H 
BRANCH    2    1
ATOM      1  C1  UNL A   1       0.277  41.079  -2.056  1.00  0.00    +0.000 C 
ATOM     91  H1  UNL A   1       1.116  41.735  -2.158  1.00  0.00    +0.000 H 
ATOM     92  H2  UNL A   1       0.276  40.651  -1.075  1.00  0.00    +0.000 H 
ATOM     93  H3  UNL A   1      -0.628  41.630  -2.206  1.00  0.00    +0.000 H 
ENDBRANCH    2    1
BRANCH    4    5
ATOM     97  H7  UNL A   1      -0.908  36.070  -2.960  1.00  0.00    +0.000 H 
ATOM      5  C5  UNL A   1       0.031  36.162  -3.465  1.00  0.00    +0.000 C 
ATOM     95  H5  UNL A   1       0.788  35.649  -2.909  1.00  0.00    +0.000 H 
ATOM     96  H6  UNL A   1      -0.047  35.732  -4.442  1.00  0.00    +0.000 H 
ENDBRANCH    4    5
ENDBRANCH    8    7
ENDBRANCH    9    8
ENDBRANCH   10    9
ENDBRANCH   11   10
ENDBRANCH   12   11
ENDBRANCH   14   12
ENDBRANCH   15   14
ENDBRANCH   16   15
ENDBRANCH   17   16
ENDBRANCH   18   17
ENDBRANCH   19   18
ENDBRANCH   20   19
ENDBRANCH   21   20
ENDBRANCH   22   21
ENDBRANCH   24   22
ENDBRANCH   28   27
BRANCH   32   33
ATOM     33  C27 UNL A   1       6.964  33.542  -3.895  1.00  0.00    +0.000 C 
ATOM     34  C28 UNL A   1       6.221  33.675  -5.088  1.00  0.00    +0.000 C 
ATOM     35  F1  UNL A   1       5.435  32.679  -5.521  1.00  0.00    +0.000 F 
ATOM     36  C29 UNL A   1       6.348  34.791  -5.919  1.00  0.00    +0.000 C 
ATOM     37  F2  UNL A   1       5.737  34.804  -7.111  1.00  0.00    +0.000 F 
ATOM     38  C30 UNL A   1       7.164  35.844  -5.555  1.00  0.00    +0.000 C 
ATOM     39  F3  UNL A   1       7.349  36.881  -6.382  1.00  0.00    +0.000 F 
ATOM     40  C31 UNL A   1       7.827  35.798  -4.347  1.00  0.00    +0.000 C 
ATOM     41  F4  UNL A   1       8.630  36.806  -3.980  1.00  0.00    +0.000 F 
ATOM     42  C32 UNL A   1       7.742  34.664  -3.540  1.00  0.00    +0.000 C 
ATOM     43  F5  UNL A   1       8.535  34.675  -2.463  1.00  0.00    +0.000 F 
ENDBRANCH   32   33
BRANCH   49   50
ATOM     50  C38 UNL A   1      11.803  28.778  -3.291  1.00  0.00    +0.000 C 
ATOM     51  C39 UNL A   1      11.652  27.949  -2.166  1.00  0.00    +0.000 C 
ATOM     52  F6  UNL A   1      10.978  28.370  -1.088  1.00  0.00    +0.000 F 
ATOM     53  C40 UNL A   1      12.135  26.640  -2.162  1.00  0.00    +0.000 C 
ATOM     54  F7  UNL A   1      11.977  25.869  -1.075  1.00  0.00    +0.000 F 
ATOM     55  C41 UNL A   1      12.738  26.119  -3.294  1.00  0.00    +0.000 C 
ATOM     56  F8  UNL A   1      13.155  24.844  -3.310  1.00  0.00    +0.000 F 
ATOM     57  C42 UNL A   1      12.881  26.910  -4.422  1.00  0.00    +0.000 C 
ATOM     58  F9  UNL A   1      13.419  26.395  -5.537  1.00  0.00    +0.000 F 
ATOM     59  C43 UNL A   1      12.432  28.228  -4.416  1.00  0.00    +0.000 C 
ATOM     60  F10 UNL A   1      12.557  28.954  -5.537  1.00  0.00    +0.000 F 
ENDBRANCH   49   50
BRANCH   64   65
ATOM     65  C47 UNL A   1      14.043  32.941   0.926  1.00  0.00    +0.000 C 
ATOM     66  C48 UNL A   1      13.573  33.934   1.801  1.00  0.00    +0.000 C 
ATOM     67  F11 UNL A   1      12.264  34.227   1.844  1.00  0.00    +0.000 F 
ATOM     68  C49 UNL A   1      14.425  34.585   2.697  1.00  0.00    +0.000 C 
ATOM     69  F12 UNL A   1      13.927  35.478   3.565  1.00  0.00    +0.000 F 
ATOM     70  C50 UNL A   1      15.773  34.270   2.737  1.00  0.00    +0.000 C 
ATOM     71  F13 UNL A   1      16.578  34.844   3.643  1.00  0.00    +0.000 F 
ATOM     72  C51 UNL A   1      16.276  33.326   1.862  1.00  0.00    +0.000 C 
ATOM     73  F14 UNL A   1      17.573  32.987   1.913  1.00  0.00    +0.000 F 
ATOM     74  C52 UNL A   1      15.426  32.672   0.969  1.00  0.00    +0.000 C 
ATOM     75  F15 UNL A   1      15.964  31.703   0.215  1.00  0.00    +0.000 F 
ENDBRANCH   64   65
TORSDOF 21
ENDMDL
MODEL 9
REMARK VINA RESULT:      -9.6     34.002     41.075
ROOT
ATOM    129  H39 UNL A   1       8.622  24.391   1.507  1.00  0.00    +0.000 H 
ATOM     28  C23 UNL A   1       9.719  26.902   2.414  1.00  0.00    +0.000 C 
ATOM     29  C24 UNL A   1      10.062  26.117   1.203  1.00  0.00    +0.000 C 
ATOM     30  N3  UNL A   1      11.012  26.370   0.366  1.00  0.00    +0.000 N 
ATOM     31  C25 UNL A   1      10.945  25.381  -0.609  1.00  0.00    +0.000 C 
ATOM     32  C26 UNL A   1      11.483  25.592  -1.842  1.00  0.00    +0.000 C 
ATOM     44  C33 UNL A   1      12.389  26.718  -1.820  1.00  0.00    +0.000 C 
ATOM     45  C34 UNL A   1      13.558  27.004  -1.142  1.00  0.00    +0.000 C 
ATOM     46  C35 UNL A   1      13.459  28.387  -0.806  1.00  0.00    +0.000 C 
ATOM     47  C36 UNL A   1      12.275  28.877  -1.360  1.00  0.00    +0.000 C 
ATOM     48  N4  UNL A   1      11.927  27.926  -2.285  1.00  0.00    +0.000 N 
ATOM     49  C37 UNL A   1      11.466  30.036  -1.065  1.00  0.00    +0.000 C 
ATOM     61  C44 UNL A   1      10.131  30.131  -1.338  1.00  0.00    +0.000 C 
ATOM     62  N5  UNL A   1       9.321  31.034  -0.663  1.00  0.00    +0.000 N 
ATOM     63  C45 UNL A   1       8.128  30.502  -0.696  1.00  0.00    +0.000 C 
ATOM     64  C46 UNL A   1       7.196  30.534   0.464  1.00  0.00    +0.000 C 
ATOM     76  C53 UNL A   1       7.756  29.761   1.427  1.00  0.00    +0.000 C 
ATOM     77  C54 UNL A   1       7.559  29.758   2.858  1.00  0.00    +0.000 C 
ATOM     78  C55 UNL A   1       8.382  28.835   3.395  1.00  0.00    +0.000 C 
ATOM     79  C56 UNL A   1       9.016  28.052   2.329  1.00  0.00    +0.000 C 
ATOM     80  N6  UNL A   1       8.673  28.724   1.182  1.00  0.00    +0.000 N 
ATOM     81  C57 UNL A   1       7.932  29.463  -1.693  1.00  0.00    +0.000 C 
ATOM     82  C58 UNL A   1       9.207  29.209  -1.995  1.00  0.00    +0.000 C 
ATOM     83  C59 UNL A   1      10.044  24.380  -0.098  1.00  0.00    +0.000 C 
ATOM     84  C60 UNL A   1       9.392  24.829   0.978  1.00  0.00    +0.000 C 
ATOM    120  H30 UNL A   1      14.334  26.359  -0.924  1.00  0.00    +0.000 H 
ATOM    121  H31 UNL A   1      14.141  28.929  -0.253  1.00  0.00    +0.000 H 
ATOM    122  H32 UNL A   1      11.439  28.080  -3.126  1.00  0.00    +0.000 H 
ATOM    123  H33 UNL A   1       6.902  30.359   3.381  1.00  0.00    +0.000 H 
ATOM    124  H34 UNL A   1       8.543  28.699   4.405  1.00  0.00    +0.000 H 
ATOM    125  H35 UNL A   1       9.029  28.504   0.290  1.00  0.00    +0.000 H 
ATOM    126  H36 UNL A   1       7.062  29.044  -2.060  1.00  0.00    +0.000 H 
ATOM    127  H37 UNL A   1       9.508  28.447  -2.623  1.00  0.00    +0.000 H 
ATOM    128  H38 UNL A   1       9.918  23.441  -0.509  1.00  0.00    +0.000 H 
ENDROOT
BRANCH   28   27
ATOM    130  H40 UNL A   1       8.246  26.756   4.581  1.00  0.00    +0.000 H 
ATOM    131  H41 UNL A   1       9.013  26.130   6.789  1.00  0.00    +0.000 H 
ATOM     27  C22 UNL A   1      10.083  26.272   3.674  1.00  0.00    +0.000 C 
ATOM     85  C61 UNL A   1       9.183  26.346   4.723  1.00  0.00    +0.000 C 
ATOM     86  C62 UNL A   1       9.554  25.869   5.951  1.00  0.00    +0.000 C 
ATOM    118  H28 UNL A   1      12.412  24.328   5.114  1.00  0.00    +0.000 H 
ATOM     24  C19 UNL A   1      10.658  25.035   6.071  1.00  0.00    +0.000 C 
ATOM     25  C20 UNL A   1      11.561  24.904   5.012  1.00  0.00    +0.000 C 
ATOM     26  C21 UNL A   1      11.291  25.568   3.816  1.00  0.00    +0.000 C 
ATOM    119  H29 UNL A   1      11.973  25.541   3.042  1.00  0.00    +0.000 H 
BRANCH   24   22
ATOM     22  C18 UNL A   1      10.845  24.284   7.335  1.00  0.00    +0.000 C 
ATOM     23  O3  UNL A   1       9.897  23.825   7.917  1.00  0.00    +0.000 O 
BRANCH   22   21
ATOM    117  H27 UNL A   1      12.637  24.967   7.994  1.00  0.00    +0.000 H 
ATOM     21  N2  UNL A   1      12.138  24.133   7.835  1.00  0.00    +0.000 N 
BRANCH   21   20
ATOM    116  H26 UNL A   1      12.374  22.114   7.602  1.00  0.00    +0.000 H 
ATOM    115  H25 UNL A   1      12.796  22.742   9.214  1.00  0.00    +0.000 H 
ATOM     20  C17 UNL A   1      12.850  22.895   8.157  1.00  0.00    +0.000 C 
BRANCH   20   19
ATOM    113  H23 UNL A   1      14.887  23.257   8.576  1.00  0.00    +0.000 H 
ATOM    114  H24 UNL A   1      14.534  21.886   7.465  1.00  0.00    +0.000 H 
ATOM     19  C16 UNL A   1      14.317  22.896   7.746  1.00  0.00    +0.000 C 
BRANCH   19   18
ATOM     18  C15 UNL A   1      14.683  23.750   6.518  1.00  0.00    +0.000 C 
ATOM    111  H21 UNL A   1      13.764  24.039   6.053  1.00  0.00    +0.000 H 
ATOM    112  H22 UNL A   1      15.286  24.535   6.928  1.00  0.00    +0.000 H 
BRANCH   18   17
ATOM     17  C14 UNL A   1      15.576  23.148   5.413  1.00  0.00    +0.000 C 
ATOM    109  H19 UNL A   1      15.745  22.123   5.668  1.00  0.00    +0.000 H 
ATOM    110  H20 UNL A   1      15.030  23.328   4.511  1.00  0.00    +0.000 H 
BRANCH   17   16
ATOM    107  H17 UNL A   1      16.853  24.446   4.315  1.00  0.00    +0.000 H 
ATOM    108  H18 UNL A   1      17.231  24.259   6.063  1.00  0.00    +0.000 H 
ATOM     16  C13 UNL A   1      16.955  23.781   5.147  1.00  0.00    +0.000 C 
BRANCH   16   15
ATOM    105  H15 UNL A   1      18.591  22.516   5.748  1.00  0.00    +0.000 H 
ATOM    106  H16 UNL A   1      17.676  21.961   4.311  1.00  0.00    +0.000 H 
ATOM     15  C12 UNL A   1      18.123  22.787   4.824  1.00  0.00    +0.000 C 
BRANCH   15   14
ATOM     14  N1  UNL A   1      19.215  23.334   3.878  1.00  0.00    +0.000 N 
ATOM    104  H14 UNL A   1      20.012  23.395   4.453  1.00  0.00    +0.000 H 
BRANCH   14   12
ATOM     12  C11 UNL A   1      19.657  23.780   2.660  1.00  0.00    +0.000 C 
ATOM     13  O2  UNL A   1      20.738  24.392   2.835  1.00  0.00    +0.000 O 
BRANCH   12   11
ATOM     11  C10 UNL A   1      19.090  23.876   1.130  1.00  0.00    +0.000 C 
ATOM    102  H12 UNL A   1      19.458  22.969   0.696  1.00  0.00    +0.000 H 
ATOM    103  H13 UNL A   1      18.123  24.220   1.435  1.00  0.00    +0.000 H 
BRANCH   11   10
ATOM     10  C9  UNL A   1      19.184  24.907  -0.107  1.00  0.00    +0.000 C 
ATOM    100  H10 UNL A   1      19.649  24.322  -0.873  1.00  0.00    +0.000 H 
ATOM    101  H11 UNL A   1      18.181  25.266  -0.019  1.00  0.00    +0.000 H 
BRANCH   10    9
ATOM      9  C8  UNL A   1      19.845  26.342  -0.297  1.00  0.00    +0.000 C 
ATOM     98  H8  UNL A   1      19.876  26.769   0.684  1.00  0.00    +0.000 H 
ATOM     99  H9  UNL A   1      20.730  26.070  -0.832  1.00  0.00    +0.000 H 
BRANCH    9    8
ATOM      8  O1  UNL A   1      19.347  27.386  -1.149  1.00  0.00    +0.000 O 
BRANCH    8    7
ATOM      2  C2  UNL A   1      17.844  31.588   1.093  1.00  0.00    +0.000 C 
ATOM      3  C3  UNL A   1      17.005  30.906   0.215  1.00  0.00    +0.000 C 
ATOM      4  C4  UNL A   1      17.533  30.075  -0.794  1.00  0.00    +0.000 C 
ATOM      6  C6  UNL A   1      18.878  29.803  -0.653  1.00  0.00    +0.000 C 
ATOM      7  C7  UNL A   1      19.680  28.695  -1.008  1.00  0.00    +0.000 C 
ATOM     87  N7  UNL A   1      20.989  28.941  -1.069  1.00  0.00    +0.000 N 
ATOM     88  S1  UNL A   1      21.262  30.438  -0.364  1.00  0.00    +0.000 S 
ATOM     89  C63 UNL A   1      19.638  30.709   0.066  1.00  0.00    +0.000 C 
ATOM     90  N8  UNL A   1      19.182  31.644   0.924  1.00  0.00    +0.000 N 
ATOM     94  H4  UNL A   1      15.982  31.009   0.305  1.00  0.00    +0.000 H 
BRANCH    2    1
ATOM      1  C1  UNL A   1      17.254  32.296   2.285  1.00  0.00    +0.000 C 
ATOM     91  H1  UNL A   1      16.364  31.790   2.595  1.00  0.00    +0.000 H 
ATOM     92  H2  UNL A   1      17.017  33.305   2.019  1.00  0.00    +0.000 H 
ATOM     93  H3  UNL A   1      17.963  32.295   3.086  1.00  0.00    +0.000 H 
ENDBRANCH    2    1
BRANCH    4    5
ATOM     97  H7  UNL A   1      16.386  30.167  -2.546  1.00  0.00    +0.000 H 
ATOM      5  C5  UNL A   1      16.849  29.422  -1.934  1.00  0.00    +0.000 C 
ATOM     95  H5  UNL A   1      16.103  28.749  -1.565  1.00  0.00    +0.000 H 
ATOM     96  H6  UNL A   1      17.564  28.878  -2.515  1.00  0.00    +0.000 H 
ENDBRANCH    4    5
ENDBRANCH    8    7
ENDBRANCH    9    8
ENDBRANCH   10    9
ENDBRANCH   11   10
ENDBRANCH   12   11
ENDBRANCH   14   12
ENDBRANCH   15   14
ENDBRANCH   16   15
ENDBRANCH   17   16
ENDBRANCH   18   17
ENDBRANCH   19   18
ENDBRANCH   20   19
ENDBRANCH   21   20
ENDBRANCH   22   21
ENDBRANCH   24   22
ENDBRANCH   28   27
BRANCH   32   33
ATOM     33  C27 UNL A   1      10.932  25.047  -3.137  1.00  0.00    +0.000 C 
ATOM     34  C28 UNL A   1      11.816  24.406  -4.032  1.00  0.00    +0.000 C 
ATOM     35  F1  UNL A   1      13.035  24.014  -3.628  1.00  0.00    +0.000 F 
ATOM     36  C29 UNL A   1      11.514  24.247  -5.386  1.00  0.00    +0.000 C 
ATOM     37  F2  UNL A   1      12.445  23.768  -6.222  1.00  0.00    +0.000 F 
ATOM     38  C30 UNL A   1      10.291  24.654  -5.881  1.00  0.00    +0.000 C 
ATOM     39  F3  UNL A   1      10.025  24.573  -7.191  1.00  0.00    +0.000 F 
ATOM     40  C31 UNL A   1       9.359  25.191  -5.019  1.00  0.00    +0.000 C 
ATOM     41  F4  UNL A   1       8.170  25.600  -5.483  1.00  0.00    +0.000 F 
ATOM     42  C32 UNL A   1       9.677  25.399  -3.678  1.00  0.00    +0.000 C 
ATOM     43  F5  UNL A   1       8.749  26.052  -2.970  1.00  0.00    +0.000 F 
ENDBRANCH   32   33
BRANCH   49   50
ATOM     50  C38 UNL A   1      12.094  31.082  -0.188  1.00  0.00    +0.000 C 
ATOM     51  C39 UNL A   1      12.338  30.910   1.185  1.00  0.00    +0.000 C 
ATOM     52  F6  UNL A   1      11.931  29.802   1.822  1.00  0.00    +0.000 F 
ATOM     53  C40 UNL A   1      13.070  31.847   1.914  1.00  0.00    +0.000 C 
ATOM     54  F7  UNL A   1      13.290  31.658   3.225  1.00  0.00    +0.000 F 
ATOM     55  C41 UNL A   1      13.611  32.952   1.279  1.00  0.00    +0.000 C 
ATOM     56  F8  UNL A   1      14.360  33.826   1.966  1.00  0.00    +0.000 F 
ATOM     57  C42 UNL A   1      13.401  33.135  -0.078  1.00  0.00    +0.000 C 
ATOM     58  F9  UNL A   1      13.962  34.176  -0.709  1.00  0.00    +0.000 F 
ATOM     59  C43 UNL A   1      12.639  32.219  -0.799  1.00  0.00    +0.000 C 
ATOM     60  F10 UNL A   1      12.484  32.410  -2.119  1.00  0.00    +0.000 F 
ENDBRANCH   49   50
BRANCH   64   65
ATOM     65  C47 UNL A   1       5.783  30.965   0.354  1.00  0.00    +0.000 C 
ATOM     66  C48 UNL A   1       4.749  30.018   0.266  1.00  0.00    +0.000 C 
ATOM     67  F11 UNL A   1       5.037  28.727   0.041  1.00  0.00    +0.000 F 
ATOM     68  C49 UNL A   1       3.414  30.368   0.485  1.00  0.00    +0.000 C 
ATOM     69  F12 UNL A   1       2.462  29.424   0.462  1.00  0.00    +0.000 F 
ATOM     70  C50 UNL A   1       3.073  31.676   0.787  1.00  0.00    +0.000 C 
ATOM     71  F13 UNL A   1       1.801  32.000   1.065  1.00  0.00    +0.000 F 
ATOM     72  C51 UNL A   1       4.062  32.641   0.841  1.00  0.00    +0.000 C 
ATOM     73  F14 UNL A   1       3.749  33.904   1.165  1.00  0.00    +0.000 F 
ATOM     74  C52 UNL A   1       5.396  32.292   0.627  1.00  0.00    +0.000 C 
ATOM     75  F15 UNL A   1       6.310  33.259   0.786  1.00  0.00    +0.000 F 
ENDBRANCH   64   65
TORSDOF 21
ENDMDL
MODEL 10
REMARK VINA RESULT:      -9.5     21.580     26.041
ROOT
ATOM    129  H39 UNL A   1      23.729  34.281  49.635  1.00  0.00    +0.000 H 
ATOM     28  C23 UNL A   1      25.168  33.589  47.231  1.00  0.00    +0.000 C 
ATOM     29  C24 UNL A   1      25.243  34.831  48.038  1.00  0.00    +0.000 C 
ATOM     30  N3  UNL A   1      25.906  35.899  47.745  1.00  0.00    +0.000 N 
ATOM     31  C25 UNL A   1      25.692  36.789  48.793  1.00  0.00    +0.000 C 
ATOM     32  C26 UNL A   1      26.573  37.801  49.027  1.00  0.00    +0.000 C 
ATOM     44  C33 UNL A   1      27.430  38.010  47.884  1.00  0.00    +0.000 C 
ATOM     45  C34 UNL A   1      27.214  38.360  46.565  1.00  0.00    +0.000 C 
ATOM     46  C35 UNL A   1      28.131  37.562  45.817  1.00  0.00    +0.000 C 
ATOM     47  C36 UNL A   1      28.898  36.832  46.725  1.00  0.00    +0.000 C 
ATOM     48  N4  UNL A   1      28.696  37.473  47.919  1.00  0.00    +0.000 N 
ATOM     49  C37 UNL A   1      29.686  35.629  46.590  1.00  0.00    +0.000 C 
ATOM     61  C44 UNL A   1      29.975  34.779  47.619  1.00  0.00    +0.000 C 
ATOM     62  N5  UNL A   1      30.332  33.459  47.384  1.00  0.00    +0.000 N 
ATOM     63  C45 UNL A   1      29.969  32.818  48.464  1.00  0.00    +0.000 C 
ATOM     64  C46 UNL A   1      29.342  31.468  48.431  1.00  0.00    +0.000 C 
ATOM     76  C53 UNL A   1      28.128  31.624  47.849  1.00  0.00    +0.000 C 
ATOM     77  C54 UNL A   1      27.284  30.666  47.173  1.00  0.00    +0.000 C 
ATOM     78  C55 UNL A   1      26.191  31.313  46.719  1.00  0.00    +0.000 C 
ATOM     79  C56 UNL A   1      26.171  32.683  47.242  1.00  0.00    +0.000 C 
ATOM     80  N6  UNL A   1      27.405  32.829  47.827  1.00  0.00    +0.000 N 
ATOM     81  C57 UNL A   1      29.733  33.646  49.636  1.00  0.00    +0.000 C 
ATOM     82  C58 UNL A   1      29.659  34.841  49.045  1.00  0.00    +0.000 C 
ATOM     83  C59 UNL A   1      24.619  36.231  49.575  1.00  0.00    +0.000 C 
ATOM     84  C60 UNL A   1      24.367  34.971  49.209  1.00  0.00    +0.000 C 
ATOM    120  H30 UNL A   1      26.536  39.048  46.199  1.00  0.00    +0.000 H 
ATOM    121  H31 UNL A   1      28.212  37.533  44.789  1.00  0.00    +0.000 H 
ATOM    122  H32 UNL A   1      29.337  37.540  48.663  1.00  0.00    +0.000 H 
ATOM    123  H33 UNL A   1      27.482  29.660  47.055  1.00  0.00    +0.000 H 
ATOM    124  H34 UNL A   1      25.477  30.907  46.095  1.00  0.00    +0.000 H 
ATOM    125  H35 UNL A   1      27.744  33.681  48.188  1.00  0.00    +0.000 H 
ATOM    126  H36 UNL A   1      29.647  33.386  50.631  1.00  0.00    +0.000 H 
ATOM    127  H37 UNL A   1      29.408  35.711  49.539  1.00  0.00    +0.000 H 
ATOM    128  H38 UNL A   1      24.112  36.737  50.318  1.00  0.00    +0.000 H 
ENDROOT
BRANCH   28   27
ATOM    130  H40 UNL A   1      24.526  34.401  44.820  1.00  0.00    +0.000 H 
ATOM    131  H41 UNL A   1      22.298  34.458  43.878  1.00  0.00    +0.000 H 
ATOM     27  C22 UNL A   1      23.900  33.378  46.549  1.00  0.00    +0.000 C 
ATOM     85  C61 UNL A   1      23.737  33.933  45.292  1.00  0.00    +0.000 C 
ATOM     86  C62 UNL A   1      22.513  33.853  44.685  1.00  0.00    +0.000 C 
ATOM    118  H28 UNL A   1      20.988  31.723  46.778  1.00  0.00    +0.000 H 
ATOM     24  C19 UNL A   1      21.559  32.958  45.154  1.00  0.00    +0.000 C 
ATOM     25  C20 UNL A   1      21.719  32.347  46.400  1.00  0.00    +0.000 C 
ATOM     26  C21 UNL A   1      22.883  32.596  47.125  1.00  0.00    +0.000 C 
ATOM    119  H29 UNL A   1      22.997  32.210  48.074  1.00  0.00    +0.000 H 
BRANCH   24   22
ATOM     22  C18 UNL A   1      20.385  32.663  44.300  1.00  0.00    +0.000 C 
ATOM     23  O3  UNL A   1      19.690  33.556  43.888  1.00  0.00    +0.000 O 
BRANCH   22   21
ATOM    117  H27 UNL A   1      20.587  30.955  43.227  1.00  0.00    +0.000 H 
ATOM     21  N2  UNL A   1      20.099  31.333  43.995  1.00  0.00    +0.000 N 
BRANCH   21   20
ATOM    116  H26 UNL A   1      18.714  30.981  45.458  1.00  0.00    +0.000 H 
ATOM    115  H25 UNL A   1      19.724  29.580  45.022  1.00  0.00    +0.000 H 
ATOM     20  C17 UNL A   1      19.171  30.424  44.667  1.00  0.00    +0.000 C 
BRANCH   20   19
ATOM    113  H23 UNL A   1      18.476  29.287  43.029  1.00  0.00    +0.000 H 
ATOM    114  H24 UNL A   1      17.363  29.416  44.438  1.00  0.00    +0.000 H 
ATOM     19  C16 UNL A   1      18.042  29.916  43.778  1.00  0.00    +0.000 C 
BRANCH   19   18
ATOM     18  C15 UNL A   1      17.201  30.989  43.061  1.00  0.00    +0.000 C 
ATOM    111  H21 UNL A   1      17.751  31.905  43.116  1.00  0.00    +0.000 H 
ATOM    112  H22 UNL A   1      17.045  30.576  42.085  1.00  0.00    +0.000 H 
BRANCH   18   17
ATOM     17  C14 UNL A   1      15.772  31.291  43.558  1.00  0.00    +0.000 C 
ATOM    109  H19 UNL A   1      15.118  31.189  42.719  1.00  0.00    +0.000 H 
ATOM    110  H20 UNL A   1      15.625  30.600  44.361  1.00  0.00    +0.000 H 
BRANCH   17   16
ATOM    107  H17 UNL A   1      14.427  32.745  44.333  1.00  0.00    +0.000 H 
ATOM    108  H18 UNL A   1      16.054  32.689  45.097  1.00  0.00    +0.000 H 
ATOM     16  C13 UNL A   1      15.485  32.666  44.192  1.00  0.00    +0.000 C 
BRANCH   16   15
ATOM    105  H15 UNL A   1      16.686  33.595  42.664  1.00  0.00    +0.000 H 
ATOM    106  H16 UNL A   1      15.070  34.323  42.921  1.00  0.00    +0.000 H 
ATOM     15  C12 UNL A   1      15.953  33.918  43.372  1.00  0.00    +0.000 C 
BRANCH   15   14
ATOM     14  N1  UNL A   1      16.567  35.064  44.207  1.00  0.00    +0.000 N 
ATOM    104  H14 UNL A   1      17.019  35.624  43.537  1.00  0.00    +0.000 H 
BRANCH   14   12
ATOM     12  C11 UNL A   1      16.814  35.709  45.390  1.00  0.00    +0.000 C 
ATOM     13  O2  UNL A   1      17.813  35.176  45.928  1.00  0.00    +0.000 O 
BRANCH   12   11
ATOM     11  C10 UNL A   1      16.080  36.825  46.334  1.00  0.00    +0.000 C 
ATOM    102  H12 UNL A   1      16.460  37.743  45.934  1.00  0.00    +0.000 H 
ATOM    103  H13 UNL A   1      15.131  36.332  46.301  1.00  0.00    +0.000 H 
BRANCH   11   10
ATOM     10  C9  UNL A   1      15.972  37.161  47.908  1.00  0.00    +0.000 C 
ATOM    100  H10 UNL A   1      16.466  38.107  47.987  1.00  0.00    +0.000 H 
ATOM    101  H11 UNL A   1      14.937  36.907  47.996  1.00  0.00    +0.000 H 
BRANCH   10    9
ATOM      9  C8  UNL A   1      16.430  36.402  49.229  1.00  0.00    +0.000 C 
ATOM     98  H8  UNL A   1      16.052  36.992  50.038  1.00  0.00    +0.000 H 
ATOM     99  H9  UNL A   1      16.064  35.420  49.017  1.00  0.00    +0.000 H 
BRANCH    9    8
ATOM      8  O1  UNL A   1      17.787  36.091  49.589  1.00  0.00    +0.000 O 
BRANCH    8    7
ATOM      2  C2  UNL A   1      21.631  37.493  46.725  1.00  0.00    +0.000 C 
ATOM      3  C3  UNL A   1      21.533  36.189  47.204  1.00  0.00    +0.000 C 
ATOM      4  C4  UNL A   1      20.812  35.900  48.379  1.00  0.00    +0.000 C 
ATOM      6  C6  UNL A   1      20.024  36.940  48.827  1.00  0.00    +0.000 C 
ATOM      7  C7  UNL A   1      18.803  36.990  49.537  1.00  0.00    +0.000 C 
ATOM     87  N7  UNL A   1      18.539  38.156  50.127  1.00  0.00    +0.000 N 
ATOM     88  S1  UNL A   1      19.622  39.289  49.530  1.00  0.00    +0.000 S 
ATOM     89  C63 UNL A   1      20.388  38.221  48.449  1.00  0.00    +0.000 C 
ATOM     90  N8  UNL A   1      21.209  38.561  47.435  1.00  0.00    +0.000 N 
ATOM     94  H4  UNL A   1      21.995  35.423  46.690  1.00  0.00    +0.000 H 
BRANCH    2    1
ATOM      1  C1  UNL A   1      22.226  37.743  45.364  1.00  0.00    +0.000 C 
ATOM     91  H1  UNL A   1      21.455  37.687  44.623  1.00  0.00    +0.000 H 
ATOM     92  H2  UNL A   1      22.971  37.002  45.159  1.00  0.00    +0.000 H 
ATOM     93  H3  UNL A   1      22.672  38.714  45.342  1.00  0.00    +0.000 H 
ENDBRANCH    2    1
BRANCH    4    5
ATOM     97  H7  UNL A   1      19.818  34.613  49.703  1.00  0.00    +0.000 H 
ATOM      5  C5  UNL A   1      20.739  34.642  49.159  1.00  0.00    +0.000 C 
ATOM     95  H5  UNL A   1      21.560  34.599  49.844  1.00  0.00    +0.000 H 
ATOM     96  H6  UNL A   1      20.785  33.806  48.493  1.00  0.00    +0.000 H 
ENDBRANCH    4    5
ENDBRANCH    8    7
ENDBRANCH    9    8
ENDBRANCH   10    9
ENDBRANCH   11   10
ENDBRANCH   12   11
ENDBRANCH   14   12
ENDBRANCH   15   14
ENDBRANCH   16   15
ENDBRANCH   17   16
ENDBRANCH   18   17
ENDBRANCH   19   18
ENDBRANCH   20   19
ENDBRANCH   21   20
ENDBRANCH   22   21
ENDBRANCH   24   22
ENDBRANCH   28   27
BRANCH   32   33
ATOM     33  C27 UNL A   1      26.924  38.350  50.390  1.00  0.00    +0.000 C 
ATOM     34  C28 UNL A   1      26.896  39.748  50.582  1.00  0.00    +0.000 C 
ATOM     35  F1  UNL A   1      26.285  40.550  49.696  1.00  0.00    +0.000 F 
ATOM     36  C29 UNL A   1      27.581  40.366  51.630  1.00  0.00    +0.000 C 
ATOM     37  F2  UNL A   1      27.646  41.703  51.685  1.00  0.00    +0.000 F 
ATOM     38  C30 UNL A   1      28.259  39.608  52.565  1.00  0.00    +0.000 C 
ATOM     39  F3  UNL A   1      28.979  40.197  53.527  1.00  0.00    +0.000 F 
ATOM     40  C31 UNL A   1      28.225  38.233  52.471  1.00  0.00    +0.000 C 
ATOM     41  F4  UNL A   1      28.883  37.480  53.363  1.00  0.00    +0.000 F 
ATOM     42  C32 UNL A   1      27.585  37.615  51.397  1.00  0.00    +0.000 C 
ATOM     43  F5  UNL A   1      27.736  36.288  51.334  1.00  0.00    +0.000 F 
ENDBRANCH   32   33
BRANCH   49   50
ATOM     50  C38 UNL A   1      29.983  35.180  45.186  1.00  0.00    +0.000 C 
ATOM     51  C39 UNL A   1      31.266  35.196  44.614  1.00  0.00    +0.000 C 
ATOM     52  F6  UNL A   1      32.309  35.709  45.280  1.00  0.00    +0.000 F 
ATOM     53  C40 UNL A   1      31.511  34.617  43.368  1.00  0.00    +0.000 C 
ATOM     54  F7  UNL A   1      32.746  34.645  42.844  1.00  0.00    +0.000 F 
ATOM     55  C41 UNL A   1      30.491  33.972  42.690  1.00  0.00    +0.000 C 
ATOM     56  F8  UNL A   1      30.736  33.369  41.518  1.00  0.00    +0.000 F 
ATOM     57  C42 UNL A   1      29.221  33.926  43.242  1.00  0.00    +0.000 C 
ATOM     58  F9  UNL A   1      28.241  33.261  42.614  1.00  0.00    +0.000 F 
ATOM     59  C43 UNL A   1      28.967  34.535  44.468  1.00  0.00    +0.000 C 
ATOM     60  F10 UNL A   1      27.733  34.442  44.988  1.00  0.00    +0.000 F 
ENDBRANCH   49   50
BRANCH   64   65
ATOM     65  C47 UNL A   1      29.808  30.341  49.271  1.00  0.00    +0.000 C 
ATOM     66  C48 UNL A   1      29.189  30.056  50.499  1.00  0.00    +0.000 C 
ATOM     67  F11 UNL A   1      28.332  30.936  51.039  1.00  0.00    +0.000 F 
ATOM     68  C49 UNL A   1      29.378  28.835  51.151  1.00  0.00    +0.000 C 
ATOM     69  F12 UNL A   1      28.714  28.572  52.286  1.00  0.00    +0.000 F 
ATOM     70  C50 UNL A   1      30.199  27.866  50.599  1.00  0.00    +0.000 C 
ATOM     71  F13 UNL A   1      30.327  26.668  51.187  1.00  0.00    +0.000 F 
ATOM     72  C51 UNL A   1      30.856  28.129  49.411  1.00  0.00    +0.000 C 
ATOM     73  F14 UNL A   1      31.629  27.187  48.850  1.00  0.00    +0.000 F 
ATOM     74  C52 UNL A   1      30.666  29.347  48.758  1.00  0.00    +0.000 C 
ATOM     75  F15 UNL A   1      31.261  29.497  47.566  1.00  0.00    +0.000 F 
ENDBRANCH   64   65
TORSDOF 21
ENDMDL
