MODEL 1
REMARK VINA RESULT:     -10.1      0.000      0.000
ROOT
ATOM    129  H36 UNL A   1      21.903  33.499  50.410  1.00  0.00    +0.000 H 
ATOM    130  H37 UNL A   1      20.138  34.032  48.609  1.00  0.00    +0.000 H 
ATOM    131  H38 UNL A   1      23.848  34.731  44.033  1.00  0.00    +0.000 H 
ATOM    132  H39 UNL A   1      25.376  35.791  45.824  1.00  0.00    +0.000 H 
ATOM     35  C29 UNL A   1      24.027  37.845  47.325  1.00  0.00    +0.000 C 
ATOM     36  C30 UNL A   1      23.455  36.883  46.348  1.00  0.00    +0.000 C 
ATOM     37  N5  UNL A   1      22.245  36.852  45.895  1.00  0.00    +0.000 N 
ATOM     38  C31 UNL A   1      22.185  35.744  45.054  1.00  0.00    +0.000 C 
ATOM     39  C32 UNL A   1      21.016  35.066  44.891  1.00  0.00    +0.000 C 
ATOM     51  C39 UNL A   1      19.904  35.855  45.366  1.00  0.00    +0.000 C 
ATOM     52  C40 UNL A   1      19.322  37.055  45.017  1.00  0.00    +0.000 C 
ATOM     53  C41 UNL A   1      18.895  37.638  46.249  1.00  0.00    +0.000 C 
ATOM     54  C42 UNL A   1      19.171  36.739  47.280  1.00  0.00    +0.000 C 
ATOM     55  N6  UNL A   1      19.470  35.572  46.635  1.00  0.00    +0.000 N 
ATOM     56  C43 UNL A   1      19.286  36.899  48.713  1.00  0.00    +0.000 C 
ATOM     68  C50 UNL A   1      19.878  36.006  49.561  1.00  0.00    +0.000 C 
ATOM     69  N7  UNL A   1      20.398  36.434  50.772  1.00  0.00    +0.000 N 
ATOM     70  C51 UNL A   1      21.386  35.616  51.012  1.00  0.00    +0.000 C 
ATOM     71  C52 UNL A   1      22.668  36.041  51.619  1.00  0.00    +0.000 C 
ATOM     83  C59 UNL A   1      23.266  36.861  50.719  1.00  0.00    +0.000 C 
ATOM     84  C60 UNL A   1      24.302  37.848  50.915  1.00  0.00    +0.000 C 
ATOM     85  C61 UNL A   1      24.545  38.443  49.731  1.00  0.00    +0.000 C 
ATOM     86  C62 UNL A   1      23.822  37.746  48.659  1.00  0.00    +0.000 C 
ATOM     87  N8  UNL A   1      22.985  36.885  49.335  1.00  0.00    +0.000 N 
ATOM     88  C63 UNL A   1      21.362  34.367  50.273  1.00  0.00    +0.000 C 
ATOM     89  C64 UNL A   1      20.432  34.670  49.364  1.00  0.00    +0.000 C 
ATOM     90  C65 UNL A   1      23.547  35.365  44.791  1.00  0.00    +0.000 C 
ATOM     91  C66 UNL A   1      24.368  35.950  45.667  1.00  0.00    +0.000 C 
ATOM    123  H30 UNL A   1      19.218  37.449  44.068  1.00  0.00    +0.000 H 
ATOM    124  H31 UNL A   1      18.457  38.567  46.358  1.00  0.00    +0.000 H 
ATOM    125  H32 UNL A   1      19.387  34.670  47.022  1.00  0.00    +0.000 H 
ATOM    126  H33 UNL A   1      24.775  38.059  51.807  1.00  0.00    +0.000 H 
ATOM    127  H34 UNL A   1      25.150  39.268  49.597  1.00  0.00    +0.000 H 
ATOM    128  H35 UNL A   1      22.279  36.351  48.905  1.00  0.00    +0.000 H 
ENDROOT
BRANCH   35   34
ATOM     33  C27 UNL A   1      26.307  38.305  46.400  1.00  0.00    +0.000 C 
ATOM     34  C28 UNL A   1      25.022  38.747  46.756  1.00  0.00    +0.000 C 
ATOM    133  H40 UNL A   1      23.785  40.427  47.052  1.00  0.00    +0.000 H 
ATOM    134  H41 UNL A   1      25.250  41.911  45.825  1.00  0.00    +0.000 H 
ATOM    121  H28 UNL A   1      28.228  38.947  45.792  1.00  0.00    +0.000 H 
ATOM    122  H29 UNL A   1      26.541  37.301  46.434  1.00  0.00    +0.000 H 
ATOM     92  C67 UNL A   1      24.687  40.092  46.678  1.00  0.00    +0.000 C 
ATOM     93  C68 UNL A   1      25.565  40.968  46.103  1.00  0.00    +0.000 C 
ATOM     31  C25 UNL A   1      26.884  40.583  45.895  1.00  0.00    +0.000 C 
ATOM     32  C26 UNL A   1      27.262  39.240  46.002  1.00  0.00    +0.000 C 
BRANCH   31   29
ATOM     29  C24 UNL A   1      27.859  41.650  45.614  1.00  0.00    +0.000 C 
ATOM     30  O2  UNL A   1      28.487  41.654  44.558  1.00  0.00    +0.000 O 
BRANCH   29   28
ATOM     28  N4  UNL A   1      28.047  42.643  46.560  1.00  0.00    +0.000 N 
ATOM    120  H27 UNL A   1      27.383  43.369  46.582  1.00  0.00    +0.000 H 
BRANCH   28   27
ATOM     27  C23 UNL A   1      29.140  42.716  47.535  1.00  0.00    +0.000 C 
ATOM    118  H25 UNL A   1      28.883  43.439  48.281  1.00  0.00    +0.000 H 
ATOM    119  H26 UNL A   1      29.263  41.738  47.951  1.00  0.00    +0.000 H 
BRANCH   27   26
ATOM     26  C22 UNL A   1      30.470  43.114  46.912  1.00  0.00    +0.000 C 
ATOM    116  H23 UNL A   1      30.269  43.730  46.062  1.00  0.00    +0.000 H 
ATOM    117  H24 UNL A   1      31.023  43.618  47.677  1.00  0.00    +0.000 H 
BRANCH   26   25
ATOM     25  C21 UNL A   1      31.340  41.935  46.453  1.00  0.00    +0.000 C 
ATOM    114  H21 UNL A   1      30.906  41.543  45.557  1.00  0.00    +0.000 H 
ATOM    115  H22 UNL A   1      32.322  42.343  46.337  1.00  0.00    +0.000 H 
BRANCH   25   24
ATOM    113  H20 UNL A   1      30.943  41.044  48.304  1.00  0.00    +0.000 H 
ATOM    112  H19 UNL A   1      32.555  40.640  47.614  1.00  0.00    +0.000 H 
ATOM     24  C20 UNL A   1      31.507  40.769  47.438  1.00  0.00    +0.000 C 
BRANCH   24   23
ATOM    111  H18 UNL A   1      29.904  39.420  47.266  1.00  0.00    +0.000 H 
ATOM    110  H17 UNL A   1      31.498  38.644  47.484  1.00  0.00    +0.000 H 
ATOM     23  C19 UNL A   1      30.939  39.416  46.996  1.00  0.00    +0.000 C 
BRANCH   23   22
ATOM    108  H15 UNL A   1      30.011  39.295  45.090  1.00  0.00    +0.000 H 
ATOM    109  H16 UNL A   1      31.689  39.859  45.075  1.00  0.00    +0.000 H 
ATOM     22  C18 UNL A   1      30.993  39.164  45.494  1.00  0.00    +0.000 C 
BRANCH   22   21
ATOM    107  H14 UNL A   1      32.290  37.497  45.571  1.00  0.00    +0.000 H 
ATOM     21  N3  UNL A   1      31.455  37.827  45.167  1.00  0.00    +0.000 N 
BRANCH   21    2
ATOM      1  O1  UNL A   1      31.310  36.332  43.438  1.00  0.00    +0.000 O 
ATOM      2  C1  UNL A   1      30.755  37.007  44.304  1.00  0.00    +0.000 C 
BRANCH    2    3
ATOM      3  C2  UNL A   1      29.245  37.046  44.413  1.00  0.00    +0.000 C 
ATOM     94  H1  UNL A   1      28.867  37.590  43.573  1.00  0.00    +0.000 H 
ATOM     95  H2  UNL A   1      29.027  37.506  45.354  1.00  0.00    +0.000 H 
BRANCH    3    4
ATOM      4  N1  UNL A   1      28.590  35.746  44.441  1.00  0.00    +0.000 N 
ATOM      5  C3  UNL A   1      28.427  34.957  43.331  1.00  0.00    +0.000 C 
ATOM      6  N2  UNL A   1      27.907  33.792  43.632  1.00  0.00    +0.000 N 
ATOM      7  C4  UNL A   1      27.725  33.822  44.991  1.00  0.00    +0.000 C 
ATOM     14  C11 UNL A   1      28.149  35.028  45.537  1.00  0.00    +0.000 C 
ATOM     96  H3  UNL A   1      28.685  35.246  42.375  1.00  0.00    +0.000 H 
BRANCH    7    8
ATOM     97  H4  UNL A   1      25.174  33.088  45.238  1.00  0.00    +0.000 H 
ATOM     98  H5  UNL A   1      24.293  31.132  46.372  1.00  0.00    +0.000 H 
ATOM     99  H6  UNL A   1      25.791  29.637  47.560  1.00  0.00    +0.000 H 
ATOM    100  H7  UNL A   1      28.169  30.109  47.637  1.00  0.00    +0.000 H 
ATOM    101  H8  UNL A   1      29.055  32.053  46.491  1.00  0.00    +0.000 H 
ATOM      8  C5  UNL A   1      27.188  32.709  45.750  1.00  0.00    +0.000 C 
ATOM      9  C6  UNL A   1      25.814  32.450  45.735  1.00  0.00    +0.000 C 
ATOM     10  C7  UNL A   1      25.306  31.327  46.393  1.00  0.00    +0.000 C 
ATOM     11  C8  UNL A   1      26.167  30.470  47.081  1.00  0.00    +0.000 C 
ATOM     12  C9  UNL A   1      27.534  30.738  47.120  1.00  0.00    +0.000 C 
ATOM     13  C10 UNL A   1      28.043  31.855  46.458  1.00  0.00    +0.000 C 
ENDBRANCH    7    8
BRANCH   14   15
ATOM    102  H9  UNL A   1      26.201  34.890  47.366  1.00  0.00    +0.000 H 
ATOM    103  H10 UNL A   1      26.214  35.745  49.635  1.00  0.00    +0.000 H 
ATOM    104  H11 UNL A   1      28.221  36.761  50.543  1.00  0.00    +0.000 H 
ATOM    105  H12 UNL A   1      30.195  36.988  49.153  1.00  0.00    +0.000 H 
ATOM    106  H13 UNL A   1      30.148  36.227  46.855  1.00  0.00    +0.000 H 
ATOM     15  C12 UNL A   1      28.190  35.455  46.934  1.00  0.00    +0.000 C 
ATOM     16  C13 UNL A   1      27.052  35.338  47.741  1.00  0.00    +0.000 C 
ATOM     17  C14 UNL A   1      27.060  35.825  49.051  1.00  0.00    +0.000 C 
ATOM     18  C15 UNL A   1      28.209  36.420  49.569  1.00  0.00    +0.000 C 
ATOM     19  C16 UNL A   1      29.341  36.552  48.771  1.00  0.00    +0.000 C 
ATOM     20  C17 UNL A   1      29.319  36.093  47.454  1.00  0.00    +0.000 C 
ENDBRANCH   14   15
ENDBRANCH    3    4
ENDBRANCH    2    3
ENDBRANCH   21    2
ENDBRANCH   22   21
ENDBRANCH   23   22
ENDBRANCH   24   23
ENDBRANCH   25   24
ENDBRANCH   26   25
ENDBRANCH   27   26
ENDBRANCH   28   27
ENDBRANCH   29   28
ENDBRANCH   31   29
ENDBRANCH   35   34
BRANCH   39   40
ATOM     40  C33 UNL A   1      20.903  33.558  44.752  1.00  0.00    +0.000 C 
ATOM     41  C34 UNL A   1      19.871  33.029  43.947  1.00  0.00    +0.000 C 
ATOM     42  F1  UNL A   1      19.190  33.818  43.104  1.00  0.00    +0.000 F 
ATOM     43  C35 UNL A   1      19.445  31.703  44.064  1.00  0.00    +0.000 C 
ATOM     44  F2  UNL A   1      18.372  31.285  43.378  1.00  0.00    +0.000 F 
ATOM     45  C36 UNL A   1      20.075  30.838  44.938  1.00  0.00    +0.000 C 
ATOM     46  F3  UNL A   1      19.628  29.585  45.101  1.00  0.00    +0.000 F 
ATOM     47  C37 UNL A   1      21.140  31.293  45.682  1.00  0.00    +0.000 C 
ATOM     48  F4  UNL A   1      21.752  30.475  46.551  1.00  0.00    +0.000 F 
ATOM     49  C38 UNL A   1      21.535  32.629  45.608  1.00  0.00    +0.000 C 
ATOM     50  F5  UNL A   1      22.476  32.983  46.487  1.00  0.00    +0.000 F 
ENDBRANCH   39   40
BRANCH   56   57
ATOM     65  F9  UNL A   1      20.509  41.492  49.654  1.00  0.00    +0.000 F 
ATOM     66  C49 UNL A   1      19.815  39.290  49.154  1.00  0.00    +0.000 C 
ATOM     67  F10 UNL A   1      20.965  39.100  48.489  1.00  0.00    +0.000 F 
ATOM     57  C44 UNL A   1      18.897  38.238  49.279  1.00  0.00    +0.000 C 
ATOM     58  C45 UNL A   1      17.732  38.483  50.027  1.00  0.00    +0.000 C 
ATOM     59  F6  UNL A   1      16.850  37.504  50.263  1.00  0.00    +0.000 F 
ATOM     60  C46 UNL A   1      17.485  39.735  50.589  1.00  0.00    +0.000 C 
ATOM     61  F7  UNL A   1      16.358  39.950  51.286  1.00  0.00    +0.000 F 
ATOM     62  C47 UNL A   1      18.415  40.754  50.456  1.00  0.00    +0.000 C 
ATOM     63  F8  UNL A   1      18.198  41.945  51.029  1.00  0.00    +0.000 F 
ATOM     64  C48 UNL A   1      19.584  40.527  49.747  1.00  0.00    +0.000 C 
ENDBRANCH   56   57
BRANCH   71   72
ATOM     72  C53 UNL A   1      23.246  35.369  52.805  1.00  0.00    +0.000 C 
ATOM     73  C54 UNL A   1      22.501  35.220  53.987  1.00  0.00    +0.000 C 
ATOM     74  F11 UNL A   1      21.352  35.893  54.148  1.00  0.00    +0.000 F 
ATOM     75  C55 UNL A   1      22.881  34.317  54.987  1.00  0.00    +0.000 C 
ATOM     76  F12 UNL A   1      22.108  34.151  56.069  1.00  0.00    +0.000 F 
ATOM     77  C56 UNL A   1      24.021  33.546  54.835  1.00  0.00    +0.000 C 
ATOM     78  F13 UNL A   1      24.349  32.631  55.758  1.00  0.00    +0.000 F 
ATOM     79  C57 UNL A   1      24.796  33.695  53.698  1.00  0.00    +0.000 C 
ATOM     80  F14 UNL A   1      25.881  32.927  53.523  1.00  0.00    +0.000 F 
ATOM     81  C58 UNL A   1      24.416  34.594  52.700  1.00  0.00    +0.000 C 
ATOM     82  F15 UNL A   1      25.156  34.620  51.583  1.00  0.00    +0.000 F 
ENDBRANCH   71   72
TORSDOF 18
ENDMDL
MODEL 2
REMARK VINA RESULT:     -10.1     46.356     50.874
ROOT
ATOM    129  H36 UNL A   1       8.203  30.331   0.305  1.00  0.00    +0.000 H 
ATOM    130  H37 UNL A   1       9.367  32.121  -1.139  1.00  0.00    +0.000 H 
ATOM    131  H38 UNL A   1      10.325  28.775  -5.942  1.00  0.00    +0.000 H 
ATOM    132  H39 UNL A   1      10.741  26.920  -4.195  1.00  0.00    +0.000 H 
ATOM     35  C29 UNL A   1      12.655  27.719  -2.198  1.00  0.00    +0.000 C 
ATOM     36  C30 UNL A   1      12.014  28.547  -3.251  1.00  0.00    +0.000 C 
ATOM     37  N5  UNL A   1      12.274  29.777  -3.549  1.00  0.00    +0.000 N 
ATOM     38  C31 UNL A   1      11.379  30.119  -4.560  1.00  0.00    +0.000 C 
ATOM     39  C32 UNL A   1      10.952  31.405  -4.694  1.00  0.00    +0.000 C 
ATOM     51  C39 UNL A   1      11.806  32.302  -3.952  1.00  0.00    +0.000 C 
ATOM     52  C40 UNL A   1      13.131  32.678  -4.008  1.00  0.00    +0.000 C 
ATOM     53  C41 UNL A   1      13.523  32.875  -2.648  1.00  0.00    +0.000 C 
ATOM     54  C42 UNL A   1      12.405  32.680  -1.835  1.00  0.00    +0.000 C 
ATOM     55  N6  UNL A   1      11.355  32.665  -2.709  1.00  0.00    +0.000 N 
ATOM     56  C43 UNL A   1      12.258  32.409  -0.422  1.00  0.00    +0.000 C 
ATOM     68  C50 UNL A   1      11.130  31.920   0.174  1.00  0.00    +0.000 C 
ATOM     69  N7  UNL A   1      11.218  31.221   1.367  1.00  0.00    +0.000 N 
ATOM     70  C51 UNL A   1      10.215  30.387   1.334  1.00  0.00    +0.000 C 
ATOM     71  C52 UNL A   1      10.293  28.998   1.843  1.00  0.00    +0.000 C 
ATOM     83  C59 UNL A   1      11.163  28.342   1.035  1.00  0.00    +0.000 C 
ATOM     84  C60 UNL A   1      11.905  27.126   1.273  1.00  0.00    +0.000 C 
ATOM     85  C61 UNL A   1      12.672  26.884   0.192  1.00  0.00    +0.000 C 
ATOM     86  C62 UNL A   1      12.331  27.818  -0.887  1.00  0.00    +0.000 C 
ATOM     87  N8  UNL A   1      11.505  28.736  -0.277  1.00  0.00    +0.000 N 
ATOM     88  C63 UNL A   1       9.158  30.711   0.394  1.00  0.00    +0.000 C 
ATOM     89  C64 UNL A   1       9.785  31.646  -0.325  1.00  0.00    +0.000 C 
ATOM     90  C65 UNL A   1      10.838  28.882  -5.053  1.00  0.00    +0.000 C 
ATOM     91  C66 UNL A   1      11.094  27.890  -4.196  1.00  0.00    +0.000 C 
ATOM    123  H30 UNL A   1      13.716  32.791  -4.851  1.00  0.00    +0.000 H 
ATOM    124  H31 UNL A   1      14.472  33.119  -2.323  1.00  0.00    +0.000 H 
ATOM    125  H32 UNL A   1      10.421  32.880  -2.481  1.00  0.00    +0.000 H 
ATOM    126  H33 UNL A   1      11.854  26.542   2.122  1.00  0.00    +0.000 H 
ATOM    127  H34 UNL A   1      13.395  26.149   0.133  1.00  0.00    +0.000 H 
ATOM    128  H35 UNL A   1      11.192  29.566  -0.704  1.00  0.00    +0.000 H 
ENDROOT
BRANCH   35   34
ATOM     33  C27 UNL A   1      12.901  25.471  -3.271  1.00  0.00    +0.000 C 
ATOM     34  C28 UNL A   1      13.473  26.628  -2.717  1.00  0.00    +0.000 C 
ATOM    133  H40 UNL A   1      15.250  27.527  -2.029  1.00  0.00    +0.000 H 
ATOM    134  H41 UNL A   1      16.673  25.924  -3.151  1.00  0.00    +0.000 H 
ATOM    121  H28 UNL A   1      13.325  23.520  -3.967  1.00  0.00    +0.000 H 
ATOM    122  H29 UNL A   1      11.882  25.414  -3.423  1.00  0.00    +0.000 H 
ATOM     92  C67 UNL A   1      14.847  26.729  -2.544  1.00  0.00    +0.000 C 
ATOM     93  C68 UNL A   1      15.658  25.758  -3.060  1.00  0.00    +0.000 C 
ATOM     31  C25 UNL A   1      15.110  24.546  -3.464  1.00  0.00    +0.000 C 
ATOM     32  C26 UNL A   1      13.727  24.401  -3.612  1.00  0.00    +0.000 C 
BRANCH   31   29
ATOM     29  C24 UNL A   1      16.041  23.424  -3.672  1.00  0.00    +0.000 C 
ATOM     30  O2  UNL A   1      17.241  23.564  -3.450  1.00  0.00    +0.000 O 
BRANCH   29   28
ATOM     28  N4  UNL A   1      15.533  22.215  -4.118  1.00  0.00    +0.000 N 
ATOM    120  H27 UNL A   1      15.432  22.106  -5.091  1.00  0.00    +0.000 H 
BRANCH   28   27
ATOM     27  C23 UNL A   1      15.131  21.082  -3.278  1.00  0.00    +0.000 C 
ATOM    118  H25 UNL A   1      14.075  20.943  -3.378  1.00  0.00    +0.000 H 
ATOM    119  H26 UNL A   1      15.681  20.227  -3.612  1.00  0.00    +0.000 H 
BRANCH   27   26
ATOM     26  C22 UNL A   1      15.457  21.284  -1.806  1.00  0.00    +0.000 C 
ATOM    116  H23 UNL A   1      15.875  20.375  -1.429  1.00  0.00    +0.000 H 
ATOM    117  H24 UNL A   1      16.133  22.112  -1.757  1.00  0.00    +0.000 H 
BRANCH   26   25
ATOM     25  C21 UNL A   1      14.253  21.656  -0.929  1.00  0.00    +0.000 C 
ATOM    114  H21 UNL A   1      13.399  21.733  -1.570  1.00  0.00    +0.000 H 
ATOM    115  H22 UNL A   1      14.195  20.882  -0.193  1.00  0.00    +0.000 H 
BRANCH   25   24
ATOM    113  H20 UNL A   1      14.126  22.694   0.883  1.00  0.00    +0.000 H 
ATOM    112  H19 UNL A   1      13.671  23.664  -0.564  1.00  0.00    +0.000 H 
ATOM     24  C20 UNL A   1      14.352  22.963  -0.128  1.00  0.00    +0.000 C 
BRANCH   24   23
ATOM    111  H18 UNL A   1      15.620  24.510   0.518  1.00  0.00    +0.000 H 
ATOM    110  H17 UNL A   1      16.045  23.828  -1.078  1.00  0.00    +0.000 H 
ATOM     23  C19 UNL A   1      15.733  23.626  -0.074  1.00  0.00    +0.000 C 
BRANCH   23   22
ATOM    108  H15 UNL A   1      16.583  22.708   1.642  1.00  0.00    +0.000 H 
ATOM    109  H16 UNL A   1      16.828  21.834   0.122  1.00  0.00    +0.000 H 
ATOM     22  C18 UNL A   1      16.814  22.791   0.600  1.00  0.00    +0.000 C 
BRANCH   22   21
ATOM    107  H14 UNL A   1      18.224  24.345   0.348  1.00  0.00    +0.000 H 
ATOM     21  N3  UNL A   1      18.138  23.370   0.462  1.00  0.00    +0.000 N 
BRANCH   21    2
ATOM      1  O1  UNL A   1      19.369  21.577   1.177  1.00  0.00    +0.000 O 
ATOM      2  C1  UNL A   1      19.278  22.592   0.487  1.00  0.00    +0.000 C 
BRANCH    2    3
ATOM      3  C2  UNL A   1      20.460  23.099  -0.313  1.00  0.00    +0.000 C 
ATOM     94  H1  UNL A   1      20.092  23.466  -1.248  1.00  0.00    +0.000 H 
ATOM     95  H2  UNL A   1      21.128  22.270  -0.413  1.00  0.00    +0.000 H 
BRANCH    3    4
ATOM      4  N1  UNL A   1      21.228  24.161   0.318  1.00  0.00    +0.000 N 
ATOM      5  C3  UNL A   1      22.098  23.951   1.357  1.00  0.00    +0.000 C 
ATOM      6  N2  UNL A   1      22.748  25.044   1.679  1.00  0.00    +0.000 N 
ATOM      7  C4  UNL A   1      22.284  26.003   0.815  1.00  0.00    +0.000 C 
ATOM     14  C11 UNL A   1      21.336  25.487  -0.060  1.00  0.00    +0.000 C 
ATOM     96  H3  UNL A   1      22.226  23.042   1.828  1.00  0.00    +0.000 H 
BRANCH    7    8
ATOM     97  H4  UNL A   1      21.465  28.031   2.338  1.00  0.00    +0.000 H 
ATOM     98  H5  UNL A   1      22.381  30.277   2.441  1.00  0.00    +0.000 H 
ATOM     99  H6  UNL A   1      24.188  30.923   0.957  1.00  0.00    +0.000 H 
ATOM    100  H7  UNL A   1      25.068  29.333  -0.650  1.00  0.00    +0.000 H 
ATOM    101  H8  UNL A   1      24.168  27.083  -0.744  1.00  0.00    +0.000 H 
ATOM      8  C5  UNL A   1      22.764  27.371   0.809  1.00  0.00    +0.000 C 
ATOM      9  C6  UNL A   1      22.239  28.301   1.712  1.00  0.00    +0.000 C 
ATOM     10  C7  UNL A   1      22.762  29.595   1.767  1.00  0.00    +0.000 C 
ATOM     11  C8  UNL A   1      23.798  29.968   0.910  1.00  0.00    +0.000 C 
ATOM     12  C9  UNL A   1      24.308  29.053  -0.009  1.00  0.00    +0.000 C 
ATOM     13  C10 UNL A   1      23.791  27.758  -0.061  1.00  0.00    +0.000 C 
ENDBRANCH    7    8
BRANCH   14   15
ATOM    102  H9  UNL A   1      22.194  25.862  -2.565  1.00  0.00    +0.000 H 
ATOM    103  H10 UNL A   1      21.105  27.084  -4.355  1.00  0.00    +0.000 H 
ATOM    104  H11 UNL A   1      18.897  28.029  -4.017  1.00  0.00    +0.000 H 
ATOM    105  H12 UNL A   1      17.807  27.813  -1.861  1.00  0.00    +0.000 H 
ATOM    106  H13 UNL A   1      18.939  26.681  -0.044  1.00  0.00    +0.000 H 
ATOM     15  C12 UNL A   1      20.637  26.138  -1.166  1.00  0.00    +0.000 C 
ATOM     16  C13 UNL A   1      21.263  26.277  -2.410  1.00  0.00    +0.000 C 
ATOM     17  C14 UNL A   1      20.633  26.977  -3.444  1.00  0.00    +0.000 C 
ATOM     18  C15 UNL A   1      19.369  27.530  -3.247  1.00  0.00    +0.000 C 
ATOM     19  C16 UNL A   1      18.745  27.408  -2.009  1.00  0.00    +0.000 C 
ATOM     20  C17 UNL A   1      19.389  26.737  -0.970  1.00  0.00    +0.000 C 
ENDBRANCH   14   15
ENDBRANCH    3    4
ENDBRANCH    2    3
ENDBRANCH   21    2
ENDBRANCH   22   21
ENDBRANCH   23   22
ENDBRANCH   24   23
ENDBRANCH   25   24
ENDBRANCH   26   25
ENDBRANCH   27   26
ENDBRANCH   28   27
ENDBRANCH   29   28
ENDBRANCH   31   29
ENDBRANCH   35   34
BRANCH   39   40
ATOM     40  C33 UNL A   1       9.541  31.809  -5.083  1.00  0.00    +0.000 C 
ATOM     41  C34 UNL A   1       9.370  32.729  -6.141  1.00  0.00    +0.000 C 
ATOM     42  F1  UNL A   1      10.386  33.018  -6.966  1.00  0.00    +0.000 F 
ATOM     43  C35 UNL A   1       8.184  33.448  -6.315  1.00  0.00    +0.000 C 
ATOM     44  F2  UNL A   1       8.117  34.408  -7.247  1.00  0.00    +0.000 F 
ATOM     45  C36 UNL A   1       7.103  33.231  -5.481  1.00  0.00    +0.000 C 
ATOM     46  F3  UNL A   1       5.989  33.965  -5.602  1.00  0.00    +0.000 F 
ATOM     47  C37 UNL A   1       7.202  32.283  -4.487  1.00  0.00    +0.000 C 
ATOM     48  F4  UNL A   1       6.171  32.071  -3.656  1.00  0.00    +0.000 F 
ATOM     49  C38 UNL A   1       8.400  31.601  -4.278  1.00  0.00    +0.000 C 
ATOM     50  F5  UNL A   1       8.417  30.822  -3.192  1.00  0.00    +0.000 F 
ENDBRANCH   39   40
BRANCH   56   57
ATOM     65  F9  UNL A   1      14.876  34.824   2.863  1.00  0.00    +0.000 F 
ATOM     66  C49 UNL A   1      13.618  33.553   1.320  1.00  0.00    +0.000 C 
ATOM     67  F10 UNL A   1      12.604  34.420   1.462  1.00  0.00    +0.000 F 
ATOM     57  C44 UNL A   1      13.506  32.487   0.416  1.00  0.00    +0.000 C 
ATOM     58  C45 UNL A   1      14.618  31.640   0.275  1.00  0.00    +0.000 C 
ATOM     59  F6  UNL A   1      14.620  30.653  -0.630  1.00  0.00    +0.000 F 
ATOM     60  C46 UNL A   1      15.772  31.831   1.035  1.00  0.00    +0.000 C 
ATOM     61  F7  UNL A   1      16.817  31.000   0.895  1.00  0.00    +0.000 F 
ATOM     62  C47 UNL A   1      15.857  32.898   1.915  1.00  0.00    +0.000 C 
ATOM     63  F8  UNL A   1      16.980  33.107   2.616  1.00  0.00    +0.000 F 
ATOM     64  C48 UNL A   1      14.784  33.764   2.049  1.00  0.00    +0.000 C 
ENDBRANCH   56   57
BRANCH   71   72
ATOM     72  C53 UNL A   1       9.314  28.452   2.810  1.00  0.00    +0.000 C 
ATOM     73  C54 UNL A   1       8.031  28.056   2.395  1.00  0.00    +0.000 C 
ATOM     74  F11 UNL A   1       7.584  28.392   1.176  1.00  0.00    +0.000 F 
ATOM     75  C55 UNL A   1       7.218  27.245   3.194  1.00  0.00    +0.000 C 
ATOM     76  F12 UNL A   1       6.029  26.830   2.736  1.00  0.00    +0.000 F 
ATOM     77  C56 UNL A   1       7.664  26.812   4.432  1.00  0.00    +0.000 C 
ATOM     78  F13 UNL A   1       6.917  25.977   5.168  1.00  0.00    +0.000 F 
ATOM     79  C57 UNL A   1       8.909  27.213   4.884  1.00  0.00    +0.000 C 
ATOM     80  F14 UNL A   1       9.366  26.770   6.064  1.00  0.00    +0.000 F 
ATOM     81  C58 UNL A   1       9.721  28.022   4.087  1.00  0.00    +0.000 C 
ATOM     82  F15 UNL A   1      10.952  28.294   4.541  1.00  0.00    +0.000 F 
ENDBRANCH   71   72
TORSDOF 18
ENDMDL
MODEL 3
REMARK VINA RESULT:      -9.8     40.734     45.956
ROOT
ATOM    129  H36 UNL A   1       8.336   0.459  26.976  1.00  0.00    +0.000 H 
ATOM    130  H37 UNL A   1       5.909   1.314  26.827  1.00  0.00    +0.000 H 
ATOM    131  H38 UNL A   1       4.409  -1.410  21.776  1.00  0.00    +0.000 H 
ATOM    132  H39 UNL A   1       6.846  -0.872  21.116  1.00  0.00    +0.000 H 
ATOM     35  C29 UNL A   1       7.485   1.910  21.491  1.00  0.00    +0.000 C 
ATOM     36  C30 UNL A   1       6.269   1.172  21.919  1.00  0.00    +0.000 C 
ATOM     37  N5  UNL A   1       5.200   1.664  22.453  1.00  0.00    +0.000 N 
ATOM     38  C31 UNL A   1       4.375   0.574  22.721  1.00  0.00    +0.000 C 
ATOM     39  C32 UNL A   1       3.502   0.613  23.765  1.00  0.00    +0.000 C 
ATOM     51  C39 UNL A   1       3.322   1.969  24.224  1.00  0.00    +0.000 C 
ATOM     52  C40 UNL A   1       2.820   3.137  23.689  1.00  0.00    +0.000 C 
ATOM     53  C41 UNL A   1       3.630   4.179  24.235  1.00  0.00    +0.000 C 
ATOM     54  C42 UNL A   1       4.537   3.609  25.129  1.00  0.00    +0.000 C 
ATOM     55  N6  UNL A   1       4.073   2.337  25.311  1.00  0.00    +0.000 N 
ATOM     56  C43 UNL A   1       5.781   4.082  25.696  1.00  0.00    +0.000 C 
ATOM     68  C50 UNL A   1       6.723   3.296  26.297  1.00  0.00    +0.000 C 
ATOM     69  N7  UNL A   1       8.047   3.703  26.340  1.00  0.00    +0.000 N 
ATOM     70  C51 UNL A   1       8.732   2.593  26.341  1.00  0.00    +0.000 C 
ATOM     71  C52 UNL A   1      10.006   2.420  25.605  1.00  0.00    +0.000 C 
ATOM     83  C59 UNL A   1       9.700   2.498  24.286  1.00  0.00    +0.000 C 
ATOM     84  C60 UNL A   1      10.554   2.786  23.157  1.00  0.00    +0.000 C 
ATOM     85  C61 UNL A   1       9.792   2.794  22.046  1.00  0.00    +0.000 C 
ATOM     86  C62 UNL A   1       8.438   2.320  22.360  1.00  0.00    +0.000 C 
ATOM     87  N8  UNL A   1       8.419   2.273  23.737  1.00  0.00    +0.000 N 
ATOM     88  C63 UNL A   1       7.997   1.401  26.723  1.00  0.00    +0.000 C 
ATOM     89  C64 UNL A   1       6.753   1.880  26.651  1.00  0.00    +0.000 C 
ATOM     90  C65 UNL A   1       4.911  -0.529  21.971  1.00  0.00    +0.000 C 
ATOM     91  C66 UNL A   1       6.152  -0.252  21.563  1.00  0.00    +0.000 C 
ATOM    123  H30 UNL A   1       2.030   3.236  23.032  1.00  0.00    +0.000 H 
ATOM    124  H31 UNL A   1       3.556   5.183  24.007  1.00  0.00    +0.000 H 
ATOM    125  H32 UNL A   1       4.251   1.773  26.098  1.00  0.00    +0.000 H 
ATOM    126  H33 UNL A   1      11.571   2.955  23.195  1.00  0.00    +0.000 H 
ATOM    127  H34 UNL A   1      10.113   3.090  21.111  1.00  0.00    +0.000 H 
ATOM    128  H35 UNL A   1       7.610   2.103  24.272  1.00  0.00    +0.000 H 
ENDROOT
BRANCH   35   34
ATOM     33  C27 UNL A   1       8.269   0.859  19.359  1.00  0.00    +0.000 C 
ATOM     34  C28 UNL A   1       7.686   1.936  20.047  1.00  0.00    +0.000 C 
ATOM    133  H40 UNL A   1       7.060   3.943  19.915  1.00  0.00    +0.000 H 
ATOM    134  H41 UNL A   1       7.058   3.942  17.495  1.00  0.00    +0.000 H 
ATOM    121  H28 UNL A   1       9.052   0.244  17.494  1.00  0.00    +0.000 H 
ATOM    122  H29 UNL A   1       8.471  -0.026  19.851  1.00  0.00    +0.000 H 
ATOM     92  C67 UNL A   1       7.376   3.117  19.385  1.00  0.00    +0.000 C 
ATOM     93  C68 UNL A   1       7.497   3.171  18.025  1.00  0.00    +0.000 C 
ATOM     31  C25 UNL A   1       8.213   2.185  17.356  1.00  0.00    +0.000 C 
ATOM     32  C26 UNL A   1       8.572   0.999  18.006  1.00  0.00    +0.000 C 
BRANCH   31   29
ATOM     29  C24 UNL A   1       8.614   2.469  15.968  1.00  0.00    +0.000 C 
ATOM     30  O2  UNL A   1       7.801   2.363  15.053  1.00  0.00    +0.000 O 
BRANCH   29   28
ATOM     28  N4  UNL A   1       9.920   2.860  15.723  1.00  0.00    +0.000 N 
ATOM    120  H27 UNL A   1      10.530   2.177  15.365  1.00  0.00    +0.000 H 
BRANCH   28   27
ATOM     27  C23 UNL A   1      10.480   4.197  15.946  1.00  0.00    +0.000 C 
ATOM    118  H25 UNL A   1      11.216   4.387  15.193  1.00  0.00    +0.000 H 
ATOM    119  H26 UNL A   1       9.670   4.894  15.900  1.00  0.00    +0.000 H 
BRANCH   27   26
ATOM     26  C22 UNL A   1      11.133   4.351  17.312  1.00  0.00    +0.000 C 
ATOM    116  H23 UNL A   1      11.717   5.246  17.302  1.00  0.00    +0.000 H 
ATOM    117  H24 UNL A   1      10.337   4.374  18.027  1.00  0.00    +0.000 H 
BRANCH   26   25
ATOM     25  C21 UNL A   1      12.047   3.187  17.718  1.00  0.00    +0.000 C 
ATOM    114  H21 UNL A   1      11.949   2.424  16.974  1.00  0.00    +0.000 H 
ATOM    115  H22 UNL A   1      13.024   3.615  17.799  1.00  0.00    +0.000 H 
BRANCH   25   24
ATOM    113  H20 UNL A   1      10.737   2.673  19.266  1.00  0.00    +0.000 H 
ATOM    112  H19 UNL A   1      12.420   3.016  19.800  1.00  0.00    +0.000 H 
ATOM     24  C20 UNL A   1      11.783   2.539  19.086  1.00  0.00    +0.000 C 
BRANCH   24   23
ATOM    111  H18 UNL A   1      13.022   0.858  18.840  1.00  0.00    +0.000 H 
ATOM    110  H17 UNL A   1      11.283   0.535  18.585  1.00  0.00    +0.000 H 
ATOM     23  C19 UNL A   1      12.022   1.028  19.182  1.00  0.00    +0.000 C 
BRANCH   23   22
ATOM    108  H15 UNL A   1      12.912   0.084  20.864  1.00  0.00    +0.000 H 
ATOM    109  H16 UNL A   1      11.637   1.253  21.244  1.00  0.00    +0.000 H 
ATOM     22  C18 UNL A   1      11.947   0.462  20.594  1.00  0.00    +0.000 C 
BRANCH   22   21
ATOM    107  H14 UNL A   1      10.368  -0.795  19.964  1.00  0.00    +0.000 H 
ATOM     21  N3  UNL A   1      10.977  -0.612  20.716  1.00  0.00    +0.000 N 
BRANCH   21    2
ATOM      1  O1  UNL A   1      11.790  -2.136  22.219  1.00  0.00    +0.000 O 
ATOM      2  C1  UNL A   1      10.887  -1.383  21.859  1.00  0.00    +0.000 C 
BRANCH    2    3
ATOM      3  C2  UNL A   1       9.572  -1.328  22.608  1.00  0.00    +0.000 C 
ATOM     94  H1  UNL A   1       8.857  -0.833  21.984  1.00  0.00    +0.000 H 
ATOM     95  H2  UNL A   1       9.773  -0.811  23.522  1.00  0.00    +0.000 H 
BRANCH    3    4
ATOM      4  N1  UNL A   1       9.020  -2.619  22.990  1.00  0.00    +0.000 N 
ATOM      5  C3  UNL A   1       8.336  -3.435  22.125  1.00  0.00    +0.000 C 
ATOM      6  N2  UNL A   1       8.034  -4.587  22.675  1.00  0.00    +0.000 N 
ATOM      7  C4  UNL A   1       8.543  -4.519  23.947  1.00  0.00    +0.000 C 
ATOM     14  C11 UNL A   1       9.176  -3.304  24.180  1.00  0.00    +0.000 C 
ATOM     96  H3  UNL A   1       8.089  -3.174  21.158  1.00  0.00    +0.000 H 
BRANCH    7    8
ATOM     97  H4  UNL A   1       7.025  -4.653  26.134  1.00  0.00    +0.000 H 
ATOM     98  H5  UNL A   1       6.751  -6.536  27.640  1.00  0.00    +0.000 H 
ATOM     99  H6  UNL A   1       8.035  -8.566  27.297  1.00  0.00    +0.000 H 
ATOM    100  H7  UNL A   1       9.614  -8.708  25.461  1.00  0.00    +0.000 H 
ATOM    101  H8  UNL A   1       9.878  -6.835  23.944  1.00  0.00    +0.000 H 
ATOM      8  C5  UNL A   1       8.452  -5.606  24.902  1.00  0.00    +0.000 C 
ATOM      9  C6  UNL A   1       7.566  -5.518  25.981  1.00  0.00    +0.000 C 
ATOM     10  C7  UNL A   1       7.413  -6.599  26.852  1.00  0.00    +0.000 C 
ATOM     11  C8  UNL A   1       8.155  -7.765  26.657  1.00  0.00    +0.000 C 
ATOM     12  C9  UNL A   1       9.058  -7.849  25.598  1.00  0.00    +0.000 C 
ATOM     13  C10 UNL A   1       9.207  -6.772  24.725  1.00  0.00    +0.000 C 
ENDBRANCH    7    8
BRANCH   14   15
ATOM    102  H9  UNL A   1      11.728  -3.755  24.844  1.00  0.00    +0.000 H 
ATOM    103  H10 UNL A   1      12.879  -3.127  26.884  1.00  0.00    +0.000 H 
ATOM    104  H11 UNL A   1      11.738  -1.808  28.570  1.00  0.00    +0.000 H 
ATOM    105  H12 UNL A   1       9.419  -1.177  28.246  1.00  0.00    +0.000 H 
ATOM    106  H13 UNL A   1       8.240  -1.893  26.255  1.00  0.00    +0.000 H 
ATOM     15  C12 UNL A   1       9.897  -2.842  25.365  1.00  0.00    +0.000 C 
ATOM     16  C13 UNL A   1      11.232  -3.210  25.566  1.00  0.00    +0.000 C 
ATOM     17  C14 UNL A   1      11.898  -2.843  26.739  1.00  0.00    +0.000 C 
ATOM     18  C15 UNL A   1      11.240  -2.095  27.714  1.00  0.00    +0.000 C 
ATOM     19  C16 UNL A   1       9.908  -1.735  27.528  1.00  0.00    +0.000 C 
ATOM     20  C17 UNL A   1       9.237  -2.130  26.371  1.00  0.00    +0.000 C 
ENDBRANCH   14   15
ENDBRANCH    3    4
ENDBRANCH    2    3
ENDBRANCH   21    2
ENDBRANCH   22   21
ENDBRANCH   23   22
ENDBRANCH   24   23
ENDBRANCH   25   24
ENDBRANCH   26   25
ENDBRANCH   27   26
ENDBRANCH   28   27
ENDBRANCH   29   28
ENDBRANCH   31   29
ENDBRANCH   35   34
BRANCH   39   40
ATOM     40  C33 UNL A   1       3.178  -0.567  24.663  1.00  0.00    +0.000 C 
ATOM     41  C34 UNL A   1       1.823  -0.843  24.955  1.00  0.00    +0.000 C 
ATOM     42  F1  UNL A   1       0.841  -0.271  24.243  1.00  0.00    +0.000 F 
ATOM     43  C35 UNL A   1       1.444  -1.629  26.047  1.00  0.00    +0.000 C 
ATOM     44  F2  UNL A   1       0.148  -1.747  26.364  1.00  0.00    +0.000 F 
ATOM     45  C36 UNL A   1       2.399  -2.222  26.849  1.00  0.00    +0.000 C 
ATOM     46  F3  UNL A   1       2.041  -2.922  27.934  1.00  0.00    +0.000 F 
ATOM     47  C37 UNL A   1       3.732  -2.046  26.549  1.00  0.00    +0.000 C 
ATOM     48  F4  UNL A   1       4.675  -2.598  27.327  1.00  0.00    +0.000 F 
ATOM     49  C38 UNL A   1       4.115  -1.221  25.493  1.00  0.00    +0.000 C 
ATOM     50  F5  UNL A   1       5.431  -1.009  25.399  1.00  0.00    +0.000 F 
ENDBRANCH   39   40
BRANCH   56   57
ATOM     65  F9  UNL A   1       5.372   8.747  26.943  1.00  0.00    +0.000 F 
ATOM     66  C49 UNL A   1       5.682   6.488  26.326  1.00  0.00    +0.000 C 
ATOM     67  F10 UNL A   1       4.997   6.116  27.418  1.00  0.00    +0.000 F 
ATOM     57  C44 UNL A   1       6.145   5.517  25.427  1.00  0.00    +0.000 C 
ATOM     58  C45 UNL A   1       6.815   5.970  24.276  1.00  0.00    +0.000 C 
ATOM     59  F6  UNL A   1       7.210   5.110  23.329  1.00  0.00    +0.000 F 
ATOM     60  C46 UNL A   1       7.042   7.329  24.061  1.00  0.00    +0.000 C 
ATOM     61  F7  UNL A   1       7.697   7.737  22.963  1.00  0.00    +0.000 F 
ATOM     62  C47 UNL A   1       6.564   8.266  24.963  1.00  0.00    +0.000 C 
ATOM     63  F8  UNL A   1       6.747   9.574  24.738  1.00  0.00    +0.000 F 
ATOM     64  C48 UNL A   1       5.876   7.845  26.090  1.00  0.00    +0.000 C 
ENDBRANCH   56   57
BRANCH   71   72
ATOM     72  C53 UNL A   1      11.235   1.913  26.256  1.00  0.00    +0.000 C 
ATOM     73  C54 UNL A   1      11.927   0.806  25.736  1.00  0.00    +0.000 C 
ATOM     74  F11 UNL A   1      11.359   0.041  24.793  1.00  0.00    +0.000 F 
ATOM     75  C55 UNL A   1      13.241   0.515  26.117  1.00  0.00    +0.000 C 
ATOM     76  F12 UNL A   1      13.893  -0.508  25.548  1.00  0.00    +0.000 F 
ATOM     77  C56 UNL A   1      13.897   1.319  27.035  1.00  0.00    +0.000 C 
ATOM     78  F13 UNL A   1      15.179   1.084  27.348  1.00  0.00    +0.000 F 
ATOM     79  C57 UNL A   1      13.231   2.396  27.593  1.00  0.00    +0.000 C 
ATOM     80  F14 UNL A   1      13.869   3.203  28.453  1.00  0.00    +0.000 F 
ATOM     81  C58 UNL A   1      11.920   2.688  27.212  1.00  0.00    +0.000 C 
ATOM     82  F15 UNL A   1      11.367   3.800  27.715  1.00  0.00    +0.000 F 
ENDBRANCH   71   72
TORSDOF 18
ENDMDL
MODEL 4
REMARK VINA RESULT:      -9.7     47.389     52.743
ROOT
ATOM    129  H36 UNL A   1       8.260  30.051   0.116  1.00  0.00    +0.000 H 
ATOM    130  H37 UNL A   1       9.412  31.841  -1.336  1.00  0.00    +0.000 H 
ATOM    131  H38 UNL A   1      10.526  28.442  -6.068  1.00  0.00    +0.000 H 
ATOM    132  H39 UNL A   1      10.950  26.624  -4.284  1.00  0.00    +0.000 H 
ATOM     35  C29 UNL A   1      12.810  27.494  -2.267  1.00  0.00    +0.000 C 
ATOM     36  C30 UNL A   1      12.170  28.292  -3.344  1.00  0.00    +0.000 C 
ATOM     37  N5  UNL A   1      12.410  29.522  -3.657  1.00  0.00    +0.000 N 
ATOM     38  C31 UNL A   1      11.527  29.830  -4.689  1.00  0.00    +0.000 C 
ATOM     39  C32 UNL A   1      11.075  31.104  -4.851  1.00  0.00    +0.000 C 
ATOM     51  C39 UNL A   1      11.897  32.030  -4.109  1.00  0.00    +0.000 C 
ATOM     52  C40 UNL A   1      13.215  32.433  -4.147  1.00  0.00    +0.000 C 
ATOM     53  C41 UNL A   1      13.578  32.660  -2.784  1.00  0.00    +0.000 C 
ATOM     54  C42 UNL A   1      12.451  32.454  -1.988  1.00  0.00    +0.000 C 
ATOM     55  N6  UNL A   1      11.416  32.403  -2.880  1.00  0.00    +0.000 N 
ATOM     56  C43 UNL A   1      12.284  32.202  -0.573  1.00  0.00    +0.000 C 
ATOM     68  C50 UNL A   1      11.156  31.699   0.010  1.00  0.00    +0.000 C 
ATOM     69  N7  UNL A   1      11.237  31.021   1.216  1.00  0.00    +0.000 N 
ATOM     70  C51 UNL A   1      10.253  30.165   1.178  1.00  0.00    +0.000 C 
ATOM     71  C52 UNL A   1      10.350  28.786   1.711  1.00  0.00    +0.000 C 
ATOM     83  C59 UNL A   1      11.248  28.136   0.929  1.00  0.00    +0.000 C 
ATOM     84  C60 UNL A   1      12.010  26.939   1.199  1.00  0.00    +0.000 C 
ATOM     85  C61 UNL A   1      12.802  26.697   0.137  1.00  0.00    +0.000 C 
ATOM     86  C62 UNL A   1      12.460  27.607  -0.964  1.00  0.00    +0.000 C 
ATOM     87  N8  UNL A   1      11.605  28.517  -0.383  1.00  0.00    +0.000 N 
ATOM     88  C63 UNL A   1       9.206  30.452   0.215  1.00  0.00    +0.000 C 
ATOM     89  C64 UNL A   1       9.826  31.388  -0.507  1.00  0.00    +0.000 C 
ATOM     90  C65 UNL A   1      11.020  28.573  -5.172  1.00  0.00    +0.000 C 
ATOM     91  C66 UNL A   1      11.282  27.601  -4.294  1.00  0.00    +0.000 C 
ATOM    123  H30 UNL A   1      13.812  32.546  -4.981  1.00  0.00    +0.000 H 
ATOM    124  H31 UNL A   1      14.516  32.929  -2.446  1.00  0.00    +0.000 H 
ATOM    125  H32 UNL A   1      10.475  32.602  -2.672  1.00  0.00    +0.000 H 
ATOM    126  H33 UNL A   1      11.957  26.369   2.057  1.00  0.00    +0.000 H 
ATOM    127  H34 UNL A   1      13.541  25.977   0.102  1.00  0.00    +0.000 H 
ATOM    128  H35 UNL A   1      11.282  29.333  -0.828  1.00  0.00    +0.000 H 
ENDROOT
BRANCH   35   34
ATOM     33  C27 UNL A   1      13.122  25.235  -3.297  1.00  0.00    +0.000 C 
ATOM     34  C28 UNL A   1      13.660  26.413  -2.753  1.00  0.00    +0.000 C 
ATOM    133  H40 UNL A   1      15.405  27.361  -2.052  1.00  0.00    +0.000 H 
ATOM    134  H41 UNL A   1      16.881  25.771  -3.123  1.00  0.00    +0.000 H 
ATOM    121  H28 UNL A   1      13.600  23.282  -3.954  1.00  0.00    +0.000 H 
ATOM    122  H29 UNL A   1      12.108  25.153  -3.465  1.00  0.00    +0.000 H 
ATOM     92  C67 UNL A   1      15.028  26.546  -2.559  1.00  0.00    +0.000 C 
ATOM     93  C68 UNL A   1      15.868  25.585  -3.046  1.00  0.00    +0.000 C 
ATOM     31  C25 UNL A   1      15.354  24.354  -3.439  1.00  0.00    +0.000 C 
ATOM     32  C26 UNL A   1      13.976  24.177  -3.607  1.00  0.00    +0.000 C 
BRANCH   31   29
ATOM     29  C24 UNL A   1      16.312  23.249  -3.613  1.00  0.00    +0.000 C 
ATOM     30  O2  UNL A   1      17.498  23.408  -3.336  1.00  0.00    +0.000 O 
BRANCH   29   28
ATOM     28  N4  UNL A   1      15.844  22.036  -4.089  1.00  0.00    +0.000 N 
ATOM    120  H27 UNL A   1      15.588  21.999  -5.038  1.00  0.00    +0.000 H 
BRANCH   28   27
ATOM     27  C23 UNL A   1      15.695  20.800  -3.313  1.00  0.00    +0.000 C 
ATOM    118  H25 UNL A   1      15.905  19.970  -3.954  1.00  0.00    +0.000 H 
ATOM    119  H26 UNL A   1      16.378  20.855  -2.491  1.00  0.00    +0.000 H 
BRANCH   27   26
ATOM     26  C22 UNL A   1      14.300  20.624  -2.733  1.00  0.00    +0.000 C 
ATOM    116  H23 UNL A   1      14.260  19.674  -2.244  1.00  0.00    +0.000 H 
ATOM    117  H24 UNL A   1      14.143  21.447  -2.067  1.00  0.00    +0.000 H 
BRANCH   26   25
ATOM     25  C21 UNL A   1      13.166  20.680  -3.765  1.00  0.00    +0.000 C 
ATOM    114  H21 UNL A   1      13.235  21.620  -4.271  1.00  0.00    +0.000 H 
ATOM    115  H22 UNL A   1      13.313  19.822  -4.387  1.00  0.00    +0.000 H 
BRANCH   25   24
ATOM    113  H20 UNL A   1      11.558  19.492  -3.146  1.00  0.00    +0.000 H 
ATOM    112  H19 UNL A   1      11.081  21.047  -3.917  1.00  0.00    +0.000 H 
ATOM     24  C20 UNL A   1      11.732  20.544  -3.231  1.00  0.00    +0.000 C 
BRANCH   24   23
ATOM    111  H18 UNL A   1      10.893  22.006  -1.975  1.00  0.00    +0.000 H 
ATOM    110  H17 UNL A   1      12.412  21.291  -1.362  1.00  0.00    +0.000 H 
ATOM     23  C19 UNL A   1      11.467  21.114  -1.834  1.00  0.00    +0.000 C 
BRANCH   23   22
ATOM    108  H15 UNL A   1      11.134  19.263  -0.848  1.00  0.00    +0.000 H 
ATOM    109  H16 UNL A   1      10.568  20.694   0.028  1.00  0.00    +0.000 H 
ATOM     22  C18 UNL A   1      10.644  20.211  -0.924  1.00  0.00    +0.000 C 
BRANCH   22   21
ATOM    107  H14 UNL A   1       9.074  19.143  -1.854  1.00  0.00    +0.000 H 
ATOM     21  N3  UNL A   1       9.295  19.998  -1.417  1.00  0.00    +0.000 N 
BRANCH   21    2
ATOM      1  O1  UNL A   1       8.059  21.505  -0.215  1.00  0.00    +0.000 O 
ATOM      2  C1  UNL A   1       8.314  20.962  -1.289  1.00  0.00    +0.000 C 
BRANCH    2    3
ATOM      3  C2  UNL A   1       7.494  21.259  -2.526  1.00  0.00    +0.000 C 
ATOM     94  H1  UNL A   1       6.839  22.075  -2.301  1.00  0.00    +0.000 H 
ATOM     95  H2  UNL A   1       6.979  20.352  -2.766  1.00  0.00    +0.000 H 
BRANCH    3    4
ATOM      4  N1  UNL A   1       8.261  21.611  -3.711  1.00  0.00    +0.000 N 
ATOM      5  C3  UNL A   1       8.425  20.772  -4.784  1.00  0.00    +0.000 C 
ATOM      6  N2  UNL A   1       9.064  21.356  -5.768  1.00  0.00    +0.000 N 
ATOM      7  C4  UNL A   1       9.326  22.626  -5.321  1.00  0.00    +0.000 C 
ATOM     14  C11 UNL A   1       8.831  22.827  -4.038  1.00  0.00    +0.000 C 
ATOM     96  H3  UNL A   1       8.085  19.798  -4.812  1.00  0.00    +0.000 H 
BRANCH    7    8
ATOM     97  H4  UNL A   1       8.233  24.565  -6.787  1.00  0.00    +0.000 H 
ATOM     98  H5  UNL A   1       9.370  26.342  -7.987  1.00  0.00    +0.000 H 
ATOM     99  H6  UNL A   1      11.795  26.419  -8.035  1.00  0.00    +0.000 H 
ATOM    100  H7  UNL A   1      13.087  24.706  -6.903  1.00  0.00    +0.000 H 
ATOM    101  H8  UNL A   1      11.955  22.940  -5.688  1.00  0.00    +0.000 H 
ATOM      8  C5  UNL A   1      10.004  23.629  -6.118  1.00  0.00    +0.000 C 
ATOM      9  C6  UNL A   1       9.263  24.601  -6.799  1.00  0.00    +0.000 C 
ATOM     10  C7  UNL A   1       9.918  25.620  -7.495  1.00  0.00    +0.000 C 
ATOM     11  C8  UNL A   1      11.313  25.661  -7.527  1.00  0.00    +0.000 C 
ATOM     12  C9  UNL A   1      12.055  24.681  -6.871  1.00  0.00    +0.000 C 
ATOM     13  C10 UNL A   1      11.403  23.666  -6.170  1.00  0.00    +0.000 C 
ENDBRANCH    7    8
BRANCH   14   15
ATOM    102  H9  UNL A   1       7.281  24.995  -4.274  1.00  0.00    +0.000 H 
ATOM    103  H10 UNL A   1       7.399  27.066  -3.017  1.00  0.00    +0.000 H 
ATOM    104  H11 UNL A   1       8.987  27.297  -1.199  1.00  0.00    +0.000 H 
ATOM    105  H12 UNL A   1      10.509  25.480  -0.683  1.00  0.00    +0.000 H 
ATOM    106  H13 UNL A   1      10.459  23.452  -2.006  1.00  0.00    +0.000 H 
ATOM     15  C12 UNL A   1       8.837  24.036  -3.217  1.00  0.00    +0.000 C 
ATOM     16  C13 UNL A   1       7.970  25.095  -3.513  1.00  0.00    +0.000 C 
ATOM     17  C14 UNL A   1       8.035  26.287  -2.786  1.00  0.00    +0.000 C 
ATOM     18  C15 UNL A   1       8.955  26.425  -1.748  1.00  0.00    +0.000 C 
ATOM     19  C16 UNL A   1       9.829  25.383  -1.454  1.00  0.00    +0.000 C 
ATOM     20  C17 UNL A   1       9.784  24.207  -2.203  1.00  0.00    +0.000 C 
ENDBRANCH   14   15
ENDBRANCH    3    4
ENDBRANCH    2    3
ENDBRANCH   21    2
ENDBRANCH   22   21
ENDBRANCH   23   22
ENDBRANCH   24   23
ENDBRANCH   25   24
ENDBRANCH   26   25
ENDBRANCH   27   26
ENDBRANCH   28   27
ENDBRANCH   29   28
ENDBRANCH   31   29
ENDBRANCH   35   34
BRANCH   39   40
ATOM     40  C33 UNL A   1       9.664  31.472  -5.271  1.00  0.00    +0.000 C 
ATOM     41  C34 UNL A   1       9.492  32.385  -6.335  1.00  0.00    +0.000 C 
ATOM     42  F1  UNL A   1      10.519  32.698  -7.139  1.00  0.00    +0.000 F 
ATOM     43  C35 UNL A   1       8.292  33.074  -6.536  1.00  0.00    +0.000 C 
ATOM     44  F2  UNL A   1       8.222  34.030  -7.472  1.00  0.00    +0.000 F 
ATOM     45  C36 UNL A   1       7.200  32.832  -5.725  1.00  0.00    +0.000 C 
ATOM     46  F3  UNL A   1       6.071  33.537  -5.872  1.00  0.00    +0.000 F 
ATOM     47  C37 UNL A   1       7.301  31.889  -4.727  1.00  0.00    +0.000 C 
ATOM     48  F4  UNL A   1       6.258  31.653  -3.917  1.00  0.00    +0.000 F 
ATOM     49  C38 UNL A   1       8.511  31.237  -4.490  1.00  0.00    +0.000 C 
ATOM     50  F5  UNL A   1       8.524  30.462  -3.402  1.00  0.00    +0.000 F 
ENDBRANCH   39   40
BRANCH   56   57
ATOM     65  F9  UNL A   1      14.800  34.732   2.706  1.00  0.00    +0.000 F 
ATOM     66  C49 UNL A   1      13.592  33.406   1.168  1.00  0.00    +0.000 C 
ATOM     67  F10 UNL A   1      12.561  34.259   1.273  1.00  0.00    +0.000 F 
ATOM     57  C44 UNL A   1      13.514  32.320   0.285  1.00  0.00    +0.000 C 
ATOM     58  C45 UNL A   1      14.644  31.489   0.183  1.00  0.00    +0.000 C 
ATOM     59  F6  UNL A   1      14.678  30.483  -0.701  1.00  0.00    +0.000 F 
ATOM     60  C46 UNL A   1      15.780  31.716   0.959  1.00  0.00    +0.000 C 
ATOM     61  F7  UNL A   1      16.840  30.900   0.856  1.00  0.00    +0.000 F 
ATOM     62  C47 UNL A   1      15.831  32.804   1.816  1.00  0.00    +0.000 C 
ATOM     63  F8  UNL A   1      16.936  33.046   2.533  1.00  0.00    +0.000 F 
ATOM     64  C48 UNL A   1      14.740  33.653   1.912  1.00  0.00    +0.000 C 
ENDBRANCH   56   57
BRANCH   71   72
ATOM     72  C53 UNL A   1       9.366  28.234   2.669  1.00  0.00    +0.000 C 
ATOM     73  C54 UNL A   1       8.136  27.717   2.227  1.00  0.00    +0.000 C 
ATOM     74  F11 UNL A   1       7.729  27.935   0.967  1.00  0.00    +0.000 F 
ATOM     75  C55 UNL A   1       7.345  26.902   3.044  1.00  0.00    +0.000 C 
ATOM     76  F12 UNL A   1       6.213  26.370   2.563  1.00  0.00    +0.000 F 
ATOM     77  C56 UNL A   1       7.758  26.589   4.328  1.00  0.00    +0.000 C 
ATOM     78  F13 UNL A   1       7.037  25.752   5.087  1.00  0.00    +0.000 F 
ATOM     79  C57 UNL A   1       8.947  27.111   4.806  1.00  0.00    +0.000 C 
ATOM     80  F14 UNL A   1       9.375  26.784   6.034  1.00  0.00    +0.000 F 
ATOM     81  C58 UNL A   1       9.738  27.923   3.991  1.00  0.00    +0.000 C 
ATOM     82  F15 UNL A   1      10.922  28.316   4.479  1.00  0.00    +0.000 F 
ENDBRANCH   71   72
TORSDOF 18
ENDMDL
MODEL 5
REMARK VINA RESULT:      -9.6     43.427     49.294
ROOT
ATOM    129  H36 UNL A   1      25.788  20.184   3.341  1.00  0.00    +0.000 H 
ATOM    130  H37 UNL A   1      24.232  20.318   5.391  1.00  0.00    +0.000 H 
ATOM    131  H38 UNL A   1      25.966  15.303   8.043  1.00  0.00    +0.000 H 
ATOM    132  H39 UNL A   1      26.138  14.436   5.618  1.00  0.00    +0.000 H 
ATOM     35  C29 UNL A   1      23.718  14.891   4.127  1.00  0.00    +0.000 C 
ATOM     36  C30 UNL A   1      24.086  15.397   5.474  1.00  0.00    +0.000 C 
ATOM     37  N5  UNL A   1      23.339  16.059   6.295  1.00  0.00    +0.000 N 
ATOM     38  C31 UNL A   1      24.146  16.349   7.391  1.00  0.00    +0.000 C 
ATOM     39  C32 UNL A   1      23.929  17.474   8.127  1.00  0.00    +0.000 C 
ATOM     51  C39 UNL A   1      22.622  18.018   7.844  1.00  0.00    +0.000 C 
ATOM     52  C40 UNL A   1      21.319  17.596   8.003  1.00  0.00    +0.000 C 
ATOM     53  C41 UNL A   1      20.616  18.114   6.872  1.00  0.00    +0.000 C 
ATOM     54  C42 UNL A   1      21.503  18.884   6.117  1.00  0.00    +0.000 C 
ATOM     55  N6  UNL A   1      22.586  19.044   6.935  1.00  0.00    +0.000 N 
ATOM     56  C43 UNL A   1      21.474  19.350   4.748  1.00  0.00    +0.000 C 
ATOM     68  C50 UNL A   1      22.552  19.814   4.050  1.00  0.00    +0.000 C 
ATOM     69  N7  UNL A   1      22.569  19.748   2.666  1.00  0.00    +0.000 N 
ATOM     70  C51 UNL A   1      23.831  19.624   2.358  1.00  0.00    +0.000 C 
ATOM     71  C52 UNL A   1      24.321  18.759   1.261  1.00  0.00    +0.000 C 
ATOM     83  C59 UNL A   1      24.050  17.482   1.628  1.00  0.00    +0.000 C 
ATOM     84  C60 UNL A   1      23.944  16.291   0.818  1.00  0.00    +0.000 C 
ATOM     85  C61 UNL A   1      23.619  15.262   1.624  1.00  0.00    +0.000 C 
ATOM     86  C62 UNL A   1      23.685  15.683   3.029  1.00  0.00    +0.000 C 
ATOM     87  N8  UNL A   1      23.834  17.050   2.956  1.00  0.00    +0.000 N 
ATOM     88  C63 UNL A   1      24.772  20.014   3.392  1.00  0.00    +0.000 C 
ATOM     89  C64 UNL A   1      23.935  20.090   4.430  1.00  0.00    +0.000 C 
ATOM     90  C65 UNL A   1      25.297  15.494   7.281  1.00  0.00    +0.000 C 
ATOM     91  C66 UNL A   1      25.376  14.981   6.050  1.00  0.00    +0.000 C 
ATOM    123  H30 UNL A   1      20.934  17.026   8.773  1.00  0.00    +0.000 H 
ATOM    124  H31 UNL A   1      19.622  17.946   6.651  1.00  0.00    +0.000 H 
ATOM    125  H32 UNL A   1      23.238  19.780   6.879  1.00  0.00    +0.000 H 
ATOM    126  H33 UNL A   1      24.093  16.238  -0.202  1.00  0.00    +0.000 H 
ATOM    127  H34 UNL A   1      23.360  14.316   1.300  1.00  0.00    +0.000 H 
ATOM    128  H35 UNL A   1      23.794  17.653   3.733  1.00  0.00    +0.000 H 
ENDROOT
BRANCH   35   34
ATOM     33  C27 UNL A   1      23.104  12.660   5.080  1.00  0.00    +0.000 C 
ATOM     34  C28 UNL A   1      23.639  13.437   4.040  1.00  0.00    +0.000 C 
ATOM    133  H40 UNL A   1      24.712  13.407   2.227  1.00  0.00    +0.000 H 
ATOM    134  H41 UNL A   1      24.329  11.047   1.863  1.00  0.00    +0.000 H 
ATOM    121  H28 UNL A   1      22.857  10.680   5.782  1.00  0.00    +0.000 H 
ATOM    122  H29 UNL A   1      22.651  13.112   5.889  1.00  0.00    +0.000 H 
ATOM     92  C67 UNL A   1      24.216  12.837   2.929  1.00  0.00    +0.000 C 
ATOM     93  C68 UNL A   1      24.120  11.482   2.776  1.00  0.00    +0.000 C 
ATOM     31  C25 UNL A   1      23.741  10.692   3.856  1.00  0.00    +0.000 C 
ATOM     32  C26 UNL A   1      23.191  11.270   5.005  1.00  0.00    +0.000 C 
BRANCH   31   29
ATOM     29  C24 UNL A   1      23.994   9.245   3.752  1.00  0.00    +0.000 C 
ATOM     30  O2  UNL A   1      25.031   8.832   3.238  1.00  0.00    +0.000 O 
BRANCH   29   28
ATOM     28  N4  UNL A   1      23.043   8.369   4.247  1.00  0.00    +0.000 N 
ATOM    120  H27 UNL A   1      22.184   8.327   3.769  1.00  0.00    +0.000 H 
BRANCH   28   27
ATOM     27  C23 UNL A   1      23.194   7.498   5.417  1.00  0.00    +0.000 C 
ATOM    118  H25 UNL A   1      22.791   6.536   5.178  1.00  0.00    +0.000 H 
ATOM    119  H26 UNL A   1      24.238   7.449   5.646  1.00  0.00    +0.000 H 
BRANCH   27   26
ATOM     26  C22 UNL A   1      22.482   8.028   6.653  1.00  0.00    +0.000 C 
ATOM    116  H23 UNL A   1      21.797   8.787   6.343  1.00  0.00    +0.000 H 
ATOM    117  H24 UNL A   1      22.001   7.187   7.108  1.00  0.00    +0.000 H 
BRANCH   26   25
ATOM     25  C21 UNL A   1      23.410   8.626   7.719  1.00  0.00    +0.000 C 
ATOM    114  H21 UNL A   1      24.416   8.384   7.444  1.00  0.00    +0.000 H 
ATOM    115  H22 UNL A   1      23.185   9.671   7.729  1.00  0.00    +0.000 H 
BRANCH   25   24
ATOM    113  H20 UNL A   1      23.008   9.049   9.728  1.00  0.00    +0.000 H 
ATOM    112  H19 UNL A   1      24.078   7.625   9.467  1.00  0.00    +0.000 H 
ATOM     24  C20 UNL A   1      23.200   8.159   9.167  1.00  0.00    +0.000 C 
BRANCH   24   23
ATOM    111  H18 UNL A   1      22.287   6.562  10.185  1.00  0.00    +0.000 H 
ATOM    110  H17 UNL A   1      21.735   6.771   8.499  1.00  0.00    +0.000 H 
ATOM     23  C19 UNL A   1      21.992   7.250   9.421  1.00  0.00    +0.000 C 
BRANCH   23   22
ATOM    108  H15 UNL A   1      21.021   8.516  10.823  1.00  0.00    +0.000 H 
ATOM    109  H16 UNL A   1      20.405   8.616   9.166  1.00  0.00    +0.000 H 
ATOM     22  C18 UNL A   1      20.754   7.969   9.943  1.00  0.00    +0.000 C 
BRANCH   22   21
ATOM    107  H14 UNL A   1      19.038   6.792   9.568  1.00  0.00    +0.000 H 
ATOM     21  N3  UNL A   1      19.674   7.056  10.273  1.00  0.00    +0.000 N 
BRANCH   21    2
ATOM      1  O1  UNL A   1      18.894   7.148  12.424  1.00  0.00    +0.000 O 
ATOM      2  C1  UNL A   1      19.515   6.548  11.548  1.00  0.00    +0.000 C 
BRANCH    2    3
ATOM      3  C2  UNL A   1      20.227   5.246  11.849  1.00  0.00    +0.000 C 
ATOM     94  H1  UNL A   1      20.394   5.198  12.905  1.00  0.00    +0.000 H 
ATOM     95  H2  UNL A   1      21.129   5.262  11.274  1.00  0.00    +0.000 H 
BRANCH    3    4
ATOM      4  N1  UNL A   1      19.516   4.042  11.449  1.00  0.00    +0.000 N 
ATOM      5  C3  UNL A   1      18.496   3.487  12.180  1.00  0.00    +0.000 C 
ATOM      6  N2  UNL A   1      17.946   2.472  11.559  1.00  0.00    +0.000 N 
ATOM      7  C4  UNL A   1      18.632   2.362  10.377  1.00  0.00    +0.000 C 
ATOM     14  C11 UNL A   1      19.619   3.334  10.266  1.00  0.00    +0.000 C 
ATOM     96  H3  UNL A   1      18.199   3.829  13.107  1.00  0.00    +0.000 H 
BRANCH    7    8
ATOM     97  H4  UNL A   1      19.366  -0.200  10.322  1.00  0.00    +0.000 H 
ATOM     98  H5  UNL A   1      18.716  -1.899   8.715  1.00  0.00    +0.000 H 
ATOM     99  H6  UNL A   1      17.323  -1.309   6.818  1.00  0.00    +0.000 H 
ATOM    100  H7  UNL A   1      16.597   0.986   6.510  1.00  0.00    +0.000 H 
ATOM    101  H8  UNL A   1      17.230   2.682   8.123  1.00  0.00    +0.000 H 
ATOM      8  C5  UNL A   1      18.325   1.369   9.365  1.00  0.00    +0.000 C 
ATOM      9  C6  UNL A   1      18.767   0.051   9.521  1.00  0.00    +0.000 C 
ATOM     10  C7  UNL A   1      18.398  -0.925   8.592  1.00  0.00    +0.000 C 
ATOM     11  C8  UNL A   1      17.601  -0.585   7.499  1.00  0.00    +0.000 C 
ATOM     12  C9  UNL A   1      17.178   0.732   7.325  1.00  0.00    +0.000 C 
ATOM     13  C10 UNL A   1      17.541   1.707   8.255  1.00  0.00    +0.000 C 
ENDBRANCH    7    8
BRANCH   14   15
ATOM    102  H9  UNL A   1      22.213   2.711  10.065  1.00  0.00    +0.000 H 
ATOM    103  H10 UNL A   1      23.766   3.315   8.302  1.00  0.00    +0.000 H 
ATOM    104  H11 UNL A   1      22.983   4.522   6.350  1.00  0.00    +0.000 H 
ATOM    105  H12 UNL A   1      20.657   5.190   6.194  1.00  0.00    +0.000 H 
ATOM    106  H13 UNL A   1      19.129   4.676   8.001  1.00  0.00    +0.000 H 
ATOM     15  C12 UNL A   1      20.531   3.612   9.159  1.00  0.00    +0.000 C 
ATOM     16  C13 UNL A   1      21.878   3.241   9.245  1.00  0.00    +0.000 C 
ATOM     17  C14 UNL A   1      22.773   3.584   8.227  1.00  0.00    +0.000 C 
ATOM     18  C15 UNL A   1      22.326   4.287   7.110  1.00  0.00    +0.000 C 
ATOM     19  C16 UNL A   1      20.992   4.672   7.022  1.00  0.00    +0.000 C 
ATOM     20  C17 UNL A   1      20.109   4.356   8.054  1.00  0.00    +0.000 C 
ENDBRANCH   14   15
ENDBRANCH    3    4
ENDBRANCH    2    3
ENDBRANCH   21    2
ENDBRANCH   22   21
ENDBRANCH   23   22
ENDBRANCH   24   23
ENDBRANCH   25   24
ENDBRANCH   26   25
ENDBRANCH   27   26
ENDBRANCH   28   27
ENDBRANCH   29   28
ENDBRANCH   31   29
ENDBRANCH   35   34
BRANCH   39   40
ATOM     40  C33 UNL A   1      25.024  18.337   8.728  1.00  0.00    +0.000 C 
ATOM     41  C34 UNL A   1      26.057  18.802   7.884  1.00  0.00    +0.000 C 
ATOM     42  F1  UNL A   1      25.934  18.732   6.551  1.00  0.00    +0.000 F 
ATOM     43  C35 UNL A   1      27.280  19.252   8.389  1.00  0.00    +0.000 C 
ATOM     44  F2  UNL A   1      28.278  19.552   7.546  1.00  0.00    +0.000 F 
ATOM     45  C36 UNL A   1      27.496  19.319   9.752  1.00  0.00    +0.000 C 
ATOM     46  F3  UNL A   1      28.688  19.687  10.238  1.00  0.00    +0.000 F 
ATOM     47  C37 UNL A   1      26.483  18.952  10.610  1.00  0.00    +0.000 C 
ATOM     48  F4  UNL A   1      26.679  18.991  11.937  1.00  0.00    +0.000 F 
ATOM     49  C38 UNL A   1      25.280  18.453  10.112  1.00  0.00    +0.000 C 
ATOM     50  F5  UNL A   1      24.439  17.991  11.041  1.00  0.00    +0.000 F 
ENDBRANCH   39   40
BRANCH   56   57
ATOM     65  F9  UNL A   1      17.084  20.954   3.468  1.00  0.00    +0.000 F 
ATOM     66  C49 UNL A   1      19.243  20.146   3.985  1.00  0.00    +0.000 C 
ATOM     67  F10 UNL A   1      19.508  21.308   4.601  1.00  0.00    +0.000 F 
ATOM     57  C44 UNL A   1      20.199  19.121   3.982  1.00  0.00    +0.000 C 
ATOM     58  C45 UNL A   1      19.845  17.909   3.363  1.00  0.00    +0.000 C 
ATOM     59  F6  UNL A   1      20.671  16.856   3.394  1.00  0.00    +0.000 F 
ATOM     60  C46 UNL A   1      18.606  17.751   2.742  1.00  0.00    +0.000 C 
ATOM     61  F7  UNL A   1      18.296  16.591   2.143  1.00  0.00    +0.000 F 
ATOM     62  C47 UNL A   1      17.678  18.779   2.769  1.00  0.00    +0.000 C 
ATOM     63  F8  UNL A   1      16.472  18.615   2.208  1.00  0.00    +0.000 F 
ATOM     64  C48 UNL A   1      17.993  19.972   3.399  1.00  0.00    +0.000 C 
ENDBRANCH   56   57
BRANCH   71   72
ATOM     72  C53 UNL A   1      25.225  19.260   0.200  1.00  0.00    +0.000 C 
ATOM     73  C54 UNL A   1      26.612  19.342   0.410  1.00  0.00    +0.000 C 
ATOM     74  F11 UNL A   1      27.114  19.205   1.646  1.00  0.00    +0.000 F 
ATOM     75  C55 UNL A   1      27.509  19.487  -0.654  1.00  0.00    +0.000 C 
ATOM     76  F12 UNL A   1      28.829  19.492  -0.421  1.00  0.00    +0.000 F 
ATOM     77  C56 UNL A   1      27.043  19.560  -1.956  1.00  0.00    +0.000 C 
ATOM     78  F13 UNL A   1      27.904  19.628  -2.981  1.00  0.00    +0.000 F 
ATOM     79  C57 UNL A   1      25.681  19.518  -2.193  1.00  0.00    +0.000 C 
ATOM     80  F14 UNL A   1      25.221  19.550  -3.452  1.00  0.00    +0.000 F 
ATOM     81  C58 UNL A   1      24.785  19.372  -1.133  1.00  0.00    +0.000 C 
ATOM     82  F15 UNL A   1      23.487  19.239  -1.439  1.00  0.00    +0.000 F 
ENDBRANCH   71   72
TORSDOF 18
ENDMDL
MODEL 6
REMARK VINA RESULT:      -9.6     28.446     35.225
ROOT
ATOM    129  H36 UNL A   1       3.950  13.252  37.733  1.00  0.00    +0.000 H 
ATOM    130  H37 UNL A   1       3.163  11.327  36.210  1.00  0.00    +0.000 H 
ATOM    131  H38 UNL A   1      -2.077  10.341  38.808  1.00  0.00    +0.000 H 
ATOM    132  H39 UNL A   1      -0.768  10.881  40.966  1.00  0.00    +0.000 H 
ATOM     35  C29 UNL A   1       1.635   9.312  41.202  1.00  0.00    +0.000 C 
ATOM     36  C30 UNL A   1       0.717   9.434  40.040  1.00  0.00    +0.000 C 
ATOM     37  N5  UNL A   1       0.758   8.768  38.934  1.00  0.00    +0.000 N 
ATOM     38  C31 UNL A   1      -0.272   9.276  38.147  1.00  0.00    +0.000 C 
ATOM     39  C32 UNL A   1      -0.168   9.270  36.789  1.00  0.00    +0.000 C 
ATOM     51  C39 UNL A   1       0.887   8.380  36.367  1.00  0.00    +0.000 C 
ATOM     52  C40 UNL A   1       1.129   7.024  36.447  1.00  0.00    +0.000 C 
ATOM     53  C41 UNL A   1       2.541   6.905  36.627  1.00  0.00    +0.000 C 
ATOM     54  C42 UNL A   1       3.101   8.182  36.577  1.00  0.00    +0.000 C 
ATOM     55  N6  UNL A   1       2.094   8.970  36.094  1.00  0.00    +0.000 N 
ATOM     56  C43 UNL A   1       4.371   8.712  37.023  1.00  0.00    +0.000 C 
ATOM     68  C50 UNL A   1       4.652  10.036  37.205  1.00  0.00    +0.000 C 
ATOM     69  N7  UNL A   1       5.649  10.423  38.087  1.00  0.00    +0.000 N 
ATOM     70  C51 UNL A   1       5.265  11.592  38.524  1.00  0.00    +0.000 C 
ATOM     71  C52 UNL A   1       5.442  12.036  39.926  1.00  0.00    +0.000 C 
ATOM     83  C59 UNL A   1       4.650  11.239  40.684  1.00  0.00    +0.000 C 
ATOM     84  C60 UNL A   1       4.710  10.955  42.099  1.00  0.00    +0.000 C 
ATOM     85  C61 UNL A   1       3.737  10.071  42.392  1.00  0.00    +0.000 C 
ATOM     86  C62 UNL A   1       2.865   9.877  41.227  1.00  0.00    +0.000 C 
ATOM     87  N8  UNL A   1       3.535  10.513  40.206  1.00  0.00    +0.000 N 
ATOM     88  C63 UNL A   1       4.273  12.272  37.712  1.00  0.00    +0.000 C 
ATOM     89  C64 UNL A   1       3.899  11.257  36.929  1.00  0.00    +0.000 C 
ATOM     90  C65 UNL A   1      -1.119  10.030  39.031  1.00  0.00    +0.000 C 
ATOM     91  C66 UNL A   1      -0.487  10.271  40.183  1.00  0.00    +0.000 C 
ATOM    123  H30 UNL A   1       0.437   6.260  36.391  1.00  0.00    +0.000 H 
ATOM    124  H31 UNL A   1       3.058   6.023  36.771  1.00  0.00    +0.000 H 
ATOM    125  H32 UNL A   1       2.217   9.827  35.624  1.00  0.00    +0.000 H 
ATOM    126  H33 UNL A   1       5.382  11.360  42.769  1.00  0.00    +0.000 H 
ATOM    127  H34 UNL A   1       3.622   9.598  43.303  1.00  0.00    +0.000 H 
ATOM    128  H35 UNL A   1       3.271  10.469  39.259  1.00  0.00    +0.000 H 
ENDROOT
BRANCH   35   34
ATOM     33  C27 UNL A   1      -0.136   9.326  42.971  1.00  0.00    +0.000 C 
ATOM     34  C28 UNL A   1       1.011   8.753  42.396  1.00  0.00    +0.000 C 
ATOM    133  H40 UNL A   1       2.563   7.352  42.649  1.00  0.00    +0.000 H 
ATOM    134  H41 UNL A   1       1.417   6.176  44.425  1.00  0.00    +0.000 H 
ATOM    121  H28 UNL A   1      -1.404   9.281  44.662  1.00  0.00    +0.000 H 
ATOM    122  H29 UNL A   1      -0.628  10.097  42.495  1.00  0.00    +0.000 H 
ATOM     92  C67 UNL A   1       1.658   7.690  43.010  1.00  0.00    +0.000 C 
ATOM     93  C68 UNL A   1       1.084   7.098  44.100  1.00  0.00    +0.000 C 
ATOM     31  C25 UNL A   1       0.049   7.742  44.768  1.00  0.00    +0.000 C 
ATOM     32  C26 UNL A   1      -0.599   8.840  44.192  1.00  0.00    +0.000 C 
BRANCH   31   29
ATOM     29  C24 UNL A   1      -0.289   7.252  46.115  1.00  0.00    +0.000 C 
ATOM     30  O2  UNL A   1      -0.416   6.048  46.324  1.00  0.00    +0.000 O 
BRANCH   29   28
ATOM     28  N4  UNL A   1      -0.455   8.175  47.134  1.00  0.00    +0.000 N 
ATOM    120  H27 UNL A   1      -1.354   8.249  47.527  1.00  0.00    +0.000 H 
BRANCH   28   27
ATOM     27  C23 UNL A   1       0.583   9.055  47.683  1.00  0.00    +0.000 C 
ATOM    118  H25 UNL A   1       0.421   9.153  48.737  1.00  0.00    +0.000 H 
ATOM    119  H26 UNL A   1       1.529   8.608  47.463  1.00  0.00    +0.000 H 
BRANCH   27   26
ATOM     26  C22 UNL A   1       0.580  10.443  47.061  1.00  0.00    +0.000 C 
ATOM    116  H23 UNL A   1       1.540  10.884  47.227  1.00  0.00    +0.000 H 
ATOM    117  H24 UNL A   1       0.352  10.309  46.024  1.00  0.00    +0.000 H 
BRANCH   26   25
ATOM     25  C21 UNL A   1      -0.487  11.393  47.620  1.00  0.00    +0.000 C 
ATOM    114  H21 UNL A   1      -1.432  10.896  47.548  1.00  0.00    +0.000 H 
ATOM    115  H22 UNL A   1      -0.169  11.613  48.617  1.00  0.00    +0.000 H 
BRANCH   25   24
ATOM    113  H20 UNL A   1      -1.592  13.125  47.224  1.00  0.00    +0.000 H 
ATOM    112  H19 UNL A   1      -0.507  12.612  45.883  1.00  0.00    +0.000 H 
ATOM     24  C20 UNL A   1      -0.628  12.761  46.936  1.00  0.00    +0.000 C 
BRANCH   24   23
ATOM    111  H18 UNL A   1       1.022  14.003  46.542  1.00  0.00    +0.000 H 
ATOM    110  H17 UNL A   1       0.867  13.505  48.251  1.00  0.00    +0.000 H 
ATOM     23  C19 UNL A   1       0.363  13.847  47.370  1.00  0.00    +0.000 C 
BRANCH   23   22
ATOM    108  H15 UNL A   1      -1.325  15.128  47.518  1.00  0.00    +0.000 H 
ATOM    109  H16 UNL A   1      -0.041  15.435  48.698  1.00  0.00    +0.000 H 
ATOM     22  C18 UNL A   1      -0.269  15.198  47.680  1.00  0.00    +0.000 C 
BRANCH   22   21
ATOM    107  H14 UNL A   1       1.220  16.474  46.890  1.00  0.00    +0.000 H 
ATOM     21  N3  UNL A   1       0.258  16.267  46.850  1.00  0.00    +0.000 N 
BRANCH   21    2
ATOM      1  O1  UNL A   1      -0.605  18.228  46.042  1.00  0.00    +0.000 O 
ATOM      2  C1  UNL A   1      -0.554  16.999  46.007  1.00  0.00    +0.000 C 
BRANCH    2    3
ATOM      3  C2  UNL A   1      -1.459  16.208  45.086  1.00  0.00    +0.000 C 
ATOM     94  H1  UNL A   1      -2.456  16.577  45.206  1.00  0.00    +0.000 H 
ATOM     95  H2  UNL A   1      -1.346  15.182  45.369  1.00  0.00    +0.000 H 
BRANCH    3    4
ATOM      4  N1  UNL A   1      -1.120  16.275  43.673  1.00  0.00    +0.000 N 
ATOM      5  C3  UNL A   1      -1.737  17.119  42.786  1.00  0.00    +0.000 C 
ATOM      6  N2  UNL A   1      -1.183  17.070  41.598  1.00  0.00    +0.000 N 
ATOM      7  C4  UNL A   1      -0.163  16.160  41.717  1.00  0.00    +0.000 C 
ATOM     14  C11 UNL A   1      -0.086  15.644  43.005  1.00  0.00    +0.000 C 
ATOM     96  H3  UNL A   1      -2.540  17.720  43.025  1.00  0.00    +0.000 H 
BRANCH    7    8
ATOM     97  H4  UNL A   1      -0.253  14.018  40.133  1.00  0.00    +0.000 H 
ATOM     98  H5  UNL A   1       1.147  13.530  38.211  1.00  0.00    +0.000 H 
ATOM     99  H6  UNL A   1       2.955  15.033  37.611  1.00  0.00    +0.000 H 
ATOM    100  H7  UNL A   1       3.383  17.013  38.946  1.00  0.00    +0.000 H 
ATOM    101  H8  UNL A   1       1.976  17.512  40.856  1.00  0.00    +0.000 H 
ATOM      8  C5  UNL A   1       0.733  15.819  40.629  1.00  0.00    +0.000 C 
ATOM      9  C6  UNL A   1       0.510  14.662  39.875  1.00  0.00    +0.000 C 
ATOM     10  C7  UNL A   1       1.320  14.378  38.773  1.00  0.00    +0.000 C 
ATOM     11  C8  UNL A   1       2.363  15.240  38.430  1.00  0.00    +0.000 C 
ATOM     12  C9  UNL A   1       2.605  16.381  39.194  1.00  0.00    +0.000 C 
ATOM     13  C10 UNL A   1       1.793  16.668  40.291  1.00  0.00    +0.000 C 
ENDBRANCH    7    8
BRANCH   14   15
ATOM    102  H9  UNL A   1       2.313  16.172  44.064  1.00  0.00    +0.000 H 
ATOM    103  H10 UNL A   1       3.978  14.599  44.861  1.00  0.00    +0.000 H 
ATOM    104  H11 UNL A   1       3.495  12.223  44.884  1.00  0.00    +0.000 H 
ATOM    105  H12 UNL A   1       1.371  11.412  44.041  1.00  0.00    +0.000 H 
ATOM    106  H13 UNL A   1      -0.250  12.975  43.150  1.00  0.00    +0.000 H 
ATOM     15  C12 UNL A   1       0.876  14.704  43.575  1.00  0.00    +0.000 C 
ATOM     16  C13 UNL A   1       2.110  15.161  44.055  1.00  0.00    +0.000 C 
ATOM     17  C14 UNL A   1       3.067  14.255  44.519  1.00  0.00    +0.000 C 
ATOM     18  C15 UNL A   1       2.795  12.888  44.523  1.00  0.00    +0.000 C 
ATOM     19  C16 UNL A   1       1.577  12.424  44.036  1.00  0.00    +0.000 C 
ATOM     20  C17 UNL A   1       0.636  13.327  43.543  1.00  0.00    +0.000 C 
ENDBRANCH   14   15
ENDBRANCH    3    4
ENDBRANCH    2    3
ENDBRANCH   21    2
ENDBRANCH   22   21
ENDBRANCH   23   22
ENDBRANCH   24   23
ENDBRANCH   25   24
ENDBRANCH   26   25
ENDBRANCH   27   26
ENDBRANCH   28   27
ENDBRANCH   29   28
ENDBRANCH   31   29
ENDBRANCH   35   34
BRANCH   39   40
ATOM     40  C33 UNL A   1      -0.667  10.379  35.880  1.00  0.00    +0.000 C 
ATOM     41  C34 UNL A   1      -0.273  11.707  36.155  1.00  0.00    +0.000 C 
ATOM     42  F1  UNL A   1       0.733  11.959  37.005  1.00  0.00    +0.000 F 
ATOM     43  C35 UNL A   1      -0.966  12.808  35.644  1.00  0.00    +0.000 C 
ATOM     44  F2  UNL A   1      -0.640  14.044  36.043  1.00  0.00    +0.000 F 
ATOM     45  C36 UNL A   1      -2.037  12.627  34.789  1.00  0.00    +0.000 C 
ATOM     46  F3  UNL A   1      -2.745  13.677  34.350  1.00  0.00    +0.000 F 
ATOM     47  C37 UNL A   1      -2.402  11.349  34.431  1.00  0.00    +0.000 C 
ATOM     48  F4  UNL A   1      -3.451  11.152  33.618  1.00  0.00    +0.000 F 
ATOM     49  C38 UNL A   1      -1.746  10.247  34.979  1.00  0.00    +0.000 C 
ATOM     50  F5  UNL A   1      -2.290   9.065  34.674  1.00  0.00    +0.000 F 
ENDBRANCH   39   40
BRANCH   56   57
ATOM     65  F9  UNL A   1       8.082   5.773  35.989  1.00  0.00    +0.000 F 
ATOM     66  C49 UNL A   1       6.331   7.244  36.582  1.00  0.00    +0.000 C 
ATOM     67  F10 UNL A   1       6.345   7.732  35.332  1.00  0.00    +0.000 F 
ATOM     57  C44 UNL A   1       5.388   7.715  37.507  1.00  0.00    +0.000 C 
ATOM     58  C45 UNL A   1       5.391   7.131  38.786  1.00  0.00    +0.000 C 
ATOM     59  F6  UNL A   1       4.467   7.466  39.695  1.00  0.00    +0.000 F 
ATOM     60  C46 UNL A   1       6.321   6.150  39.129  1.00  0.00    +0.000 C 
ATOM     61  F7  UNL A   1       6.315   5.618  40.361  1.00  0.00    +0.000 F 
ATOM     62  C47 UNL A   1       7.235   5.698  38.191  1.00  0.00    +0.000 C 
ATOM     63  F8  UNL A   1       8.102   4.727  38.507  1.00  0.00    +0.000 F 
ATOM     64  C48 UNL A   1       7.232   6.238  36.915  1.00  0.00    +0.000 C 
ENDBRANCH   56   57
BRANCH   71   72
ATOM     72  C53 UNL A   1       6.089  13.321  40.274  1.00  0.00    +0.000 C 
ATOM     73  C54 UNL A   1       7.384  13.626  39.820  1.00  0.00    +0.000 C 
ATOM     74  F11 UNL A   1       8.149  12.669  39.275  1.00  0.00    +0.000 F 
ATOM     75  C55 UNL A   1       7.883  14.933  39.846  1.00  0.00    +0.000 C 
ATOM     76  F12 UNL A   1       9.096  15.197  39.341  1.00  0.00    +0.000 F 
ATOM     77  C56 UNL A   1       7.103  15.969  40.333  1.00  0.00    +0.000 C 
ATOM     78  F13 UNL A   1       7.552  17.232  40.294  1.00  0.00    +0.000 F 
ATOM     79  C57 UNL A   1       5.837  15.697  40.820  1.00  0.00    +0.000 C 
ATOM     80  F14 UNL A   1       5.060  16.697  41.259  1.00  0.00    +0.000 F 
ATOM     81  C58 UNL A   1       5.338  14.393  40.793  1.00  0.00    +0.000 C 
ATOM     82  F15 UNL A   1       4.070  14.213  41.189  1.00  0.00    +0.000 F 
ENDBRANCH   71   72
TORSDOF 18
ENDMDL
MODEL 7
REMARK VINA RESULT:      -9.6     40.976     48.112
ROOT
ATOM    129  H36 UNL A   1       8.330   4.694  23.524  1.00  0.00    +0.000 H 
ATOM    130  H37 UNL A   1      10.111   3.400  22.184  1.00  0.00    +0.000 H 
ATOM    131  H38 UNL A   1       6.433   0.549  18.506  1.00  0.00    +0.000 H 
ATOM    132  H39 UNL A   1       4.917   0.440  20.593  1.00  0.00    +0.000 H 
ATOM     35  C29 UNL A   1       6.294  -0.631  22.883  1.00  0.00    +0.000 C 
ATOM     36  C30 UNL A   1       6.854  -0.239  21.564  1.00  0.00    +0.000 C 
ATOM     37  N5  UNL A   1       8.064  -0.405  21.144  1.00  0.00    +0.000 N 
ATOM     38  C31 UNL A   1       8.108   0.171  19.877  1.00  0.00    +0.000 C 
ATOM     39  C32 UNL A   1       9.267   0.710  19.407  1.00  0.00    +0.000 C 
ATOM     51  C39 UNL A   1      10.390   0.261  20.194  1.00  0.00    +0.000 C 
ATOM     52  C40 UNL A   1      10.994  -0.951  20.454  1.00  0.00    +0.000 C 
ATOM     53  C41 UNL A   1      11.427  -0.872  21.813  1.00  0.00    +0.000 C 
ATOM     54  C42 UNL A   1      11.131   0.404  22.295  1.00  0.00    +0.000 C 
ATOM     55  N6  UNL A   1      10.814   1.120  21.175  1.00  0.00    +0.000 N 
ATOM     56  C43 UNL A   1      11.013   0.942  23.633  1.00  0.00    +0.000 C 
ATOM     68  C50 UNL A   1      10.403   2.119  23.958  1.00  0.00    +0.000 C 
ATOM     69  N7  UNL A   1       9.885   2.309  25.230  1.00  0.00    +0.000 N 
ATOM     70  C51 UNL A   1       8.882   3.126  25.057  1.00  0.00    +0.000 C 
ATOM     71  C52 UNL A   1       7.605   3.018  25.799  1.00  0.00    +0.000 C 
ATOM     83  C59 UNL A   1       7.025   1.859  25.399  1.00  0.00    +0.000 C 
ATOM     84  C60 UNL A   1       6.006   1.066  26.045  1.00  0.00    +0.000 C 
ATOM     85  C61 UNL A   1       5.778  -0.024  25.286  1.00  0.00    +0.000 C 
ATOM     86  C62 UNL A   1       6.493   0.093  24.009  1.00  0.00    +0.000 C 
ATOM     87  N8  UNL A   1       7.311   1.186  24.190  1.00  0.00    +0.000 N 
ATOM     88  C63 UNL A   1       8.887   3.875  23.814  1.00  0.00    +0.000 C 
ATOM     89  C64 UNL A   1       9.826   3.193  23.153  1.00  0.00    +0.000 C 
ATOM     90  C65 UNL A   1       6.741   0.356  19.472  1.00  0.00    +0.000 C 
ATOM     91  C66 UNL A   1       5.927   0.243  20.525  1.00  0.00    +0.000 C 
ATOM    123  H30 UNL A   1      11.109  -1.746  19.805  1.00  0.00    +0.000 H 
ATOM    124  H31 UNL A   1      11.880  -1.630  22.348  1.00  0.00    +0.000 H 
ATOM    125  H32 UNL A   1      10.880   2.098  21.087  1.00  0.00    +0.000 H 
ATOM    126  H33 UNL A   1       5.532   1.295  26.932  1.00  0.00    +0.000 H 
ATOM    127  H34 UNL A   1       5.188  -0.825  25.563  1.00  0.00    +0.000 H 
ATOM    128  H35 UNL A   1       8.010   1.464  23.555  1.00  0.00    +0.000 H 
ENDROOT
BRANCH   35   34
ATOM     33  C27 UNL A   1       5.697  -3.040  22.555  1.00  0.00    +0.000 C 
ATOM     34  C28 UNL A   1       5.318  -1.713  22.815  1.00  0.00    +0.000 C 
ATOM    133  H40 UNL A   1       3.702  -0.371  22.983  1.00  0.00    +0.000 H 
ATOM    134  H41 UNL A   1       2.063  -2.136  23.210  1.00  0.00    +0.000 H 
ATOM    121  H28 UNL A   1       4.961  -4.971  22.106  1.00  0.00    +0.000 H 
ATOM    122  H29 UNL A   1       6.694  -3.299  22.513  1.00  0.00    +0.000 H 
ATOM     92  C67 UNL A   1       3.978  -1.363  22.912  1.00  0.00    +0.000 C 
ATOM     93  C68 UNL A   1       3.028  -2.345  22.908  1.00  0.00    +0.000 C 
ATOM     31  C25 UNL A   1       3.368  -3.629  22.497  1.00  0.00    +0.000 C 
ATOM     32  C26 UNL A   1       4.709  -4.003  22.355  1.00  0.00    +0.000 C 
BRANCH   31   29
ATOM     29  C24 UNL A   1       2.262  -4.546  22.172  1.00  0.00    +0.000 C 
ATOM     30  O2  UNL A   1       2.140  -4.992  21.034  1.00  0.00    +0.000 O 
BRANCH   29   28
ATOM     28  N4  UNL A   1       1.372  -4.892  23.175  1.00  0.00    +0.000 N 
ATOM    120  H27 UNL A   1       0.530  -4.385  23.219  1.00  0.00    +0.000 H 
BRANCH   28   27
ATOM     27  C23 UNL A   1       1.565  -5.944  24.179  1.00  0.00    +0.000 C 
ATOM    118  H25 UNL A   1       1.059  -6.826  23.848  1.00  0.00    +0.000 H 
ATOM    119  H26 UNL A   1       2.619  -6.100  24.279  1.00  0.00    +0.000 H 
BRANCH   27   26
ATOM     26  C22 UNL A   1       1.030  -5.564  25.552  1.00  0.00    +0.000 C 
ATOM    116  H23 UNL A   1       0.079  -6.034  25.680  1.00  0.00    +0.000 H 
ATOM    117  H24 UNL A   1       1.761  -5.892  26.262  1.00  0.00    +0.000 H 
BRANCH   26   25
ATOM     25  C21 UNL A   1       0.854  -4.056  25.776  1.00  0.00    +0.000 C 
ATOM    114  H21 UNL A   1       1.101  -3.562  24.859  1.00  0.00    +0.000 H 
ATOM    115  H22 UNL A   1      -0.161  -3.938  26.092  1.00  0.00    +0.000 H 
BRANCH   25   24
ATOM    113  H20 UNL A   1       1.036  -2.737  27.390  1.00  0.00    +0.000 H 
ATOM    112  H19 UNL A   1       2.543  -2.950  26.430  1.00  0.00    +0.000 H 
ATOM     24  C20 UNL A   1       1.696  -3.415  26.890  1.00  0.00    +0.000 C 
BRANCH   24   23
ATOM    111  H18 UNL A   1       1.780  -5.314  27.786  1.00  0.00    +0.000 H 
ATOM    110  H17 UNL A   1       1.936  -3.952  28.932  1.00  0.00    +0.000 H 
ATOM     23  C19 UNL A   1       2.216  -4.357  27.980  1.00  0.00    +0.000 C 
BRANCH   23   22
ATOM    108  H15 UNL A   1       4.123  -4.167  27.066  1.00  0.00    +0.000 H 
ATOM    109  H16 UNL A   1       4.122  -4.057  28.833  1.00  0.00    +0.000 H 
ATOM     22  C18 UNL A   1       3.725  -4.562  27.977  1.00  0.00    +0.000 C 
BRANCH   22   21
ATOM    107  H14 UNL A   1       3.780  -6.488  28.848  1.00  0.00    +0.000 H 
ATOM     21  N3  UNL A   1       4.101  -5.961  28.081  1.00  0.00    +0.000 N 
BRANCH   21    2
ATOM      1  O1  UNL A   1       4.431  -7.275  26.235  1.00  0.00    +0.000 O 
ATOM      2  C1  UNL A   1       4.896  -6.571  27.130  1.00  0.00    +0.000 C 
BRANCH    2    3
ATOM      3  C2  UNL A   1       6.393  -6.407  27.296  1.00  0.00    +0.000 C 
ATOM     94  H1  UNL A   1       6.832  -7.383  27.312  1.00  0.00    +0.000 H 
ATOM     95  H2  UNL A   1       6.532  -5.860  28.204  1.00  0.00    +0.000 H 
BRANCH    3    4
ATOM      4  N1  UNL A   1       7.052  -5.633  26.255  1.00  0.00    +0.000 N 
ATOM      5  C3  UNL A   1       7.036  -4.263  26.206  1.00  0.00    +0.000 C 
ATOM      6  N2  UNL A   1       7.790  -3.799  25.238  1.00  0.00    +0.000 N 
ATOM      7  C4  UNL A   1       8.318  -4.911  24.633  1.00  0.00    +0.000 C 
ATOM     14  C11 UNL A   1       7.885  -6.080  25.247  1.00  0.00    +0.000 C 
ATOM     96  H3  UNL A   1       6.497  -3.668  26.854  1.00  0.00    +0.000 H 
BRANCH    7    8
ATOM     97  H4  UNL A   1       7.763  -5.174  22.039  1.00  0.00    +0.000 H 
ATOM     98  H5  UNL A   1       9.278  -4.909  20.161  1.00  0.00    +0.000 H 
ATOM     99  H6  UNL A   1      11.630  -4.458  20.550  1.00  0.00    +0.000 H 
ATOM    100  H7  UNL A   1      12.478  -4.296  22.817  1.00  0.00    +0.000 H 
ATOM    101  H8  UNL A   1      10.965  -4.543  24.695  1.00  0.00    +0.000 H 
ATOM      8  C5  UNL A   1       9.239  -4.850  23.515  1.00  0.00    +0.000 C 
ATOM      9  C6  UNL A   1       8.761  -4.974  22.206  1.00  0.00    +0.000 C 
ATOM     10  C7  UNL A   1       9.634  -4.828  21.125  1.00  0.00    +0.000 C 
ATOM     11  C8  UNL A   1      10.988  -4.573  21.349  1.00  0.00    +0.000 C 
ATOM     12  C9  UNL A   1      11.474  -4.474  22.652  1.00  0.00    +0.000 C 
ATOM     13  C10 UNL A   1      10.602  -4.614  23.732  1.00  0.00    +0.000 C 
ENDBRANCH    7    8
BRANCH   14   15
ATOM    102  H9  UNL A   1       6.956  -7.667  23.304  1.00  0.00    +0.000 H 
ATOM    103  H10 UNL A   1       7.430 -10.017  22.932  1.00  0.00    +0.000 H 
ATOM    104  H11 UNL A   1       9.030 -11.173  24.341  1.00  0.00    +0.000 H 
ATOM    105  H12 UNL A   1      10.103  -9.997  26.170  1.00  0.00    +0.000 H 
ATOM    106  H13 UNL A   1       9.552  -7.679  26.604  1.00  0.00    +0.000 H 
ATOM     15  C12 UNL A   1       8.246  -7.468  24.964  1.00  0.00    +0.000 C 
ATOM     16  C13 UNL A   1       7.624  -8.159  23.917  1.00  0.00    +0.000 C 
ATOM     17  C14 UNL A   1       7.901  -9.512  23.700  1.00  0.00    +0.000 C 
ATOM     18  C15 UNL A   1       8.811 -10.181  24.516  1.00  0.00    +0.000 C 
ATOM     19  C16 UNL A   1       9.425  -9.506  25.566  1.00  0.00    +0.000 C 
ATOM     20  C17 UNL A   1       9.122  -8.165  25.801  1.00  0.00    +0.000 C 
ENDBRANCH   14   15
ENDBRANCH    3    4
ENDBRANCH    2    3
ENDBRANCH   21    2
ENDBRANCH   22   21
ENDBRANCH   23   22
ENDBRANCH   24   23
ENDBRANCH   25   24
ENDBRANCH   26   25
ENDBRANCH   27   26
ENDBRANCH   28   27
ENDBRANCH   29   28
ENDBRANCH   31   29
ENDBRANCH   35   34
BRANCH   39   40
ATOM     40  C33 UNL A   1       9.353   1.973  18.569  1.00  0.00    +0.000 C 
ATOM     41  C34 UNL A   1      10.150   1.957  17.402  1.00  0.00    +0.000 C 
ATOM     42  F1  UNL A   1      10.585   0.797  16.889  1.00  0.00    +0.000 F 
ATOM     43  C35 UNL A   1      10.603   3.132  16.796  1.00  0.00    +0.000 C 
ATOM     44  F2  UNL A   1      11.468   3.064  15.775  1.00  0.00    +0.000 F 
ATOM     45  C36 UNL A   1      10.226   4.366  17.290  1.00  0.00    +0.000 C 
ATOM     46  F3  UNL A   1      10.711   5.494  16.753  1.00  0.00    +0.000 F 
ATOM     47  C37 UNL A   1       9.383   4.426  18.377  1.00  0.00    +0.000 C 
ATOM     48  F4  UNL A   1       9.022   5.614  18.884  1.00  0.00    +0.000 F 
ATOM     49  C38 UNL A   1       8.971   3.256  19.017  1.00  0.00    +0.000 C 
ATOM     50  F5  UNL A   1       8.283   3.450  20.146  1.00  0.00    +0.000 F 
ENDBRANCH   39   40
BRANCH   56   57
ATOM     65  F9  UNL A   1      14.483  -0.558  26.665  1.00  0.00    +0.000 F 
ATOM     66  C49 UNL A   1      12.721   0.180  25.275  1.00  0.00    +0.000 C 
ATOM     67  F10 UNL A   1      13.527   1.141  24.798  1.00  0.00    +0.000 F 
ATOM     57  C44 UNL A   1      11.423   0.038  24.764  1.00  0.00    +0.000 C 
ATOM     58  C45 UNL A   1      10.643  -1.017  25.268  1.00  0.00    +0.000 C 
ATOM     59  F6  UNL A   1       9.426  -1.269  24.770  1.00  0.00    +0.000 F 
ATOM     60  C46 UNL A   1      11.130  -1.863  26.264  1.00  0.00    +0.000 C 
ATOM     61  F7  UNL A   1      10.361  -2.854  26.742  1.00  0.00    +0.000 F 
ATOM     62  C47 UNL A   1      12.420  -1.704  26.743  1.00  0.00    +0.000 C 
ATOM     63  F8  UNL A   1      12.904  -2.541  27.671  1.00  0.00    +0.000 F 
ATOM     64  C48 UNL A   1      13.218  -0.689  26.240  1.00  0.00    +0.000 C 
ENDBRANCH   56   57
BRANCH   71   72
ATOM     72  C53 UNL A   1       7.011   4.162  26.527  1.00  0.00    +0.000 C 
ATOM     73  C54 UNL A   1       7.785   4.948  27.398  1.00  0.00    +0.000 C 
ATOM     74  F11 UNL A   1       9.004   4.532  27.774  1.00  0.00    +0.000 F 
ATOM     75  C55 UNL A   1       7.355   6.207  27.831  1.00  0.00    +0.000 C 
ATOM     76  F12 UNL A   1       8.152   6.956  28.605  1.00  0.00    +0.000 F 
ATOM     77  C56 UNL A   1       6.136   6.711  27.411  1.00  0.00    +0.000 C 
ATOM     78  F13 UNL A   1       5.754   7.946  27.768  1.00  0.00    +0.000 F 
ATOM     79  C57 UNL A   1       5.334   5.948  26.582  1.00  0.00    +0.000 C 
ATOM     80  F14 UNL A   1       4.169   6.442  26.139  1.00  0.00    +0.000 F 
ATOM     81  C58 UNL A   1       5.763   4.692  26.148  1.00  0.00    +0.000 C 
ATOM     82  F15 UNL A   1       4.983   4.046  25.270  1.00  0.00    +0.000 F 
ENDBRANCH   71   72
TORSDOF 18
ENDMDL
MODEL 8
REMARK VINA RESULT:      -9.6     42.767     48.743
ROOT
ATOM    129  H36 UNL A   1      26.259  19.861   2.723  1.00  0.00    +0.000 H 
ATOM    130  H37 UNL A   1      24.838  20.311   4.826  1.00  0.00    +0.000 H 
ATOM    131  H38 UNL A   1      26.219  15.368   7.799  1.00  0.00    +0.000 H 
ATOM    132  H39 UNL A   1      26.172  14.302   5.448  1.00  0.00    +0.000 H 
ATOM     35  C29 UNL A   1      23.729  14.883   4.040  1.00  0.00    +0.000 C 
ATOM     36  C30 UNL A   1      24.219  15.452   5.322  1.00  0.00    +0.000 C 
ATOM     37  N5  UNL A   1      23.586  16.248   6.120  1.00  0.00    +0.000 N 
ATOM     38  C31 UNL A   1      24.477  16.539   7.149  1.00  0.00    +0.000 C 
ATOM     39  C32 UNL A   1      24.411  17.734   7.799  1.00  0.00    +0.000 C 
ATOM     51  C39 UNL A   1      23.150  18.385   7.534  1.00  0.00    +0.000 C 
ATOM     52  C40 UNL A   1      21.823  18.111   7.788  1.00  0.00    +0.000 C 
ATOM     53  C41 UNL A   1      21.112  18.608   6.652  1.00  0.00    +0.000 C 
ATOM     54  C42 UNL A   1      22.027  19.222   5.796  1.00  0.00    +0.000 C 
ATOM     55  N6  UNL A   1      23.164  19.335   6.546  1.00  0.00    +0.000 N 
ATOM     56  C43 UNL A   1      21.967  19.582   4.396  1.00  0.00    +0.000 C 
ATOM     68  C50 UNL A   1      23.046  19.878   3.612  1.00  0.00    +0.000 C 
ATOM     69  N7  UNL A   1      22.979  19.703   2.238  1.00  0.00    +0.000 N 
ATOM     70  C51 UNL A   1      24.204  19.429   1.883  1.00  0.00    +0.000 C 
ATOM     71  C52 UNL A   1      24.547  18.435   0.839  1.00  0.00    +0.000 C 
ATOM     83  C59 UNL A   1      24.174  17.225   1.323  1.00  0.00    +0.000 C 
ATOM     84  C60 UNL A   1      23.908  15.992   0.620  1.00  0.00    +0.000 C 
ATOM     85  C61 UNL A   1      23.528  15.067   1.523  1.00  0.00    +0.000 C 
ATOM     86  C62 UNL A   1      23.713  15.586   2.884  1.00  0.00    +0.000 C 
ATOM     87  N8  UNL A   1      23.990  16.921   2.690  1.00  0.00    +0.000 N 
ATOM     88  C63 UNL A   1      25.234  19.800   2.835  1.00  0.00    +0.000 C 
ATOM     89  C64 UNL A   1      24.468  20.041   3.902  1.00  0.00    +0.000 C 
ATOM     90  C65 UNL A   1      25.531  15.565   7.056  1.00  0.00    +0.000 C 
ATOM     91  C66 UNL A   1      25.491  14.953   5.870  1.00  0.00    +0.000 C 
ATOM    123  H30 UNL A   1      21.427  17.644   8.620  1.00  0.00    +0.000 H 
ATOM    124  H31 UNL A   1      20.096  18.525   6.493  1.00  0.00    +0.000 H 
ATOM    125  H32 UNL A   1      23.880  19.994   6.398  1.00  0.00    +0.000 H 
ATOM    126  H33 UNL A   1      23.994  15.845  -0.397  1.00  0.00    +0.000 H 
ATOM    127  H34 UNL A   1      23.161  14.130   1.291  1.00  0.00    +0.000 H 
ATOM    128  H35 UNL A   1      24.052  17.584   3.416  1.00  0.00    +0.000 H 
ENDROOT
BRANCH   35   34
ATOM     33  C27 UNL A   1      22.842  12.822   5.150  1.00  0.00    +0.000 C 
ATOM     34  C28 UNL A   1      23.505  13.442   4.078  1.00  0.00    +0.000 C 
ATOM    133  H40 UNL A   1      24.655  13.137   2.340  1.00  0.00    +0.000 H 
ATOM    134  H41 UNL A   1      24.047  10.802   2.164  1.00  0.00    +0.000 H 
ATOM    121  H28 UNL A   1      22.358  10.952   6.009  1.00  0.00    +0.000 H 
ATOM    122  H29 UNL A   1      22.400  13.391   5.889  1.00  0.00    +0.000 H 
ATOM     92  C67 UNL A   1      24.069  12.686   3.059  1.00  0.00    +0.000 C 
ATOM     93  C68 UNL A   1      23.841  11.340   3.022  1.00  0.00    +0.000 C 
ATOM     31  C25 UNL A   1      23.331  10.696   4.143  1.00  0.00    +0.000 C 
ATOM     32  C26 UNL A   1      22.788  11.430   5.204  1.00  0.00    +0.000 C 
BRANCH   31   29
ATOM     29  C24 UNL A   1      23.437   9.227   4.182  1.00  0.00    +0.000 C 
ATOM     30  O2  UNL A   1      23.978   8.670   5.134  1.00  0.00    +0.000 O 
BRANCH   29   28
ATOM     28  N4  UNL A   1      22.912   8.497   3.129  1.00  0.00    +0.000 N 
ATOM    120  H27 UNL A   1      23.528   8.264   2.398  1.00  0.00    +0.000 H 
BRANCH   28   27
ATOM     27  C23 UNL A   1      21.526   8.037   3.000  1.00  0.00    +0.000 C 
ATOM    118  H25 UNL A   1      21.175   8.287   2.020  1.00  0.00    +0.000 H 
ATOM    119  H26 UNL A   1      21.523   6.981   3.169  1.00  0.00    +0.000 H 
BRANCH   27   26
ATOM     26  C22 UNL A   1      20.590   8.663   4.024  1.00  0.00    +0.000 C 
ATOM    116  H23 UNL A   1      20.100   7.874   4.553  1.00  0.00    +0.000 H 
ATOM    117  H24 UNL A   1      21.200   9.277   4.655  1.00  0.00    +0.000 H 
BRANCH   26   25
ATOM     25  C21 UNL A   1      19.515   9.583   3.431  1.00  0.00    +0.000 C 
ATOM    114  H21 UNL A   1      19.228   9.175   2.484  1.00  0.00    +0.000 H 
ATOM    115  H22 UNL A   1      18.737   9.610   4.164  1.00  0.00    +0.000 H 
BRANCH   25   24
ATOM    113  H20 UNL A   1      19.878  11.194   2.146  1.00  0.00    +0.000 H 
ATOM    112  H19 UNL A   1      20.864  11.206   3.652  1.00  0.00    +0.000 H 
ATOM     24  C20 UNL A   1      19.903  11.052   3.206  1.00  0.00    +0.000 C 
BRANCH   24   23
ATOM    111  H18 UNL A   1      19.023  12.961   3.142  1.00  0.00    +0.000 H 
ATOM    110  H17 UNL A   1      19.242  12.306   4.790  1.00  0.00    +0.000 H 
ATOM     23  C19 UNL A   1      18.948  12.105   3.780  1.00  0.00    +0.000 C 
BRANCH   23   22
ATOM    108  H15 UNL A   1      17.380  10.771   3.259  1.00  0.00    +0.000 H 
ATOM    109  H16 UNL A   1      17.174  11.607   4.806  1.00  0.00    +0.000 H 
ATOM     22  C18 UNL A   1      17.480  11.697   3.785  1.00  0.00    +0.000 C 
BRANCH   22   21
ATOM    107  H14 UNL A   1      16.328  12.541   2.226  1.00  0.00    +0.000 H 
ATOM     21  N3  UNL A   1      16.622  12.685   3.155  1.00  0.00    +0.000 N 
BRANCH   21    2
ATOM      1  O1  UNL A   1      16.265  14.940   3.321  1.00  0.00    +0.000 O 
ATOM      2  C1  UNL A   1      16.208  13.820   3.825  1.00  0.00    +0.000 C 
BRANCH    2    3
ATOM      3  C2  UNL A   1      15.759  13.631   5.259  1.00  0.00    +0.000 C 
ATOM     94  H1  UNL A   1      16.517  13.076   5.771  1.00  0.00    +0.000 H 
ATOM     95  H2  UNL A   1      14.817  13.126   5.211  1.00  0.00    +0.000 H 
BRANCH    3    4
ATOM      4  N1  UNL A   1      15.520  14.859   6.002  1.00  0.00    +0.000 N 
ATOM      5  C3  UNL A   1      14.275  15.406   6.179  1.00  0.00    +0.000 C 
ATOM      6  N2  UNL A   1      14.307  16.449   6.973  1.00  0.00    +0.000 N 
ATOM      7  C4  UNL A   1      15.625  16.587   7.328  1.00  0.00    +0.000 C 
ATOM     14  C11 UNL A   1      16.416  15.604   6.746  1.00  0.00    +0.000 C 
ATOM     96  H3  UNL A   1      13.416  15.039   5.741  1.00  0.00    +0.000 H 
BRANCH    7    8
ATOM     97  H4  UNL A   1      15.123  16.846   9.932  1.00  0.00    +0.000 H 
ATOM     98  H5  UNL A   1      16.059  18.473  11.472  1.00  0.00    +0.000 H 
ATOM     99  H6  UNL A   1      17.559  20.197  10.656  1.00  0.00    +0.000 H 
ATOM    100  H7  UNL A   1      18.108  20.313   8.296  1.00  0.00    +0.000 H 
ATOM    101  H8  UNL A   1      17.189  18.678   6.758  1.00  0.00    +0.000 H 
ATOM      8  C5  UNL A   1      16.106  17.616   8.228  1.00  0.00    +0.000 C 
ATOM      9  C6  UNL A   1      15.768  17.573   9.585  1.00  0.00    +0.000 C 
ATOM     10  C7  UNL A   1      16.301  18.514  10.470  1.00  0.00    +0.000 C 
ATOM     11  C8  UNL A   1      17.160  19.508  10.000  1.00  0.00    +0.000 C 
ATOM     12  C9  UNL A   1      17.481  19.570   8.645  1.00  0.00    +0.000 C 
ATOM     13  C10 UNL A   1      16.953  18.628   7.761  1.00  0.00    +0.000 C 
ENDBRANCH    7    8
BRANCH   14   15
ATOM    102  H9  UNL A   1      18.374  16.025   4.973  1.00  0.00    +0.000 H 
ATOM    103  H10 UNL A   1      20.722  15.448   5.167  1.00  0.00    +0.000 H 
ATOM    104  H11 UNL A   1      21.572  14.482   7.223  1.00  0.00    +0.000 H 
ATOM    105  H12 UNL A   1      20.057  14.024   9.061  1.00  0.00    +0.000 H 
ATOM    106  H13 UNL A   1      17.695  14.505   8.827  1.00  0.00    +0.000 H 
ATOM     15  C12 UNL A   1      17.847  15.346   6.901  1.00  0.00    +0.000 C 
ATOM     16  C13 UNL A   1      18.727  15.597   5.842  1.00  0.00    +0.000 C 
ATOM     17  C14 UNL A   1      20.082  15.270   5.957  1.00  0.00    +0.000 C 
ATOM     18  C15 UNL A   1      20.569  14.704   7.133  1.00  0.00    +0.000 C 
ATOM     19  C16 UNL A   1      19.699  14.440   8.187  1.00  0.00    +0.000 C 
ATOM     20  C17 UNL A   1      18.343  14.737   8.058  1.00  0.00    +0.000 C 
ENDBRANCH   14   15
ENDBRANCH    3    4
ENDBRANCH    2    3
ENDBRANCH   21    2
ENDBRANCH   22   21
ENDBRANCH   23   22
ENDBRANCH   24   23
ENDBRANCH   25   24
ENDBRANCH   26   25
ENDBRANCH   27   26
ENDBRANCH   28   27
ENDBRANCH   29   28
ENDBRANCH   31   29
ENDBRANCH   35   34
BRANCH   39   40
ATOM     40  C33 UNL A   1      25.616  18.526   8.274  1.00  0.00    +0.000 C 
ATOM     41  C34 UNL A   1      25.615  19.031   9.592  1.00  0.00    +0.000 C 
ATOM     42  F1  UNL A   1      24.722  18.593  10.491  1.00  0.00    +0.000 F 
ATOM     43  C35 UNL A   1      26.461  20.071   9.989  1.00  0.00    +0.000 C 
ATOM     44  F2  UNL A   1      26.328  20.609  11.209  1.00  0.00    +0.000 F 
ATOM     45  C36 UNL A   1      27.384  20.600   9.108  1.00  0.00    +0.000 C 
ATOM     46  F3  UNL A   1      28.151  21.639   9.463  1.00  0.00    +0.000 F 
ATOM     47  C37 UNL A   1      27.474  20.078   7.836  1.00  0.00    +0.000 C 
ATOM     48  F4  UNL A   1      28.349  20.591   6.959  1.00  0.00    +0.000 F 
ATOM     49  C38 UNL A   1      26.596  19.077   7.420  1.00  0.00    +0.000 C 
ATOM     50  F5  UNL A   1      26.681  18.764   6.124  1.00  0.00    +0.000 F 
ENDBRANCH   39   40
BRANCH   56   57
ATOM     65  F9  UNL A   1      17.702  21.529   3.171  1.00  0.00    +0.000 F 
ATOM     66  C49 UNL A   1      19.792  20.542   3.663  1.00  0.00    +0.000 C 
ATOM     67  F10 UNL A   1      20.209  21.719   4.156  1.00  0.00    +0.000 F 
ATOM     57  C44 UNL A   1      20.636  19.424   3.712  1.00  0.00    +0.000 C 
ATOM     58  C45 UNL A   1      20.127  18.208   3.224  1.00  0.00    +0.000 C 
ATOM     59  F6  UNL A   1      20.840  17.079   3.316  1.00  0.00    +0.000 F 
ATOM     60  C46 UNL A   1      18.846  18.129   2.678  1.00  0.00    +0.000 C 
ATOM     61  F7  UNL A   1      18.386  16.961   2.203  1.00  0.00    +0.000 F 
ATOM     62  C47 UNL A   1      18.031  19.250   2.651  1.00  0.00    +0.000 C 
ATOM     63  F8  UNL A   1      16.786  19.167   2.162  1.00  0.00    +0.000 F 
ATOM     64  C48 UNL A   1      18.501  20.453   3.153  1.00  0.00    +0.000 C 
ENDBRANCH   56   57
BRANCH   71   72
ATOM     72  C53 UNL A   1      25.435  18.758  -0.301  1.00  0.00    +0.000 C 
ATOM     73  C54 UNL A   1      24.906  19.117  -1.553  1.00  0.00    +0.000 C 
ATOM     74  F11 UNL A   1      23.602  18.938  -1.808  1.00  0.00    +0.000 F 
ATOM     75  C55 UNL A   1      25.690  19.738  -2.531  1.00  0.00    +0.000 C 
ATOM     76  F12 UNL A   1      25.134  20.130  -3.686  1.00  0.00    +0.000 F 
ATOM     77  C56 UNL A   1      27.026  20.011  -2.287  1.00  0.00    +0.000 C 
ATOM     78  F13 UNL A   1      27.760  20.669  -3.195  1.00  0.00    +0.000 F 
ATOM     79  C57 UNL A   1      27.586  19.637  -1.078  1.00  0.00    +0.000 C 
ATOM     80  F14 UNL A   1      28.868  19.930  -0.817  1.00  0.00    +0.000 F 
ATOM     81  C58 UNL A   1      26.804  19.019  -0.101  1.00  0.00    +0.000 C 
ATOM     82  F15 UNL A   1      27.382  18.772   1.083  1.00  0.00    +0.000 F 
ENDBRANCH   71   72
TORSDOF 18
ENDMDL
MODEL 9
REMARK VINA RESULT:      -9.5     25.437     31.759
ROOT
ATOM    129  H36 UNL A   1      45.148   9.571  46.664  1.00  0.00    +0.000 H 
ATOM    130  H37 UNL A   1      46.851   9.419  48.593  1.00  0.00    +0.000 H 
ATOM    131  H38 UNL A   1      42.996   8.423  52.990  1.00  0.00    +0.000 H 
ATOM    132  H39 UNL A   1      41.512  10.058  51.653  1.00  0.00    +0.000 H 
ATOM     35  C29 UNL A   1      42.882  12.514  51.037  1.00  0.00    +0.000 C 
ATOM     36  C30 UNL A   1      43.435  11.265  51.620  1.00  0.00    +0.000 C 
ATOM     37  N5  UNL A   1      44.631  11.071  52.070  1.00  0.00    +0.000 N 
ATOM     38  C31 UNL A   1      44.678   9.735  52.457  1.00  0.00    +0.000 C 
ATOM     39  C32 UNL A   1      45.850   9.043  52.403  1.00  0.00    +0.000 C 
ATOM     51  C39 UNL A   1      46.966   9.950  52.280  1.00  0.00    +0.000 C 
ATOM     52  C40 UNL A   1      47.524  10.943  53.057  1.00  0.00    +0.000 C 
ATOM     53  C41 UNL A   1      47.981  11.931  52.132  1.00  0.00    +0.000 C 
ATOM     54  C42 UNL A   1      47.747  11.465  50.838  1.00  0.00    +0.000 C 
ATOM     55  N6  UNL A   1      47.442  10.143  51.009  1.00  0.00    +0.000 N 
ATOM     56  C43 UNL A   1      47.674  12.130  49.556  1.00  0.00    +0.000 C 
ATOM     68  C50 UNL A   1      47.118  11.603  48.425  1.00  0.00    +0.000 C 
ATOM     69  N7  UNL A   1      46.630  12.439  47.433  1.00  0.00    +0.000 N 
ATOM     70  C51 UNL A   1      45.660  11.762  46.882  1.00  0.00    +0.000 C 
ATOM     71  C52 UNL A   1      44.391  12.379  46.428  1.00  0.00    +0.000 C 
ATOM     83  C59 UNL A   1      43.758  12.819  47.543  1.00  0.00    +0.000 C 
ATOM     84  C60 UNL A   1      42.717  13.810  47.683  1.00  0.00    +0.000 C 
ATOM     85  C61 UNL A   1      42.431  13.939  48.993  1.00  0.00    +0.000 C 
ATOM     86  C62 UNL A   1      43.129  12.902  49.764  1.00  0.00    +0.000 C 
ATOM     87  N8  UNL A   1      43.995  12.342  48.852  1.00  0.00    +0.000 N 
ATOM     88  C63 UNL A   1      45.675  10.331  47.122  1.00  0.00    +0.000 C 
ATOM     89  C64 UNL A   1      46.573  10.286  48.109  1.00  0.00    +0.000 C 
ATOM     90  C65 UNL A   1      43.313   9.287  52.522  1.00  0.00    +0.000 C 
ATOM     91  C66 UNL A   1      42.512  10.149  51.890  1.00  0.00    +0.000 C 
ATOM    123  H30 UNL A   1      47.594  10.969  54.087  1.00  0.00    +0.000 H 
ATOM    124  H31 UNL A   1      48.411  12.837  52.380  1.00  0.00    +0.000 H 
ATOM    125  H32 UNL A   1      47.547   9.442  50.326  1.00  0.00    +0.000 H 
ATOM    126  H33 UNL A   1      42.268  14.329  46.912  1.00  0.00    +0.000 H 
ATOM    127  H34 UNL A   1      41.813  14.661  49.396  1.00  0.00    +0.000 H 
ATOM    128  H35 UNL A   1      44.695  11.689  49.083  1.00  0.00    +0.000 H 
ENDROOT
BRANCH   35   34
ATOM     33  C27 UNL A   1      40.509  12.773  51.790  1.00  0.00    +0.000 C 
ATOM     34  C28 UNL A   1      41.860  13.151  51.860  1.00  0.00    +0.000 C 
ATOM    133  H40 UNL A   1      43.227  14.574  52.598  1.00  0.00    +0.000 H 
ATOM    134  H41 UNL A   1      41.666  15.456  54.222  1.00  0.00    +0.000 H 
ATOM    121  H28 UNL A   1      38.554  13.293  52.407  1.00  0.00    +0.000 H 
ATOM    122  H29 UNL A   1      40.225  11.955  51.229  1.00  0.00    +0.000 H 
ATOM     92  C67 UNL A   1      42.257  14.227  52.643  1.00  0.00    +0.000 C 
ATOM     93  C68 UNL A   1      41.347  14.822  53.472  1.00  0.00    +0.000 C 
ATOM     31  C25 UNL A   1      39.991  14.569  53.300  1.00  0.00    +0.000 C 
ATOM     32  C26 UNL A   1      39.558  13.515  52.488  1.00  0.00    +0.000 C 
BRANCH   31   29
ATOM     29  C24 UNL A   1      39.048  15.486  53.963  1.00  0.00    +0.000 C 
ATOM     30  O2  UNL A   1      39.256  15.866  55.112  1.00  0.00    +0.000 O 
BRANCH   29   28
ATOM     28  N4  UNL A   1      37.931  15.908  53.261  1.00  0.00    +0.000 N 
ATOM    120  H27 UNL A   1      37.664  15.369  52.482  1.00  0.00    +0.000 H 
BRANCH   28   27
ATOM     27  C23 UNL A   1      37.107  17.081  53.569  1.00  0.00    +0.000 C 
ATOM    118  H25 UNL A   1      36.094  16.760  53.699  1.00  0.00    +0.000 H 
ATOM    119  H26 UNL A   1      37.503  17.525  54.458  1.00  0.00    +0.000 H 
BRANCH   27   26
ATOM     26  C22 UNL A   1      37.143  18.140  52.477  1.00  0.00    +0.000 C 
ATOM    116  H23 UNL A   1      38.153  18.234  52.139  1.00  0.00    +0.000 H 
ATOM    117  H24 UNL A   1      36.471  17.809  51.713  1.00  0.00    +0.000 H 
BRANCH   26   25
ATOM     25  C21 UNL A   1      36.653  19.527  52.915  1.00  0.00    +0.000 C 
ATOM    114  H21 UNL A   1      35.832  19.794  52.283  1.00  0.00    +0.000 H 
ATOM    115  H22 UNL A   1      36.409  19.422  53.951  1.00  0.00    +0.000 H 
BRANCH   25   24
ATOM    113  H20 UNL A   1      37.923  20.882  53.879  1.00  0.00    +0.000 H 
ATOM    112  H19 UNL A   1      37.215  21.491  52.341  1.00  0.00    +0.000 H 
ATOM     24  C20 UNL A   1      37.673  20.675  52.860  1.00  0.00    +0.000 C 
BRANCH   24   23
ATOM    111  H18 UNL A   1      38.937  19.366  51.807  1.00  0.00    +0.000 H 
ATOM    110  H17 UNL A   1      39.791  20.509  52.882  1.00  0.00    +0.000 H 
ATOM     23  C19 UNL A   1      39.006  20.371  52.167  1.00  0.00    +0.000 C 
BRANCH   23   22
ATOM    108  H15 UNL A   1      38.443  21.265  50.325  1.00  0.00    +0.000 H 
ATOM    109  H16 UNL A   1      39.557  22.220  51.316  1.00  0.00    +0.000 H 
ATOM     22  C18 UNL A   1      39.307  21.244  50.956  1.00  0.00    +0.000 C 
BRANCH   22   21
ATOM    107  H14 UNL A   1      40.271  20.159  49.420  1.00  0.00    +0.000 H 
ATOM     21  N3  UNL A   1      40.436  20.759  50.183  1.00  0.00    +0.000 N 
BRANCH   21    2
ATOM      1  O1  UNL A   1      42.171  22.251  50.286  1.00  0.00    +0.000 O 
ATOM      2  C1  UNL A   1      41.734  21.119  50.489  1.00  0.00    +0.000 C 
BRANCH    2    3
ATOM      3  C2  UNL A   1      42.635  20.017  51.007  1.00  0.00    +0.000 C 
ATOM     94  H1  UNL A   1      42.121  19.518  51.802  1.00  0.00    +0.000 H 
ATOM     95  H2  UNL A   1      43.540  20.496  51.317  1.00  0.00    +0.000 H 
BRANCH    3    4
ATOM      4  N1  UNL A   1      43.024  19.018  50.024  1.00  0.00    +0.000 N 
ATOM      5  C3  UNL A   1      42.314  17.868  49.791  1.00  0.00    +0.000 C 
ATOM      6  N2  UNL A   1      42.806  17.185  48.786  1.00  0.00    +0.000 N 
ATOM      7  C4  UNL A   1      43.878  17.918  48.346  1.00  0.00    +0.000 C 
ATOM     14  C11 UNL A   1      44.043  19.079  49.091  1.00  0.00    +0.000 C 
ATOM     96  H3  UNL A   1      41.491  17.577  50.341  1.00  0.00    +0.000 H 
BRANCH    7    8
ATOM     97  H4  UNL A   1      45.526  15.832  48.165  1.00  0.00    +0.000 H 
ATOM     98  H5  UNL A   1      46.778  15.090  46.222  1.00  0.00    +0.000 H 
ATOM     99  H6  UNL A   1      46.700  16.371  44.163  1.00  0.00    +0.000 H 
ATOM    100  H7  UNL A   1      45.388  18.409  44.049  1.00  0.00    +0.000 H 
ATOM    101  H8  UNL A   1      44.122  19.143  45.982  1.00  0.00    +0.000 H 
ATOM      8  C5  UNL A   1      44.702  17.530  47.218  1.00  0.00    +0.000 C 
ATOM      9  C6  UNL A   1      45.485  16.373  47.288  1.00  0.00    +0.000 C 
ATOM     10  C7  UNL A   1      46.211  15.950  46.172  1.00  0.00    +0.000 C 
ATOM     11  C8  UNL A   1      46.169  16.689  44.989  1.00  0.00    +0.000 C 
ATOM     12  C9  UNL A   1      45.410  17.856  44.921  1.00  0.00    +0.000 C 
ATOM     13  C10 UNL A   1      44.680  18.277  46.033  1.00  0.00    +0.000 C 
ENDBRANCH    7    8
BRANCH   14   15
ATOM    102  H9  UNL A   1      46.443  19.340  50.244  1.00  0.00    +0.000 H 
ATOM    103  H10 UNL A   1      47.980  21.211  50.099  1.00  0.00    +0.000 H 
ATOM    104  H11 UNL A   1      47.470  23.097  48.663  1.00  0.00    +0.000 H 
ATOM    105  H12 UNL A   1      45.385  23.145  47.425  1.00  0.00    +0.000 H 
ATOM    106  H13 UNL A   1      43.805  21.325  47.650  1.00  0.00    +0.000 H 
ATOM     15  C12 UNL A   1      45.011  20.162  48.927  1.00  0.00    +0.000 C 
ATOM     16  C13 UNL A   1      46.213  20.148  49.645  1.00  0.00    +0.000 C 
ATOM     17  C14 UNL A   1      47.101  21.224  49.558  1.00  0.00    +0.000 C 
ATOM     18  C15 UNL A   1      46.804  22.314  48.742  1.00  0.00    +0.000 C 
ATOM     19  C16 UNL A   1      45.606  22.342  48.034  1.00  0.00    +0.000 C 
ATOM     20  C17 UNL A   1      44.707  21.282  48.148  1.00  0.00    +0.000 C 
ENDBRANCH   14   15
ENDBRANCH    3    4
ENDBRANCH    2    3
ENDBRANCH   21    2
ENDBRANCH   22   21
ENDBRANCH   23   22
ENDBRANCH   24   23
ENDBRANCH   25   24
ENDBRANCH   26   25
ENDBRANCH   27   26
ENDBRANCH   28   27
ENDBRANCH   29   28
ENDBRANCH   31   29
ENDBRANCH   35   34
BRANCH   39   40
ATOM     40  C33 UNL A   1      45.974   7.587  51.993  1.00  0.00    +0.000 C 
ATOM     41  C34 UNL A   1      45.525   7.206  50.709  1.00  0.00    +0.000 C 
ATOM     42  F1  UNL A   1      45.264   8.131  49.774  1.00  0.00    +0.000 F 
ATOM     43  C35 UNL A   1      45.235   5.877  50.388  1.00  0.00    +0.000 C 
ATOM     44  F2  UNL A   1      44.681   5.583  49.204  1.00  0.00    +0.000 F 
ATOM     45  C36 UNL A   1      45.444   4.871  51.312  1.00  0.00    +0.000 C 
ATOM     46  F3  UNL A   1      45.106   3.605  51.032  1.00  0.00    +0.000 F 
ATOM     47  C37 UNL A   1      45.960   5.191  52.548  1.00  0.00    +0.000 C 
ATOM     48  F4  UNL A   1      46.151   4.231  53.466  1.00  0.00    +0.000 F 
ATOM     49  C38 UNL A   1      46.201   6.521  52.891  1.00  0.00    +0.000 C 
ATOM     50  F5  UNL A   1      46.553   6.715  54.165  1.00  0.00    +0.000 F 
ENDBRANCH   39   40
BRANCH   56   57
ATOM     65  F9  UNL A   1      46.466  16.747  50.398  1.00  0.00    +0.000 F 
ATOM     66  C49 UNL A   1      47.153  14.515  50.039  1.00  0.00    +0.000 C 
ATOM     67  F10 UNL A   1      46.007  14.094  50.597  1.00  0.00    +0.000 F 
ATOM     57  C44 UNL A   1      48.065  13.583  49.524  1.00  0.00    +0.000 C 
ATOM     58  C45 UNL A   1      49.225  14.086  48.909  1.00  0.00    +0.000 C 
ATOM     59  F6  UNL A   1      50.100  13.263  48.318  1.00  0.00    +0.000 F 
ATOM     60  C46 UNL A   1      49.473  15.457  48.849  1.00  0.00    +0.000 C 
ATOM     61  F7  UNL A   1      50.595  15.914  48.271  1.00  0.00    +0.000 F 
ATOM     62  C47 UNL A   1      48.549  16.355  49.359  1.00  0.00    +0.000 C 
ATOM     63  F8  UNL A   1      48.767  17.673  49.267  1.00  0.00    +0.000 F 
ATOM     64  C48 UNL A   1      47.385  15.883  49.944  1.00  0.00    +0.000 C 
ENDBRANCH   56   57
BRANCH   71   72
ATOM     72  C53 UNL A   1      43.858  12.180  45.061  1.00  0.00    +0.000 C 
ATOM     73  C54 UNL A   1      43.346  10.935  44.658  1.00  0.00    +0.000 C 
ATOM     74  F11 UNL A   1      43.554   9.845  45.413  1.00  0.00    +0.000 F 
ATOM     75  C55 UNL A   1      42.546  10.803  43.518  1.00  0.00    +0.000 C 
ATOM     76  F12 UNL A   1      42.019   9.612  43.203  1.00  0.00    +0.000 F 
ATOM     77  C56 UNL A   1      42.243  11.912  42.746  1.00  0.00    +0.000 C 
ATOM     78  F13 UNL A   1      41.419  11.801  41.693  1.00  0.00    +0.000 F 
ATOM     79  C57 UNL A   1      42.760  13.146  43.095  1.00  0.00    +0.000 C 
ATOM     80  F14 UNL A   1      42.442  14.233  42.377  1.00  0.00    +0.000 F 
ATOM     81  C58 UNL A   1      43.557  13.279  44.234  1.00  0.00    +0.000 C 
ATOM     82  F15 UNL A   1      43.946  14.516  44.572  1.00  0.00    +0.000 F 
ENDBRANCH   71   72
TORSDOF 18
ENDMDL
MODEL 10
REMARK VINA RESULT:      -9.5      1.342      2.335
ROOT
ATOM    129  H36 UNL A   1      21.987  33.603  50.570  1.00  0.00    +0.000 H 
ATOM    130  H37 UNL A   1      20.268  34.088  48.712  1.00  0.00    +0.000 H 
ATOM    131  H38 UNL A   1      24.083  34.566  44.195  1.00  0.00    +0.000 H 
ATOM    132  H39 UNL A   1      25.585  35.676  45.977  1.00  0.00    +0.000 H 
ATOM     35  C29 UNL A   1      24.232  37.802  47.369  1.00  0.00    +0.000 C 
ATOM     36  C30 UNL A   1      23.668  36.810  46.417  1.00  0.00    +0.000 C 
ATOM     37  N5  UNL A   1      22.468  36.776  45.939  1.00  0.00    +0.000 N 
ATOM     38  C31 UNL A   1      22.412  35.637  45.140  1.00  0.00    +0.000 C 
ATOM     39  C32 UNL A   1      21.237  34.968  44.977  1.00  0.00    +0.000 C 
ATOM     51  C39 UNL A   1      20.126  35.787  45.398  1.00  0.00    +0.000 C 
ATOM     52  C40 UNL A   1      19.567  36.980  44.990  1.00  0.00    +0.000 C 
ATOM     53  C41 UNL A   1      19.121  37.616  46.190  1.00  0.00    +0.000 C 
ATOM     54  C42 UNL A   1      19.363  36.754  47.260  1.00  0.00    +0.000 C 
ATOM     55  N6  UNL A   1      19.661  35.559  46.667  1.00  0.00    +0.000 N 
ATOM     56  C43 UNL A   1      19.449  36.967  48.688  1.00  0.00    +0.000 C 
ATOM     68  C50 UNL A   1      20.012  36.101  49.582  1.00  0.00    +0.000 C 
ATOM     69  N7  UNL A   1      20.512  36.568  50.787  1.00  0.00    +0.000 N 
ATOM     70  C51 UNL A   1      21.483  35.748  51.080  1.00  0.00    +0.000 C 
ATOM     71  C52 UNL A   1      22.758  36.181  51.698  1.00  0.00    +0.000 C 
ATOM     83  C59 UNL A   1      23.385  36.958  50.780  1.00  0.00    +0.000 C 
ATOM     84  C60 UNL A   1      24.429  37.939  50.961  1.00  0.00    +0.000 C 
ATOM     85  C61 UNL A   1      24.705  38.486  49.761  1.00  0.00    +0.000 C 
ATOM     86  C62 UNL A   1      23.996  37.757  48.701  1.00  0.00    +0.000 C 
ATOM     87  N8  UNL A   1      23.135  36.932  49.390  1.00  0.00    +0.000 N 
ATOM     88  C63 UNL A   1      21.459  34.472  50.389  1.00  0.00    +0.000 C 
ATOM     89  C64 UNL A   1      20.553  34.751  49.449  1.00  0.00    +0.000 C 
ATOM     90  C65 UNL A   1      23.774  35.232  44.921  1.00  0.00    +0.000 C 
ATOM     91  C66 UNL A   1      24.584  35.841  45.792  1.00  0.00    +0.000 C 
ATOM    123  H30 UNL A   1      19.489  37.338  44.025  1.00  0.00    +0.000 H 
ATOM    124  H31 UNL A   1      18.693  38.553  46.253  1.00  0.00    +0.000 H 
ATOM    125  H32 UNL A   1      19.558  34.674  47.086  1.00  0.00    +0.000 H 
ATOM    126  H33 UNL A   1      24.886  38.179  51.854  1.00  0.00    +0.000 H 
ATOM    127  H34 UNL A   1      25.324  39.298  49.609  1.00  0.00    +0.000 H 
ATOM    128  H35 UNL A   1      22.431  36.391  48.966  1.00  0.00    +0.000 H 
ENDROOT
BRANCH   35   34
ATOM     33  C27 UNL A   1      26.542  38.204  46.494  1.00  0.00    +0.000 C 
ATOM     34  C28 UNL A   1      25.250  38.670  46.788  1.00  0.00    +0.000 C 
ATOM    133  H40 UNL A   1      24.017  40.369  46.964  1.00  0.00    +0.000 H 
ATOM    134  H41 UNL A   1      25.529  41.783  45.712  1.00  0.00    +0.000 H 
ATOM    121  H28 UNL A   1      28.485  38.804  45.914  1.00  0.00    +0.000 H 
ATOM    122  H29 UNL A   1      26.767  37.201  46.582  1.00  0.00    +0.000 H 
ATOM     92  C67 UNL A   1      24.927  40.011  46.635  1.00  0.00    +0.000 C 
ATOM     93  C68 UNL A   1      25.828  40.853  46.045  1.00  0.00    +0.000 C 
ATOM     31  C25 UNL A   1      27.151  40.450  45.897  1.00  0.00    +0.000 C 
ATOM     32  C26 UNL A   1      27.515  39.112  46.080  1.00  0.00    +0.000 C 
BRANCH   31   29
ATOM     29  C24 UNL A   1      28.142  41.497  45.594  1.00  0.00    +0.000 C 
ATOM     30  O2  UNL A   1      28.863  41.401  44.604  1.00  0.00    +0.000 O 
BRANCH   29   28
ATOM     28  N4  UNL A   1      28.236  42.586  46.444  1.00  0.00    +0.000 N 
ATOM    120  H27 UNL A   1      27.743  43.397  46.186  1.00  0.00    +0.000 H 
BRANCH   28   27
ATOM     27  C23 UNL A   1      29.001  42.645  47.694  1.00  0.00    +0.000 C 
ATOM    118  H25 UNL A   1      28.840  43.602  48.146  1.00  0.00    +0.000 H 
ATOM    119  H26 UNL A   1      28.659  41.845  48.316  1.00  0.00    +0.000 H 
BRANCH   27   26
ATOM     26  C22 UNL A   1      30.497  42.453  47.489  1.00  0.00    +0.000 C 
ATOM    116  H23 UNL A   1      30.960  42.400  48.451  1.00  0.00    +0.000 H 
ATOM    117  H24 UNL A   1      30.610  41.556  46.916  1.00  0.00    +0.000 H 
BRANCH   26   25
ATOM     25  C21 UNL A   1      31.182  43.568  46.688  1.00  0.00    +0.000 C 
ATOM    114  H21 UNL A   1      30.613  43.720  45.794  1.00  0.00    +0.000 H 
ATOM    115  H22 UNL A   1      31.212  44.408  47.350  1.00  0.00    +0.000 H 
BRANCH   25   24
ATOM    113  H20 UNL A   1      33.230  43.875  46.985  1.00  0.00    +0.000 H 
ATOM    112  H19 UNL A   1      32.751  43.664  45.263  1.00  0.00    +0.000 H 
ATOM     24  C20 UNL A   1      32.642  43.333  46.275  1.00  0.00    +0.000 C 
BRANCH   24   23
ATOM    111  H18 UNL A   1      32.360  41.314  46.792  1.00  0.00    +0.000 H 
ATOM    110  H17 UNL A   1      34.050  41.879  46.925  1.00  0.00    +0.000 H 
ATOM     23  C19 UNL A   1      33.147  41.888  46.349  1.00  0.00    +0.000 C 
BRANCH   23   22
ATOM    108  H15 UNL A   1      32.619  41.440  44.341  1.00  0.00    +0.000 H 
ATOM    109  H16 UNL A   1      34.351  41.672  44.630  1.00  0.00    +0.000 H 
ATOM     22  C18 UNL A   1      33.441  41.246  44.999  1.00  0.00    +0.000 C 
BRANCH   22   21
ATOM    107  H14 UNL A   1      34.467  39.462  45.483  1.00  0.00    +0.000 H 
ATOM     21  N3  UNL A   1      33.634  39.810  45.090  1.00  0.00    +0.000 N 
BRANCH   21    2
ATOM      1  O1  UNL A   1      31.753  39.259  43.906  1.00  0.00    +0.000 O 
ATOM      2  C1  UNL A   1      32.678  38.919  44.643  1.00  0.00    +0.000 C 
BRANCH    2    3
ATOM      3  C2  UNL A   1      32.768  37.506  45.180  1.00  0.00    +0.000 C 
ATOM     94  H1  UNL A   1      33.771  37.344  45.516  1.00  0.00    +0.000 H 
ATOM     95  H2  UNL A   1      32.479  36.864  44.374  1.00  0.00    +0.000 H 
BRANCH    3    4
ATOM      4  N1  UNL A   1      31.868  37.201  46.281  1.00  0.00    +0.000 N 
ATOM      5  C3  UNL A   1      31.944  37.803  47.510  1.00  0.00    +0.000 C 
ATOM      6  N2  UNL A   1      30.959  37.439  48.296  1.00  0.00    +0.000 N 
ATOM      7  C4  UNL A   1      30.210  36.567  47.548  1.00  0.00    +0.000 C 
ATOM     14  C11 UNL A   1      30.743  36.397  46.276  1.00  0.00    +0.000 C 
ATOM     96  H3  UNL A   1      32.688  38.464  47.784  1.00  0.00    +0.000 H 
BRANCH    7    8
ATOM     97  H4  UNL A   1      28.644  37.362  49.553  1.00  0.00    +0.000 H 
ATOM     98  H5  UNL A   1      26.528  36.402  50.256  1.00  0.00    +0.000 H 
ATOM     99  H6  UNL A   1      25.671  34.413  49.164  1.00  0.00    +0.000 H 
ATOM    100  H7  UNL A   1      26.940  33.364  47.381  1.00  0.00    +0.000 H 
ATOM    101  H8  UNL A   1      29.045  34.329  46.664  1.00  0.00    +0.000 H 
ATOM      8  C5  UNL A   1      28.997  35.938  48.033  1.00  0.00    +0.000 C 
ATOM      9  C6  UNL A   1      28.277  36.521  49.081  1.00  0.00    +0.000 C 
ATOM     10  C7  UNL A   1      27.063  35.965  49.490  1.00  0.00    +0.000 C 
ATOM     11  C8  UNL A   1      26.572  34.818  48.865  1.00  0.00    +0.000 C 
ATOM     12  C9  UNL A   1      27.298  34.219  47.837  1.00  0.00    +0.000 C 
ATOM     13  C10 UNL A   1      28.508  34.776  47.423  1.00  0.00    +0.000 C 
ENDBRANCH    7    8
BRANCH   14   15
ATOM    102  H9  UNL A   1      31.582  34.007  45.416  1.00  0.00    +0.000 H 
ATOM    103  H10 UNL A   1      30.854  32.779  43.456  1.00  0.00    +0.000 H 
ATOM    104  H11 UNL A   1      29.053  33.641  42.078  1.00  0.00    +0.000 H 
ATOM    105  H12 UNL A   1      28.028  35.771  42.622  1.00  0.00    +0.000 H 
ATOM    106  H13 UNL A   1      28.827  37.045  44.520  1.00  0.00    +0.000 H 
ATOM     15  C12 UNL A   1      30.236  35.612  45.151  1.00  0.00    +0.000 C 
ATOM     16  C13 UNL A   1      30.828  34.387  44.823  1.00  0.00    +0.000 C 
ATOM     17  C14 UNL A   1      30.405  33.676  43.696  1.00  0.00    +0.000 C 
ATOM     18  C15 UNL A   1      29.378  34.176  42.898  1.00  0.00    +0.000 C 
ATOM     19  C16 UNL A   1      28.792  35.399  43.209  1.00  0.00    +0.000 C 
ATOM     20  C17 UNL A   1      29.239  36.121  44.315  1.00  0.00    +0.000 C 
ENDBRANCH   14   15
ENDBRANCH    3    4
ENDBRANCH    2    3
ENDBRANCH   21    2
ENDBRANCH   22   21
ENDBRANCH   23   22
ENDBRANCH   24   23
ENDBRANCH   25   24
ENDBRANCH   26   25
ENDBRANCH   27   26
ENDBRANCH   28   27
ENDBRANCH   29   28
ENDBRANCH   31   29
ENDBRANCH   35   34
BRANCH   39   40
ATOM     40  C33 UNL A   1      21.109  33.457  44.894  1.00  0.00    +0.000 C 
ATOM     41  C34 UNL A   1      20.097  32.910  44.075  1.00  0.00    +0.000 C 
ATOM     42  F1  UNL A   1      19.455  33.673  43.179  1.00  0.00    +0.000 F 
ATOM     43  C35 UNL A   1      19.649  31.594  44.229  1.00  0.00    +0.000 C 
ATOM     44  F2  UNL A   1      18.594  31.163  43.524  1.00  0.00    +0.000 F 
ATOM     45  C36 UNL A   1      20.237  30.757  45.157  1.00  0.00    +0.000 C 
ATOM     46  F3  UNL A   1      19.767  29.517  45.354  1.00  0.00    +0.000 F 
ATOM     47  C37 UNL A   1      21.283  31.228  45.919  1.00  0.00    +0.000 C 
ATOM     48  F4  UNL A   1      21.854  30.437  46.840  1.00  0.00    +0.000 F 
ATOM     49  C38 UNL A   1      21.698  32.555  45.806  1.00  0.00    +0.000 C 
ATOM     50  F5  UNL A   1      22.614  32.931  46.703  1.00  0.00    +0.000 F 
ENDBRANCH   39   40
BRANCH   56   57
ATOM     65  F9  UNL A   1      20.686  41.595  49.414  1.00  0.00    +0.000 F 
ATOM     66  C49 UNL A   1      19.986  39.375  49.018  1.00  0.00    +0.000 C 
ATOM     67  F10 UNL A   1      21.133  39.152  48.358  1.00  0.00    +0.000 F 
ATOM     57  C44 UNL A   1      19.066  38.331  49.193  1.00  0.00    +0.000 C 
ATOM     58  C45 UNL A   1      17.904  38.613  49.934  1.00  0.00    +0.000 C 
ATOM     59  F6  UNL A   1      17.021  37.648  50.218  1.00  0.00    +0.000 F 
ATOM     60  C46 UNL A   1      17.662  39.890  50.439  1.00  0.00    +0.000 C 
ATOM     61  F7  UNL A   1      16.539  40.139  51.130  1.00  0.00    +0.000 F 
ATOM     62  C47 UNL A   1      18.594  40.899  50.257  1.00  0.00    +0.000 C 
ATOM     63  F8  UNL A   1      18.382  42.116  50.775  1.00  0.00    +0.000 F 
ATOM     64  C48 UNL A   1      19.760  40.637  49.555  1.00  0.00    +0.000 C 
ENDBRANCH   56   57
BRANCH   71   72
ATOM     72  C53 UNL A   1      23.301  35.548  52.921  1.00  0.00    +0.000 C 
ATOM     73  C54 UNL A   1      22.611  35.622  54.143  1.00  0.00    +0.000 C 
ATOM     74  F11 UNL A   1      21.579  36.468  54.282  1.00  0.00    +0.000 F 
ATOM     75  C55 UNL A   1      22.917  34.774  55.212  1.00  0.00    +0.000 C 
ATOM     76  F12 UNL A   1      22.190  34.826  56.337  1.00  0.00    +0.000 F 
ATOM     77  C56 UNL A   1      23.926  33.833  55.092  1.00  0.00    +0.000 C 
ATOM     78  F13 UNL A   1      24.173  32.973  56.090  1.00  0.00    +0.000 F 
ATOM     79  C57 UNL A   1      24.649  33.759  53.915  1.00  0.00    +0.000 C 
ATOM     80  F14 UNL A   1      25.603  32.828  53.774  1.00  0.00    +0.000 F 
ATOM     81  C58 UNL A   1      24.343  34.604  52.846  1.00  0.00    +0.000 C 
ATOM     82  F15 UNL A   1      25.016  34.416  51.702  1.00  0.00    +0.000 F 
ENDBRANCH   71   72
TORSDOF 18
ENDMDL
