MODEL 1
REMARK VINA RESULT:      -9.1      0.000      0.000
ROOT
ATOM     19  C15 UNL A   1      13.793  53.596   5.380  1.00  0.00    +0.000 C 
ATOM     20  C16 UNL A   1      14.759  54.073   4.332  1.00  0.00    +0.000 C 
ATOM     21  N3  UNL A   1      15.259  53.423   3.309  1.00  0.00    +0.000 N 
ATOM     22  C17 UNL A   1      16.063  54.335   2.638  1.00  0.00    +0.000 C 
ATOM     23  C18 UNL A   1      16.840  54.134   1.546  1.00  0.00    +0.000 C 
ATOM     35  C25 UNL A   1      16.977  52.874   0.864  1.00  0.00    +0.000 C 
ATOM     36  C26 UNL A   1      17.786  52.558  -0.213  1.00  0.00    +0.000 C 
ATOM     37  C27 UNL A   1      17.555  51.223  -0.559  1.00  0.00    +0.000 C 
ATOM     38  C28 UNL A   1      16.634  50.694   0.329  1.00  0.00    +0.000 C 
ATOM     39  N4  UNL A   1      16.284  51.719   1.194  1.00  0.00    +0.000 N 
ATOM     40  C29 UNL A   1      16.107  49.355   0.385  1.00  0.00    +0.000 C 
ATOM     52  C36 UNL A   1      15.211  48.911   1.300  1.00  0.00    +0.000 C 
ATOM     53  N5  UNL A   1      14.621  49.603   2.348  1.00  0.00    +0.000 N 
ATOM     54  C37 UNL A   1      13.820  48.749   2.937  1.00  0.00    +0.000 C 
ATOM     55  C38 UNL A   1      12.947  48.946   4.146  1.00  0.00    +0.000 C 
ATOM     67  C45 UNL A   1      12.948  50.136   4.776  1.00  0.00    +0.000 C 
ATOM     68  C46 UNL A   1      12.161  50.466   5.960  1.00  0.00    +0.000 C 
ATOM     69  C47 UNL A   1      12.377  51.751   6.286  1.00  0.00    +0.000 C 
ATOM     70  C48 UNL A   1      13.344  52.325   5.351  1.00  0.00    +0.000 C 
ATOM     71  N6  UNL A   1      13.635  51.292   4.495  1.00  0.00    +0.000 N 
ATOM     72  C49 UNL A   1      13.793  47.420   2.309  1.00  0.00    +0.000 C 
ATOM     73  C50 UNL A   1      14.687  47.562   1.341  1.00  0.00    +0.000 C 
ATOM     74  C51 UNL A   1      15.951  55.595   3.343  1.00  0.00    +0.000 C 
ATOM     75  C52 UNL A   1      15.205  55.471   4.431  1.00  0.00    +0.000 C 
ATOM    112  H21 UNL A   1      18.447  53.198  -0.681  1.00  0.00    +0.000 H 
ATOM    113  H22 UNL A   1      17.997  50.717  -1.343  1.00  0.00    +0.000 H 
ATOM    114  H23 UNL A   1      15.640  51.638   1.934  1.00  0.00    +0.000 H 
ATOM    115  H24 UNL A   1      11.539  49.817   6.466  1.00  0.00    +0.000 H 
ATOM    116  H25 UNL A   1      11.930  52.253   7.069  1.00  0.00    +0.000 H 
ATOM    117  H26 UNL A   1      14.274  51.371   3.751  1.00  0.00    +0.000 H 
ATOM    118  H27 UNL A   1      13.226  46.594   2.557  1.00  0.00    +0.000 H 
ATOM    119  H28 UNL A   1      14.972  46.807   0.697  1.00  0.00    +0.000 H 
ATOM    120  H29 UNL A   1      16.395  56.475   3.038  1.00  0.00    +0.000 H 
ATOM    121  H30 UNL A   1      14.991  56.172   5.158  1.00  0.00    +0.000 H 
ENDROOT
BRANCH   19   18
ATOM     76  C53 UNL A   1      12.055  55.193   6.209  1.00  0.00    +0.000 C 
ATOM     77  C54 UNL A   1      11.554  56.066   7.176  1.00  0.00    +0.000 C 
ATOM    110  H19 UNL A   1      13.974  55.738   9.473  1.00  0.00    +0.000 H 
ATOM     15  C11 UNL A   1      12.222  56.219   8.394  1.00  0.00    +0.000 C 
ATOM     16  C12 UNL A   1      13.456  55.590   8.593  1.00  0.00    +0.000 C 
ATOM     17  C13 UNL A   1      13.988  54.763   7.600  1.00  0.00    +0.000 C 
ATOM    111  H20 UNL A   1      14.909  54.319   7.741  1.00  0.00    +0.000 H 
ATOM     18  C14 UNL A   1      13.276  54.532   6.412  1.00  0.00    +0.000 C 
ATOM    122  H31 UNL A   1      11.524  55.033   5.339  1.00  0.00    +0.000 H 
ATOM    123  H32 UNL A   1      10.689  56.599   6.991  1.00  0.00    +0.000 H 
BRANCH   15   13
ATOM     13  C10 UNL A   1      11.684  57.084   9.470  1.00  0.00    +0.000 C 
ATOM     14  O2  UNL A   1      11.805  58.300   9.385  1.00  0.00    +0.000 O 
BRANCH   13   12
ATOM     12  N2  UNL A   1      11.054  56.534  10.561  1.00  0.00    +0.000 N 
ATOM    109  H18 UNL A   1      11.164  57.032  11.403  1.00  0.00    +0.000 H 
BRANCH   12   11
ATOM     11  C9  UNL A   1      10.250  55.327  10.655  1.00  0.00    +0.000 C 
ATOM    108  H17 UNL A   1       9.812  55.149   9.695  1.00  0.00    +0.000 H 
ATOM    107  H16 UNL A   1       9.501  55.469  11.406  1.00  0.00    +0.000 H 
BRANCH   11   10
ATOM    105  H14 UNL A   1      12.051  54.443  11.338  1.00  0.00    +0.000 H 
ATOM     10  C8  UNL A   1      11.088  54.102  11.022  1.00  0.00    +0.000 C 
ATOM    106  H15 UNL A   1      10.540  53.588  11.785  1.00  0.00    +0.000 H 
BRANCH   10    9
ATOM      9  C7  UNL A   1      11.292  53.083   9.892  1.00  0.00    +0.000 C 
ATOM    103  H12 UNL A   1      10.577  53.297   9.125  1.00  0.00    +0.000 H 
ATOM    104  H13 UNL A   1      12.311  53.192   9.582  1.00  0.00    +0.000 H 
BRANCH    9    8
ATOM    101  H10 UNL A   1      10.386  51.174   9.655  1.00  0.00    +0.000 H 
ATOM    102  H11 UNL A   1      12.096  51.156  10.162  1.00  0.00    +0.000 H 
ATOM      8  C6  UNL A   1      11.134  51.608  10.283  1.00  0.00    +0.000 C 
BRANCH    8    7
ATOM     99  H8  UNL A   1      11.616  51.281  12.330  1.00  0.00    +0.000 H 
ATOM    100  H9  UNL A   1      10.132  52.215  12.039  1.00  0.00    +0.000 H 
ATOM      7  C5  UNL A   1      10.727  51.377  11.742  1.00  0.00    +0.000 C 
BRANCH    7    6
ATOM     97  H6  UNL A   1      10.013  49.764  12.945  1.00  0.00    +0.000 H 
ATOM     98  H7  UNL A   1       8.847  50.380  11.780  1.00  0.00    +0.000 H 
ATOM      6  C4  UNL A   1       9.872  50.123  11.947  1.00  0.00    +0.000 C 
BRANCH    6    5
ATOM      5  N1  UNL A   1      10.244  49.078  11.011  1.00  0.00    +0.000 N 
ATOM     96  H5  UNL A   1      10.058  49.276  10.065  1.00  0.00    +0.000 H 
BRANCH    5    3
ATOM      3  C3  UNL A   1      10.816  47.857  11.253  1.00  0.00    +0.000 C 
ATOM      4  O1  UNL A   1      10.125  46.858  11.042  1.00  0.00    +0.000 O 
BRANCH    3    2
ATOM      2  C2  UNL A   1      12.254  47.760  11.797  1.00  0.00    +0.000 C 
ATOM     95  H4  UNL A   1      12.428  48.577  12.463  1.00  0.00    +0.000 H 
BRANCH    2    1
ATOM      1  C1  UNL A   1      12.415  46.453  12.586  1.00  0.00    +0.000 C 
ATOM     92  H1  UNL A   1      12.552  45.639  11.905  1.00  0.00    +0.000 H 
ATOM     93  H2  UNL A   1      11.539  46.281  13.175  1.00  0.00    +0.000 H 
ATOM     94  H3  UNL A   1      13.268  46.527  13.229  1.00  0.00    +0.000 H 
ENDBRANCH    2    1
BRANCH    2   78
ATOM    129  H38 UNL A   1      17.378  51.316   4.873  1.00  0.00    +0.000 H 
ATOM    130  H39 UNL A   1      16.154  47.426   5.917  1.00  0.00    +0.000 H 
ATOM     78  C55 UNL A   1      13.295  47.905  10.689  1.00  0.00    +0.000 C 
ATOM     79  C56 UNL A   1      13.564  46.868   9.784  1.00  0.00    +0.000 C 
ATOM     80  C57 UNL A   1      14.404  47.061   8.677  1.00  0.00    +0.000 C 
ATOM     81  C58 UNL A   1      14.928  48.344   8.421  1.00  0.00    +0.000 C 
ATOM     82  C59 UNL A   1      14.682  49.351   9.350  1.00  0.00    +0.000 C 
ATOM     83  C60 UNL A   1      13.939  49.143  10.516  1.00  0.00    +0.000 C 
ATOM     84  N7  UNL A   1      15.255  50.501   8.864  1.00  0.00    +0.000 N 
ATOM     85  C61 UNL A   1      15.811  50.289   7.625  1.00  0.00    +0.000 C 
ATOM     86  C62 UNL A   1      16.416  51.193   6.744  1.00  0.00    +0.000 C 
ATOM     87  C63 UNL A   1      16.929  50.680   5.550  1.00  0.00    +0.000 C 
ATOM     88  C64 UNL A   1      16.843  49.319   5.264  1.00  0.00    +0.000 C 
ATOM     89 Cl1  UNL A   1      17.508  48.723   3.791  1.00  0.00    +0.000 Cl
ATOM     90  C65 UNL A   1      16.219  48.431   6.144  1.00  0.00    +0.000 C 
ATOM     91  C66 UNL A   1      15.679  48.928   7.349  1.00  0.00    +0.000 C 
ATOM    124  H33 UNL A   1      13.134  45.942   9.936  1.00  0.00    +0.000 H 
ATOM    125  H34 UNL A   1      14.636  46.271   8.054  1.00  0.00    +0.000 H 
ATOM    126  H35 UNL A   1      13.864  49.882  11.233  1.00  0.00    +0.000 H 
ATOM    127  H36 UNL A   1      15.264  51.364   9.339  1.00  0.00    +0.000 H 
ATOM    128  H37 UNL A   1      16.480  52.198   6.968  1.00  0.00    +0.000 H 
ENDBRANCH    2   78
ENDBRANCH    3    2
ENDBRANCH    5    3
ENDBRANCH    6    5
ENDBRANCH    7    6
ENDBRANCH    8    7
ENDBRANCH    9    8
ENDBRANCH   10    9
ENDBRANCH   11   10
ENDBRANCH   12   11
ENDBRANCH   13   12
ENDBRANCH   15   13
ENDBRANCH   19   18
BRANCH   23   24
ATOM     33  C24 UNL A   1      17.103  56.086  -0.029  1.00  0.00    +0.000 C 
ATOM     34  F5  UNL A   1      15.897  55.811  -0.550  1.00  0.00    +0.000 F 
ATOM     24  C19 UNL A   1      17.615  55.307   1.021  1.00  0.00    +0.000 C 
ATOM     25  C20 UNL A   1      18.883  55.634   1.522  1.00  0.00    +0.000 C 
ATOM     26  F1  UNL A   1      19.413  54.927   2.532  1.00  0.00    +0.000 F 
ATOM     27  C21 UNL A   1      19.601  56.712   1.009  1.00  0.00    +0.000 C 
ATOM     28  F2  UNL A   1      20.793  57.030   1.533  1.00  0.00    +0.000 F 
ATOM     29  C22 UNL A   1      19.079  57.462  -0.033  1.00  0.00    +0.000 C 
ATOM     30  F3  UNL A   1      19.775  58.495  -0.531  1.00  0.00    +0.000 F 
ATOM     31  C23 UNL A   1      17.835  57.146  -0.557  1.00  0.00    +0.000 C 
ATOM     32  F4  UNL A   1      17.335  57.862  -1.575  1.00  0.00    +0.000 F 
ENDBRANCH   23   24
BRANCH   40   41
ATOM     41  C30 UNL A   1      16.600  48.365  -0.628  1.00  0.00    +0.000 C 
ATOM     42  C31 UNL A   1      17.864  47.766  -0.517  1.00  0.00    +0.000 C 
ATOM     43  F6  UNL A   1      18.687  48.110   0.485  1.00  0.00    +0.000 F 
ATOM     44  C32 UNL A   1      18.302  46.840  -1.459  1.00  0.00    +0.000 C 
ATOM     45  F7  UNL A   1      19.531  46.315  -1.358  1.00  0.00    +0.000 F 
ATOM     46  C33 UNL A   1      17.476  46.472  -2.511  1.00  0.00    +0.000 C 
ATOM     47  F8  UNL A   1      17.898  45.578  -3.415  1.00  0.00    +0.000 F 
ATOM     48  C34 UNL A   1      16.216  47.038  -2.631  1.00  0.00    +0.000 C 
ATOM     49  F9  UNL A   1      15.413  46.677  -3.640  1.00  0.00    +0.000 F 
ATOM     50  C35 UNL A   1      15.785  47.984  -1.705  1.00  0.00    +0.000 C 
ATOM     51  F10 UNL A   1      14.566  48.524  -1.853  1.00  0.00    +0.000 F 
ENDBRANCH   40   41
BRANCH   55   56
ATOM     65  C44 UNL A   1      12.666  46.767   5.378  1.00  0.00    +0.000 C 
ATOM     66  F15 UNL A   1      13.987  46.727   5.601  1.00  0.00    +0.000 F 
ATOM     56  C39 UNL A   1      12.106  47.835   4.663  1.00  0.00    +0.000 C 
ATOM     57  C40 UNL A   1      10.721  47.826   4.452  1.00  0.00    +0.000 C 
ATOM     58  F11 UNL A   1      10.139  48.838   3.791  1.00  0.00    +0.000 F 
ATOM     59  C41 UNL A   1       9.923  46.800   4.953  1.00  0.00    +0.000 C 
ATOM     60  F12 UNL A   1       8.596  46.837   4.773  1.00  0.00    +0.000 F 
ATOM     61  C42 UNL A   1      10.500  45.748   5.650  1.00  0.00    +0.000 C 
ATOM     62  F13 UNL A   1       9.733  44.759   6.128  1.00  0.00    +0.000 F 
ATOM     63  C43 UNL A   1      11.871  45.727   5.856  1.00  0.00    +0.000 C 
ATOM     64  F14 UNL A   1      12.433  44.706   6.516  1.00  0.00    +0.000 F 
ENDBRANCH   55   56
TORSDOF 17
ENDMDL
MODEL 2
REMARK VINA RESULT:      -9.1      2.063      3.676
ROOT
ATOM     19  C15 UNL A   1      13.717  53.475   5.732  1.00  0.00    +0.000 C 
ATOM     20  C16 UNL A   1      14.637  54.001   4.666  1.00  0.00    +0.000 C 
ATOM     21  N3  UNL A   1      15.129  53.385   3.619  1.00  0.00    +0.000 N 
ATOM     22  C17 UNL A   1      15.884  54.334   2.941  1.00  0.00    +0.000 C 
ATOM     23  C18 UNL A   1      16.636  54.177   1.825  1.00  0.00    +0.000 C 
ATOM     35  C25 UNL A   1      16.794  52.933   1.118  1.00  0.00    +0.000 C 
ATOM     36  C26 UNL A   1      17.583  52.662   0.014  1.00  0.00    +0.000 C 
ATOM     37  C27 UNL A   1      17.386  51.325  -0.349  1.00  0.00    +0.000 C 
ATOM     38  C28 UNL A   1      16.508  50.752   0.556  1.00  0.00    +0.000 C 
ATOM     39  N4  UNL A   1      16.149  51.750   1.447  1.00  0.00    +0.000 N 
ATOM     40  C29 UNL A   1      16.028  49.395   0.604  1.00  0.00    +0.000 C 
ATOM     52  C36 UNL A   1      15.173  48.907   1.535  1.00  0.00    +0.000 C 
ATOM     53  N5  UNL A   1      14.590  49.562   2.611  1.00  0.00    +0.000 N 
ATOM     54  C37 UNL A   1      13.834  48.672   3.207  1.00  0.00    +0.000 C 
ATOM     55  C38 UNL A   1      12.990  48.820   4.443  1.00  0.00    +0.000 C 
ATOM     67  C45 UNL A   1      12.969  49.999   5.093  1.00  0.00    +0.000 C 
ATOM     68  C46 UNL A   1      12.206  50.284   6.304  1.00  0.00    +0.000 C 
ATOM     69  C47 UNL A   1      12.388  51.570   6.645  1.00  0.00    +0.000 C 
ATOM     70  C48 UNL A   1      13.309  52.191   5.694  1.00  0.00    +0.000 C 
ATOM     71  N6  UNL A   1      13.610  51.182   4.813  1.00  0.00    +0.000 N 
ATOM     72  C49 UNL A   1      13.833  47.354   2.557  1.00  0.00    +0.000 C 
ATOM     73  C50 UNL A   1      14.694  47.541   1.567  1.00  0.00    +0.000 C 
ATOM     74  C51 UNL A   1      15.750  55.578   3.671  1.00  0.00    +0.000 C 
ATOM     75  C52 UNL A   1      15.039  55.412   4.776  1.00  0.00    +0.000 C 
ATOM    112  H21 UNL A   1      18.208  53.331  -0.461  1.00  0.00    +0.000 H 
ATOM    113  H22 UNL A   1      17.822  50.847  -1.153  1.00  0.00    +0.000 H 
ATOM    114  H23 UNL A   1      15.529  51.636   2.204  1.00  0.00    +0.000 H 
ATOM    115  H24 UNL A   1      11.619  49.606   6.816  1.00  0.00    +0.000 H 
ATOM    116  H25 UNL A   1      11.948  52.044   7.449  1.00  0.00    +0.000 H 
ATOM    117  H26 UNL A   1      14.225  51.295   4.053  1.00  0.00    +0.000 H 
ATOM    118  H27 UNL A   1      13.301  46.506   2.807  1.00  0.00    +0.000 H 
ATOM    119  H28 UNL A   1      14.986  46.806   0.903  1.00  0.00    +0.000 H 
ATOM    120  H29 UNL A   1      16.156  56.477   3.368  1.00  0.00    +0.000 H 
ATOM    121  H30 UNL A   1      14.823  56.094   5.521  1.00  0.00    +0.000 H 
ENDROOT
BRANCH   19   18
ATOM     76  C53 UNL A   1      12.017  55.102   6.581  1.00  0.00    +0.000 C 
ATOM     77  C54 UNL A   1      11.515  55.943   7.576  1.00  0.00    +0.000 C 
ATOM    110  H19 UNL A   1      13.823  55.384   9.942  1.00  0.00    +0.000 H 
ATOM     15  C11 UNL A   1      12.139  56.000   8.825  1.00  0.00    +0.000 C 
ATOM     16  C12 UNL A   1      13.335  55.307   9.036  1.00  0.00    +0.000 C 
ATOM     17  C13 UNL A   1      13.871  54.512   8.019  1.00  0.00    +0.000 C 
ATOM    111  H20 UNL A   1      14.766  54.020   8.171  1.00  0.00    +0.000 H 
ATOM     18  C14 UNL A   1      13.199  54.377   6.794  1.00  0.00    +0.000 C 
ATOM    122  H31 UNL A   1      11.515  55.013   5.684  1.00  0.00    +0.000 H 
ATOM    123  H32 UNL A   1      10.681  56.524   7.387  1.00  0.00    +0.000 H 
BRANCH   15   13
ATOM     13  C10 UNL A   1      11.594  56.830   9.925  1.00  0.00    +0.000 C 
ATOM     14  O2  UNL A   1      11.400  58.026   9.742  1.00  0.00    +0.000 O 
BRANCH   13   12
ATOM     12  N2  UNL A   1      11.309  56.270  11.148  1.00  0.00    +0.000 N 
ATOM    109  H18 UNL A   1      11.687  56.744  11.924  1.00  0.00    +0.000 H 
BRANCH   12   11
ATOM     11  C9  UNL A   1      10.531  55.084  11.465  1.00  0.00    +0.000 C 
ATOM    108  H17 UNL A   1      10.260  54.614  10.543  1.00  0.00    +0.000 H 
ATOM    107  H16 UNL A   1       9.666  55.378  12.022  1.00  0.00    +0.000 H 
BRANCH   11   10
ATOM    105  H14 UNL A   1      10.685  53.688  13.052  1.00  0.00    +0.000 H 
ATOM     10  C8  UNL A   1      11.329  54.074  12.290  1.00  0.00    +0.000 C 
ATOM    106  H15 UNL A   1      11.669  53.332  11.597  1.00  0.00    +0.000 H 
BRANCH   10    9
ATOM      9  C7  UNL A   1      12.590  54.627  12.968  1.00  0.00    +0.000 C 
ATOM    103  H12 UNL A   1      12.612  55.685  12.805  1.00  0.00    +0.000 H 
ATOM    104  H13 UNL A   1      12.513  54.345  13.997  1.00  0.00    +0.000 H 
BRANCH    9    8
ATOM    101  H10 UNL A   1      13.843  53.870  11.426  1.00  0.00    +0.000 H 
ATOM    102  H11 UNL A   1      14.676  54.768  12.724  1.00  0.00    +0.000 H 
ATOM      8  C6  UNL A   1      13.923  54.048  12.478  1.00  0.00    +0.000 C 
BRANCH    8    7
ATOM     99  H8  UNL A   1      14.167  52.834  14.208  1.00  0.00    +0.000 H 
ATOM    100  H9  UNL A   1      13.747  51.959  12.720  1.00  0.00    +0.000 H 
ATOM      7  C5  UNL A   1      14.336  52.738  13.156  1.00  0.00    +0.000 C 
BRANCH    7    6
ATOM     97  H6  UNL A   1      16.305  53.197  12.472  1.00  0.00    +0.000 H 
ATOM     98  H7  UNL A   1      16.247  52.146  13.881  1.00  0.00    +0.000 H 
ATOM      6  C4  UNL A   1      15.806  52.371  12.933  1.00  0.00    +0.000 C 
BRANCH    6    5
ATOM      5  N1  UNL A   1      15.930  51.205  12.078  1.00  0.00    +0.000 N 
ATOM     96  H5  UNL A   1      15.725  50.345  12.508  1.00  0.00    +0.000 H 
BRANCH    5    3
ATOM      3  C3  UNL A   1      16.291  51.130  10.759  1.00  0.00    +0.000 C 
ATOM      4  O1  UNL A   1      17.448  50.784  10.509  1.00  0.00    +0.000 O 
BRANCH    3    2
ATOM      2  C2  UNL A   1      15.287  51.496   9.650  1.00  0.00    +0.000 C 
ATOM     95  H4  UNL A   1      15.135  52.554   9.656  1.00  0.00    +0.000 H 
BRANCH    2    1
ATOM      1  C1  UNL A   1      15.867  51.101   8.284  1.00  0.00    +0.000 C 
ATOM     92  H1  UNL A   1      15.186  51.390   7.510  1.00  0.00    +0.000 H 
ATOM     93  H2  UNL A   1      16.015  50.042   8.251  1.00  0.00    +0.000 H 
ATOM     94  H3  UNL A   1      16.804  51.596   8.137  1.00  0.00    +0.000 H 
ENDBRANCH    2    1
BRANCH    2   78
ATOM    129  H38 UNL A   1       7.875  45.869   9.144  1.00  0.00    +0.000 H 
ATOM    130  H39 UNL A   1       8.411  49.938  10.080  1.00  0.00    +0.000 H 
ATOM     78  C55 UNL A   1      13.911  50.883   9.900  1.00  0.00    +0.000 C 
ATOM     79  C56 UNL A   1      12.765  51.675  10.060  1.00  0.00    +0.000 C 
ATOM     80  C57 UNL A   1      11.484  51.105  10.133  1.00  0.00    +0.000 C 
ATOM     81  C58 UNL A   1      11.335  49.714   9.962  1.00  0.00    +0.000 C 
ATOM     82  C59 UNL A   1      12.485  48.941   9.843  1.00  0.00    +0.000 C 
ATOM     83  C60 UNL A   1      13.774  49.484   9.881  1.00  0.00    +0.000 C 
ATOM     84  N7  UNL A   1      12.083  47.641   9.649  1.00  0.00    +0.000 N 
ATOM     85  C61 UNL A   1      10.714  47.555   9.579  1.00  0.00    +0.000 C 
ATOM     86  C62 UNL A   1       9.894  46.452   9.313  1.00  0.00    +0.000 C 
ATOM     87  C63 UNL A   1       8.512  46.658   9.340  1.00  0.00    +0.000 C 
ATOM     88  C64 UNL A   1       7.984  47.914   9.630  1.00  0.00    +0.000 C 
ATOM     89 Cl1  UNL A   1       6.274  48.120   9.675  1.00  0.00    +0.000 Cl
ATOM     90  C65 UNL A   1       8.814  49.011   9.875  1.00  0.00    +0.000 C 
ATOM     91  C66 UNL A   1      10.213  48.832   9.838  1.00  0.00    +0.000 C 
ATOM    124  H33 UNL A   1      12.865  52.700  10.126  1.00  0.00    +0.000 H 
ATOM    125  H34 UNL A   1      10.658  51.699  10.308  1.00  0.00    +0.000 H 
ATOM    126  H35 UNL A   1      14.605  48.872   9.895  1.00  0.00    +0.000 H 
ATOM    127  H36 UNL A   1      12.695  46.874   9.570  1.00  0.00    +0.000 H 
ATOM    128  H37 UNL A   1      10.295  45.524   9.105  1.00  0.00    +0.000 H 
ENDBRANCH    2   78
ENDBRANCH    3    2
ENDBRANCH    5    3
ENDBRANCH    6    5
ENDBRANCH    7    6
ENDBRANCH    8    7
ENDBRANCH    9    8
ENDBRANCH   10    9
ENDBRANCH   11   10
ENDBRANCH   12   11
ENDBRANCH   13   12
ENDBRANCH   15   13
ENDBRANCH   19   18
BRANCH   23   24
ATOM     33  C24 UNL A   1      16.739  56.230   0.364  1.00  0.00    +0.000 C 
ATOM     34  F5  UNL A   1      15.483  55.989  -0.040  1.00  0.00    +0.000 F 
ATOM     24  C19 UNL A   1      17.356  55.383   1.299  1.00  0.00    +0.000 C 
ATOM     25  C20 UNL A   1      18.673  55.677   1.681  1.00  0.00    +0.000 C 
ATOM     26  F1  UNL A   1      19.304  54.905   2.579  1.00  0.00    +0.000 F 
ATOM     27  C21 UNL A   1      19.338  56.788   1.166  1.00  0.00    +0.000 C 
ATOM     28  F2  UNL A   1      20.581  57.072   1.579  1.00  0.00    +0.000 F 
ATOM     29  C22 UNL A   1      18.711  57.606   0.239  1.00  0.00    +0.000 C 
ATOM     30  F3  UNL A   1      19.356  58.670  -0.262  1.00  0.00    +0.000 F 
ATOM     31  C23 UNL A   1      17.416  57.324  -0.168  1.00  0.00    +0.000 C 
ATOM     32  F4  UNL A   1      16.814  58.106  -1.075  1.00  0.00    +0.000 F 
ENDBRANCH   23   24
BRANCH   40   41
ATOM     41  C30 UNL A   1      16.523  48.438  -0.440  1.00  0.00    +0.000 C 
ATOM     42  C31 UNL A   1      15.741  48.097  -1.554  1.00  0.00    +0.000 C 
ATOM     43  F6  UNL A   1      14.500  48.588  -1.683  1.00  0.00    +0.000 F 
ATOM     44  C32 UNL A   1      16.220  47.217  -2.521  1.00  0.00    +0.000 C 
ATOM     45  F7  UNL A   1      15.439  46.870  -3.553  1.00  0.00    +0.000 F 
ATOM     46  C33 UNL A   1      17.497  46.687  -2.409  1.00  0.00    +0.000 C 
ATOM     47  F8  UNL A   1      17.957  45.843  -3.343  1.00  0.00    +0.000 F 
ATOM     48  C34 UNL A   1      18.294  47.024  -1.326  1.00  0.00    +0.000 C 
ATOM     49  F9  UNL A   1      19.530  46.521  -1.222  1.00  0.00    +0.000 F 
ATOM     50  C35 UNL A   1      17.809  47.883  -0.344  1.00  0.00    +0.000 C 
ATOM     51  F10 UNL A   1      18.596  48.182   0.700  1.00  0.00    +0.000 F 
ENDBRANCH   40   41
BRANCH   55   56
ATOM     65  C44 UNL A   1      10.973  47.313   4.391  1.00  0.00    +0.000 C 
ATOM     66  F15 UNL A   1      10.482  48.011   3.357  1.00  0.00    +0.000 F 
ATOM     56  C39 UNL A   1      12.201  47.674   4.964  1.00  0.00    +0.000 C 
ATOM     57  C40 UNL A   1      12.666  46.915   6.046  1.00  0.00    +0.000 C 
ATOM     58  F11 UNL A   1      13.845  47.211   6.612  1.00  0.00    +0.000 F 
ATOM     59  C41 UNL A   1      11.942  45.825   6.525  1.00  0.00    +0.000 C 
ATOM     60  F12 UNL A   1      12.430  45.091   7.533  1.00  0.00    +0.000 F 
ATOM     61  C42 UNL A   1      10.726  45.492   5.948  1.00  0.00    +0.000 C 
ATOM     62  F13 UNL A   1      10.028  44.446   6.412  1.00  0.00    +0.000 F 
ATOM     63  C43 UNL A   1      10.237  46.239   4.888  1.00  0.00    +0.000 C 
ATOM     64  F14 UNL A   1       9.055  45.928   4.337  1.00  0.00    +0.000 F 
ENDBRANCH   55   56
TORSDOF 17
ENDMDL
MODEL 3
REMARK VINA RESULT:      -9.1     27.996     32.580
ROOT
ATOM     19  C15 UNL A   1      22.072  19.710   4.693  1.00  0.00    +0.000 C 
ATOM     20  C16 UNL A   1      21.761  20.704   3.609  1.00  0.00    +0.000 C 
ATOM     21  N3  UNL A   1      20.603  21.198   3.245  1.00  0.00    +0.000 N 
ATOM     22  C17 UNL A   1      20.879  22.101   2.227  1.00  0.00    +0.000 C 
ATOM     23  C18 UNL A   1      20.011  22.832   1.486  1.00  0.00    +0.000 C 
ATOM     35  C25 UNL A   1      18.580  22.789   1.631  1.00  0.00    +0.000 C 
ATOM     36  C26 UNL A   1      17.617  23.447   0.886  1.00  0.00    +0.000 C 
ATOM     37  C27 UNL A   1      16.361  23.131   1.415  1.00  0.00    +0.000 C 
ATOM     38  C28 UNL A   1      16.539  22.243   2.463  1.00  0.00    +0.000 C 
ATOM     39  N4  UNL A   1      17.905  22.046   2.587  1.00  0.00    +0.000 N 
ATOM     40  C29 UNL A   1      15.539  21.622   3.293  1.00  0.00    +0.000 C 
ATOM     52  C36 UNL A   1      15.797  20.748   4.297  1.00  0.00    +0.000 C 
ATOM     53  N5  UNL A   1      17.022  20.267   4.739  1.00  0.00    +0.000 N 
ATOM     54  C37 UNL A   1      16.751  19.462   5.737  1.00  0.00    +0.000 C 
ATOM     55  C38 UNL A   1      17.693  18.642   6.576  1.00  0.00    +0.000 C 
ATOM     67  C45 UNL A   1      19.013  18.676   6.314  1.00  0.00    +0.000 C 
ATOM     68  C46 UNL A   1      20.039  17.930   7.036  1.00  0.00    +0.000 C 
ATOM     69  C47 UNL A   1      21.244  18.241   6.533  1.00  0.00    +0.000 C 
ATOM     70  C48 UNL A   1      21.072  19.184   5.428  1.00  0.00    +0.000 C 
ATOM     71  N6  UNL A   1      19.715  19.379   5.364  1.00  0.00    +0.000 N 
ATOM     72  C49 UNL A   1      15.320  19.364   6.058  1.00  0.00    +0.000 C 
ATOM     73  C50 UNL A   1      14.781  20.136   5.127  1.00  0.00    +0.000 C 
ATOM     74  C51 UNL A   1      22.317  22.120   2.060  1.00  0.00    +0.000 C 
ATOM     75  C52 UNL A   1      22.904  21.232   2.848  1.00  0.00    +0.000 C 
ATOM    112  H21 UNL A   1      17.794  24.064   0.078  1.00  0.00    +0.000 H 
ATOM    113  H22 UNL A   1      15.455  23.497   1.081  1.00  0.00    +0.000 H 
ATOM    114  H23 UNL A   1      18.333  21.462   3.255  1.00  0.00    +0.000 H 
ATOM    115  H24 UNL A   1      19.865  17.270   7.810  1.00  0.00    +0.000 H 
ATOM    116  H25 UNL A   1      22.147  17.874   6.872  1.00  0.00    +0.000 H 
ATOM    117  H26 UNL A   1      19.285  19.965   4.701  1.00  0.00    +0.000 H 
ATOM    118  H27 UNL A   1      14.858  18.831   6.813  1.00  0.00    +0.000 H 
ATOM    119  H28 UNL A   1      13.767  20.283   5.008  1.00  0.00    +0.000 H 
ATOM    120  H29 UNL A   1      22.820  22.746   1.411  1.00  0.00    +0.000 H 
ATOM    121  H30 UNL A   1      23.902  20.976   2.912  1.00  0.00    +0.000 H 
ENDROOT
BRANCH   19   18
ATOM     76  C53 UNL A   1      24.165  20.024   6.027  1.00  0.00    +0.000 C 
ATOM     77  C54 UNL A   1      25.483  19.687   6.337  1.00  0.00    +0.000 C 
ATOM    110  H19 UNL A   1      25.909  17.190   4.140  1.00  0.00    +0.000 H 
ATOM     15  C11 UNL A   1      26.100  18.612   5.691  1.00  0.00    +0.000 C 
ATOM     16  C12 UNL A   1      25.438  17.954   4.649  1.00  0.00    +0.000 C 
ATOM     17  C13 UNL A   1      24.139  18.332   4.298  1.00  0.00    +0.000 C 
ATOM    111  H20 UNL A   1      23.662  17.859   3.514  1.00  0.00    +0.000 H 
ATOM     18  C14 UNL A   1      23.479  19.349   5.005  1.00  0.00    +0.000 C 
ATOM    122  H31 UNL A   1      23.691  20.775   6.553  1.00  0.00    +0.000 H 
ATOM    123  H32 UNL A   1      26.002  20.232   7.044  1.00  0.00    +0.000 H 
BRANCH   15   13
ATOM     13  C10 UNL A   1      27.474  18.183   6.043  1.00  0.00    +0.000 C 
ATOM     14  O2  UNL A   1      28.433  18.816   5.618  1.00  0.00    +0.000 O 
BRANCH   13   12
ATOM     12  N2  UNL A   1      27.681  17.080   6.838  1.00  0.00    +0.000 N 
ATOM    109  H18 UNL A   1      27.631  16.214   6.373  1.00  0.00    +0.000 H 
BRANCH   12   11
ATOM     11  C9  UNL A   1      27.964  17.005   8.261  1.00  0.00    +0.000 C 
ATOM    108  H17 UNL A   1      29.027  17.009   8.385  1.00  0.00    +0.000 H 
ATOM    107  H16 UNL A   1      27.529  16.109   8.653  1.00  0.00    +0.000 H 
BRANCH   11   10
ATOM    105  H14 UNL A   1      27.367  19.036   8.359  1.00  0.00    +0.000 H 
ATOM     10  C8  UNL A   1      27.399  18.202   9.027  1.00  0.00    +0.000 C 
ATOM    106  H15 UNL A   1      26.436  17.897   9.381  1.00  0.00    +0.000 H 
BRANCH   10    9
ATOM      9  C7  UNL A   1      28.193  18.621  10.272  1.00  0.00    +0.000 C 
ATOM    103  H12 UNL A   1      27.779  18.103  11.113  1.00  0.00    +0.000 H 
ATOM    104  H13 UNL A   1      29.212  18.371  10.064  1.00  0.00    +0.000 H 
BRANCH    9    8
ATOM    101  H10 UNL A   1      28.713  20.264  11.517  1.00  0.00    +0.000 H 
ATOM    102  H11 UNL A   1      28.659  20.610   9.767  1.00  0.00    +0.000 H 
ATOM      8  C6  UNL A   1      28.191  20.120  10.595  1.00  0.00    +0.000 C 
BRANCH    8    7
ATOM     99  H8  UNL A   1      26.612  21.353   9.877  1.00  0.00    +0.000 H 
ATOM    100  H9  UNL A   1      26.100  19.931  10.811  1.00  0.00    +0.000 H 
ATOM      7  C5  UNL A   1      26.796  20.739  10.733  1.00  0.00    +0.000 C 
BRANCH    7    6
ATOM     97  H6  UNL A   1      27.580  21.692  12.476  1.00  0.00    +0.000 H 
ATOM     98  H7  UNL A   1      26.260  22.559  11.699  1.00  0.00    +0.000 H 
ATOM      6  C4  UNL A   1      26.631  21.598  11.991  1.00  0.00    +0.000 C 
BRANCH    6    5
ATOM      5  N1  UNL A   1      25.684  20.999  12.913  1.00  0.00    +0.000 N 
ATOM     96  H5  UNL A   1      25.175  21.634  13.465  1.00  0.00    +0.000 H 
BRANCH    5    3
ATOM      3  C3  UNL A   1      25.396  19.676  13.125  1.00  0.00    +0.000 C 
ATOM      4  O1  UNL A   1      26.342  18.924  13.369  1.00  0.00    +0.000 O 
BRANCH    3    2
ATOM      2  C2  UNL A   1      23.945  19.166  13.028  1.00  0.00    +0.000 C 
ATOM     95  H4  UNL A   1      23.775  18.458  13.811  1.00  0.00    +0.000 H 
BRANCH    2    1
ATOM      1  C1  UNL A   1      22.976  20.340  13.220  1.00  0.00    +0.000 C 
ATOM     92  H1  UNL A   1      23.373  21.015  13.951  1.00  0.00    +0.000 H 
ATOM     93  H2  UNL A   1      22.029  19.971  13.554  1.00  0.00    +0.000 H 
ATOM     94  H3  UNL A   1      22.851  20.855  12.290  1.00  0.00    +0.000 H 
ENDBRANCH    2    1
BRANCH    2   78
ATOM    129  H38 UNL A   1      23.891  12.460   6.556  1.00  0.00    +0.000 H 
ATOM    130  H39 UNL A   1      23.797  16.667   6.423  1.00  0.00    +0.000 H 
ATOM     78  C55 UNL A   1      23.692  18.406  11.728  1.00  0.00    +0.000 C 
ATOM     79  C56 UNL A   1      23.804  19.025  10.474  1.00  0.00    +0.000 C 
ATOM     80  C57 UNL A   1      23.725  18.288   9.283  1.00  0.00    +0.000 C 
ATOM     81  C58 UNL A   1      23.609  16.884   9.344  1.00  0.00    +0.000 C 
ATOM     82  C59 UNL A   1      23.460  16.292  10.594  1.00  0.00    +0.000 C 
ATOM     83  C60 UNL A   1      23.425  17.027  11.784  1.00  0.00    +0.000 C 
ATOM     84  N7  UNL A   1      23.407  14.933  10.397  1.00  0.00    +0.000 N 
ATOM     85  C61 UNL A   1      23.577  14.622   9.069  1.00  0.00    +0.000 C 
ATOM     86  C62 UNL A   1      23.674  13.374   8.443  1.00  0.00    +0.000 C 
ATOM     87  C63 UNL A   1      23.812  13.362   7.053  1.00  0.00    +0.000 C 
ATOM     88  C64 UNL A   1      23.843  14.552   6.330  1.00  0.00    +0.000 C 
ATOM     89 Cl1  UNL A   1      23.992  14.493   4.614  1.00  0.00    +0.000 Cl
ATOM     90  C65 UNL A   1      23.764  15.792   6.969  1.00  0.00    +0.000 C 
ATOM     91  C66 UNL A   1      23.640  15.830   8.374  1.00  0.00    +0.000 C 
ATOM    124  H33 UNL A   1      23.949  20.046  10.427  1.00  0.00    +0.000 H 
ATOM    125  H34 UNL A   1      23.752  18.768   8.369  1.00  0.00    +0.000 H 
ATOM    126  H35 UNL A   1      23.209  16.567  12.683  1.00  0.00    +0.000 H 
ATOM    127  H36 UNL A   1      23.268  14.271  11.112  1.00  0.00    +0.000 H 
ATOM    128  H37 UNL A   1      23.644  12.497   8.988  1.00  0.00    +0.000 H 
ENDBRANCH    2   78
ENDBRANCH    3    2
ENDBRANCH    5    3
ENDBRANCH    6    5
ENDBRANCH    7    6
ENDBRANCH    8    7
ENDBRANCH    9    8
ENDBRANCH   10    9
ENDBRANCH   11   10
ENDBRANCH   12   11
ENDBRANCH   13   12
ENDBRANCH   15   13
ENDBRANCH   19   18
BRANCH   23   24
ATOM     33  C24 UNL A   1      20.807  23.275  -0.866  1.00  0.00    +0.000 C 
ATOM     34  F5  UNL A   1      20.470  22.021  -1.202  1.00  0.00    +0.000 F 
ATOM     24  C19 UNL A   1      20.587  23.741   0.440  1.00  0.00    +0.000 C 
ATOM     25  C20 UNL A   1      20.965  25.058   0.739  1.00  0.00    +0.000 C 
ATOM     26  F1  UNL A   1      20.767  25.554   1.970  1.00  0.00    +0.000 F 
ATOM     27  C21 UNL A   1      21.520  25.883  -0.236  1.00  0.00    +0.000 C 
ATOM     28  F2  UNL A   1      21.834  27.152   0.063  1.00  0.00    +0.000 F 
ATOM     29  C22 UNL A   1      21.735  25.400  -1.517  1.00  0.00    +0.000 C 
ATOM     30  F3  UNL A   1      22.277  26.194  -2.452  1.00  0.00    +0.000 F 
ATOM     31  C23 UNL A   1      21.386  24.095  -1.831  1.00  0.00    +0.000 C 
ATOM     32  F4  UNL A   1      21.606  23.621  -3.065  1.00  0.00    +0.000 F 
ENDBRANCH   23   24
BRANCH   40   41
ATOM     41  C30 UNL A   1      14.100  21.944   3.017  1.00  0.00    +0.000 C 
ATOM     42  C31 UNL A   1      13.402  22.895   3.778  1.00  0.00    +0.000 C 
ATOM     43  F6  UNL A   1      14.002  23.505   4.811  1.00  0.00    +0.000 F 
ATOM     44  C32 UNL A   1      12.070  23.192   3.502  1.00  0.00    +0.000 C 
ATOM     45  F7  UNL A   1      11.409  24.070   4.270  1.00  0.00    +0.000 F 
ATOM     46  C33 UNL A   1      11.421  22.569   2.446  1.00  0.00    +0.000 C 
ATOM     47  F8  UNL A   1      10.140  22.859   2.180  1.00  0.00    +0.000 F 
ATOM     48  C34 UNL A   1      12.097  21.640   1.670  1.00  0.00    +0.000 C 
ATOM     49  F9  UNL A   1      11.476  21.045   0.644  1.00  0.00    +0.000 F 
ATOM     50  C35 UNL A   1      13.422  21.321   1.959  1.00  0.00    +0.000 C 
ATOM     51  F10 UNL A   1      14.047  20.408   1.200  1.00  0.00    +0.000 F 
ENDBRANCH   40   41
BRANCH   55   56
ATOM     65  C44 UNL A   1      17.018  16.399   7.500  1.00  0.00    +0.000 C 
ATOM     66  F15 UNL A   1      17.323  15.827   6.327  1.00  0.00    +0.000 F 
ATOM     56  C39 UNL A   1      17.178  17.781   7.672  1.00  0.00    +0.000 C 
ATOM     57  C40 UNL A   1      16.839  18.329   8.917  1.00  0.00    +0.000 C 
ATOM     58  F11 UNL A   1      16.996  19.643   9.133  1.00  0.00    +0.000 F 
ATOM     59  C41 UNL A   1      16.377  17.524   9.955  1.00  0.00    +0.000 C 
ATOM     60  F12 UNL A   1      16.101  18.068  11.148  1.00  0.00    +0.000 F 
ATOM     61  C42 UNL A   1      16.219  16.160   9.760  1.00  0.00    +0.000 C 
ATOM     62  F13 UNL A   1      15.770  15.387  10.758  1.00  0.00    +0.000 F 
ATOM     63  C43 UNL A   1      16.531  15.598   8.532  1.00  0.00    +0.000 C 
ATOM     64  F14 UNL A   1      16.365  14.283   8.335  1.00  0.00    +0.000 F 
ENDBRANCH   55   56
TORSDOF 17
ENDMDL
MODEL 4
REMARK VINA RESULT:      -9.0      2.776      7.786
ROOT
ATOM     19  C15 UNL A   1      13.127  49.761   3.537  1.00  0.00    +0.000 C 
ATOM     20  C16 UNL A   1      14.034  49.368   2.405  1.00  0.00    +0.000 C 
ATOM     21  N3  UNL A   1      14.914  50.092   1.759  1.00  0.00    +0.000 N 
ATOM     22  C17 UNL A   1      15.506  49.237   0.838  1.00  0.00    +0.000 C 
ATOM     23  C18 UNL A   1      16.440  49.521  -0.101  1.00  0.00    +0.000 C 
ATOM     35  C25 UNL A   1      17.004  50.828  -0.320  1.00  0.00    +0.000 C 
ATOM     36  C26 UNL A   1      17.911  51.226  -1.287  1.00  0.00    +0.000 C 
ATOM     37  C27 UNL A   1      18.199  52.580  -1.088  1.00  0.00    +0.000 C 
ATOM     38  C28 UNL A   1      17.439  53.037  -0.024  1.00  0.00    +0.000 C 
ATOM     39  N4  UNL A   1      16.714  51.950   0.440  1.00  0.00    +0.000 N 
ATOM     40  C29 UNL A   1      17.378  54.364   0.532  1.00  0.00    +0.000 C 
ATOM     52  C36 UNL A   1      16.594  54.734   1.574  1.00  0.00    +0.000 C 
ATOM     53  N5  UNL A   1      15.705  53.964   2.312  1.00  0.00    +0.000 N 
ATOM     54  C37 UNL A   1      15.198  54.767   3.215  1.00  0.00    +0.000 C 
ATOM     55  C38 UNL A   1      14.164  54.478   4.268  1.00  0.00    +0.000 C 
ATOM     67  C45 UNL A   1      13.625  53.247   4.345  1.00  0.00    +0.000 C 
ATOM     68  C46 UNL A   1      12.609  52.827   5.306  1.00  0.00    +0.000 C 
ATOM     69  C47 UNL A   1      12.341  51.524   5.119  1.00  0.00    +0.000 C 
ATOM     70  C48 UNL A   1      13.142  51.026   4.002  1.00  0.00    +0.000 C 
ATOM     71  N6  UNL A   1      13.867  52.120   3.597  1.00  0.00    +0.000 N 
ATOM     72  C49 UNL A   1      15.731  56.137   3.167  1.00  0.00    +0.000 C 
ATOM     73  C50 UNL A   1      16.548  56.072   2.126  1.00  0.00    +0.000 C 
ATOM     74  C51 UNL A   1      14.915  47.930   1.037  1.00  0.00    +0.000 C 
ATOM     75  C52 UNL A   1      13.958  47.970   1.952  1.00  0.00    +0.000 C 
ATOM    112  H21 UNL A   1      18.307  50.626  -2.027  1.00  0.00    +0.000 H 
ATOM    113  H22 UNL A   1      18.864  53.144  -1.640  1.00  0.00    +0.000 H 
ATOM    114  H23 UNL A   1      16.085  51.973   1.198  1.00  0.00    +0.000 H 
ATOM    115  H24 UNL A   1      12.169  53.433   6.015  1.00  0.00    +0.000 H 
ATOM    116  H25 UNL A   1      11.677  50.964   5.676  1.00  0.00    +0.000 H 
ATOM    117  H26 UNL A   1      14.501  52.099   2.844  1.00  0.00    +0.000 H 
ATOM    118  H27 UNL A   1      15.523  56.938   3.784  1.00  0.00    +0.000 H 
ATOM    119  H28 UNL A   1      17.084  56.872   1.756  1.00  0.00    +0.000 H 
ATOM    120  H29 UNL A   1      15.203  47.077   0.531  1.00  0.00    +0.000 H 
ATOM    121  H30 UNL A   1      13.325  47.218   2.266  1.00  0.00    +0.000 H 
ENDROOT
BRANCH   19   18
ATOM     76  C53 UNL A   1      12.789  47.911   5.187  1.00  0.00    +0.000 C 
ATOM     77  C54 UNL A   1      11.980  46.965   5.820  1.00  0.00    +0.000 C 
ATOM    110  H19 UNL A   1       9.083  47.645   4.276  1.00  0.00    +0.000 H 
ATOM     15  C11 UNL A   1      10.614  46.908   5.532  1.00  0.00    +0.000 C 
ATOM     16  C12 UNL A   1      10.082  47.717   4.522  1.00  0.00    +0.000 C 
ATOM     17  C13 UNL A   1      10.905  48.623   3.846  1.00  0.00    +0.000 C 
ATOM    111  H20 UNL A   1      10.514  49.202   3.086  1.00  0.00    +0.000 H 
ATOM     18  C14 UNL A   1      12.258  48.750   4.195  1.00  0.00    +0.000 C 
ATOM    122  H31 UNL A   1      13.783  47.993   5.451  1.00  0.00    +0.000 H 
ATOM    123  H32 UNL A   1      12.393  46.307   6.500  1.00  0.00    +0.000 H 
BRANCH   15   13
ATOM     13  C10 UNL A   1       9.713  45.964   6.234  1.00  0.00    +0.000 C 
ATOM     14  O2  UNL A   1       8.720  45.535   5.659  1.00  0.00    +0.000 O 
BRANCH   13   12
ATOM     12  N2  UNL A   1       9.981  45.569   7.523  1.00  0.00    +0.000 N 
ATOM    109  H18 UNL A   1      10.374  44.670   7.613  1.00  0.00    +0.000 H 
BRANCH   12   11
ATOM     11  C9  UNL A   1       9.771  46.281   8.772  1.00  0.00    +0.000 C 
ATOM    108  H17 UNL A   1       9.416  45.577   9.496  1.00  0.00    +0.000 H 
ATOM    107  H16 UNL A   1       9.061  47.064   8.608  1.00  0.00    +0.000 H 
BRANCH   11   10
ATOM    105  H14 UNL A   1      11.339  46.360  10.197  1.00  0.00    +0.000 H 
ATOM     10  C8  UNL A   1      11.064  46.894   9.312  1.00  0.00    +0.000 C 
ATOM    106  H15 UNL A   1      11.780  46.815   8.520  1.00  0.00    +0.000 H 
BRANCH   10    9
ATOM      9  C7  UNL A   1      10.988  48.387   9.663  1.00  0.00    +0.000 C 
ATOM    103  H12 UNL A   1       9.998  48.590  10.016  1.00  0.00    +0.000 H 
ATOM    104  H13 UNL A   1      11.753  48.553  10.392  1.00  0.00    +0.000 H 
BRANCH    9    8
ATOM    101  H10 UNL A   1      12.209  49.067   8.062  1.00  0.00    +0.000 H 
ATOM    102  H11 UNL A   1      10.455  49.309   7.848  1.00  0.00    +0.000 H 
ATOM      8  C6  UNL A   1      11.288  49.361   8.517  1.00  0.00    +0.000 C 
BRANCH    8    7
ATOM     99  H8  UNL A   1      12.444  51.044   9.118  1.00  0.00    +0.000 H 
ATOM    100  H9  UNL A   1      10.996  51.420   8.158  1.00  0.00    +0.000 H 
ATOM      7  C5  UNL A   1      11.411  50.827   8.945  1.00  0.00    +0.000 C 
BRANCH    7    6
ATOM     97  H6  UNL A   1       9.788  51.772   9.963  1.00  0.00    +0.000 H 
ATOM     98  H7  UNL A   1      10.302  50.243  10.666  1.00  0.00    +0.000 H 
ATOM      6  C4  UNL A   1      10.627  51.159  10.219  1.00  0.00    +0.000 C 
BRANCH    6    5
ATOM      5  N1  UNL A   1      11.458  51.868  11.174  1.00  0.00    +0.000 N 
ATOM     96  H5  UNL A   1      11.616  52.818  10.971  1.00  0.00    +0.000 H 
BRANCH    5    3
ATOM      3  C3  UNL A   1      12.056  51.406  12.317  1.00  0.00    +0.000 C 
ATOM      4  O1  UNL A   1      11.317  50.983  13.209  1.00  0.00    +0.000 O 
BRANCH    3    2
ATOM      2  C2  UNL A   1      13.588  51.451  12.473  1.00  0.00    +0.000 C 
ATOM     95  H4  UNL A   1      13.903  52.472  12.505  1.00  0.00    +0.000 H 
BRANCH    2    1
ATOM      1  C1  UNL A   1      13.987  50.782  13.796  1.00  0.00    +0.000 C 
ATOM     92  H1  UNL A   1      15.052  50.804  13.900  1.00  0.00    +0.000 H 
ATOM     93  H2  UNL A   1      13.649  49.768  13.800  1.00  0.00    +0.000 H 
ATOM     94  H3  UNL A   1      13.538  51.311  14.612  1.00  0.00    +0.000 H 
ENDBRANCH    2    1
BRANCH    2   78
ATOM    129  H38 UNL A   1      16.939  50.171   3.871  1.00  0.00    +0.000 H 
ATOM    130  H39 UNL A   1      15.734  47.583   6.965  1.00  0.00    +0.000 H 
ATOM     78  C55 UNL A   1      14.302  50.838  11.271  1.00  0.00    +0.000 C 
ATOM     79  C56 UNL A   1      14.237  49.466  10.989  1.00  0.00    +0.000 C 
ATOM     80  C57 UNL A   1      14.763  48.935   9.801  1.00  0.00    +0.000 C 
ATOM     81  C58 UNL A   1      15.299  49.807   8.832  1.00  0.00    +0.000 C 
ATOM     82  C59 UNL A   1      15.392  51.159   9.144  1.00  0.00    +0.000 C 
ATOM     83  C60 UNL A   1      14.973  51.686  10.371  1.00  0.00    +0.000 C 
ATOM     84  N7  UNL A   1      15.903  51.798   8.041  1.00  0.00    +0.000 N 
ATOM     85  C61 UNL A   1      16.089  50.916   7.004  1.00  0.00    +0.000 C 
ATOM     86  C62 UNL A   1      16.505  51.149   5.688  1.00  0.00    +0.000 C 
ATOM     87  C63 UNL A   1      16.639  50.038   4.850  1.00  0.00    +0.000 C 
ATOM     88  C64 UNL A   1      16.371  48.755   5.321  1.00  0.00    +0.000 C 
ATOM     89 Cl1  UNL A   1      16.568  47.410   4.262  1.00  0.00    +0.000 Cl
ATOM     90  C65 UNL A   1      15.937  48.538   6.631  1.00  0.00    +0.000 C 
ATOM     91  C66 UNL A   1      15.780  49.645   7.492  1.00  0.00    +0.000 C 
ATOM    124  H33 UNL A   1      13.791  48.832  11.671  1.00  0.00    +0.000 H 
ATOM    125  H34 UNL A   1      14.756  47.916   9.637  1.00  0.00    +0.000 H 
ATOM    126  H35 UNL A   1      15.152  52.674  10.610  1.00  0.00    +0.000 H 
ATOM    127  H36 UNL A   1      16.107  52.760   7.998  1.00  0.00    +0.000 H 
ATOM    128  H37 UNL A   1      16.707  52.103   5.351  1.00  0.00    +0.000 H 
ENDBRANCH    2   78
ENDBRANCH    3    2
ENDBRANCH    5    3
ENDBRANCH    6    5
ENDBRANCH    7    6
ENDBRANCH    8    7
ENDBRANCH    9    8
ENDBRANCH   10    9
ENDBRANCH   11   10
ENDBRANCH   12   11
ENDBRANCH   13   12
ENDBRANCH   15   13
ENDBRANCH   19   18
BRANCH   23   24
ATOM     33  C24 UNL A   1      18.096  47.706  -0.671  1.00  0.00    +0.000 C 
ATOM     34  F5  UNL A   1      18.801  48.023   0.425  1.00  0.00    +0.000 F 
ATOM     24  C19 UNL A   1      16.911  48.396  -0.974  1.00  0.00    +0.000 C 
ATOM     25  C20 UNL A   1      16.217  48.028  -2.136  1.00  0.00    +0.000 C 
ATOM     26  F1  UNL A   1      15.074  48.649  -2.465  1.00  0.00    +0.000 F 
ATOM     27  C21 UNL A   1      16.678  46.996  -2.950  1.00  0.00    +0.000 C 
ATOM     28  F2  UNL A   1      15.975  46.635  -4.033  1.00  0.00    +0.000 F 
ATOM     29  C22 UNL A   1      17.855  46.334  -2.635  1.00  0.00    +0.000 C 
ATOM     30  F3  UNL A   1      18.301  45.346  -3.425  1.00  0.00    +0.000 F 
ATOM     31  C23 UNL A   1      18.567  46.693  -1.501  1.00  0.00    +0.000 C 
ATOM     32  F4  UNL A   1      19.713  46.063  -1.203  1.00  0.00    +0.000 F 
ENDBRANCH   23   24
BRANCH   40   41
ATOM     41  C30 UNL A   1      18.229  55.427  -0.097  1.00  0.00    +0.000 C 
ATOM     42  C31 UNL A   1      17.853  56.055  -1.295  1.00  0.00    +0.000 C 
ATOM     43  F6  UNL A   1      16.736  55.675  -1.933  1.00  0.00    +0.000 F 
ATOM     44  C32 UNL A   1      18.647  57.048  -1.861  1.00  0.00    +0.000 C 
ATOM     45  F7  UNL A   1      18.292  57.602  -3.028  1.00  0.00    +0.000 F 
ATOM     46  C33 UNL A   1      19.812  57.454  -1.227  1.00  0.00    +0.000 C 
ATOM     47  F8  UNL A   1      20.573  58.413  -1.771  1.00  0.00    +0.000 F 
ATOM     48  C34 UNL A   1      20.194  56.860  -0.034  1.00  0.00    +0.000 C 
ATOM     49  F9  UNL A   1      21.313  57.258   0.585  1.00  0.00    +0.000 F 
ATOM     50  C35 UNL A   1      19.416  55.848   0.522  1.00  0.00    +0.000 C 
ATOM     51  F10 UNL A   1      19.816  55.282   1.670  1.00  0.00    +0.000 F 
ENDBRANCH   40   41
BRANCH   55   56
ATOM     65  C44 UNL A   1      12.800  56.525   4.808  1.00  0.00    +0.000 C 
ATOM     66  F15 UNL A   1      12.312  56.526   3.559  1.00  0.00    +0.000 F 
ATOM     56  C39 UNL A   1      13.717  55.542   5.204  1.00  0.00    +0.000 C 
ATOM     57  C40 UNL A   1      14.200  55.590   6.519  1.00  0.00    +0.000 C 
ATOM     58  F11 UNL A   1      15.063  54.657   6.948  1.00  0.00    +0.000 F 
ATOM     59  C41 UNL A   1      13.768  56.571   7.408  1.00  0.00    +0.000 C 
ATOM     60  F12 UNL A   1      14.214  56.569   8.672  1.00  0.00    +0.000 F 
ATOM     61  C42 UNL A   1      12.867  57.539   6.992  1.00  0.00    +0.000 C 
ATOM     62  F13 UNL A   1      12.455  58.485   7.847  1.00  0.00    +0.000 F 
ATOM     63  C43 UNL A   1      12.389  57.522   5.690  1.00  0.00    +0.000 C 
ATOM     64  F14 UNL A   1      11.529  58.464   5.280  1.00  0.00    +0.000 F 
ENDBRANCH   55   56
TORSDOF 17
ENDMDL
MODEL 5
REMARK VINA RESULT:      -8.9     43.635     50.376
ROOT
ATOM     19  C15 UNL A   1      10.788   3.040  21.131  1.00  0.00    +0.000 C 
ATOM     20  C16 UNL A   1       9.837   3.981  21.817  1.00  0.00    +0.000 C 
ATOM     21  N3  UNL A   1       9.386   5.143  21.414  1.00  0.00    +0.000 N 
ATOM     22  C17 UNL A   1       8.509   5.573  22.401  1.00  0.00    +0.000 C 
ATOM     23  C18 UNL A   1       7.825   6.740  22.476  1.00  0.00    +0.000 C 
ATOM     35  C25 UNL A   1       7.902   7.793  21.497  1.00  0.00    +0.000 C 
ATOM     36  C26 UNL A   1       7.294   9.036  21.517  1.00  0.00    +0.000 C 
ATOM     37  C27 UNL A   1       7.626   9.706  20.334  1.00  0.00    +0.000 C 
ATOM     38  C28 UNL A   1       8.475   8.897  19.598  1.00  0.00    +0.000 C 
ATOM     39  N4  UNL A   1       8.632   7.725  20.321  1.00  0.00    +0.000 N 
ATOM     40  C29 UNL A   1       9.096   9.170  18.327  1.00  0.00    +0.000 C 
ATOM     52  C36 UNL A   1       9.930   8.324  17.674  1.00  0.00    +0.000 C 
ATOM     53  N5  UNL A   1      10.365   7.062  18.055  1.00  0.00    +0.000 N 
ATOM     54  C37 UNL A   1      11.145   6.644  17.088  1.00  0.00    +0.000 C 
ATOM     55  C38 UNL A   1      11.912   5.355  16.979  1.00  0.00    +0.000 C 
ATOM     67  C45 UNL A   1      11.851   4.462  17.985  1.00  0.00    +0.000 C 
ATOM     68  C46 UNL A   1      12.547   3.179  18.019  1.00  0.00    +0.000 C 
ATOM     69  C47 UNL A   1      12.219   2.533  19.150  1.00  0.00    +0.000 C 
ATOM     70  C48 UNL A   1      11.317   3.373  19.937  1.00  0.00    +0.000 C 
ATOM     71  N6  UNL A   1      11.161   4.502  19.172  1.00  0.00    +0.000 N 
ATOM     72  C49 UNL A   1      11.271   7.588  15.968  1.00  0.00    +0.000 C 
ATOM     73  C50 UNL A   1      10.543   8.610  16.394  1.00  0.00    +0.000 C 
ATOM     74  C51 UNL A   1       8.456   4.527  23.402  1.00  0.00    +0.000 C 
ATOM     75  C52 UNL A   1       9.304   3.549  23.119  1.00  0.00    +0.000 C 
ATOM    112  H21 UNL A   1       6.698   9.406  22.274  1.00  0.00    +0.000 H 
ATOM    113  H22 UNL A   1       7.295  10.644  20.058  1.00  0.00    +0.000 H 
ATOM    114  H23 UNL A   1       9.183   6.958  20.040  1.00  0.00    +0.000 H 
ATOM    115  H24 UNL A   1      13.186   2.824  17.291  1.00  0.00    +0.000 H 
ATOM    116  H25 UNL A   1      12.551   1.594  19.421  1.00  0.00    +0.000 H 
ATOM    117  H26 UNL A   1      10.607   5.268  19.447  1.00  0.00    +0.000 H 
ATOM    118  H27 UNL A   1      11.791   7.481  15.083  1.00  0.00    +0.000 H 
ATOM    119  H28 UNL A   1      10.427   9.496  15.878  1.00  0.00    +0.000 H 
ATOM    120  H29 UNL A   1       7.839   4.542  24.229  1.00  0.00    +0.000 H 
ATOM    121  H30 UNL A   1       9.530   2.704  23.667  1.00  0.00    +0.000 H 
ENDROOT
BRANCH   19   18
ATOM     76  C53 UNL A   1      10.188   0.658  21.601  1.00  0.00    +0.000 C 
ATOM     77  C54 UNL A   1      10.475  -0.594  22.146  1.00  0.00    +0.000 C 
ATOM    110  H19 UNL A   1      13.518   0.069  23.389  1.00  0.00    +0.000 H 
ATOM     15  C11 UNL A   1      11.716  -0.828  22.746  1.00  0.00    +0.000 C 
ATOM     16  C12 UNL A   1      12.620   0.228  22.906  1.00  0.00    +0.000 C 
ATOM     17  C13 UNL A   1      12.306   1.498  22.413  1.00  0.00    +0.000 C 
ATOM    111  H20 UNL A   1      12.966   2.279  22.553  1.00  0.00    +0.000 H 
ATOM     18  C14 UNL A   1      11.101   1.715  21.727  1.00  0.00    +0.000 C 
ATOM    122  H31 UNL A   1       9.297   0.806  21.101  1.00  0.00    +0.000 H 
ATOM    123  H32 UNL A   1       9.770  -1.348  22.107  1.00  0.00    +0.000 H 
BRANCH   15   13
ATOM     13  C10 UNL A   1      12.082  -2.163  23.274  1.00  0.00    +0.000 C 
ATOM     14  O2  UNL A   1      12.034  -3.140  22.536  1.00  0.00    +0.000 O 
BRANCH   13   12
ATOM     12  N2  UNL A   1      12.469  -2.315  24.585  1.00  0.00    +0.000 N 
ATOM    109  H18 UNL A   1      13.387  -2.022  24.786  1.00  0.00    +0.000 H 
BRANCH   12   11
ATOM     11  C9  UNL A   1      11.724  -2.842  25.715  1.00  0.00    +0.000 C 
ATOM    108  H17 UNL A   1      12.242  -3.706  26.076  1.00  0.00    +0.000 H 
ATOM    107  H16 UNL A   1      10.734  -3.087  25.392  1.00  0.00    +0.000 H 
BRANCH   11   10
ATOM    105  H14 UNL A   1      12.560  -1.857  27.396  1.00  0.00    +0.000 H 
ATOM     10  C8  UNL A   1      11.631  -1.837  26.865  1.00  0.00    +0.000 C 
ATOM    106  H15 UNL A   1      11.413  -0.892  26.413  1.00  0.00    +0.000 H 
BRANCH   10    9
ATOM      9  C7  UNL A   1      10.503  -2.093  27.873  1.00  0.00    +0.000 C 
ATOM    103  H12 UNL A   1       9.761  -2.694  27.389  1.00  0.00    +0.000 H 
ATOM    104  H13 UNL A   1      10.966  -2.566  28.714  1.00  0.00    +0.000 H 
BRANCH    9    8
ATOM    101  H10 UNL A   1      10.242  -0.614  29.378  1.00  0.00    +0.000 H 
ATOM    102  H11 UNL A   1       9.945  -0.071  27.705  1.00  0.00    +0.000 H 
ATOM      8  C6  UNL A   1       9.806  -0.845  28.430  1.00  0.00    +0.000 C 
BRANCH    8    7
ATOM     99  H8  UNL A   1       8.112  -1.376  29.603  1.00  0.00    +0.000 H 
ATOM    100  H9  UNL A   1       7.861  -0.027  28.475  1.00  0.00    +0.000 H 
ATOM      7  C5  UNL A   1       8.293  -0.994  28.621  1.00  0.00    +0.000 C 
BRANCH    7    6
ATOM     97  H6  UNL A   1       8.346  -2.687  27.321  1.00  0.00    +0.000 H 
ATOM     98  H7  UNL A   1       6.779  -2.382  28.061  1.00  0.00    +0.000 H 
ATOM      6  C4  UNL A   1       7.639  -1.936  27.606  1.00  0.00    +0.000 C 
BRANCH    6    5
ATOM      5  N1  UNL A   1       7.211  -1.214  26.422  1.00  0.00    +0.000 N 
ATOM     96  H5  UNL A   1       6.253  -0.991  26.389  1.00  0.00    +0.000 H 
BRANCH    5    3
ATOM      3  C3  UNL A   1       7.947  -0.799  25.344  1.00  0.00    +0.000 C 
ATOM      4  O1  UNL A   1       8.586  -1.659  24.732  1.00  0.00    +0.000 O 
BRANCH    3    2
ATOM      2  C2  UNL A   1       7.986   0.689  24.948  1.00  0.00    +0.000 C 
ATOM     95  H4  UNL A   1       8.287   0.767  23.925  1.00  0.00    +0.000 H 
BRANCH    2    1
ATOM      1  C1  UNL A   1       6.579   1.290  25.083  1.00  0.00    +0.000 C 
ATOM     92  H1  UNL A   1       5.876   0.673  24.563  1.00  0.00    +0.000 H 
ATOM     93  H2  UNL A   1       6.569   2.273  24.662  1.00  0.00    +0.000 H 
ATOM     94  H3  UNL A   1       6.311   1.342  26.118  1.00  0.00    +0.000 H 
ENDBRANCH    2    1
BRANCH    2   78
ATOM    129  H38 UNL A   1      15.872   2.935  29.377  1.00  0.00    +0.000 H 
ATOM    130  H39 UNL A   1      11.838   4.059  29.816  1.00  0.00    +0.000 H 
ATOM     78  C55 UNL A   1       9.031   1.465  25.745  1.00  0.00    +0.000 C 
ATOM     79  C56 UNL A   1       8.686   2.248  26.856  1.00  0.00    +0.000 C 
ATOM     80  C57 UNL A   1       9.666   2.831  27.675  1.00  0.00    +0.000 C 
ATOM     81  C58 UNL A   1      11.026   2.562  27.425  1.00  0.00    +0.000 C 
ATOM     82  C59 UNL A   1      11.351   1.816  26.297  1.00  0.00    +0.000 C 
ATOM     83  C60 UNL A   1      10.389   1.322  25.409  1.00  0.00    +0.000 C 
ATOM     84  N7  UNL A   1      12.716   1.657  26.293  1.00  0.00    +0.000 N 
ATOM     85  C61 UNL A   1      13.280   2.223  27.411  1.00  0.00    +0.000 C 
ATOM     86  C62 UNL A   1      14.611   2.221  27.846  1.00  0.00    +0.000 C 
ATOM     87  C63 UNL A   1      14.902   2.918  29.022  1.00  0.00    +0.000 C 
ATOM     88  C64 UNL A   1      13.901   3.588  29.720  1.00  0.00    +0.000 C 
ATOM     89 Cl1  UNL A   1      14.306   4.453  31.154  1.00  0.00    +0.000 Cl
ATOM     90  C65 UNL A   1      12.573   3.565  29.285  1.00  0.00    +0.000 C 
ATOM     91  C66 UNL A   1      12.251   2.856  28.108  1.00  0.00    +0.000 C 
ATOM    124  H33 UNL A   1       7.689   2.399  27.076  1.00  0.00    +0.000 H 
ATOM    125  H34 UNL A   1       9.393   3.450  28.454  1.00  0.00    +0.000 H 
ATOM    126  H35 UNL A   1      10.670   0.863  24.528  1.00  0.00    +0.000 H 
ATOM    127  H36 UNL A   1      13.222   1.197  25.584  1.00  0.00    +0.000 H 
ATOM    128  H37 UNL A   1      15.347   1.726  27.318  1.00  0.00    +0.000 H 
ENDBRANCH    2   78
ENDBRANCH    3    2
ENDBRANCH    5    3
ENDBRANCH    6    5
ENDBRANCH    7    6
ENDBRANCH    8    7
ENDBRANCH    9    8
ENDBRANCH   10    9
ENDBRANCH   11   10
ENDBRANCH   12   11
ENDBRANCH   13   12
ENDBRANCH   15   13
ENDBRANCH   19   18
BRANCH   23   24
ATOM     33  C24 UNL A   1       7.423   7.584  24.818  1.00  0.00    +0.000 C 
ATOM     34  F5  UNL A   1       8.681   8.047  24.854  1.00  0.00    +0.000 F 
ATOM     24  C19 UNL A   1       6.935   6.948  23.666  1.00  0.00    +0.000 C 
ATOM     25  C20 UNL A   1       5.614   6.476  23.686  1.00  0.00    +0.000 C 
ATOM     26  F1  UNL A   1       5.097   5.870  22.606  1.00  0.00    +0.000 F 
ATOM     27  C21 UNL A   1       4.806   6.655  24.806  1.00  0.00    +0.000 C 
ATOM     28  F2  UNL A   1       3.534   6.234  24.785  1.00  0.00    +0.000 F 
ATOM     29  C22 UNL A   1       5.311   7.280  25.936  1.00  0.00    +0.000 C 
ATOM     30  F3  UNL A   1       4.534   7.444  27.016  1.00  0.00    +0.000 F 
ATOM     31  C23 UNL A   1       6.620   7.738  25.946  1.00  0.00    +0.000 C 
ATOM     32  F4  UNL A   1       7.114   8.329  27.043  1.00  0.00    +0.000 F 
ENDBRANCH   23   24
BRANCH   40   41
ATOM     41  C30 UNL A   1       8.821  10.496  17.683  1.00  0.00    +0.000 C 
ATOM     42  C31 UNL A   1       9.648  11.607  17.908  1.00  0.00    +0.000 C 
ATOM     43  F6  UNL A   1      10.685  11.516  18.754  1.00  0.00    +0.000 F 
ATOM     44  C32 UNL A   1       9.387  12.829  17.293  1.00  0.00    +0.000 C 
ATOM     45  F7  UNL A   1      10.163  13.889  17.558  1.00  0.00    +0.000 F 
ATOM     46  C33 UNL A   1       8.316  12.954  16.420  1.00  0.00    +0.000 C 
ATOM     47  F8  UNL A   1       8.069  14.130  15.826  1.00  0.00    +0.000 F 
ATOM     48  C34 UNL A   1       7.497  11.864  16.169  1.00  0.00    +0.000 C 
ATOM     49  F9  UNL A   1       6.469  11.981  15.319  1.00  0.00    +0.000 F 
ATOM     50  C35 UNL A   1       7.739  10.648  16.802  1.00  0.00    +0.000 C 
ATOM     51  F10 UNL A   1       6.923   9.614  16.551  1.00  0.00    +0.000 F 
ENDBRANCH   40   41
BRANCH   55   56
ATOM     65  C44 UNL A   1      14.112   5.407  15.755  1.00  0.00    +0.000 C 
ATOM     66  F15 UNL A   1      14.682   6.006  16.811  1.00  0.00    +0.000 F 
ATOM     56  C39 UNL A   1      12.752   5.071  15.787  1.00  0.00    +0.000 C 
ATOM     57  C40 UNL A   1      12.204   4.452  14.655  1.00  0.00    +0.000 C 
ATOM     58  F11 UNL A   1      10.912   4.093  14.648  1.00  0.00    +0.000 F 
ATOM     59  C41 UNL A   1      12.991   4.163  13.542  1.00  0.00    +0.000 C 
ATOM     60  F12 UNL A   1      12.452   3.532  12.489  1.00  0.00    +0.000 F 
ATOM     61  C42 UNL A   1      14.333   4.512  13.529  1.00  0.00    +0.000 C 
ATOM     62  F13 UNL A   1      15.088   4.238  12.457  1.00  0.00    +0.000 F 
ATOM     63  C43 UNL A   1      14.892   5.141  14.631  1.00  0.00    +0.000 C 
ATOM     64  F14 UNL A   1      16.185   5.493  14.617  1.00  0.00    +0.000 F 
ENDBRANCH   55   56
TORSDOF 17
ENDMDL
MODEL 6
REMARK VINA RESULT:      -8.8     48.794     53.466
ROOT
ATOM     19  C15 UNL A   1      57.570  17.784  12.001  1.00  0.00    +0.000 C 
ATOM     20  C16 UNL A   1      56.182  18.144  11.546  1.00  0.00    +0.000 C 
ATOM     21  N3  UNL A   1      55.293  18.912  12.126  1.00  0.00    +0.000 N 
ATOM     22  C17 UNL A   1      54.200  18.940  11.270  1.00  0.00    +0.000 C 
ATOM     23  C18 UNL A   1      53.005  19.553  11.444  1.00  0.00    +0.000 C 
ATOM     35  C25 UNL A   1      52.642  20.315  12.611  1.00  0.00    +0.000 C 
ATOM     36  C26 UNL A   1      51.434  20.922  12.905  1.00  0.00    +0.000 C 
ATOM     37  C27 UNL A   1      51.560  21.581  14.132  1.00  0.00    +0.000 C 
ATOM     38  C28 UNL A   1      52.834  21.349  14.623  1.00  0.00    +0.000 C 
ATOM     39  N4  UNL A   1      53.489  20.575  13.678  1.00  0.00    +0.000 N 
ATOM     40  C29 UNL A   1      53.415  21.801  15.861  1.00  0.00    +0.000 C 
ATOM     52  C36 UNL A   1      54.674  21.518  16.277  1.00  0.00    +0.000 C 
ATOM     53  N5  UNL A   1      55.651  20.762  15.644  1.00  0.00    +0.000 N 
ATOM     54  C37 UNL A   1      56.697  20.793  16.433  1.00  0.00    +0.000 C 
ATOM     55  C38 UNL A   1      58.033  20.124  16.263  1.00  0.00    +0.000 C 
ATOM     67  C45 UNL A   1      58.256  19.356  15.180  1.00  0.00    +0.000 C 
ATOM     68  C46 UNL A   1      59.496  18.643  14.889  1.00  0.00    +0.000 C 
ATOM     69  C47 UNL A   1      59.376  18.019  13.707  1.00  0.00    +0.000 C 
ATOM     70  C48 UNL A   1      58.036  18.261  13.172  1.00  0.00    +0.000 C 
ATOM     71  N6  UNL A   1      57.438  19.057  14.117  1.00  0.00    +0.000 N 
ATOM     72  C49 UNL A   1      56.507  21.598  17.649  1.00  0.00    +0.000 C 
ATOM     73  C50 UNL A   1      55.247  21.985  17.522  1.00  0.00    +0.000 C 
ATOM     74  C51 UNL A   1      54.553  18.147  10.111  1.00  0.00    +0.000 C 
ATOM     75  C52 UNL A   1      55.743  17.584  10.258  1.00  0.00    +0.000 C 
ATOM    112  H21 UNL A   1      50.585  20.893  12.319  1.00  0.00    +0.000 H 
ATOM    113  H22 UNL A   1      50.829  22.144  14.593  1.00  0.00    +0.000 H 
ATOM    114  H23 UNL A   1      54.417  20.255  13.754  1.00  0.00    +0.000 H 
ATOM    115  H24 UNL A   1      60.331  18.623  15.495  1.00  0.00    +0.000 H 
ATOM    116  H25 UNL A   1      60.112  17.459  13.248  1.00  0.00    +0.000 H 
ATOM    117  H26 UNL A   1      56.512  19.382  14.041  1.00  0.00    +0.000 H 
ATOM    118  H27 UNL A   1      57.181  21.807  18.402  1.00  0.00    +0.000 H 
ATOM    119  H28 UNL A   1      54.737  22.548  18.221  1.00  0.00    +0.000 H 
ATOM    120  H29 UNL A   1      53.954  18.035   9.277  1.00  0.00    +0.000 H 
ATOM    121  H30 UNL A   1      56.234  16.926   9.633  1.00  0.00    +0.000 H 
ENDROOT
BRANCH   19   18
ATOM     76  C53 UNL A   1      58.415  15.561  11.226  1.00  0.00    +0.000 C 
ATOM     77  C54 UNL A   1      59.235  14.777  10.414  1.00  0.00    +0.000 C 
ATOM    110  H19 UNL A   1      60.745  17.223   8.687  1.00  0.00    +0.000 H 
ATOM     15  C11 UNL A   1      60.041  15.380   9.444  1.00  0.00    +0.000 C 
ATOM     16  C12 UNL A   1      60.116  16.775   9.371  1.00  0.00    +0.000 C 
ATOM     17  C13 UNL A   1      59.339  17.562  10.226  1.00  0.00    +0.000 C 
ATOM    111  H20 UNL A   1      59.413  18.590  10.185  1.00  0.00    +0.000 H 
ATOM     18  C14 UNL A   1      58.457  16.961  11.139  1.00  0.00    +0.000 C 
ATOM    122  H31 UNL A   1      57.773  15.108  11.894  1.00  0.00    +0.000 H 
ATOM    123  H32 UNL A   1      59.247  13.751  10.530  1.00  0.00    +0.000 H 
BRANCH   15   13
ATOM     13  C10 UNL A   1      60.874  14.575   8.519  1.00  0.00    +0.000 C 
ATOM     14  O2  UNL A   1      62.036  14.325   8.814  1.00  0.00    +0.000 O 
BRANCH   13   12
ATOM     12  N2  UNL A   1      60.354  14.110   7.334  1.00  0.00    +0.000 N 
ATOM    109  H18 UNL A   1      60.107  13.157   7.331  1.00  0.00    +0.000 H 
BRANCH   12   11
ATOM     11  C9  UNL A   1      60.113  14.818   6.088  1.00  0.00    +0.000 C 
ATOM    108  H17 UNL A   1      60.381  14.165   5.283  1.00  0.00    +0.000 H 
ATOM    107  H16 UNL A   1      60.702  15.711   6.079  1.00  0.00    +0.000 H 
BRANCH   11   10
ATOM    105  H14 UNL A   1      58.540  16.238   6.130  1.00  0.00    +0.000 H 
ATOM     10  C8  UNL A   1      58.642  15.196   5.913  1.00  0.00    +0.000 C 
ATOM    106  H15 UNL A   1      58.389  14.938   4.905  1.00  0.00    +0.000 H 
BRANCH   10    9
ATOM      9  C7  UNL A   1      57.655  14.428   6.803  1.00  0.00    +0.000 C 
ATOM    103  H12 UNL A   1      57.117  13.743   6.181  1.00  0.00    +0.000 H 
ATOM    104  H13 UNL A   1      58.250  13.956   7.558  1.00  0.00    +0.000 H 
BRANCH    9    8
ATOM    101  H10 UNL A   1      56.409  14.798   8.486  1.00  0.00    +0.000 H 
ATOM    102  H11 UNL A   1      57.071  16.248   7.684  1.00  0.00    +0.000 H 
ATOM      8  C6  UNL A   1      56.629  15.282   7.558  1.00  0.00    +0.000 C 
BRANCH    8    7
ATOM     99  H8  UNL A   1      55.371  15.005   5.864  1.00  0.00    +0.000 H 
ATOM    100  H9  UNL A   1      54.530  15.110   7.425  1.00  0.00    +0.000 H 
ATOM      7  C5  UNL A   1      55.310  15.502   6.809  1.00  0.00    +0.000 C 
BRANCH    7    6
ATOM     97  H6  UNL A   1      53.963  17.068   6.270  1.00  0.00    +0.000 H 
ATOM     98  H7  UNL A   1      55.174  17.524   7.461  1.00  0.00    +0.000 H 
ATOM      6  C4  UNL A   1      54.989  16.979   6.560  1.00  0.00    +0.000 C 
BRANCH    6    5
ATOM      5  N1  UNL A   1      55.828  17.526   5.510  1.00  0.00    +0.000 N 
ATOM     96  H5  UNL A   1      55.674  17.155   4.612  1.00  0.00    +0.000 H 
BRANCH    5    3
ATOM      3  C3  UNL A   1      56.803  18.486   5.588  1.00  0.00    +0.000 C 
ATOM      4  O1  UNL A   1      57.021  19.154   4.575  1.00  0.00    +0.000 O 
BRANCH    3    2
ATOM      2  C2  UNL A   1      57.603  18.683   6.889  1.00  0.00    +0.000 C 
ATOM     95  H4  UNL A   1      57.505  17.806   7.493  1.00  0.00    +0.000 H 
BRANCH    2    1
ATOM      1  C1  UNL A   1      59.089  18.871   6.552  1.00  0.00    +0.000 C 
ATOM     92  H1  UNL A   1      59.589  19.327   7.382  1.00  0.00    +0.000 H 
ATOM     93  H2  UNL A   1      59.184  19.499   5.691  1.00  0.00    +0.000 H 
ATOM     94  H3  UNL A   1      59.532  17.918   6.349  1.00  0.00    +0.000 H 
ENDBRANCH    2    1
BRANCH    2   78
ATOM    129  H38 UNL A   1      55.362  24.017  14.195  1.00  0.00    +0.000 H 
ATOM    130  H39 UNL A   1      53.653  23.367  10.403  1.00  0.00    +0.000 H 
ATOM     78  C55 UNL A   1      57.047  19.827   7.734  1.00  0.00    +0.000 C 
ATOM     79  C56 UNL A   1      55.794  20.400   7.473  1.00  0.00    +0.000 C 
ATOM     80  C57 UNL A   1      55.222  21.340   8.344  1.00  0.00    +0.000 C 
ATOM     81  C58 UNL A   1      55.881  21.659   9.548  1.00  0.00    +0.000 C 
ATOM     82  C59 UNL A   1      57.140  21.111   9.772  1.00  0.00    +0.000 C 
ATOM     83  C60 UNL A   1      57.772  20.259   8.859  1.00  0.00    +0.000 C 
ATOM     84  N7  UNL A   1      57.553  21.533  11.013  1.00  0.00    +0.000 N 
ATOM     85  C61 UNL A   1      56.581  22.286  11.625  1.00  0.00    +0.000 C 
ATOM     86  C62 UNL A   1      56.547  22.839  12.911  1.00  0.00    +0.000 C 
ATOM     87  C63 UNL A   1      55.425  23.598  13.254  1.00  0.00    +0.000 C 
ATOM     88  C64 UNL A   1      54.392  23.795  12.342  1.00  0.00    +0.000 C 
ATOM     89 Cl1  UNL A   1      53.036  24.755  12.797  1.00  0.00    +0.000 Cl
ATOM     90  C65 UNL A   1      54.429  23.221  11.068  1.00  0.00    +0.000 C 
ATOM     91  C66 UNL A   1      55.544  22.438  10.703  1.00  0.00    +0.000 C 
ATOM    124  H33 UNL A   1      55.281  20.124   6.621  1.00  0.00    +0.000 H 
ATOM    125  H34 UNL A   1      54.326  21.793   8.107  1.00  0.00    +0.000 H 
ATOM    126  H35 UNL A   1      58.747  19.955   9.008  1.00  0.00    +0.000 H 
ATOM    127  H36 UNL A   1      58.429  21.322  11.411  1.00  0.00    +0.000 H 
ATOM    128  H37 UNL A   1      57.321  22.692  13.578  1.00  0.00    +0.000 H 
ENDBRANCH    2   78
ENDBRANCH    3    2
ENDBRANCH    5    3
ENDBRANCH    6    5
ENDBRANCH    7    6
ENDBRANCH    8    7
ENDBRANCH    9    8
ENDBRANCH   10    9
ENDBRANCH   11   10
ENDBRANCH   12   11
ENDBRANCH   13   12
ENDBRANCH   15   13
ENDBRANCH   19   18
BRANCH   23   24
ATOM     33  C24 UNL A   1      51.382  18.182  10.085  1.00  0.00    +0.000 C 
ATOM     34  F5  UNL A   1      51.674  17.112  10.838  1.00  0.00    +0.000 F 
ATOM     24  C19 UNL A   1      51.990  19.420  10.347  1.00  0.00    +0.000 C 
ATOM     25  C20 UNL A   1      51.654  20.504   9.523  1.00  0.00    +0.000 C 
ATOM     26  F1  UNL A   1      52.200  21.710   9.738  1.00  0.00    +0.000 F 
ATOM     27  C21 UNL A   1      50.727  20.361   8.492  1.00  0.00    +0.000 C 
ATOM     28  F2  UNL A   1      50.391  21.421   7.745  1.00  0.00    +0.000 F 
ATOM     29  C22 UNL A   1      50.145  19.127   8.247  1.00  0.00    +0.000 C 
ATOM     30  F3  UNL A   1      49.259  18.989   7.249  1.00  0.00    +0.000 F 
ATOM     31  C23 UNL A   1      50.476  18.037   9.037  1.00  0.00    +0.000 C 
ATOM     32  F4  UNL A   1      49.924  16.840   8.792  1.00  0.00    +0.000 F 
ENDBRANCH   23   24
BRANCH   40   41
ATOM     41  C30 UNL A   1      52.562  22.630  16.775  1.00  0.00    +0.000 C 
ATOM     42  C31 UNL A   1      52.500  24.027  16.655  1.00  0.00    +0.000 C 
ATOM     43  F6  UNL A   1      53.251  24.660  15.741  1.00  0.00    +0.000 F 
ATOM     44  C32 UNL A   1      51.694  24.782  17.502  1.00  0.00    +0.000 C 
ATOM     45  F7  UNL A   1      51.685  26.118  17.401  1.00  0.00    +0.000 F 
ATOM     46  C33 UNL A   1      50.913  24.155  18.463  1.00  0.00    +0.000 C 
ATOM     47  F8  UNL A   1      50.135  24.883  19.275  1.00  0.00    +0.000 F 
ATOM     48  C34 UNL A   1      50.945  22.774  18.587  1.00  0.00    +0.000 C 
ATOM     49  F9  UNL A   1      50.184  22.167  19.506  1.00  0.00    +0.000 F 
ATOM     50  C35 UNL A   1      51.770  22.018  17.758  1.00  0.00    +0.000 C 
ATOM     51  F10 UNL A   1      51.791  20.685  17.909  1.00  0.00    +0.000 F 
ENDBRANCH   40   41
BRANCH   55   56
ATOM     65  C44 UNL A   1      59.924  21.416  17.311  1.00  0.00    +0.000 C 
ATOM     66  F15 UNL A   1      59.772  22.378  16.391  1.00  0.00    +0.000 F 
ATOM     56  C39 UNL A   1      59.097  20.284  17.289  1.00  0.00    +0.000 C 
ATOM     57  C40 UNL A   1      59.301  19.305  18.270  1.00  0.00    +0.000 C 
ATOM     58  F11 UNL A   1      58.519  18.216  18.300  1.00  0.00    +0.000 F 
ATOM     59  C41 UNL A   1      60.281  19.459  19.248  1.00  0.00    +0.000 C 
ATOM     60  F12 UNL A   1      60.427  18.527  20.199  1.00  0.00    +0.000 F 
ATOM     61  C42 UNL A   1      61.094  20.583  19.245  1.00  0.00    +0.000 C 
ATOM     62  F13 UNL A   1      62.040  20.729  20.183  1.00  0.00    +0.000 F 
ATOM     63  C43 UNL A   1      60.922  21.557  18.274  1.00  0.00    +0.000 C 
ATOM     64  F14 UNL A   1      61.715  22.637  18.260  1.00  0.00    +0.000 F 
ENDBRANCH   55   56
TORSDOF 17
ENDMDL
MODEL 7
REMARK VINA RESULT:      -8.7      1.447      2.457
ROOT
ATOM     19  C15 UNL A   1      13.725  53.576   5.531  1.00  0.00    +0.000 C 
ATOM     20  C16 UNL A   1      14.664  54.066   4.464  1.00  0.00    +0.000 C 
ATOM     21  N3  UNL A   1      15.168  53.418   3.443  1.00  0.00    +0.000 N 
ATOM     22  C17 UNL A   1      15.938  54.343   2.750  1.00  0.00    +0.000 C 
ATOM     23  C18 UNL A   1      16.705  54.151   1.650  1.00  0.00    +0.000 C 
ATOM     35  C25 UNL A   1      16.867  52.886   0.981  1.00  0.00    +0.000 C 
ATOM     36  C26 UNL A   1      17.671  52.580  -0.103  1.00  0.00    +0.000 C 
ATOM     37  C27 UNL A   1      17.472  51.234  -0.430  1.00  0.00    +0.000 C 
ATOM     38  C28 UNL A   1      16.578  50.691   0.477  1.00  0.00    +0.000 C 
ATOM     39  N4  UNL A   1      16.211  51.717   1.334  1.00  0.00    +0.000 N 
ATOM     40  C29 UNL A   1      16.089  49.339   0.556  1.00  0.00    +0.000 C 
ATOM     52  C36 UNL A   1      15.218  48.882   1.489  1.00  0.00    +0.000 C 
ATOM     53  N5  UNL A   1      14.623  49.571   2.536  1.00  0.00    +0.000 N 
ATOM     54  C37 UNL A   1      13.854  48.702   3.146  1.00  0.00    +0.000 C 
ATOM     55  C38 UNL A   1      12.992  48.890   4.365  1.00  0.00    +0.000 C 
ATOM     67  C45 UNL A   1      12.968  50.087   4.980  1.00  0.00    +0.000 C 
ATOM     68  C46 UNL A   1      12.188  50.410   6.171  1.00  0.00    +0.000 C 
ATOM     69  C47 UNL A   1      12.373  51.704   6.478  1.00  0.00    +0.000 C 
ATOM     70  C48 UNL A   1      13.311  52.294   5.523  1.00  0.00    +0.000 C 
ATOM     71  N6  UNL A   1      13.619  51.258   4.676  1.00  0.00    +0.000 N 
ATOM     72  C49 UNL A   1      13.855  47.366   2.534  1.00  0.00    +0.000 C 
ATOM     73  C50 UNL A   1      14.731  47.519   1.553  1.00  0.00    +0.000 C 
ATOM     74  C51 UNL A   1      15.800  55.608   3.441  1.00  0.00    +0.000 C 
ATOM     75  C52 UNL A   1      15.072  55.478   4.540  1.00  0.00    +0.000 C 
ATOM    112  H21 UNL A   1      18.307  53.232  -0.588  1.00  0.00    +0.000 H 
ATOM    113  H22 UNL A   1      17.918  50.731  -1.214  1.00  0.00    +0.000 H 
ATOM    114  H23 UNL A   1      15.579  51.627   2.084  1.00  0.00    +0.000 H 
ATOM    115  H24 UNL A   1      11.591  49.750   6.693  1.00  0.00    +0.000 H 
ATOM    116  H25 UNL A   1      11.923  52.203   7.262  1.00  0.00    +0.000 H 
ATOM    117  H26 UNL A   1      14.246  51.346   3.922  1.00  0.00    +0.000 H 
ATOM    118  H27 UNL A   1      13.314  46.527   2.800  1.00  0.00    +0.000 H 
ATOM    119  H28 UNL A   1      15.029  46.765   0.914  1.00  0.00    +0.000 H 
ATOM    120  H29 UNL A   1      16.216  56.497   3.119  1.00  0.00    +0.000 H 
ATOM    121  H30 UNL A   1      14.849  56.182   5.261  1.00  0.00    +0.000 H 
ENDROOT
BRANCH   19   18
ATOM     76  C53 UNL A   1      11.982  55.178   6.340  1.00  0.00    +0.000 C 
ATOM     77  C54 UNL A   1      11.470  56.049   7.302  1.00  0.00    +0.000 C 
ATOM    110  H19 UNL A   1      13.852  55.700   9.636  1.00  0.00    +0.000 H 
ATOM     15  C11 UNL A   1      12.120  56.194   8.531  1.00  0.00    +0.000 C 
ATOM     16  C12 UNL A   1      13.347  55.559   8.747  1.00  0.00    +0.000 C 
ATOM     17  C13 UNL A   1      13.891  54.733   7.758  1.00  0.00    +0.000 C 
ATOM    111  H20 UNL A   1      14.808  54.285   7.912  1.00  0.00    +0.000 H 
ATOM     18  C14 UNL A   1      13.197  54.510   6.559  1.00  0.00    +0.000 C 
ATOM    122  H31 UNL A   1      11.464  55.024   5.461  1.00  0.00    +0.000 H 
ATOM    123  H32 UNL A   1      10.610  56.586   7.106  1.00  0.00    +0.000 H 
BRANCH   15   13
ATOM     13  C10 UNL A   1      11.568  57.057   9.602  1.00  0.00    +0.000 C 
ATOM     14  O2  UNL A   1      11.754  58.267   9.559  1.00  0.00    +0.000 O 
BRANCH   13   12
ATOM     12  N2  UNL A   1      10.854  56.512  10.643  1.00  0.00    +0.000 N 
ATOM    109  H18 UNL A   1       9.895  56.734  10.654  1.00  0.00    +0.000 H 
BRANCH   12   11
ATOM     11  C9  UNL A   1      11.305  55.655  11.726  1.00  0.00    +0.000 C 
ATOM    108  H17 UNL A   1      10.947  56.071  12.645  1.00  0.00    +0.000 H 
ATOM    107  H16 UNL A   1      12.374  55.610  11.709  1.00  0.00    +0.000 H 
BRANCH   11   10
ATOM    105  H14 UNL A   1      10.426  53.925  12.580  1.00  0.00    +0.000 H 
ATOM     10  C8  UNL A   1      10.751  54.235  11.609  1.00  0.00    +0.000 C 
ATOM    106  H15 UNL A   1       9.963  54.285  10.886  1.00  0.00    +0.000 H 
BRANCH   10    9
ATOM      9  C7  UNL A   1      11.738  53.184  11.082  1.00  0.00    +0.000 C 
ATOM    103  H12 UNL A   1      12.692  53.658  10.971  1.00  0.00    +0.000 H 
ATOM    104  H13 UNL A   1      11.727  52.390  11.799  1.00  0.00    +0.000 H 
BRANCH    9    8
ATOM    101  H10 UNL A   1      12.198  52.672   9.070  1.00  0.00    +0.000 H 
ATOM    102  H11 UNL A   1      11.168  51.508   9.945  1.00  0.00    +0.000 H 
ATOM      8  C6  UNL A   1      11.376  52.537   9.740  1.00  0.00    +0.000 C 
BRANCH    8    7
ATOM     99  H8  UNL A   1       9.636  53.762   9.773  1.00  0.00    +0.000 H 
ATOM    100  H9  UNL A   1      10.435  53.621   8.193  1.00  0.00    +0.000 H 
ATOM      7  C5  UNL A   1      10.119  53.110   9.077  1.00  0.00    +0.000 C 
BRANCH    7    6
ATOM     97  H6  UNL A   1       8.221  52.515   8.300  1.00  0.00    +0.000 H 
ATOM     98  H7  UNL A   1       9.555  51.457   7.859  1.00  0.00    +0.000 H 
ATOM      6  C4  UNL A   1       9.115  52.037   8.642  1.00  0.00    +0.000 C 
BRANCH    6    5
ATOM      5  N1  UNL A   1       8.787  51.151   9.744  1.00  0.00    +0.000 N 
ATOM     96  H5  UNL A   1       8.840  51.556  10.639  1.00  0.00    +0.000 H 
BRANCH    5    3
ATOM      3  C3  UNL A   1       8.415  49.833   9.717  1.00  0.00    +0.000 C 
ATOM      4  O1  UNL A   1       7.502  49.519   8.949  1.00  0.00    +0.000 O 
BRANCH    3    2
ATOM      2  C2  UNL A   1       9.102  48.807  10.638  1.00  0.00    +0.000 C 
ATOM     95  H4  UNL A   1       8.874  49.047  11.654  1.00  0.00    +0.000 H 
BRANCH    2    1
ATOM      1  C1  UNL A   1       8.553  47.404  10.340  1.00  0.00    +0.000 C 
ATOM     92  H1  UNL A   1       9.202  46.906   9.649  1.00  0.00    +0.000 H 
ATOM     93  H2  UNL A   1       7.575  47.486   9.915  1.00  0.00    +0.000 H 
ATOM     94  H3  UNL A   1       8.501  46.841  11.249  1.00  0.00    +0.000 H 
ENDBRANCH    2    1
BRANCH    2   78
ATOM    129  H38 UNL A   1      17.930  51.640  11.588  1.00  0.00    +0.000 H 
ATOM    130  H39 UNL A   1      15.853  49.444   8.658  1.00  0.00    +0.000 H 
ATOM     78  C55 UNL A   1      10.624  48.873  10.532  1.00  0.00    +0.000 C 
ATOM     79  C56 UNL A   1      11.298  48.568   9.341  1.00  0.00    +0.000 C 
ATOM     80  C57 UNL A   1      12.679  48.781   9.205  1.00  0.00    +0.000 C 
ATOM     81  C58 UNL A   1      13.393  49.387  10.258  1.00  0.00    +0.000 C 
ATOM     82  C59 UNL A   1      12.716  49.647  11.446  1.00  0.00    +0.000 C 
ATOM     83  C60 UNL A   1      11.365  49.337  11.634  1.00  0.00    +0.000 C 
ATOM     84  N7  UNL A   1      13.602  50.267  12.292  1.00  0.00    +0.000 N 
ATOM     85  C61 UNL A   1      14.812  50.471  11.674  1.00  0.00    +0.000 C 
ATOM     86  C62 UNL A   1      15.957  51.134  12.133  1.00  0.00    +0.000 C 
ATOM     87  C63 UNL A   1      17.069  51.157  11.286  1.00  0.00    +0.000 C 
ATOM     88  C64 UNL A   1      17.028  50.535  10.041  1.00  0.00    +0.000 C 
ATOM     89 Cl1  UNL A   1      18.427  50.567   9.036  1.00  0.00    +0.000 Cl
ATOM     90  C65 UNL A   1      15.873  49.893   9.586  1.00  0.00    +0.000 C 
ATOM     91  C66 UNL A   1      14.732  49.870  10.417  1.00  0.00    +0.000 C 
ATOM    124  H33 UNL A   1      10.767  48.178   8.547  1.00  0.00    +0.000 H 
ATOM    125  H34 UNL A   1      13.168  48.497   8.342  1.00  0.00    +0.000 H 
ATOM    126  H35 UNL A   1      10.922  49.446  12.560  1.00  0.00    +0.000 H 
ATOM    127  H36 UNL A   1      13.398  50.531  13.219  1.00  0.00    +0.000 H 
ATOM    128  H37 UNL A   1      15.979  51.586  13.060  1.00  0.00    +0.000 H 
ENDBRANCH    2   78
ENDBRANCH    3    2
ENDBRANCH    5    3
ENDBRANCH    6    5
ENDBRANCH    7    6
ENDBRANCH    8    7
ENDBRANCH    9    8
ENDBRANCH   10    9
ENDBRANCH   11   10
ENDBRANCH   12   11
ENDBRANCH   13   12
ENDBRANCH   15   13
ENDBRANCH   19   18
BRANCH   23   24
ATOM     33  C24 UNL A   1      16.858  56.136   0.102  1.00  0.00    +0.000 C 
ATOM     34  F5  UNL A   1      15.622  55.866  -0.345  1.00  0.00    +0.000 F 
ATOM     24  C19 UNL A   1      17.440  55.338   1.100  1.00  0.00    +0.000 C 
ATOM     25  C20 UNL A   1      18.737  55.660   1.524  1.00  0.00    +0.000 C 
ATOM     26  F1  UNL A   1      19.334  54.935   2.482  1.00  0.00    +0.000 F 
ATOM     27  C21 UNL A   1      19.416  56.752   0.988  1.00  0.00    +0.000 C 
ATOM     28  F2  UNL A   1      20.639  57.065   1.440  1.00  0.00    +0.000 F 
ATOM     29  C22 UNL A   1      18.825  57.521  -0.002  1.00  0.00    +0.000 C 
ATOM     30  F3  UNL A   1      19.484  58.567  -0.522  1.00  0.00    +0.000 F 
ATOM     31  C23 UNL A   1      17.550  57.210  -0.450  1.00  0.00    +0.000 C 
ATOM     32  F4  UNL A   1      16.983  57.945  -1.418  1.00  0.00    +0.000 F 
ENDBRANCH   23   24
BRANCH   40   41
ATOM     41  C30 UNL A   1      16.595  48.350  -0.452  1.00  0.00    +0.000 C 
ATOM     42  C31 UNL A   1      15.818  47.961  -1.554  1.00  0.00    +0.000 C 
ATOM     43  F6  UNL A   1      14.571  48.435  -1.699  1.00  0.00    +0.000 F 
ATOM     44  C32 UNL A   1      16.306  47.052  -2.488  1.00  0.00    +0.000 C 
ATOM     45  F7  UNL A   1      15.529  46.659  -3.506  1.00  0.00    +0.000 F 
ATOM     46  C33 UNL A   1      17.588  46.539  -2.357  1.00  0.00    +0.000 C 
ATOM     47  F8  UNL A   1      18.057  45.666  -3.259  1.00  0.00    +0.000 F 
ATOM     48  C34 UNL A   1      18.380  46.923  -1.286  1.00  0.00    +0.000 C 
ATOM     49  F9  UNL A   1      19.622  46.437  -1.163  1.00  0.00    +0.000 F 
ATOM     50  C35 UNL A   1      17.886  47.812  -0.335  1.00  0.00    +0.000 C 
ATOM     51  F10 UNL A   1      18.670  48.156   0.697  1.00  0.00    +0.000 F 
ENDBRANCH   40   41
BRANCH   55   56
ATOM     65  C44 UNL A   1      10.934  47.438   4.372  1.00  0.00    +0.000 C 
ATOM     66  F15 UNL A   1      10.430  48.154   3.357  1.00  0.00    +0.000 F 
ATOM     56  C39 UNL A   1      12.189  47.763   4.906  1.00  0.00    +0.000 C 
ATOM     57  C40 UNL A   1      12.668  46.986   5.970  1.00  0.00    +0.000 C 
ATOM     58  F11 UNL A   1      13.873  47.247   6.498  1.00  0.00    +0.000 F 
ATOM     59  C41 UNL A   1      11.931  45.914   6.467  1.00  0.00    +0.000 C 
ATOM     60  F12 UNL A   1      12.431  45.162   7.457  1.00  0.00    +0.000 F 
ATOM     61  C42 UNL A   1      10.687  45.616   5.929  1.00  0.00    +0.000 C 
ATOM     62  F13 UNL A   1       9.976  44.588   6.411  1.00  0.00    +0.000 F 
ATOM     63  C43 UNL A   1      10.186  46.382   4.888  1.00  0.00    +0.000 C 
ATOM     64  F14 UNL A   1       8.979  46.106   4.375  1.00  0.00    +0.000 F 
ENDBRANCH   55   56
TORSDOF 17
ENDMDL
MODEL 8
REMARK VINA RESULT:      -8.7     51.211     54.527
ROOT
ATOM     19  C15 UNL A   1       1.329   9.843  36.788  1.00  0.00    +0.000 C 
ATOM     20  C16 UNL A   1       1.550  11.085  37.606  1.00  0.00    +0.000 C 
ATOM     21  N3  UNL A   1       0.710  12.049  37.892  1.00  0.00    +0.000 N 
ATOM     22  C17 UNL A   1       1.407  12.930  38.709  1.00  0.00    +0.000 C 
ATOM     23  C18 UNL A   1       0.993  14.111  39.227  1.00  0.00    +0.000 C 
ATOM     35  C25 UNL A   1      -0.306  14.688  39.003  1.00  0.00    +0.000 C 
ATOM     36  C26 UNL A   1      -0.795  15.908  39.436  1.00  0.00    +0.000 C 
ATOM     37  C27 UNL A   1      -2.123  16.026  39.009  1.00  0.00    +0.000 C 
ATOM     38  C28 UNL A   1      -2.446  14.898  38.274  1.00  0.00    +0.000 C 
ATOM     39  N4  UNL A   1      -1.325  14.084  38.282  1.00  0.00    +0.000 N 
ATOM     40  C29 UNL A   1      -3.687  14.582  37.614  1.00  0.00    +0.000 C 
ATOM     52  C36 UNL A   1      -3.921  13.454  36.899  1.00  0.00    +0.000 C 
ATOM     53  N5  UNL A   1      -3.064  12.392  36.643  1.00  0.00    +0.000 N 
ATOM     54  C37 UNL A   1      -3.753  11.541  35.922  1.00  0.00    +0.000 C 
ATOM     55  C38 UNL A   1      -3.319  10.226  35.337  1.00  0.00    +0.000 C 
ATOM     67  C45 UNL A   1      -2.055   9.803  35.524  1.00  0.00    +0.000 C 
ATOM     68  C46 UNL A   1      -1.495   8.556  35.010  1.00  0.00    +0.000 C 
ATOM     69  C47 UNL A   1      -0.225   8.441  35.428  1.00  0.00    +0.000 C 
ATOM     70  C48 UNL A   1       0.130   9.623  36.213  1.00  0.00    +0.000 C 
ATOM     71  N6  UNL A   1      -1.014  10.382  36.209  1.00  0.00    +0.000 N 
ATOM     72  C49 UNL A   1      -5.139  11.959  35.662  1.00  0.00    +0.000 C 
ATOM     73  C50 UNL A   1      -5.176  13.147  36.246  1.00  0.00    +0.000 C 
ATOM     74  C51 UNL A   1       2.726  12.365  38.908  1.00  0.00    +0.000 C 
ATOM     75  C52 UNL A   1       2.885  11.256  38.201  1.00  0.00    +0.000 C 
ATOM    112  H21 UNL A   1      -0.271  16.611  39.980  1.00  0.00    +0.000 H 
ATOM    113  H22 UNL A   1      -2.753  16.819  39.208  1.00  0.00    +0.000 H 
ATOM    114  H23 UNL A   1      -1.260  13.206  37.839  1.00  0.00    +0.000 H 
ATOM    115  H24 UNL A   1      -1.996   7.873  34.420  1.00  0.00    +0.000 H 
ATOM    116  H25 UNL A   1       0.401   7.645  35.229  1.00  0.00    +0.000 H 
ATOM    117  H26 UNL A   1      -1.084  11.256  36.655  1.00  0.00    +0.000 H 
ATOM    118  H27 UNL A   1      -5.885  11.457  35.156  1.00  0.00    +0.000 H 
ATOM    119  H28 UNL A   1      -5.996  13.774  36.238  1.00  0.00    +0.000 H 
ATOM    120  H29 UNL A   1       3.448  12.773  39.523  1.00  0.00    +0.000 H 
ATOM    121  H30 UNL A   1       3.725  10.666  38.094  1.00  0.00    +0.000 H 
ENDROOT
BRANCH   19   18
ATOM     76  C53 UNL A   1       3.376   8.951  35.661  1.00  0.00    +0.000 C 
ATOM     77  C54 UNL A   1       4.394   8.004  35.540  1.00  0.00    +0.000 C 
ATOM    110  H19 UNL A   1       3.565   6.020  38.112  1.00  0.00    +0.000 H 
ATOM     15  C11 UNL A   1       4.500   6.967  36.471  1.00  0.00    +0.000 C 
ATOM     16  C12 UNL A   1       3.515   6.811  37.452  1.00  0.00    +0.000 C 
ATOM     17  C13 UNL A   1       2.461   7.725  37.536  1.00  0.00    +0.000 C 
ATOM    111  H20 UNL A   1       1.724   7.593  38.246  1.00  0.00    +0.000 H 
ATOM     18  C14 UNL A   1       2.401   8.822  36.662  1.00  0.00    +0.000 C 
ATOM    122  H31 UNL A   1       3.341   9.752  35.011  1.00  0.00    +0.000 H 
ATOM    123  H32 UNL A   1       5.069   8.070  34.761  1.00  0.00    +0.000 H 
BRANCH   15   13
ATOM     13  C10 UNL A   1       5.607   5.984  36.413  1.00  0.00    +0.000 C 
ATOM     14  O2  UNL A   1       5.529   5.030  35.648  1.00  0.00    +0.000 O 
BRANCH   13   12
ATOM     12  N2  UNL A   1       6.717   6.131  37.211  1.00  0.00    +0.000 N 
ATOM    109  H18 UNL A   1       6.977   5.328  37.718  1.00  0.00    +0.000 H 
BRANCH   12   11
ATOM     11  C9  UNL A   1       7.562   7.295  37.416  1.00  0.00    +0.000 C 
ATOM    108  H17 UNL A   1       7.448   7.937  36.567  1.00  0.00    +0.000 H 
ATOM    107  H16 UNL A   1       8.576   6.971  37.527  1.00  0.00    +0.000 H 
BRANCH   11   10
ATOM    105  H14 UNL A   1       6.441   7.512  39.202  1.00  0.00    +0.000 H 
ATOM     10  C8  UNL A   1       7.160   8.089  38.660  1.00  0.00    +0.000 C 
ATOM    106  H15 UNL A   1       8.067   8.267  39.201  1.00  0.00    +0.000 H 
BRANCH   10    9
ATOM      9  C7  UNL A   1       6.552   9.473  38.390  1.00  0.00    +0.000 C 
ATOM    103  H12 UNL A   1       7.297  10.068  37.902  1.00  0.00    +0.000 H 
ATOM    104  H13 UNL A   1       5.679   9.296  37.797  1.00  0.00    +0.000 H 
BRANCH    9    8
ATOM    101  H10 UNL A   1       4.999  10.270  39.602  1.00  0.00    +0.000 H 
ATOM    102  H11 UNL A   1       6.457   9.730  40.476  1.00  0.00    +0.000 H 
ATOM      8  C6  UNL A   1       6.067  10.244  39.623  1.00  0.00    +0.000 C 
BRANCH    8    7
ATOM     99  H8  UNL A   1       7.647  11.670  39.645  1.00  0.00    +0.000 H 
ATOM    100  H9  UNL A   1       6.128  12.230  38.912  1.00  0.00    +0.000 H 
ATOM      7  C5  UNL A   1       6.579  11.685  39.714  1.00  0.00    +0.000 C 
BRANCH    7    6
ATOM     97  H6  UNL A   1       7.025  12.387  41.680  1.00  0.00    +0.000 H 
ATOM     98  H7  UNL A   1       5.897  13.395  40.782  1.00  0.00    +0.000 H 
ATOM      6  C4  UNL A   1       6.188  12.392  41.015  1.00  0.00    +0.000 C 
BRANCH    6    5
ATOM      5  N1  UNL A   1       5.069  11.725  41.656  1.00  0.00    +0.000 N 
ATOM     96  H5  UNL A   1       4.647  11.011  41.128  1.00  0.00    +0.000 H 
BRANCH    5    3
ATOM      3  C3  UNL A   1       4.516  11.948  42.889  1.00  0.00    +0.000 C 
ATOM      4  O1  UNL A   1       4.931  12.918  43.528  1.00  0.00    +0.000 O 
BRANCH    3    2
ATOM      2  C2  UNL A   1       3.442  10.997  43.449  1.00  0.00    +0.000 C 
ATOM     95  H4  UNL A   1       3.925  10.159  43.904  1.00  0.00    +0.000 H 
BRANCH    2    1
ATOM      1  C1  UNL A   1       2.624  11.725  44.526  1.00  0.00    +0.000 C 
ATOM     92  H1  UNL A   1       1.581  11.641  44.300  1.00  0.00    +0.000 H 
ATOM     93  H2  UNL A   1       2.903  12.757  44.548  1.00  0.00    +0.000 H 
ATOM     94  H3  UNL A   1       2.818  11.282  45.481  1.00  0.00    +0.000 H 
ENDBRANCH    2    1
BRANCH    2   78
ATOM    129  H38 UNL A   1      -4.023   8.549  38.434  1.00  0.00    +0.000 H 
ATOM    130  H39 UNL A   1      -0.168   6.934  38.936  1.00  0.00    +0.000 H 
ATOM     78  C55 UNL A   1       2.564  10.413  42.344  1.00  0.00    +0.000 C 
ATOM     79  C56 UNL A   1       2.831   9.163  41.768  1.00  0.00    +0.000 C 
ATOM     80  C57 UNL A   1       1.935   8.564  40.868  1.00  0.00    +0.000 C 
ATOM     81  C58 UNL A   1       0.704   9.193  40.596  1.00  0.00    +0.000 C 
ATOM     82  C59 UNL A   1       0.473  10.450  41.146  1.00  0.00    +0.000 C 
ATOM     83  C60 UNL A   1       1.405  11.108  41.955  1.00  0.00    +0.000 C 
ATOM     84  N7  UNL A   1      -0.793  10.831  40.773  1.00  0.00    +0.000 N 
ATOM     85  C61 UNL A   1      -1.413   9.839  40.051  1.00  0.00    +0.000 C 
ATOM     86  C62 UNL A   1      -2.719   9.772  39.552  1.00  0.00    +0.000 C 
ATOM     87  C63 UNL A   1      -3.067   8.637  38.814  1.00  0.00    +0.000 C 
ATOM     88  C64 UNL A   1      -2.139   7.624  38.586  1.00  0.00    +0.000 C 
ATOM     89 Cl1  UNL A   1      -2.601   6.252  37.652  1.00  0.00    +0.000 Cl
ATOM     90  C65 UNL A   1      -0.844   7.695  39.106  1.00  0.00    +0.000 C 
ATOM     91  C66 UNL A   1      -0.473   8.824  39.867  1.00  0.00    +0.000 C 
ATOM    124  H33 UNL A   1       3.706   8.672  42.011  1.00  0.00    +0.000 H 
ATOM    125  H34 UNL A   1       2.175   7.671  40.410  1.00  0.00    +0.000 H 
ATOM    126  H35 UNL A   1       1.246  12.081  42.260  1.00  0.00    +0.000 H 
ATOM    127  H36 UNL A   1      -1.203  11.698  40.995  1.00  0.00    +0.000 H 
ATOM    128  H37 UNL A   1      -3.398  10.530  39.722  1.00  0.00    +0.000 H 
ENDBRANCH    2   78
ENDBRANCH    3    2
ENDBRANCH    5    3
ENDBRANCH    6    5
ENDBRANCH    7    6
ENDBRANCH    8    7
ENDBRANCH    9    8
ENDBRANCH   10    9
ENDBRANCH   11   10
ENDBRANCH   12   11
ENDBRANCH   13   12
ENDBRANCH   15   13
ENDBRANCH   19   18
BRANCH   23   24
ATOM     33  C24 UNL A   1       1.879  14.796  41.487  1.00  0.00    +0.000 C 
ATOM     34  F5  UNL A   1       0.955  14.017  42.070  1.00  0.00    +0.000 F 
ATOM     24  C19 UNL A   1       1.962  14.868  40.088  1.00  0.00    +0.000 C 
ATOM     25  C20 UNL A   1       2.941  15.703  39.531  1.00  0.00    +0.000 C 
ATOM     26  F1  UNL A   1       3.068  15.800  38.199  1.00  0.00    +0.000 F 
ATOM     27  C21 UNL A   1       3.819  16.419  40.342  1.00  0.00    +0.000 C 
ATOM     28  F2  UNL A   1       4.774  17.177  39.787  1.00  0.00    +0.000 F 
ATOM     29  C22 UNL A   1       3.714  16.337  41.722  1.00  0.00    +0.000 C 
ATOM     30  F3  UNL A   1       4.555  17.033  42.502  1.00  0.00    +0.000 F 
ATOM     31  C23 UNL A   1       2.741  15.532  42.295  1.00  0.00    +0.000 C 
ATOM     32  F4  UNL A   1       2.629  15.464  43.629  1.00  0.00    +0.000 F 
ENDBRANCH   23   24
BRANCH   40   41
ATOM     41  C30 UNL A   1      -4.802  15.581  37.702  1.00  0.00    +0.000 C 
ATOM     42  C31 UNL A   1      -5.535  15.762  38.886  1.00  0.00    +0.000 C 
ATOM     43  F6  UNL A   1      -5.280  14.999  39.959  1.00  0.00    +0.000 F 
ATOM     44  C32 UNL A   1      -6.559  16.702  38.956  1.00  0.00    +0.000 C 
ATOM     45  F7  UNL A   1      -7.276  16.826  40.081  1.00  0.00    +0.000 F 
ATOM     46  C33 UNL A   1      -6.850  17.498  37.858  1.00  0.00    +0.000 C 
ATOM     47  F8  UNL A   1      -7.834  18.405  37.929  1.00  0.00    +0.000 F 
ATOM     48  C34 UNL A   1      -6.127  17.349  36.684  1.00  0.00    +0.000 C 
ATOM     49  F9  UNL A   1      -6.400  18.124  35.627  1.00  0.00    +0.000 F 
ATOM     50  C35 UNL A   1      -5.119  16.392  36.602  1.00  0.00    +0.000 C 
ATOM     51  F10 UNL A   1      -4.445  16.260  35.450  1.00  0.00    +0.000 F 
ENDBRANCH   40   41
BRANCH   55   56
ATOM     65  C44 UNL A   1      -5.043   8.401  35.131  1.00  0.00    +0.000 C 
ATOM     66  F15 UNL A   1      -4.940   8.160  36.446  1.00  0.00    +0.000 F 
ATOM     56  C39 UNL A   1      -4.264   9.404  34.537  1.00  0.00    +0.000 C 
ATOM     57  C40 UNL A   1      -4.406   9.611  33.158  1.00  0.00    +0.000 C 
ATOM     58  F11 UNL A   1      -3.697  10.574  32.550  1.00  0.00    +0.000 F 
ATOM     59  C41 UNL A   1      -5.307   8.860  32.406  1.00  0.00    +0.000 C 
ATOM     60  F12 UNL A   1      -5.453   9.107  31.098  1.00  0.00    +0.000 F 
ATOM     61  C42 UNL A   1      -6.061   7.867  33.014  1.00  0.00    +0.000 C 
ATOM     62  F13 UNL A   1      -6.923   7.141  32.290  1.00  0.00    +0.000 F 
ATOM     63  C43 UNL A   1      -5.924   7.632  34.374  1.00  0.00    +0.000 C 
ATOM     64  F14 UNL A   1      -6.641   6.664  34.962  1.00  0.00    +0.000 F 
ENDBRANCH   55   56
TORSDOF 17
ENDMDL
MODEL 9
REMARK VINA RESULT:      -8.6     50.708     54.085
ROOT
ATOM     19  C15 UNL A   1       1.247   9.902  36.878  1.00  0.00    +0.000 C 
ATOM     20  C16 UNL A   1       1.460  11.150  37.689  1.00  0.00    +0.000 C 
ATOM     21  N3  UNL A   1       0.617  12.117  37.956  1.00  0.00    +0.000 N 
ATOM     22  C17 UNL A   1       1.305  13.004  38.774  1.00  0.00    +0.000 C 
ATOM     23  C18 UNL A   1       0.886  14.190  39.277  1.00  0.00    +0.000 C 
ATOM     35  C25 UNL A   1      -0.410  14.766  39.032  1.00  0.00    +0.000 C 
ATOM     36  C26 UNL A   1      -0.904  15.990  39.449  1.00  0.00    +0.000 C 
ATOM     37  C27 UNL A   1      -2.226  16.105  39.006  1.00  0.00    +0.000 C 
ATOM     38  C28 UNL A   1      -2.542  14.971  38.276  1.00  0.00    +0.000 C 
ATOM     39  N4  UNL A   1      -1.421  14.156  38.304  1.00  0.00    +0.000 N 
ATOM     40  C29 UNL A   1      -3.775  14.650  37.605  1.00  0.00    +0.000 C 
ATOM     52  C36 UNL A   1      -4.001  13.516  36.897  1.00  0.00    +0.000 C 
ATOM     53  N5  UNL A   1      -3.142  12.452  36.659  1.00  0.00    +0.000 N 
ATOM     54  C37 UNL A   1      -3.823  11.595  35.937  1.00  0.00    +0.000 C 
ATOM     55  C38 UNL A   1      -3.383  10.274  35.368  1.00  0.00    +0.000 C 
ATOM     67  C45 UNL A   1      -2.121   9.852  35.574  1.00  0.00    +0.000 C 
ATOM     68  C46 UNL A   1      -1.556   8.601  35.077  1.00  0.00    +0.000 C 
ATOM     69  C47 UNL A   1      -0.291   8.489  35.512  1.00  0.00    +0.000 C 
ATOM     70  C48 UNL A   1       0.055   9.678  36.291  1.00  0.00    +0.000 C 
ATOM     71  N6  UNL A   1      -1.089  10.436  36.267  1.00  0.00    +0.000 N 
ATOM     72  C49 UNL A   1      -5.205  12.012  35.657  1.00  0.00    +0.000 C 
ATOM     73  C50 UNL A   1      -5.248  13.205  36.231  1.00  0.00    +0.000 C 
ATOM     74  C51 UNL A   1       2.620  12.440  38.994  1.00  0.00    +0.000 C 
ATOM     75  C52 UNL A   1       2.787  11.325  38.297  1.00  0.00    +0.000 C 
ATOM    112  H21 UNL A   1      -0.386  16.697  39.994  1.00  0.00    +0.000 H 
ATOM    113  H22 UNL A   1      -2.859  16.899  39.191  1.00  0.00    +0.000 H 
ATOM    114  H23 UNL A   1      -1.352  13.275  37.870  1.00  0.00    +0.000 H 
ATOM    115  H24 UNL A   1      -2.050   7.914  34.488  1.00  0.00    +0.000 H 
ATOM    116  H25 UNL A   1       0.337   7.690  35.327  1.00  0.00    +0.000 H 
ATOM    117  H26 UNL A   1      -1.162  11.315  36.705  1.00  0.00    +0.000 H 
ATOM    118  H27 UNL A   1      -5.946  11.506  35.147  1.00  0.00    +0.000 H 
ATOM    119  H28 UNL A   1      -6.068  13.832  36.208  1.00  0.00    +0.000 H 
ATOM    120  H29 UNL A   1       3.335  12.852  39.614  1.00  0.00    +0.000 H 
ATOM    121  H30 UNL A   1       3.628  10.734  38.206  1.00  0.00    +0.000 H 
ENDROOT
BRANCH   19   18
ATOM     76  C53 UNL A   1       3.180   8.877  35.664  1.00  0.00    +0.000 C 
ATOM     77  C54 UNL A   1       4.198   7.928  35.560  1.00  0.00    +0.000 C 
ATOM    110  H19 UNL A   1       3.689   6.304  38.449  1.00  0.00    +0.000 H 
ATOM     15  C11 UNL A   1       4.424   7.027  36.604  1.00  0.00    +0.000 C 
ATOM     16  C12 UNL A   1       3.552   6.998  37.698  1.00  0.00    +0.000 C 
ATOM     17  C13 UNL A   1       2.495   7.910  37.774  1.00  0.00    +0.000 C 
ATOM    111  H20 UNL A   1       1.841   7.871  38.571  1.00  0.00    +0.000 H 
ATOM     18  C14 UNL A   1       2.320   8.878  36.773  1.00  0.00    +0.000 C 
ATOM    122  H31 UNL A   1       3.059   9.582  34.921  1.00  0.00    +0.000 H 
ATOM    123  H32 UNL A   1       4.784   7.892  34.711  1.00  0.00    +0.000 H 
BRANCH   15   13
ATOM     13  C10 UNL A   1       5.538   6.051  36.558  1.00  0.00    +0.000 C 
ATOM     14  O2  UNL A   1       5.866   5.559  35.484  1.00  0.00    +0.000 O 
BRANCH   13   12
ATOM     12  N2  UNL A   1       6.202   5.691  37.706  1.00  0.00    +0.000 N 
ATOM    109  H18 UNL A   1       5.942   4.821  38.085  1.00  0.00    +0.000 H 
BRANCH   12   11
ATOM     11  C9  UNL A   1       7.232   6.406  38.442  1.00  0.00    +0.000 C 
ATOM    108  H17 UNL A   1       8.103   6.457  37.823  1.00  0.00    +0.000 H 
ATOM    107  H16 UNL A   1       7.431   5.881  39.353  1.00  0.00    +0.000 H 
BRANCH   11   10
ATOM    105  H14 UNL A   1       5.769   7.935  38.568  1.00  0.00    +0.000 H 
ATOM     10  C8  UNL A   1       6.813   7.837  38.779  1.00  0.00    +0.000 C 
ATOM    106  H15 UNL A   1       7.059   7.981  39.812  1.00  0.00    +0.000 H 
BRANCH   10    9
ATOM      9  C7  UNL A   1       7.557   8.938  38.012  1.00  0.00    +0.000 C 
ATOM    103  H12 UNL A   1       8.101   9.524  38.724  1.00  0.00    +0.000 H 
ATOM    104  H13 UNL A   1       8.176   8.430  37.302  1.00  0.00    +0.000 H 
BRANCH    9    8
ATOM    101  H10 UNL A   1       5.760   9.395  36.971  1.00  0.00    +0.000 H 
ATOM    102  H11 UNL A   1       6.551  10.773  37.784  1.00  0.00    +0.000 H 
ATOM      8  C6  UNL A   1       6.681   9.892  37.190  1.00  0.00    +0.000 C 
BRANCH    8    7
ATOM     99  H8  UNL A   1       8.343  10.090  35.876  1.00  0.00    +0.000 H 
ATOM    100  H9  UNL A   1       6.770   9.861  35.082  1.00  0.00    +0.000 H 
ATOM      7  C5  UNL A   1       7.306  10.349  35.868  1.00  0.00    +0.000 C 
BRANCH    7    6
ATOM     97  H6  UNL A   1       7.675  12.102  34.705  1.00  0.00    +0.000 H 
ATOM     98  H7  UNL A   1       6.147  12.112  35.577  1.00  0.00    +0.000 H 
ATOM      6  C4  UNL A   1       7.185  11.857  35.625  1.00  0.00    +0.000 C 
BRANCH    6    5
ATOM      5  N1  UNL A   1       7.796  12.611  36.703  1.00  0.00    +0.000 N 
ATOM     96  H5  UNL A   1       8.765  12.757  36.618  1.00  0.00    +0.000 H 
BRANCH    5    3
ATOM      3  C3  UNL A   1       7.219  13.148  37.824  1.00  0.00    +0.000 C 
ATOM      4  O1  UNL A   1       6.116  13.684  37.689  1.00  0.00    +0.000 O 
BRANCH    3    2
ATOM      2  C2  UNL A   1       7.948  13.100  39.180  1.00  0.00    +0.000 C 
ATOM     95  H4  UNL A   1       8.672  12.314  39.156  1.00  0.00    +0.000 H 
BRANCH    2    1
ATOM      1  C1  UNL A   1       8.685  14.427  39.412  1.00  0.00    +0.000 C 
ATOM     92  H1  UNL A   1       8.018  15.243  39.225  1.00  0.00    +0.000 H 
ATOM     93  H2  UNL A   1       9.521  14.491  38.748  1.00  0.00    +0.000 H 
ATOM     94  H3  UNL A   1       9.028  14.472  40.424  1.00  0.00    +0.000 H 
ENDBRANCH    2    1
BRANCH    2   78
ATOM    129  H38 UNL A   1       0.668   9.762  43.946  1.00  0.00    +0.000 H 
ATOM    130  H39 UNL A   1       3.290  13.011  44.490  1.00  0.00    +0.000 H 
ATOM     78  C55 UNL A   1       7.001  12.750  40.326  1.00  0.00    +0.000 C 
ATOM     79  C56 UNL A   1       6.714  13.659  41.354  1.00  0.00    +0.000 C 
ATOM     80  C57 UNL A   1       5.727  13.391  42.316  1.00  0.00    +0.000 C 
ATOM     81  C58 UNL A   1       4.951  12.220  42.202  1.00  0.00    +0.000 C 
ATOM     82  C59 UNL A   1       5.275  11.312  41.200  1.00  0.00    +0.000 C 
ATOM     83  C60 UNL A   1       6.330  11.514  40.303  1.00  0.00    +0.000 C 
ATOM     84  N7  UNL A   1       4.364  10.286  41.268  1.00  0.00    +0.000 N 
ATOM     85  C61 UNL A   1       3.424  10.528  42.242  1.00  0.00    +0.000 C 
ATOM     86  C62 UNL A   1       2.283   9.797  42.592  1.00  0.00    +0.000 C 
ATOM     87  C63 UNL A   1       1.519  10.272  43.662  1.00  0.00    +0.000 C 
ATOM     88  C64 UNL A   1       1.895  11.423  44.349  1.00  0.00    +0.000 C 
ATOM     89 Cl1  UNL A   1       0.939  11.963  45.677  1.00  0.00    +0.000 Cl
ATOM     90  C65 UNL A   1       3.027  12.154  43.978  1.00  0.00    +0.000 C 
ATOM     91  C66 UNL A   1       3.805  11.703  42.891  1.00  0.00    +0.000 C 
ATOM    124  H33 UNL A   1       7.241  14.545  41.405  1.00  0.00    +0.000 H 
ATOM    125  H34 UNL A   1       5.569  14.045  43.098  1.00  0.00    +0.000 H 
ATOM    126  H35 UNL A   1       6.609  10.774  39.640  1.00  0.00    +0.000 H 
ATOM    127  H36 UNL A   1       4.380   9.486  40.695  1.00  0.00    +0.000 H 
ATOM    128  H37 UNL A   1       2.016   8.942  42.080  1.00  0.00    +0.000 H 
ENDBRANCH    2   78
ENDBRANCH    3    2
ENDBRANCH    5    3
ENDBRANCH    6    5
ENDBRANCH    7    6
ENDBRANCH    8    7
ENDBRANCH    9    8
ENDBRANCH   10    9
ENDBRANCH   11   10
ENDBRANCH   12   11
ENDBRANCH   13   12
ENDBRANCH   15   13
ENDBRANCH   19   18
BRANCH   23   24
ATOM     33  C24 UNL A   1       2.789  15.819  39.569  1.00  0.00    +0.000 C 
ATOM     34  F5  UNL A   1       2.820  16.000  38.240  1.00  0.00    +0.000 F 
ATOM     24  C19 UNL A   1       1.844  14.954  40.143  1.00  0.00    +0.000 C 
ATOM     25  C20 UNL A   1       1.861  14.796  41.536  1.00  0.00    +0.000 C 
ATOM     26  F1  UNL A   1       0.972  13.988  42.135  1.00  0.00    +0.000 F 
ATOM     27  C21 UNL A   1       2.772  15.494  42.326  1.00  0.00    +0.000 C 
ATOM     28  F2  UNL A   1       2.740  15.359  43.659  1.00  0.00    +0.000 F 
ATOM     29  C22 UNL A   1       3.701  16.337  41.737  1.00  0.00    +0.000 C 
ATOM     30  F3  UNL A   1       4.582  17.002  42.498  1.00  0.00    +0.000 F 
ATOM     31  C23 UNL A   1       3.715  16.495  40.359  1.00  0.00    +0.000 C 
ATOM     32  F4  UNL A   1       4.622  17.299  39.786  1.00  0.00    +0.000 F 
ENDBRANCH   23   24
BRANCH   40   41
ATOM     41  C30 UNL A   1      -4.890  15.651  37.671  1.00  0.00    +0.000 C 
ATOM     42  C31 UNL A   1      -5.217  16.460  36.572  1.00  0.00    +0.000 C 
ATOM     43  F6  UNL A   1      -4.495  16.389  35.444  1.00  0.00    +0.000 F 
ATOM     44  C32 UNL A   1      -6.262  17.376  36.645  1.00  0.00    +0.000 C 
ATOM     45  F7  UNL A   1      -6.527  18.172  35.600  1.00  0.00    +0.000 F 
ATOM     46  C33 UNL A   1      -7.019  17.479  37.803  1.00  0.00    +0.000 C 
ATOM     47  F8  UNL A   1      -8.028  18.358  37.870  1.00  0.00    +0.000 F 
ATOM     48  C34 UNL A   1      -6.726  16.676  38.895  1.00  0.00    +0.000 C 
ATOM     49  F9  UNL A   1      -7.462  16.766  40.010  1.00  0.00    +0.000 F 
ATOM     50  C35 UNL A   1      -5.664  15.777  38.834  1.00  0.00    +0.000 C 
ATOM     51  F10 UNL A   1      -5.395  15.022  39.910  1.00  0.00    +0.000 F 
ENDBRANCH   40   41
BRANCH   55   56
ATOM     65  C44 UNL A   1      -4.461   9.639  33.183  1.00  0.00    +0.000 C 
ATOM     66  F15 UNL A   1      -3.753  10.591  32.560  1.00  0.00    +0.000 F 
ATOM     56  C39 UNL A   1      -4.319   9.446  34.564  1.00  0.00    +0.000 C 
ATOM     57  C40 UNL A   1      -5.087   8.441  35.167  1.00  0.00    +0.000 C 
ATOM     58  F11 UNL A   1      -4.968   8.207  36.482  1.00  0.00    +0.000 F 
ATOM     59  C41 UNL A   1      -5.949   7.646  34.415  1.00  0.00    +0.000 C 
ATOM     60  F12 UNL A   1      -6.640   6.664  35.010  1.00  0.00    +0.000 F 
ATOM     61  C42 UNL A   1      -6.081   7.860  33.051  1.00  0.00    +0.000 C 
ATOM     62  F13 UNL A   1      -6.914   7.098  32.330  1.00  0.00    +0.000 F 
ATOM     63  C43 UNL A   1      -5.344   8.861  32.436  1.00  0.00    +0.000 C 
ATOM     64  F14 UNL A   1      -5.479   9.080  31.121  1.00  0.00    +0.000 F 
ENDBRANCH   55   56
TORSDOF 17
ENDMDL
MODEL 10
REMARK VINA RESULT:      -8.6     31.068     38.520
ROOT
ATOM     19  C15 UNL A   1      31.696  23.108 -11.733  1.00  0.00    +0.000 C 
ATOM     20  C16 UNL A   1      31.530  21.950 -12.677  1.00  0.00    +0.000 C 
ATOM     21  N3  UNL A   1      30.441  21.300 -13.007  1.00  0.00    +0.000 N 
ATOM     22  C17 UNL A   1      30.835  20.351 -13.941  1.00  0.00    +0.000 C 
ATOM     23  C18 UNL A   1      30.085  19.398 -14.546  1.00  0.00    +0.000 C 
ATOM     35  C25 UNL A   1      28.681  19.193 -14.308  1.00  0.00    +0.000 C 
ATOM     36  C26 UNL A   1      27.850  18.216 -14.828  1.00  0.00    +0.000 C 
ATOM     37  C27 UNL A   1      26.556  18.436 -14.343  1.00  0.00    +0.000 C 
ATOM     38  C28 UNL A   1      26.589  19.524 -13.487  1.00  0.00    +0.000 C 
ATOM     39  N4  UNL A   1      27.898  19.981 -13.478  1.00  0.00    +0.000 N 
ATOM     40  C29 UNL A   1      25.509  20.107 -12.734  1.00  0.00    +0.000 C 
ATOM     52  C36 UNL A   1      25.628  21.171 -11.903  1.00  0.00    +0.000 C 
ATOM     53  N5  UNL A   1      26.760  21.912 -11.594  1.00  0.00    +0.000 N 
ATOM     54  C37 UNL A   1      26.364  22.841 -10.758  1.00  0.00    +0.000 C 
ATOM     55  C38 UNL A   1      27.172  23.909 -10.074  1.00  0.00    +0.000 C 
ATOM     67  C45 UNL A   1      28.500  23.973 -10.289  1.00  0.00    +0.000 C 
ATOM     68  C46 UNL A   1      29.408  24.947  -9.690  1.00  0.00    +0.000 C 
ATOM     69  C47 UNL A   1      30.647  24.740 -10.163  1.00  0.00    +0.000 C 
ATOM     70  C48 UNL A   1      30.627  23.597 -11.075  1.00  0.00    +0.000 C 
ATOM     71  N6  UNL A   1      29.312  23.199 -11.082  1.00  0.00    +0.000 N 
ATOM     72  C49 UNL A   1      24.924  22.809 -10.464  1.00  0.00    +0.000 C 
ATOM     73  C50 UNL A   1      24.531  21.751 -11.157  1.00  0.00    +0.000 C 
ATOM     74  C51 UNL A   1      32.255  20.536 -14.157  1.00  0.00    +0.000 C 
ATOM     75  C52 UNL A   1      32.744  21.471 -13.356  1.00  0.00    +0.000 C 
ATOM    112  H21 UNL A   1      28.136  17.456 -15.464  1.00  0.00    +0.000 H 
ATOM    113  H22 UNL A   1      25.719  17.881 -14.582  1.00  0.00    +0.000 H 
ATOM    114  H23 UNL A   1      28.223  20.752 -12.958  1.00  0.00    +0.000 H 
ATOM    115  H24 UNL A   1      29.140  25.677  -9.011  1.00  0.00    +0.000 H 
ATOM    116  H25 UNL A   1      31.480  25.300  -9.923  1.00  0.00    +0.000 H 
ATOM    117  H26 UNL A   1      28.983  22.433 -11.605  1.00  0.00    +0.000 H 
ATOM    118  H27 UNL A   1      24.366  23.446  -9.873  1.00  0.00    +0.000 H 
ATOM    119  H28 UNL A   1      23.565  21.385 -11.164  1.00  0.00    +0.000 H 
ATOM    120  H29 UNL A   1      32.813  20.008 -14.846  1.00  0.00    +0.000 H 
ATOM    121  H30 UNL A   1      33.721  21.783 -13.240  1.00  0.00    +0.000 H 
ENDROOT
BRANCH   19   18
ATOM     76  C53 UNL A   1      33.835  23.430 -10.476  1.00  0.00    +0.000 C 
ATOM     77  C54 UNL A   1      35.085  24.030 -10.317  1.00  0.00    +0.000 C 
ATOM    110  H19 UNL A   1      35.092  25.948 -13.067  1.00  0.00    +0.000 H 
ATOM     15  C11 UNL A   1      35.571  24.903 -11.293  1.00  0.00    +0.000 C 
ATOM     16  C12 UNL A   1      34.754  25.268 -12.368  1.00  0.00    +0.000 C 
ATOM     17  C13 UNL A   1      33.477  24.713 -12.496  1.00  0.00    +0.000 C 
ATOM    111  H20 UNL A   1      32.869  25.001 -13.278  1.00  0.00    +0.000 H 
ATOM     18  C14 UNL A   1      33.020  23.764 -11.568  1.00  0.00    +0.000 C 
ATOM    122  H31 UNL A   1      33.509  22.735  -9.786  1.00  0.00    +0.000 H 
ATOM    123  H32 UNL A   1      35.650  23.829  -9.476  1.00  0.00    +0.000 H 
BRANCH   15   13
ATOM     13  C10 UNL A   1      36.921  25.506 -11.191  1.00  0.00    +0.000 C 
ATOM     14  O2  UNL A   1      37.173  26.533 -11.809  1.00  0.00    +0.000 O 
BRANCH   13   12
ATOM     12  N2  UNL A   1      37.891  24.921 -10.412  1.00  0.00    +0.000 N 
ATOM    109  H18 UNL A   1      37.975  25.287  -9.502  1.00  0.00    +0.000 H 
BRANCH   12   11
ATOM     11  C9  UNL A   1      38.810  23.842 -10.733  1.00  0.00    +0.000 C 
ATOM    108  H17 UNL A   1      38.744  23.112  -9.953  1.00  0.00    +0.000 H 
ATOM    107  H16 UNL A   1      39.800  24.243 -10.809  1.00  0.00    +0.000 H 
BRANCH   11   10
ATOM    105  H14 UNL A   1      37.904  23.848 -12.649  1.00  0.00    +0.000 H 
ATOM     10  C8  UNL A   1      38.455  23.153 -12.051  1.00  0.00    +0.000 C 
ATOM    106  H15 UNL A   1      39.386  22.853 -12.486  1.00  0.00    +0.000 H 
BRANCH   10    9
ATOM      9  C7  UNL A   1      37.618  21.873 -11.919  1.00  0.00    +0.000 C 
ATOM    103  H12 UNL A   1      36.624  22.096 -12.246  1.00  0.00    +0.000 H 
ATOM    104  H13 UNL A   1      38.118  21.137 -12.513  1.00  0.00    +0.000 H 
BRANCH    9    8
ATOM    101  H10 UNL A   1      38.028  21.933  -9.833  1.00  0.00    +0.000 H 
ATOM    102  H11 UNL A   1      36.484  21.167 -10.293  1.00  0.00    +0.000 H 
ATOM      8  C6  UNL A   1      37.526  21.275 -10.509  1.00  0.00    +0.000 C 
BRANCH    8    7
ATOM     99  H8  UNL A   1      38.996  19.951  -9.725  1.00  0.00    +0.000 H 
ATOM    100  H9  UNL A   1      37.387  19.239  -9.972  1.00  0.00    +0.000 H 
ATOM      7  C5  UNL A   1      38.145  19.880 -10.369  1.00  0.00    +0.000 C 
BRANCH    7    6
ATOM     97  H6  UNL A   1      38.495  20.011 -12.471  1.00  0.00    +0.000 H 
ATOM     98  H7  UNL A   1      39.614  18.964 -11.607  1.00  0.00    +0.000 H 
ATOM      6  C4  UNL A   1      38.595  19.274 -11.702  1.00  0.00    +0.000 C 
BRANCH    6    5
ATOM      5  N1  UNL A   1      37.792  18.116 -12.047  1.00  0.00    +0.000 N 
ATOM     96  H5  UNL A   1      38.255  17.423 -12.570  1.00  0.00    +0.000 H 
BRANCH    5    3
ATOM      3  C3  UNL A   1      36.481  17.848 -11.752  1.00  0.00    +0.000 C 
ATOM      4  O1  UNL A   1      36.256  16.930 -10.959  1.00  0.00    +0.000 O 
BRANCH    3    2
ATOM      2  C2  UNL A   1      35.348  18.653 -12.417  1.00  0.00    +0.000 C 
ATOM     95  H4  UNL A   1      35.690  19.650 -12.594  1.00  0.00    +0.000 H 
BRANCH    2    1
ATOM      1  C1  UNL A   1      34.997  18.018 -13.770  1.00  0.00    +0.000 C 
ATOM     92  H1  UNL A   1      34.279  18.630 -14.276  1.00  0.00    +0.000 H 
ATOM     93  H2  UNL A   1      34.585  17.043 -13.611  1.00  0.00    +0.000 H 
ATOM     94  H3  UNL A   1      35.881  17.939 -14.368  1.00  0.00    +0.000 H 
ENDBRANCH    2    1
BRANCH    2   78
ATOM    129  H38 UNL A   1      26.540  19.150  -9.413  1.00  0.00    +0.000 H 
ATOM    130  H39 UNL A   1      30.189  20.775  -8.084  1.00  0.00    +0.000 H 
ATOM     78  C55 UNL A   1      34.133  18.792 -11.504  1.00  0.00    +0.000 C 
ATOM     79  C56 UNL A   1      34.092  19.728 -10.461  1.00  0.00    +0.000 C 
ATOM     80  C57 UNL A   1      32.917  19.959  -9.727  1.00  0.00    +0.000 C 
ATOM     81  C58 UNL A   1      31.731  19.293 -10.095  1.00  0.00    +0.000 C 
ATOM     82  C59 UNL A   1      31.799  18.339 -11.105  1.00  0.00    +0.000 C 
ATOM     83  C60 UNL A   1      32.988  18.019 -11.769  1.00  0.00    +0.000 C 
ATOM     84  N7  UNL A   1      30.525  17.866 -11.305  1.00  0.00    +0.000 N 
ATOM     85  C61 UNL A   1      29.625  18.523 -10.500  1.00  0.00    +0.000 C 
ATOM     86  C62 UNL A   1      28.230  18.418 -10.439  1.00  0.00    +0.000 C 
ATOM     87  C63 UNL A   1      27.569  19.197  -9.485  1.00  0.00    +0.000 C 
ATOM     88  C64 UNL A   1      28.282  20.034  -8.631  1.00  0.00    +0.000 C 
ATOM     89 Cl1  UNL A   1      27.432  20.962  -7.455  1.00  0.00    +0.000 Cl
ATOM     90  C65 UNL A   1      29.673  20.144  -8.716  1.00  0.00    +0.000 C 
ATOM     91  C66 UNL A   1      30.361  19.379  -9.681  1.00  0.00    +0.000 C 
ATOM    124  H33 UNL A   1      34.945  20.261 -10.228  1.00  0.00    +0.000 H 
ATOM    125  H34 UNL A   1      32.922  20.610  -8.927  1.00  0.00    +0.000 H 
ATOM    126  H35 UNL A   1      33.024  17.235 -12.439  1.00  0.00    +0.000 H 
ATOM    127  H36 UNL A   1      30.288  17.152 -11.941  1.00  0.00    +0.000 H 
ATOM    128  H37 UNL A   1      27.711  17.789 -11.072  1.00  0.00    +0.000 H 
ENDBRANCH    2   78
ENDBRANCH    3    2
ENDBRANCH    5    3
ENDBRANCH    6    5
ENDBRANCH    7    6
ENDBRANCH    8    7
ENDBRANCH    9    8
ENDBRANCH   10    9
ENDBRANCH   11   10
ENDBRANCH   12   11
ENDBRANCH   13   12
ENDBRANCH   15   13
ENDBRANCH   19   18
BRANCH   23   24
ATOM     33  C24 UNL A   1      30.995  18.912 -16.848  1.00  0.00    +0.000 C 
ATOM     34  F5  UNL A   1      30.628  20.142 -17.239  1.00  0.00    +0.000 F 
ATOM     24  C19 UNL A   1      30.773  18.493 -15.527  1.00  0.00    +0.000 C 
ATOM     25  C20 UNL A   1      31.170  17.195 -15.174  1.00  0.00    +0.000 C 
ATOM     26  F1  UNL A   1      30.989  16.751 -13.921  1.00  0.00    +0.000 F 
ATOM     27  C21 UNL A   1      31.786  16.358 -16.101  1.00  0.00    +0.000 C 
ATOM     28  F2  UNL A   1      32.195  15.137 -15.729  1.00  0.00    +0.000 F 
ATOM     29  C22 UNL A   1      31.989  16.790 -17.403  1.00  0.00    +0.000 C 
ATOM     30  F3  UNL A   1      32.575  15.979 -18.296  1.00  0.00    +0.000 F 
ATOM     31  C23 UNL A   1      31.588  18.063 -17.778  1.00  0.00    +0.000 C 
ATOM     32  F4  UNL A   1      31.770  18.477 -19.041  1.00  0.00    +0.000 F 
ENDBRANCH   23   24
BRANCH   40   41
ATOM     41  C30 UNL A   1      24.151  19.481 -12.856  1.00  0.00    +0.000 C 
ATOM     42  C31 UNL A   1      23.195  19.971 -13.759  1.00  0.00    +0.000 C 
ATOM     43  F6  UNL A   1      23.464  21.054 -14.504  1.00  0.00    +0.000 F 
ATOM     44  C32 UNL A   1      21.944  19.372 -13.870  1.00  0.00    +0.000 C 
ATOM     45  F7  UNL A   1      21.029  19.885 -14.705  1.00  0.00    +0.000 F 
ATOM     46  C33 UNL A   1      21.635  18.257 -13.105  1.00  0.00    +0.000 C 
ATOM     47  F8  UNL A   1      20.431  17.679 -13.216  1.00  0.00    +0.000 F 
ATOM     48  C34 UNL A   1      22.571  17.744 -12.220  1.00  0.00    +0.000 C 
ATOM     49  F9  UNL A   1      22.279  16.661 -11.488  1.00  0.00    +0.000 F 
ATOM     50  C35 UNL A   1      23.814  18.357 -12.087  1.00  0.00    +0.000 C 
ATOM     51  F10 UNL A   1      24.696  17.848 -11.213  1.00  0.00    +0.000 F 
ENDBRANCH   40   41
BRANCH   55   56
ATOM     65  C44 UNL A   1      26.453  24.631  -7.771  1.00  0.00    +0.000 C 
ATOM     66  F15 UNL A   1      26.966  23.503  -7.261  1.00  0.00    +0.000 F 
ATOM     56  C39 UNL A   1      26.525  24.875  -9.150  1.00  0.00    +0.000 C 
ATOM     57  C40 UNL A   1      25.967  26.067  -9.632  1.00  0.00    +0.000 C 
ATOM     58  F11 UNL A   1      26.032  26.353 -10.941  1.00  0.00    +0.000 F 
ATOM     59  C41 UNL A   1      25.379  26.988  -8.768  1.00  0.00    +0.000 C 
ATOM     60  F12 UNL A   1      24.891  28.139  -9.251  1.00  0.00    +0.000 F 
ATOM     61  C42 UNL A   1      25.311  26.721  -7.409  1.00  0.00    +0.000 C 
ATOM     62  F13 UNL A   1      24.741  27.604  -6.579  1.00  0.00    +0.000 F 
ATOM     63  C43 UNL A   1      25.840  25.540  -6.911  1.00  0.00    +0.000 C 
ATOM     64  F14 UNL A   1      25.764  25.272  -5.600  1.00  0.00    +0.000 F 
ENDBRANCH   55   56
TORSDOF 17
ENDMDL
