MODEL 1
REMARK VINA RESULT:     -10.2      0.000      0.000
ROOT
ATOM     19  C15 UNL A   1      38.484  29.732  29.954  1.00  0.00    +0.000 C 
ATOM     20  C16 UNL A   1      38.912  30.301  31.278  1.00  0.00    +0.000 C 
ATOM     21  N3  UNL A   1      39.995  30.059  31.974  1.00  0.00    +0.000 N 
ATOM     22  C17 UNL A   1      39.920  30.882  33.088  1.00  0.00    +0.000 C 
ATOM     23  C18 UNL A   1      40.768  30.959  34.141  1.00  0.00    +0.000 C 
ATOM     35  C25 UNL A   1      41.950  30.151  34.290  1.00  0.00    +0.000 C 
ATOM     36  C26 UNL A   1      42.838  30.103  35.350  1.00  0.00    +0.000 C 
ATOM     37  C27 UNL A   1      43.856  29.199  35.028  1.00  0.00    +0.000 C 
ATOM     38  C28 UNL A   1      43.579  28.650  33.787  1.00  0.00    +0.000 C 
ATOM     39  N4  UNL A   1      42.409  29.246  33.344  1.00  0.00    +0.000 N 
ATOM     40  C29 UNL A   1      44.325  27.656  33.058  1.00  0.00    +0.000 C 
ATOM     52  C36 UNL A   1      43.983  27.164  31.843  1.00  0.00    +0.000 C 
ATOM     53  N5  UNL A   1      42.884  27.473  31.053  1.00  0.00    +0.000 N 
ATOM     54  C37 UNL A   1      43.002  26.745  29.969  1.00  0.00    +0.000 C 
ATOM     55  C38 UNL A   1      42.079  26.645  28.785  1.00  0.00    +0.000 C 
ATOM     67  C45 UNL A   1      40.953  27.382  28.765  1.00  0.00    +0.000 C 
ATOM     68  C46 UNL A   1      39.957  27.381  27.697  1.00  0.00    +0.000 C 
ATOM     69  C47 UNL A   1      38.979  28.247  28.011  1.00  0.00    +0.000 C 
ATOM     70  C48 UNL A   1      39.265  28.839  29.318  1.00  0.00    +0.000 C 
ATOM     71  N6  UNL A   1      40.461  28.277  29.683  1.00  0.00    +0.000 N 
ATOM     72  C49 UNL A   1      44.212  25.911  29.936  1.00  0.00    +0.000 C 
ATOM     73  C50 UNL A   1      44.751  26.172  31.118  1.00  0.00    +0.000 C 
ATOM     74  C51 UNL A   1      38.712  31.669  32.953  1.00  0.00    +0.000 C 
ATOM     75  C52 UNL A   1      38.018  31.298  31.888  1.00  0.00    +0.000 C 
ATOM    112  H21 UNL A   1      42.761  30.642  36.227  1.00  0.00    +0.000 H 
ATOM    113  H22 UNL A   1      44.676  28.981  35.616  1.00  0.00    +0.000 H 
ATOM    114  H23 UNL A   1      41.969  29.055  32.484  1.00  0.00    +0.000 H 
ATOM    115  H24 UNL A   1      39.999  26.809  26.840  1.00  0.00    +0.000 H 
ATOM    116  H25 UNL A   1      38.158  28.460  27.423  1.00  0.00    +0.000 H 
ATOM    117  H26 UNL A   1      40.925  28.495  30.525  1.00  0.00    +0.000 H 
ATOM    118  H27 UNL A   1      44.552  25.286  29.188  1.00  0.00    +0.000 H 
ATOM    119  H28 UNL A   1      45.610  25.726  31.476  1.00  0.00    +0.000 H 
ATOM    120  H29 UNL A   1      38.431  32.421  33.602  1.00  0.00    +0.000 H 
ATOM    121  H30 UNL A   1      37.092  31.622  31.570  1.00  0.00    +0.000 H 
ENDROOT
BRANCH   19   18
ATOM     76  C53 UNL A   1      37.188  31.449  28.688  1.00  0.00    +0.000 C 
ATOM     77  C54 UNL A   1      36.003  31.918  28.125  1.00  0.00    +0.000 C 
ATOM    110  H19 UNL A   1      34.051  29.255  28.731  1.00  0.00    +0.000 H 
ATOM     15  C11 UNL A   1      34.872  31.095  28.094  1.00  0.00    +0.000 C 
ATOM     16  C12 UNL A   1      34.895  29.848  28.726  1.00  0.00    +0.000 C 
ATOM     17  C13 UNL A   1      36.064  29.408  29.350  1.00  0.00    +0.000 C 
ATOM    111  H20 UNL A   1      36.074  28.500  29.839  1.00  0.00    +0.000 H 
ATOM     18  C14 UNL A   1      37.227  30.196  29.317  1.00  0.00    +0.000 C 
ATOM    122  H31 UNL A   1      38.042  32.027  28.641  1.00  0.00    +0.000 H 
ATOM    123  H32 UNL A   1      35.960  32.871  27.732  1.00  0.00    +0.000 H 
BRANCH   15   13
ATOM     13  C10 UNL A   1      33.627  31.533  27.428  1.00  0.00    +0.000 C 
ATOM     14  O2  UNL A   1      33.369  32.729  27.342  1.00  0.00    +0.000 O 
BRANCH   13   12
ATOM     12  N2  UNL A   1      32.754  30.603  26.921  1.00  0.00    +0.000 N 
ATOM    109  H18 UNL A   1      32.022  30.338  27.523  1.00  0.00    +0.000 H 
BRANCH   12   11
ATOM     11  C9  UNL A   1      32.760  29.953  25.621  1.00  0.00    +0.000 C 
ATOM    108  H17 UNL A   1      33.542  30.392  25.037  1.00  0.00    +0.000 H 
ATOM    107  H16 UNL A   1      31.805  30.095  25.160  1.00  0.00    +0.000 H 
BRANCH   11   10
ATOM    105  H14 UNL A   1      33.539  28.275  26.655  1.00  0.00    +0.000 H 
ATOM     10  C8  UNL A   1      33.037  28.458  25.727  1.00  0.00    +0.000 C 
ATOM    106  H15 UNL A   1      32.089  27.968  25.659  1.00  0.00    +0.000 H 
BRANCH   10    9
ATOM      9  C7  UNL A   1      33.900  27.889  24.599  1.00  0.00    +0.000 C 
ATOM    103  H12 UNL A   1      33.626  28.382  23.689  1.00  0.00    +0.000 H 
ATOM    104  H13 UNL A   1      34.918  28.063  24.883  1.00  0.00    +0.000 H 
BRANCH    9    8
ATOM    101  H10 UNL A   1      32.738  26.161  24.188  1.00  0.00    +0.000 H 
ATOM    102  H11 UNL A   1      34.415  26.137  23.564  1.00  0.00    +0.000 H 
ATOM      8  C6  UNL A   1      33.768  26.379  24.380  1.00  0.00    +0.000 C 
BRANCH    8    7
ATOM     99  H8  UNL A   1      34.767  26.127  26.244  1.00  0.00    +0.000 H 
ATOM    100  H9  UNL A   1      33.343  25.087  25.995  1.00  0.00    +0.000 H 
ATOM      7  C5  UNL A   1      34.226  25.508  25.560  1.00  0.00    +0.000 C 
BRANCH    7    6
ATOM     97  H6  UNL A   1      35.145  24.263  24.087  1.00  0.00    +0.000 H 
ATOM     98  H7  UNL A   1      36.109  24.511  25.534  1.00  0.00    +0.000 H 
ATOM      6  C4  UNL A   1      35.123  24.336  25.155  1.00  0.00    +0.000 C 
BRANCH    6    5
ATOM      5  N1  UNL A   1      34.625  23.096  25.707  1.00  0.00    +0.000 N 
ATOM     96  H5  UNL A   1      34.599  23.054  26.690  1.00  0.00    +0.000 H 
BRANCH    5    3
ATOM      3  C3  UNL A   1      34.184  21.973  25.066  1.00  0.00    +0.000 C 
ATOM      4  O1  UNL A   1      35.021  21.332  24.429  1.00  0.00    +0.000 O 
BRANCH    3    2
ATOM      2  C2  UNL A   1      32.693  21.617  25.101  1.00  0.00    +0.000 C 
ATOM     95  H4  UNL A   1      32.514  21.182  26.063  1.00  0.00    +0.000 H 
BRANCH    2    1
ATOM      1  C1  UNL A   1      32.297  20.545  24.078  1.00  0.00    +0.000 C 
ATOM     92  H1  UNL A   1      31.389  20.835  23.592  1.00  0.00    +0.000 H 
ATOM     93  H2  UNL A   1      32.151  19.610  24.579  1.00  0.00    +0.000 H 
ATOM     94  H3  UNL A   1      33.074  20.442  23.351  1.00  0.00    +0.000 H 
ENDBRANCH    2    1
BRANCH    2   78
ATOM    137  H46 UNL A   1      30.245  25.200  26.787  1.00  0.00    +0.000 H 
ATOM     78  C55 UNL A   1      31.825  22.859  24.967  1.00  0.00    +0.000 C 
ATOM     79  C56 UNL A   1      31.483  23.338  23.695  1.00  0.00    +0.000 C 
ATOM     80  C57 UNL A   1      30.742  24.514  23.555  1.00  0.00    +0.000 C 
ATOM     81  C58 UNL A   1      30.347  25.250  24.679  1.00  0.00    +0.000 C 
ATOM     89  C65 UNL A   1      30.600  24.717  25.948  1.00  0.00    +0.000 C 
ATOM     90  C66 UNL A   1      31.327  23.539  26.083  1.00  0.00    +0.000 C 
ATOM     91  F16 UNL A   1      31.576  23.091  27.321  1.00  0.00    +0.000 F 
ATOM    124  H33 UNL A   1      31.781  22.818  22.855  1.00  0.00    +0.000 H 
ATOM    125  H34 UNL A   1      30.482  24.844  22.613  1.00  0.00    +0.000 H 
BRANCH   81   82
ATOM     82  C59 UNL A   1      29.688  26.598  24.543  1.00  0.00    +0.000 C 
ATOM    126  H35 UNL A   1      30.255  27.293  25.127  1.00  0.00    +0.000 H 
ATOM    127  H36 UNL A   1      28.680  26.443  24.867  1.00  0.00    +0.000 H 
BRANCH   82   83
ATOM    129  H38 UNL A   1      30.965  27.608  21.547  1.00  0.00    +0.000 H 
ATOM    130  H39 UNL A   1      31.690  27.540  23.116  1.00  0.00    +0.000 H 
ATOM    131  H40 UNL A   1      30.799  29.860  21.784  1.00  0.00    +0.000 H 
ATOM    132  H41 UNL A   1      31.305  29.787  23.435  1.00  0.00    +0.000 H 
ATOM    133  H42 UNL A   1      28.724  30.373  22.593  1.00  0.00    +0.000 H 
ATOM    134  H43 UNL A   1      29.107  29.870  24.188  1.00  0.00    +0.000 H 
ATOM    135  H44 UNL A   1      28.117  28.213  21.878  1.00  0.00    +0.000 H 
ATOM     83  C60 UNL A   1      29.558  27.189  23.119  1.00  0.00    +0.000 C 
ATOM     84  C61 UNL A   1      30.826  27.863  22.577  1.00  0.00    +0.000 C 
ATOM     85  C62 UNL A   1      30.624  29.375  22.721  1.00  0.00    +0.000 C 
ATOM     86  C63 UNL A   1      29.178  29.587  23.159  1.00  0.00    +0.000 C 
ATOM     87  C64 UNL A   1      28.486  28.257  22.880  1.00  0.00    +0.000 C 
ATOM    128  H37 UNL A   1      29.305  26.276  22.622  1.00  0.00    +0.000 H 
BRANCH   87   88
ATOM    136  H45 UNL A   1      26.837  28.910  23.722  1.00  0.00    +0.000 H 
ATOM     88  O3  UNL A   1      27.307  28.065  23.636  1.00  0.00    +0.000 O 
ENDBRANCH   87   88
ENDBRANCH   82   83
ENDBRANCH   81   82
ENDBRANCH    2   78
ENDBRANCH    3    2
ENDBRANCH    5    3
ENDBRANCH    6    5
ENDBRANCH    7    6
ENDBRANCH    8    7
ENDBRANCH    9    8
ENDBRANCH   10    9
ENDBRANCH   11   10
ENDBRANCH   12   11
ENDBRANCH   13   12
ENDBRANCH   15   13
ENDBRANCH   19   18
BRANCH   23   24
ATOM     33  C24 UNL A   1      39.488  31.657  36.199  1.00  0.00    +0.000 C 
ATOM     34  F5  UNL A   1      38.859  30.472  36.194  1.00  0.00    +0.000 F 
ATOM     24  C19 UNL A   1      40.446  31.954  35.218  1.00  0.00    +0.000 C 
ATOM     25  C20 UNL A   1      41.068  33.211  35.270  1.00  0.00    +0.000 C 
ATOM     26  F1  UNL A   1      42.000  33.541  34.363  1.00  0.00    +0.000 F 
ATOM     27  C21 UNL A   1      40.768  34.118  36.283  1.00  0.00    +0.000 C 
ATOM     28  F2  UNL A   1      41.416  35.291  36.343  1.00  0.00    +0.000 F 
ATOM     29  C22 UNL A   1      39.816  33.805  37.239  1.00  0.00    +0.000 C 
ATOM     30  F3  UNL A   1      39.526  34.679  38.213  1.00  0.00    +0.000 F 
ATOM     31  C23 UNL A   1      39.169  32.578  37.193  1.00  0.00    +0.000 C 
ATOM     32  F4  UNL A   1      38.238  32.278  38.110  1.00  0.00    +0.000 F 
ENDBRANCH   23   24
BRANCH   40   41
ATOM     41  C30 UNL A   1      45.561  27.099  33.700  1.00  0.00    +0.000 C 
ATOM     42  C31 UNL A   1      45.520  25.950  34.503  1.00  0.00    +0.000 C 
ATOM     43  F6  UNL A   1      44.351  25.343  34.752  1.00  0.00    +0.000 F 
ATOM     44  C32 UNL A   1      46.678  25.446  35.088  1.00  0.00    +0.000 C 
ATOM     45  F7  UNL A   1      46.609  24.375  35.891  1.00  0.00    +0.000 F 
ATOM     46  C33 UNL A   1      47.901  26.058  34.855  1.00  0.00    +0.000 C 
ATOM     47  F8  UNL A   1      49.015  25.568  35.415  1.00  0.00    +0.000 F 
ATOM     48  C34 UNL A   1      47.967  27.184  34.047  1.00  0.00    +0.000 C 
ATOM     49  F9  UNL A   1      49.149  27.770  33.811  1.00  0.00    +0.000 F 
ATOM     50  C35 UNL A   1      46.807  27.708  33.485  1.00  0.00    +0.000 C 
ATOM     51  F10 UNL A   1      46.900  28.806  32.720  1.00  0.00    +0.000 F 
ENDBRANCH   40   41
BRANCH   55   56
ATOM     65  C44 UNL A   1      43.289  26.047  26.657  1.00  0.00    +0.000 C 
ATOM     66  F15 UNL A   1      43.912  27.234  26.681  1.00  0.00    +0.000 F 
ATOM     56  C39 UNL A   1      42.375  25.713  27.667  1.00  0.00    +0.000 C 
ATOM     57  C40 UNL A   1      41.747  24.462  27.594  1.00  0.00    +0.000 C 
ATOM     58  F11 UNL A   1      40.882  24.089  28.548  1.00  0.00    +0.000 F 
ATOM     59  C41 UNL A   1      42.035  23.572  26.561  1.00  0.00    +0.000 C 
ATOM     60  F12 UNL A   1      41.453  22.365  26.538  1.00  0.00    +0.000 F 
ATOM     61  C42 UNL A   1      42.935  23.927  25.567  1.00  0.00    +0.000 C 
ATOM     62  F13 UNL A   1      43.210  23.073  24.573  1.00  0.00    +0.000 F 
ATOM     63  C43 UNL A   1      43.556  25.167  25.611  1.00  0.00    +0.000 C 
ATOM     64  F14 UNL A   1      44.416  25.519  24.646  1.00  0.00    +0.000 F 
ENDBRANCH   55   56
TORSDOF 20
ENDMDL
MODEL 2
REMARK VINA RESULT:     -10.2      1.489      2.680
ROOT
ATOM     19  C15 UNL A   1      39.384  28.932  29.825  1.00  0.00    +0.000 C 
ATOM     20  C16 UNL A   1      39.978  29.695  30.976  1.00  0.00    +0.000 C 
ATOM     21  N3  UNL A   1      41.124  29.519  31.584  1.00  0.00    +0.000 N 
ATOM     22  C17 UNL A   1      41.203  30.523  32.539  1.00  0.00    +0.000 C 
ATOM     23  C18 UNL A   1      42.167  30.734  33.467  1.00  0.00    +0.000 C 
ATOM     35  C25 UNL A   1      43.332  29.904  33.627  1.00  0.00    +0.000 C 
ATOM     36  C26 UNL A   1      44.332  29.991  34.579  1.00  0.00    +0.000 C 
ATOM     37  C27 UNL A   1      45.278  28.995  34.313  1.00  0.00    +0.000 C 
ATOM     38  C28 UNL A   1      44.844  28.257  33.224  1.00  0.00    +0.000 C 
ATOM     39  N4  UNL A   1      43.651  28.828  32.810  1.00  0.00    +0.000 N 
ATOM     40  C29 UNL A   1      45.471  27.117  32.604  1.00  0.00    +0.000 C 
ATOM     52  C36 UNL A   1      44.977  26.444  31.537  1.00  0.00    +0.000 C 
ATOM     53  N5  UNL A   1      43.806  26.670  30.827  1.00  0.00    +0.000 N 
ATOM     54  C37 UNL A   1      43.776  25.763  29.881  1.00  0.00    +0.000 C 
ATOM     55  C38 UNL A   1      42.722  25.511  28.837  1.00  0.00    +0.000 C 
ATOM     67  C45 UNL A   1      41.625  26.290  28.808  1.00  0.00    +0.000 C 
ATOM     68  C46 UNL A   1      40.515  26.159  27.869  1.00  0.00    +0.000 C 
ATOM     69  C47 UNL A   1      39.607  27.115  28.129  1.00  0.00    +0.000 C 
ATOM     70  C48 UNL A   1      40.058  27.905  29.275  1.00  0.00    +0.000 C 
ATOM     71  N6  UNL A   1      41.270  27.352  29.604  1.00  0.00    +0.000 N 
ATOM     72  C49 UNL A   1      44.947  24.875  29.865  1.00  0.00    +0.000 C 
ATOM     73  C50 UNL A   1      45.626  25.306  30.918  1.00  0.00    +0.000 C 
ATOM     74  C51 UNL A   1      40.014  31.335  32.399  1.00  0.00    +0.000 C 
ATOM     75  C52 UNL A   1      39.191  30.825  31.495  1.00  0.00    +0.000 C 
ATOM    112  H21 UNL A   1      44.374  30.675  35.352  1.00  0.00    +0.000 H 
ATOM    113  H22 UNL A   1      46.152  28.838  34.840  1.00  0.00    +0.000 H 
ATOM    114  H23 UNL A   1      43.111  28.517  32.049  1.00  0.00    +0.000 H 
ATOM    115  H24 UNL A   1      40.441  25.448  27.126  1.00  0.00    +0.000 H 
ATOM    116  H25 UNL A   1      38.731  27.266  27.604  1.00  0.00    +0.000 H 
ATOM    117  H26 UNL A   1      41.833  27.686  30.340  1.00  0.00    +0.000 H 
ATOM    118  H27 UNL A   1      45.180  24.116  29.205  1.00  0.00    +0.000 H 
ATOM    119  H28 UNL A   1      46.505  24.884  31.256  1.00  0.00    +0.000 H 
ATOM    120  H29 UNL A   1      39.832  32.200  32.932  1.00  0.00    +0.000 H 
ATOM    121  H30 UNL A   1      38.246  31.137  31.225  1.00  0.00    +0.000 H 
ENDROOT
BRANCH   19   18
ATOM     76  C53 UNL A   1      38.013  29.810  27.933  1.00  0.00    +0.000 C 
ATOM     77  C54 UNL A   1      36.803  30.244  27.397  1.00  0.00    +0.000 C 
ATOM    110  H19 UNL A   1      34.814  29.603  30.025  1.00  0.00    +0.000 H 
ATOM     15  C11 UNL A   1      35.626  30.119  28.143  1.00  0.00    +0.000 C 
ATOM     16  C12 UNL A   1      35.678  29.665  29.464  1.00  0.00    +0.000 C 
ATOM     17  C13 UNL A   1      36.903  29.295  30.022  1.00  0.00    +0.000 C 
ATOM    111  H20 UNL A   1      36.947  28.985  31.006  1.00  0.00    +0.000 H 
ATOM     18  C14 UNL A   1      38.078  29.344  29.254  1.00  0.00    +0.000 C 
ATOM    122  H31 UNL A   1      38.867  29.832  27.354  1.00  0.00    +0.000 H 
ATOM    123  H32 UNL A   1      36.774  30.658  26.453  1.00  0.00    +0.000 H 
BRANCH   15   13
ATOM     13  C10 UNL A   1      34.315  30.491  27.570  1.00  0.00    +0.000 C 
ATOM     14  O2  UNL A   1      33.898  31.639  27.696  1.00  0.00    +0.000 O 
BRANCH   13   12
ATOM     12  N2  UNL A   1      33.559  29.553  26.913  1.00  0.00    +0.000 N 
ATOM    109  H18 UNL A   1      33.078  28.918  27.491  1.00  0.00    +0.000 H 
BRANCH   12   11
ATOM     11  C9  UNL A   1      33.369  29.365  25.485  1.00  0.00    +0.000 C 
ATOM    108  H17 UNL A   1      33.942  30.112  24.975  1.00  0.00    +0.000 H 
ATOM    107  H16 UNL A   1      32.327  29.455  25.260  1.00  0.00    +0.000 H 
BRANCH   11   10
ATOM    105  H14 UNL A   1      33.258  27.699  24.181  1.00  0.00    +0.000 H 
ATOM     10  C8  UNL A   1      33.857  28.000  25.015  1.00  0.00    +0.000 C 
ATOM    106  H15 UNL A   1      34.892  28.115  24.769  1.00  0.00    +0.000 H 
BRANCH   10    9
ATOM      9  C7  UNL A   1      33.784  26.898  26.075  1.00  0.00    +0.000 C 
ATOM    103  H12 UNL A   1      34.516  26.156  25.834  1.00  0.00    +0.000 H 
ATOM    104  H13 UNL A   1      33.962  27.377  27.016  1.00  0.00    +0.000 H 
BRANCH    9    8
ATOM    101  H10 UNL A   1      31.908  26.631  27.031  1.00  0.00    +0.000 H 
ATOM    102  H11 UNL A   1      31.926  26.359  25.262  1.00  0.00    +0.000 H 
ATOM      8  C6  UNL A   1      32.424  26.205  26.196  1.00  0.00    +0.000 C 
BRANCH    8    7
ATOM     99  H8  UNL A   1      32.328  24.477  27.438  1.00  0.00    +0.000 H 
ATOM    100  H9  UNL A   1      31.727  24.256  25.777  1.00  0.00    +0.000 H 
ATOM      7  C5  UNL A   1      32.485  24.684  26.400  1.00  0.00    +0.000 C 
BRANCH    7    6
ATOM     97  H6  UNL A   1      34.513  24.831  25.748  1.00  0.00    +0.000 H 
ATOM     98  H7  UNL A   1      34.181  23.454  26.785  1.00  0.00    +0.000 H 
ATOM      6  C4  UNL A   1      33.815  24.054  25.979  1.00  0.00    +0.000 C 
BRANCH    6    5
ATOM      5  N1  UNL A   1      33.636  23.212  24.816  1.00  0.00    +0.000 N 
ATOM     96  H5  UNL A   1      33.268  22.317  24.998  1.00  0.00    +0.000 H 
BRANCH    5    3
ATOM      3  C3  UNL A   1      33.901  23.476  23.503  1.00  0.00    +0.000 C 
ATOM      4  O1  UNL A   1      35.075  23.704  23.208  1.00  0.00    +0.000 O 
BRANCH    3    2
ATOM      2  C2  UNL A   1      32.746  23.555  22.497  1.00  0.00    +0.000 C 
ATOM     95  H4  UNL A   1      32.105  22.726  22.714  1.00  0.00    +0.000 H 
BRANCH    2    1
ATOM      1  C1  UNL A   1      33.191  23.369  21.040  1.00  0.00    +0.000 C 
ATOM     92  H1  UNL A   1      32.329  23.346  20.406  1.00  0.00    +0.000 H 
ATOM     93  H2  UNL A   1      33.727  22.448  20.947  1.00  0.00    +0.000 H 
ATOM     94  H3  UNL A   1      33.824  24.181  20.754  1.00  0.00    +0.000 H 
ENDBRANCH    2    1
BRANCH    2   78
ATOM    137  H46 UNL A   1      29.117  26.033  24.033  1.00  0.00    +0.000 H 
ATOM     78  C55 UNL A   1      31.947  24.837  22.674  1.00  0.00    +0.000 C 
ATOM     79  C56 UNL A   1      32.438  26.043  22.153  1.00  0.00    +0.000 C 
ATOM     80  C57 UNL A   1      31.747  27.239  22.364  1.00  0.00    +0.000 C 
ATOM     81  C58 UNL A   1      30.568  27.263  23.118  1.00  0.00    +0.000 C 
ATOM     89  C65 UNL A   1      30.027  26.047  23.548  1.00  0.00    +0.000 C 
ATOM     90  C66 UNL A   1      30.710  24.856  23.325  1.00  0.00    +0.000 C 
ATOM     91  F16 UNL A   1      30.169  23.722  23.791  1.00  0.00    +0.000 F 
ATOM    124  H33 UNL A   1      33.314  26.047  21.610  1.00  0.00    +0.000 H 
ATOM    125  H34 UNL A   1      32.111  28.116  21.959  1.00  0.00    +0.000 H 
BRANCH   81   82
ATOM     82  C59 UNL A   1      29.899  28.561  23.489  1.00  0.00    +0.000 C 
ATOM    126  H35 UNL A   1      30.669  29.252  23.763  1.00  0.00    +0.000 H 
ATOM    127  H36 UNL A   1      29.216  28.303  24.270  1.00  0.00    +0.000 H 
BRANCH   82   83
ATOM    129  H38 UNL A   1      29.395  30.780  20.949  1.00  0.00    +0.000 H 
ATOM    130  H39 UNL A   1      30.497  30.823  22.282  1.00  0.00    +0.000 H 
ATOM    131  H40 UNL A   1      28.126  32.329  22.022  1.00  0.00    +0.000 H 
ATOM    132  H41 UNL A   1      29.087  32.215  23.453  1.00  0.00    +0.000 H 
ATOM    133  H42 UNL A   1      26.491  31.261  23.207  1.00  0.00    +0.000 H 
ATOM    134  H43 UNL A   1      27.569  30.759  24.444  1.00  0.00    +0.000 H 
ATOM    135  H44 UNL A   1      26.953  29.414  21.822  1.00  0.00    +0.000 H 
ATOM     83  C60 UNL A   1      29.025  29.247  22.411  1.00  0.00    +0.000 C 
ATOM     84  C61 UNL A   1      29.477  30.657  22.009  1.00  0.00    +0.000 C 
ATOM     85  C62 UNL A   1      28.551  31.644  22.726  1.00  0.00    +0.000 C 
ATOM     86  C63 UNL A   1      27.449  30.818  23.382  1.00  0.00    +0.000 C 
ATOM     87  C64 UNL A   1      27.537  29.449  22.717  1.00  0.00    +0.000 C 
ATOM    128  H37 UNL A   1      29.161  28.512  21.646  1.00  0.00    +0.000 H 
BRANCH   87   88
ATOM    136  H45 UNL A   1      26.471  27.812  22.900  1.00  0.00    +0.000 H 
ATOM     88  O3  UNL A   1      26.963  28.411  23.484  1.00  0.00    +0.000 O 
ENDBRANCH   87   88
ENDBRANCH   82   83
ENDBRANCH   81   82
ENDBRANCH    2   78
ENDBRANCH    3    2
ENDBRANCH    5    3
ENDBRANCH    6    5
ENDBRANCH    7    6
ENDBRANCH    8    7
ENDBRANCH    9    8
ENDBRANCH   10    9
ENDBRANCH   11   10
ENDBRANCH   12   11
ENDBRANCH   13   12
ENDBRANCH   15   13
ENDBRANCH   19   18
BRANCH   23   24
ATOM     33  C24 UNL A   1      42.573  33.152  34.056  1.00  0.00    +0.000 C 
ATOM     34  F5  UNL A   1      43.261  33.302  32.915  1.00  0.00    +0.000 F 
ATOM     24  C19 UNL A   1      42.002  31.913  34.381  1.00  0.00    +0.000 C 
ATOM     25  C20 UNL A   1      41.296  31.813  35.591  1.00  0.00    +0.000 C 
ATOM     26  F1  UNL A   1      40.721  30.654  35.944  1.00  0.00    +0.000 F 
ATOM     27  C21 UNL A   1      41.140  32.919  36.423  1.00  0.00    +0.000 C 
ATOM     28  F2  UNL A   1      40.416  32.812  37.547  1.00  0.00    +0.000 F 
ATOM     29  C22 UNL A   1      41.717  34.132  36.083  1.00  0.00    +0.000 C 
ATOM     30  F3  UNL A   1      41.568  35.196  36.886  1.00  0.00    +0.000 F 
ATOM     31  C23 UNL A   1      42.440  34.248  34.905  1.00  0.00    +0.000 C 
ATOM     32  F4  UNL A   1      43.008  35.418  34.581  1.00  0.00    +0.000 F 
ENDBRANCH   23   24
BRANCH   40   41
ATOM     41  C30 UNL A   1      46.753  26.615  33.198  1.00  0.00    +0.000 C 
ATOM     42  C31 UNL A   1      47.999  27.106  32.783  1.00  0.00    +0.000 C 
ATOM     43  F6  UNL A   1      48.072  28.016  31.799  1.00  0.00    +0.000 F 
ATOM     44  C32 UNL A   1      49.179  26.632  33.348  1.00  0.00    +0.000 C 
ATOM     45  F7  UNL A   1      50.361  27.079  32.902  1.00  0.00    +0.000 F 
ATOM     46  C33 UNL A   1      49.135  25.685  34.362  1.00  0.00    +0.000 C 
ATOM     47  F8  UNL A   1      50.272  25.233  34.908  1.00  0.00    +0.000 F 
ATOM     48  C34 UNL A   1      47.913  25.201  34.802  1.00  0.00    +0.000 C 
ATOM     49  F9  UNL A   1      47.867  24.296  35.789  1.00  0.00    +0.000 F 
ATOM     50  C35 UNL A   1      46.732  25.652  34.219  1.00  0.00    +0.000 C 
ATOM     51  F10 UNL A   1      45.566  25.155  34.656  1.00  0.00    +0.000 F 
ENDBRANCH   40   41
BRANCH   55   56
ATOM     65  C44 UNL A   1      42.508  23.077  28.221  1.00  0.00    +0.000 C 
ATOM     66  F15 UNL A   1      42.043  22.809  29.449  1.00  0.00    +0.000 F 
ATOM     56  C39 UNL A   1      42.860  24.389  27.873  1.00  0.00    +0.000 C 
ATOM     57  C40 UNL A   1      43.345  24.615  26.577  1.00  0.00    +0.000 C 
ATOM     58  F11 UNL A   1      43.674  25.857  26.193  1.00  0.00    +0.000 F 
ATOM     59  C41 UNL A   1      43.457  23.574  25.660  1.00  0.00    +0.000 C 
ATOM     60  F12 UNL A   1      43.883  23.824  24.414  1.00  0.00    +0.000 F 
ATOM     61  C42 UNL A   1      43.112  22.282  26.028  1.00  0.00    +0.000 C 
ATOM     62  F13 UNL A   1      43.222  21.279  25.146  1.00  0.00    +0.000 F 
ATOM     63  C43 UNL A   1      42.645  22.032  27.310  1.00  0.00    +0.000 C 
ATOM     64  F14 UNL A   1      42.323  20.783  27.673  1.00  0.00    +0.000 F 
ENDBRANCH   55   56
TORSDOF 20
ENDMDL
MODEL 3
REMARK VINA RESULT:     -10.0     18.399     24.352
ROOT
ATOM     19  C15 UNL A   1      25.542  38.386  48.398  1.00  0.00    +0.000 C 
ATOM     20  C16 UNL A   1      25.268  37.095  47.678  1.00  0.00    +0.000 C 
ATOM     21  N3  UNL A   1      26.048  36.407  46.883  1.00  0.00    +0.000 N 
ATOM     22  C17 UNL A   1      25.325  35.275  46.532  1.00  0.00    +0.000 C 
ATOM     23  C18 UNL A   1      25.671  34.281  45.679  1.00  0.00    +0.000 C 
ATOM     35  C25 UNL A   1      26.911  34.235  44.950  1.00  0.00    +0.000 C 
ATOM     36  C26 UNL A   1      27.329  33.310  44.010  1.00  0.00    +0.000 C 
ATOM     37  C27 UNL A   1      28.623  33.651  43.604  1.00  0.00    +0.000 C 
ATOM     38  C28 UNL A   1      28.995  34.815  44.257  1.00  0.00    +0.000 C 
ATOM     39  N4  UNL A   1      27.937  35.160  45.083  1.00  0.00    +0.000 N 
ATOM     40  C29 UNL A   1      30.224  35.558  44.137  1.00  0.00    +0.000 C 
ATOM     52  C36 UNL A   1      30.512  36.698  44.812  1.00  0.00    +0.000 C 
ATOM     53  N5  UNL A   1      29.730  37.394  45.723  1.00  0.00    +0.000 N 
ATOM     54  C37 UNL A   1      30.449  38.422  46.104  1.00  0.00    +0.000 C 
ATOM     55  C38 UNL A   1      30.092  39.534  47.053  1.00  0.00    +0.000 C 
ATOM     67  C45 UNL A   1      28.877  39.539  47.632  1.00  0.00    +0.000 C 
ATOM     68  C46 UNL A   1      28.383  40.554  48.559  1.00  0.00    +0.000 C 
ATOM     69  C47 UNL A   1      27.138  40.225  48.944  1.00  0.00    +0.000 C 
ATOM     70  C48 UNL A   1      26.737  38.993  48.265  1.00  0.00    +0.000 C 
ATOM     71  N6  UNL A   1      27.835  38.651  47.518  1.00  0.00    +0.000 N 
ATOM     72  C49 UNL A   1      31.787  38.475  45.498  1.00  0.00    +0.000 C 
ATOM     73  C50 UNL A   1      31.757  37.427  44.689  1.00  0.00    +0.000 C 
ATOM     74  C51 UNL A   1      24.064  35.341  47.240  1.00  0.00    +0.000 C 
ATOM     75  C52 UNL A   1      23.950  36.480  47.906  1.00  0.00    +0.000 C 
ATOM    112  H21 UNL A   1      26.779  32.505  43.668  1.00  0.00    +0.000 H 
ATOM    113  H22 UNL A   1      29.203  33.123  42.933  1.00  0.00    +0.000 H 
ATOM    114  H23 UNL A   1      27.917  35.945  45.675  1.00  0.00    +0.000 H 
ATOM    115  H24 UNL A   1      28.905  41.388  48.867  1.00  0.00    +0.000 H 
ATOM    116  H25 UNL A   1      26.559  40.758  49.612  1.00  0.00    +0.000 H 
ATOM    117  H26 UNL A   1      27.874  37.844  46.953  1.00  0.00    +0.000 H 
ATOM    118  H27 UNL A   1      32.549  39.151  45.662  1.00  0.00    +0.000 H 
ATOM    119  H28 UNL A   1      32.525  37.163  44.051  1.00  0.00    +0.000 H 
ATOM    120  H29 UNL A   1      23.349  34.597  47.227  1.00  0.00    +0.000 H 
ATOM    121  H30 UNL A   1      23.147  36.842  48.442  1.00  0.00    +0.000 H 
ENDROOT
BRANCH   19   18
ATOM     76  C53 UNL A   1      23.542  39.829  48.781  1.00  0.00    +0.000 C 
ATOM     77  C54 UNL A   1      22.602  40.418  49.624  1.00  0.00    +0.000 C 
ATOM    110  H19 UNL A   1      23.529  38.987  52.515  1.00  0.00    +0.000 H 
ATOM     15  C11 UNL A   1      22.564  40.069  50.978  1.00  0.00    +0.000 C 
ATOM     16  C12 UNL A   1      23.538  39.218  51.510  1.00  0.00    +0.000 C 
ATOM     17  C13 UNL A   1      24.521  38.683  50.677  1.00  0.00    +0.000 C 
ATOM    111  H20 UNL A   1      25.256  38.076  51.073  1.00  0.00    +0.000 H 
ATOM     18  C14 UNL A   1      24.518  38.967  49.301  1.00  0.00    +0.000 C 
ATOM    122  H31 UNL A   1      23.520  40.029  47.769  1.00  0.00    +0.000 H 
ATOM    123  H32 UNL A   1      21.935  41.110  49.250  1.00  0.00    +0.000 H 
BRANCH   15   13
ATOM     13  C10 UNL A   1      21.525  40.612  51.879  1.00  0.00    +0.000 C 
ATOM     14  O2  UNL A   1      21.757  41.620  52.540  1.00  0.00    +0.000 O 
BRANCH   13   12
ATOM     12  N2  UNL A   1      20.310  39.983  51.986  1.00  0.00    +0.000 N 
ATOM    109  H18 UNL A   1      19.523  40.560  51.855  1.00  0.00    +0.000 H 
BRANCH   12   11
ATOM     11  C9  UNL A   1      20.022  38.587  52.266  1.00  0.00    +0.000 C 
ATOM    108  H17 UNL A   1      19.234  38.552  52.991  1.00  0.00    +0.000 H 
ATOM    107  H16 UNL A   1      20.910  38.118  52.635  1.00  0.00    +0.000 H 
BRANCH   11   10
ATOM    105  H14 UNL A   1      18.776  37.159  51.318  1.00  0.00    +0.000 H 
ATOM     10  C8  UNL A   1      19.549  37.838  51.025  1.00  0.00    +0.000 C 
ATOM    106  H15 UNL A   1      19.216  38.581  50.331  1.00  0.00    +0.000 H 
BRANCH   10    9
ATOM      9  C7  UNL A   1      20.641  37.037  50.311  1.00  0.00    +0.000 C 
ATOM    103  H12 UNL A   1      21.110  37.680  49.595  1.00  0.00    +0.000 H 
ATOM    104  H13 UNL A   1      21.309  36.695  51.074  1.00  0.00    +0.000 H 
BRANCH    9    8
ATOM    101  H10 UNL A   1      20.916  35.478  48.897  1.00  0.00    +0.000 H 
ATOM    102  H11 UNL A   1      19.936  35.060  50.334  1.00  0.00    +0.000 H 
ATOM      8  C6  UNL A   1      20.150  35.785  49.577  1.00  0.00    +0.000 C 
BRANCH    8    7
ATOM     99  H8  UNL A   1      18.575  35.018  48.366  1.00  0.00    +0.000 H 
ATOM    100  H9  UNL A   1      18.118  36.346  49.461  1.00  0.00    +0.000 H 
ATOM      7  C5  UNL A   1      18.850  35.966  48.779  1.00  0.00    +0.000 C 
BRANCH    7    6
ATOM     97  H6  UNL A   1      18.729  37.954  48.008  1.00  0.00    +0.000 H 
ATOM     98  H7  UNL A   1      19.957  36.953  47.250  1.00  0.00    +0.000 H 
ATOM      6  C4  UNL A   1      18.959  36.977  47.636  1.00  0.00    +0.000 C 
BRANCH    6    5
ATOM      5  N1  UNL A   1      18.039  36.645  46.570  1.00  0.00    +0.000 N 
ATOM     96  H5  UNL A   1      17.211  37.178  46.550  1.00  0.00    +0.000 H 
BRANCH    5    3
ATOM      3  C3  UNL A   1      18.149  35.705  45.587  1.00  0.00    +0.000 C 
ATOM      4  O1  UNL A   1      17.146  35.495  44.903  1.00  0.00    +0.000 O 
BRANCH    3    2
ATOM      2  C2  UNL A   1      19.456  34.915  45.434  1.00  0.00    +0.000 C 
ATOM     95  H4  UNL A   1      19.879  34.849  46.415  1.00  0.00    +0.000 H 
BRANCH    2    1
ATOM      1  C1  UNL A   1      20.504  35.630  44.574  1.00  0.00    +0.000 C 
ATOM     92  H1  UNL A   1      20.137  36.596  44.295  1.00  0.00    +0.000 H 
ATOM     93  H2  UNL A   1      20.695  35.054  43.692  1.00  0.00    +0.000 H 
ATOM     94  H3  UNL A   1      21.410  35.740  45.132  1.00  0.00    +0.000 H 
ENDBRANCH    2    1
BRANCH    2   78
ATOM    137  H46 UNL A   1      19.031  30.308  45.953  1.00  0.00    +0.000 H 
ATOM     78  C55 UNL A   1      19.191  33.504  44.930  1.00  0.00    +0.000 C 
ATOM     79  C56 UNL A   1      18.874  33.294  43.581  1.00  0.00    +0.000 C 
ATOM     80  C57 UNL A   1      18.566  32.012  43.117  1.00  0.00    +0.000 C 
ATOM     81  C58 UNL A   1      18.543  30.920  43.992  1.00  0.00    +0.000 C 
ATOM     89  C65 UNL A   1      18.960  31.114  45.314  1.00  0.00    +0.000 C 
ATOM     90  C66 UNL A   1      19.279  32.389  45.768  1.00  0.00    +0.000 C 
ATOM     91  F16 UNL A   1      19.634  32.529  47.053  1.00  0.00    +0.000 F 
ATOM    124  H33 UNL A   1      18.869  34.090  42.926  1.00  0.00    +0.000 H 
ATOM    125  H34 UNL A   1      18.352  31.869  42.118  1.00  0.00    +0.000 H 
BRANCH   81   82
ATOM     82  C59 UNL A   1      18.060  29.565  43.544  1.00  0.00    +0.000 C 
ATOM    126  H35 UNL A   1      18.769  28.841  43.888  1.00  0.00    +0.000 H 
ATOM    127  H36 UNL A   1      17.967  29.645  42.481  1.00  0.00    +0.000 H 
BRANCH   82   83
ATOM    129  H38 UNL A   1      15.959  27.440  45.187  1.00  0.00    +0.000 H 
ATOM    130  H39 UNL A   1      17.484  27.151  44.424  1.00  0.00    +0.000 H 
ATOM    131  H40 UNL A   1      14.948  26.435  43.419  1.00  0.00    +0.000 H 
ATOM    132  H41 UNL A   1      16.434  26.346  42.541  1.00  0.00    +0.000 H 
ATOM    133  H42 UNL A   1      14.320  28.034  41.912  1.00  0.00    +0.000 H 
ATOM    134  H43 UNL A   1      15.918  28.264  41.331  1.00  0.00    +0.000 H 
ATOM    135  H44 UNL A   1      14.572  29.549  43.698  1.00  0.00    +0.000 H 
ATOM     83  C60 UNL A   1      16.662  29.109  44.028  1.00  0.00    +0.000 C 
ATOM     84  C61 UNL A   1      16.525  27.604  44.293  1.00  0.00    +0.000 C 
ATOM     85  C62 UNL A   1      15.793  27.002  43.090  1.00  0.00    +0.000 C 
ATOM     86  C63 UNL A   1      15.335  28.171  42.223  1.00  0.00    +0.000 C 
ATOM     87  C64 UNL A   1      15.460  29.397  43.121  1.00  0.00    +0.000 C 
ATOM    128  H37 UNL A   1      16.627  29.712  44.911  1.00  0.00    +0.000 H 
BRANCH   87   88
ATOM    136  H45 UNL A   1      15.938  31.295  42.982  1.00  0.00    +0.000 H 
ATOM     88  O3  UNL A   1      15.558  30.612  42.407  1.00  0.00    +0.000 O 
ENDBRANCH   87   88
ENDBRANCH   82   83
ENDBRANCH   81   82
ENDBRANCH    2   78
ENDBRANCH    3    2
ENDBRANCH    5    3
ENDBRANCH    6    5
ENDBRANCH    7    6
ENDBRANCH    8    7
ENDBRANCH    9    8
ENDBRANCH   10    9
ENDBRANCH   11   10
ENDBRANCH   12   11
ENDBRANCH   13   12
ENDBRANCH   15   13
ENDBRANCH   19   18
BRANCH   23   24
ATOM     33  C24 UNL A   1      23.689  33.250  44.509  1.00  0.00    +0.000 C 
ATOM     34  F5  UNL A   1      23.607  34.333  43.722  1.00  0.00    +0.000 F 
ATOM     24  C19 UNL A   1      24.690  33.161  45.487  1.00  0.00    +0.000 C 
ATOM     25  C20 UNL A   1      24.726  32.006  46.285  1.00  0.00    +0.000 C 
ATOM     26  F1  UNL A   1      25.670  31.866  47.227  1.00  0.00    +0.000 F 
ATOM     27  C21 UNL A   1      23.818  30.969  46.087  1.00  0.00    +0.000 C 
ATOM     28  F2  UNL A   1      23.906  29.853  46.824  1.00  0.00    +0.000 F 
ATOM     29  C22 UNL A   1      22.835  31.081  45.116  1.00  0.00    +0.000 C 
ATOM     30  F3  UNL A   1      21.959  30.084  44.927  1.00  0.00    +0.000 F 
ATOM     31  C23 UNL A   1      22.764  32.224  44.333  1.00  0.00    +0.000 C 
ATOM     32  F4  UNL A   1      21.807  32.339  43.402  1.00  0.00    +0.000 F 
ENDBRANCH   23   24
BRANCH   40   41
ATOM     41  C30 UNL A   1      31.256  35.051  43.175  1.00  0.00    +0.000 C 
ATOM     42  C31 UNL A   1      31.358  35.556  41.870  1.00  0.00    +0.000 C 
ATOM     43  F6  UNL A   1      30.492  36.484  41.437  1.00  0.00    +0.000 F 
ATOM     44  C32 UNL A   1      32.325  35.077  40.991  1.00  0.00    +0.000 C 
ATOM     45  F7  UNL A   1      32.373  35.538  39.734  1.00  0.00    +0.000 F 
ATOM     46  C33 UNL A   1      33.229  34.111  41.409  1.00  0.00    +0.000 C 
ATOM     47  F8  UNL A   1      34.162  33.654  40.563  1.00  0.00    +0.000 F 
ATOM     48  C34 UNL A   1      33.160  33.613  42.701  1.00  0.00    +0.000 C 
ATOM     49  F9  UNL A   1      34.040  32.688  43.111  1.00  0.00    +0.000 F 
ATOM     50  C35 UNL A   1      32.175  34.069  43.573  1.00  0.00    +0.000 C 
ATOM     51  F10 UNL A   1      32.124  33.558  44.812  1.00  0.00    +0.000 F 
ENDBRANCH   40   41
BRANCH   55   56
ATOM     65  C44 UNL A   1      30.957  41.863  46.635  1.00  0.00    +0.000 C 
ATOM     66  F15 UNL A   1      30.004  42.050  45.711  1.00  0.00    +0.000 F 
ATOM     56  C39 UNL A   1      31.044  40.642  47.318  1.00  0.00    +0.000 C 
ATOM     57  C40 UNL A   1      32.062  40.496  48.272  1.00  0.00    +0.000 C 
ATOM     58  F11 UNL A   1      32.172  39.354  48.966  1.00  0.00    +0.000 F 
ATOM     59  C41 UNL A   1      32.947  41.537  48.543  1.00  0.00    +0.000 C 
ATOM     60  F12 UNL A   1      33.884  41.387  49.490  1.00  0.00    +0.000 F 
ATOM     61  C42 UNL A   1      32.848  42.734  47.849  1.00  0.00    +0.000 C 
ATOM     62  F13 UNL A   1      33.701  43.734  48.108  1.00  0.00    +0.000 F 
ATOM     63  C43 UNL A   1      31.859  42.894  46.890  1.00  0.00    +0.000 C 
ATOM     64  F14 UNL A   1      31.769  44.044  46.207  1.00  0.00    +0.000 F 
ENDBRANCH   55   56
TORSDOF 20
ENDMDL
MODEL 4
REMARK VINA RESULT:     -10.0     18.305     24.211
ROOT
ATOM     19  C15 UNL A   1      25.800  38.356  48.466  1.00  0.00    +0.000 C 
ATOM     20  C16 UNL A   1      25.500  37.079  47.731  1.00  0.00    +0.000 C 
ATOM     21  N3  UNL A   1      26.259  36.396  46.912  1.00  0.00    +0.000 N 
ATOM     22  C17 UNL A   1      25.519  35.276  46.556  1.00  0.00    +0.000 C 
ATOM     23  C18 UNL A   1      25.840  34.293  45.682  1.00  0.00    +0.000 C 
ATOM     35  C25 UNL A   1      27.067  34.247  44.930  1.00  0.00    +0.000 C 
ATOM     36  C26 UNL A   1      27.459  33.332  43.969  1.00  0.00    +0.000 C 
ATOM     37  C27 UNL A   1      28.749  33.668  43.545  1.00  0.00    +0.000 C 
ATOM     38  C28 UNL A   1      29.144  34.818  44.208  1.00  0.00    +0.000 C 
ATOM     39  N4  UNL A   1      28.104  35.160  45.058  1.00  0.00    +0.000 N 
ATOM     40  C29 UNL A   1      30.377  35.551  44.079  1.00  0.00    +0.000 C 
ATOM     52  C36 UNL A   1      30.688  36.678  44.765  1.00  0.00    +0.000 C 
ATOM     53  N5  UNL A   1      29.929  37.367  45.701  1.00  0.00    +0.000 N 
ATOM     54  C37 UNL A   1      30.665  38.382  46.085  1.00  0.00    +0.000 C 
ATOM     55  C38 UNL A   1      30.335  39.482  47.057  1.00  0.00    +0.000 C 
ATOM     67  C45 UNL A   1      29.131  39.489  47.658  1.00  0.00    +0.000 C 
ATOM     68  C46 UNL A   1      28.664  40.494  48.609  1.00  0.00    +0.000 C 
ATOM     69  C47 UNL A   1      27.423  40.171  49.012  1.00  0.00    +0.000 C 
ATOM     70  C48 UNL A   1      26.998  38.953  48.321  1.00  0.00    +0.000 C 
ATOM     71  N6  UNL A   1      28.079  38.613  47.549  1.00  0.00    +0.000 N 
ATOM     72  C49 UNL A   1      31.993  38.432  45.456  1.00  0.00    +0.000 C 
ATOM     73  C50 UNL A   1      31.938  37.397  44.631  1.00  0.00    +0.000 C 
ATOM     74  C51 UNL A   1      24.272  35.343  47.287  1.00  0.00    +0.000 C 
ATOM     75  C52 UNL A   1      24.181  36.473  47.973  1.00  0.00    +0.000 C 
ATOM    112  H21 UNL A   1      26.895  32.539  43.624  1.00  0.00    +0.000 H 
ATOM    113  H22 UNL A   1      29.312  33.145  42.855  1.00  0.00    +0.000 H 
ATOM    114  H23 UNL A   1      28.102  35.936  45.664  1.00  0.00    +0.000 H 
ATOM    115  H24 UNL A   1      29.199  41.318  48.921  1.00  0.00    +0.000 H 
ATOM    116  H25 UNL A   1      26.861  40.699  49.698  1.00  0.00    +0.000 H 
ATOM    117  H26 UNL A   1      28.100  37.815  46.971  1.00  0.00    +0.000 H 
ATOM    118  H27 UNL A   1      32.764  39.098  45.617  1.00  0.00    +0.000 H 
ATOM    119  H28 UNL A   1      32.692  37.135  43.976  1.00  0.00    +0.000 H 
ATOM    120  H29 UNL A   1      23.549  34.607  47.276  1.00  0.00    +0.000 H 
ATOM    121  H30 UNL A   1      23.391  36.834  48.529  1.00  0.00    +0.000 H 
ENDROOT
BRANCH   19   18
ATOM     76  C53 UNL A   1      23.855  39.854  48.918  1.00  0.00    +0.000 C 
ATOM     77  C54 UNL A   1      22.937  40.437  49.788  1.00  0.00    +0.000 C 
ATOM    110  H19 UNL A   1      23.808  38.839  52.609  1.00  0.00    +0.000 H 
ATOM     15  C11 UNL A   1      22.885  40.028  51.125  1.00  0.00    +0.000 C 
ATOM     16  C12 UNL A   1      23.826  39.117  51.615  1.00  0.00    +0.000 C 
ATOM     17  C13 UNL A   1      24.789  38.584  50.757  1.00  0.00    +0.000 C 
ATOM    111  H20 UNL A   1      25.500  37.933  51.124  1.00  0.00    +0.000 H 
ATOM     18  C14 UNL A   1      24.798  38.932  49.396  1.00  0.00    +0.000 C 
ATOM    122  H31 UNL A   1      23.841  40.101  47.916  1.00  0.00    +0.000 H 
ATOM    123  H32 UNL A   1      22.297  41.171  49.448  1.00  0.00    +0.000 H 
BRANCH   15   13
ATOM     13  C10 UNL A   1      21.866  40.567  52.051  1.00  0.00    +0.000 C 
ATOM     14  O2  UNL A   1      22.207  41.308  52.967  1.00  0.00    +0.000 O 
BRANCH   13   12
ATOM     12  N2  UNL A   1      20.546  40.227  51.895  1.00  0.00    +0.000 N 
ATOM    109  H18 UNL A   1      19.937  40.977  51.704  1.00  0.00    +0.000 H 
BRANCH   12   11
ATOM     11  C9  UNL A   1      19.920  38.918  51.971  1.00  0.00    +0.000 C 
ATOM    108  H17 UNL A   1      18.948  39.043  52.402  1.00  0.00    +0.000 H 
ATOM    107  H16 UNL A   1      20.531  38.278  52.572  1.00  0.00    +0.000 H 
BRANCH   11   10
ATOM    105  H14 UNL A   1      18.794  37.794  50.572  1.00  0.00    +0.000 H 
ATOM     10  C8  UNL A   1      19.745  38.284  50.596  1.00  0.00    +0.000 C 
ATOM    106  H15 UNL A   1      19.827  39.077  49.883  1.00  0.00    +0.000 H 
BRANCH   10    9
ATOM      9  C7  UNL A   1      20.819  37.258  50.228  1.00  0.00    +0.000 C 
ATOM    103  H12 UNL A   1      21.389  37.652  49.412  1.00  0.00    +0.000 H 
ATOM    104  H13 UNL A   1      21.400  37.101  51.113  1.00  0.00    +0.000 H 
BRANCH    9    8
ATOM    101  H10 UNL A   1      21.049  35.387  49.251  1.00  0.00    +0.000 H 
ATOM    102  H11 UNL A   1      20.030  35.377  50.723  1.00  0.00    +0.000 H 
ATOM      8  C6  UNL A   1      20.286  35.882  49.815  1.00  0.00    +0.000 C 
BRANCH    8    7
ATOM     99  H8  UNL A   1      18.580  34.927  48.971  1.00  0.00    +0.000 H 
ATOM    100  H9  UNL A   1      18.360  36.640  49.401  1.00  0.00    +0.000 H 
ATOM      7  C5  UNL A   1      19.007  35.907  48.966  1.00  0.00    +0.000 C 
BRANCH    7    6
ATOM     97  H6  UNL A   1      19.321  37.392  47.462  1.00  0.00    +0.000 H 
ATOM     98  H7  UNL A   1      20.136  35.866  47.159  1.00  0.00    +0.000 H 
ATOM      6  C4  UNL A   1      19.236  36.326  47.511  1.00  0.00    +0.000 C 
BRANCH    6    5
ATOM      5  N1  UNL A   1      18.136  35.897  46.676  1.00  0.00    +0.000 N 
ATOM     96  H5  UNL A   1      17.242  36.168  46.987  1.00  0.00    +0.000 H 
BRANCH    5    3
ATOM      3  C3  UNL A   1      18.153  35.173  45.518  1.00  0.00    +0.000 C 
ATOM      4  O1  UNL A   1      17.118  35.169  44.851  1.00  0.00    +0.000 O 
BRANCH    3    2
ATOM      2  C2  UNL A   1      19.398  34.355  45.153  1.00  0.00    +0.000 C 
ATOM     95  H4  UNL A   1      19.947  34.227  46.063  1.00  0.00    +0.000 H 
BRANCH    2    1
ATOM      1  C1  UNL A   1      20.346  35.083  44.192  1.00  0.00    +0.000 C 
ATOM     92  H1  UNL A   1      20.576  34.443  43.366  1.00  0.00    +0.000 H 
ATOM     93  H2  UNL A   1      21.249  35.339  44.707  1.00  0.00    +0.000 H 
ATOM     94  H3  UNL A   1      19.876  35.974  43.833  1.00  0.00    +0.000 H 
ENDBRANCH    2    1
BRANCH    2   78
ATOM    137  H46 UNL A   1      19.053  29.721  45.441  1.00  0.00    +0.000 H 
ATOM     78  C55 UNL A   1      19.019  32.980  44.624  1.00  0.00    +0.000 C 
ATOM     79  C56 UNL A   1      18.416  32.859  43.364  1.00  0.00    +0.000 C 
ATOM     80  C57 UNL A   1      18.004  31.610  42.892  1.00  0.00    +0.000 C 
ATOM     81  C58 UNL A   1      18.160  30.461  43.677  1.00  0.00    +0.000 C 
ATOM     89  C65 UNL A   1      18.854  30.568  44.887  1.00  0.00    +0.000 C 
ATOM     90  C66 UNL A   1      19.275  31.812  45.347  1.00  0.00    +0.000 C 
ATOM     91  F16 UNL A   1      19.900  31.867  46.531  1.00  0.00    +0.000 F 
ATOM    124  H33 UNL A   1      18.277  33.698  42.780  1.00  0.00    +0.000 H 
ATOM    125  H34 UNL A   1      17.579  31.534  41.956  1.00  0.00    +0.000 H 
BRANCH   81   82
ATOM     82  C59 UNL A   1      17.579  29.137  43.254  1.00  0.00    +0.000 C 
ATOM    126  H35 UNL A   1      18.126  28.369  43.761  1.00  0.00    +0.000 H 
ATOM    127  H36 UNL A   1      17.663  29.129  42.187  1.00  0.00    +0.000 H 
BRANCH   82   83
ATOM    129  H38 UNL A   1      14.934  28.515  45.314  1.00  0.00    +0.000 H 
ATOM    130  H39 UNL A   1      16.606  28.099  45.469  1.00  0.00    +0.000 H 
ATOM    131  H40 UNL A   1      14.506  26.352  44.768  1.00  0.00    +0.000 H 
ATOM    132  H41 UNL A   1      16.190  25.973  44.693  1.00  0.00    +0.000 H 
ATOM    133  H42 UNL A   1      14.504  26.145  42.492  1.00  0.00    +0.000 H 
ATOM    134  H43 UNL A   1      16.215  26.213  42.380  1.00  0.00    +0.000 H 
ATOM    135  H44 UNL A   1      14.242  28.485  42.466  1.00  0.00    +0.000 H 
ATOM     83  C60 UNL A   1      16.076  28.895  43.531  1.00  0.00    +0.000 C 
ATOM     84  C61 UNL A   1      15.772  28.089  44.801  1.00  0.00    +0.000 C 
ATOM     85  C62 UNL A   1      15.444  26.660  44.356  1.00  0.00    +0.000 C 
ATOM     86  C63 UNL A   1      15.365  26.681  42.833  1.00  0.00    +0.000 C 
ATOM     87  C64 UNL A   1      15.259  28.156  42.465  1.00  0.00    +0.000 C 
ATOM    128  H37 UNL A   1      15.787  29.923  43.589  1.00  0.00    +0.000 H 
BRANCH   87   88
ATOM    136  H45 UNL A   1      15.378  27.715  40.557  1.00  0.00    +0.000 H 
ATOM     88  O3  UNL A   1      15.658  28.439  41.140  1.00  0.00    +0.000 O 
ENDBRANCH   87   88
ENDBRANCH   82   83
ENDBRANCH   81   82
ENDBRANCH    2   78
ENDBRANCH    3    2
ENDBRANCH    5    3
ENDBRANCH    6    5
ENDBRANCH    7    6
ENDBRANCH    8    7
ENDBRANCH    9    8
ENDBRANCH   10    9
ENDBRANCH   11   10
ENDBRANCH   12   11
ENDBRANCH   13   12
ENDBRANCH   15   13
ENDBRANCH   19   18
BRANCH   23   24
ATOM     33  C24 UNL A   1      24.908  32.028  46.281  1.00  0.00    +0.000 C 
ATOM     34  F5  UNL A   1      25.849  31.906  47.229  1.00  0.00    +0.000 F 
ATOM     24  C19 UNL A   1      24.846  33.185  45.490  1.00  0.00    +0.000 C 
ATOM     25  C20 UNL A   1      23.843  33.256  44.510  1.00  0.00    +0.000 C 
ATOM     26  F1  UNL A   1      23.733  34.345  43.736  1.00  0.00    +0.000 F 
ATOM     27  C21 UNL A   1      22.920  32.225  44.354  1.00  0.00    +0.000 C 
ATOM     28  F2  UNL A   1      21.938  32.340  43.448  1.00  0.00    +0.000 F 
ATOM     29  C22 UNL A   1      23.003  31.090  45.144  1.00  0.00    +0.000 C 
ATOM     30  F3  UNL A   1      22.116  30.097  44.991  1.00  0.00    +0.000 F 
ATOM     31  C23 UNL A   1      24.002  30.986  46.101  1.00  0.00    +0.000 C 
ATOM     32  F4  UNL A   1      24.091  29.884  46.858  1.00  0.00    +0.000 F 
ENDBRANCH   23   24
BRANCH   40   41
ATOM     41  C30 UNL A   1      31.388  35.050  43.090  1.00  0.00    +0.000 C 
ATOM     42  C31 UNL A   1      32.332  34.072  43.433  1.00  0.00    +0.000 C 
ATOM     43  F6  UNL A   1      32.380  33.591  44.684  1.00  0.00    +0.000 F 
ATOM     44  C32 UNL A   1      33.260  33.616  42.501  1.00  0.00    +0.000 C 
ATOM     45  F7  UNL A   1      34.185  32.717  42.864  1.00  0.00    +0.000 F 
ATOM     46  C33 UNL A   1      33.240  34.102  41.202  1.00  0.00    +0.000 C 
ATOM     47  F8  UNL A   1      34.131  33.658  40.305  1.00  0.00    +0.000 F 
ATOM     48  C34 UNL A   1      32.301  35.054  40.835  1.00  0.00    +0.000 C 
ATOM     49  F9  UNL A   1      32.271  35.516  39.577  1.00  0.00    +0.000 F 
ATOM     50  C35 UNL A   1      31.391  35.534  41.773  1.00  0.00    +0.000 C 
ATOM     51  F10 UNL A   1      30.504  36.465  41.392  1.00  0.00    +0.000 F 
ENDBRANCH   40   41
BRANCH   55   56
ATOM     65  C44 UNL A   1      32.324  40.439  48.273  1.00  0.00    +0.000 C 
ATOM     66  F15 UNL A   1      32.439  39.302  48.975  1.00  0.00    +0.000 F 
ATOM     56  C39 UNL A   1      31.303  40.577  47.323  1.00  0.00    +0.000 C 
ATOM     57  C40 UNL A   1      31.224  41.787  46.619  1.00  0.00    +0.000 C 
ATOM     58  F11 UNL A   1      30.277  41.958  45.685  1.00  0.00    +0.000 F 
ATOM     59  C41 UNL A   1      32.140  42.812  46.845  1.00  0.00    +0.000 C 
ATOM     60  F12 UNL A   1      32.068  43.942  46.129  1.00  0.00    +0.000 F 
ATOM     61  C42 UNL A   1      33.136  42.657  47.798  1.00  0.00    +0.000 C 
ATOM     62  F13 UNL A   1      34.016  43.643  48.017  1.00  0.00    +0.000 F 
ATOM     63  C43 UNL A   1      33.224  41.474  48.517  1.00  0.00    +0.000 C 
ATOM     64  F14 UNL A   1      34.177  41.325  49.447  1.00  0.00    +0.000 F 
ENDBRANCH   55   56
TORSDOF 20
ENDMDL
MODEL 5
REMARK VINA RESULT:     -10.0     25.309     32.569
ROOT
ATOM     19  C15 UNL A   1      27.371  18.033   5.758  1.00  0.00    +0.000 C 
ATOM     20  C16 UNL A   1      26.581  18.145   4.483  1.00  0.00    +0.000 C 
ATOM     21  N3  UNL A   1      25.284  18.187   4.312  1.00  0.00    +0.000 N 
ATOM     22  C17 UNL A   1      25.088  18.344   2.946  1.00  0.00    +0.000 C 
ATOM     23  C18 UNL A   1      23.922  18.381   2.258  1.00  0.00    +0.000 C 
ATOM     35  C25 UNL A   1      22.622  18.250   2.861  1.00  0.00    +0.000 C 
ATOM     36  C26 UNL A   1      21.384  18.205   2.245  1.00  0.00    +0.000 C 
ATOM     37  C27 UNL A   1      20.403  18.112   3.239  1.00  0.00    +0.000 C 
ATOM     38  C28 UNL A   1      21.032  18.054   4.472  1.00  0.00    +0.000 C 
ATOM     39  N4  UNL A   1      22.393  18.144   4.225  1.00  0.00    +0.000 N 
ATOM     40  C29 UNL A   1      20.438  17.926   5.778  1.00  0.00    +0.000 C 
ATOM     52  C36 UNL A   1      21.128  17.871   6.944  1.00  0.00    +0.000 C 
ATOM     53  N5  UNL A   1      22.500  17.911   7.149  1.00  0.00    +0.000 N 
ATOM     54  C37 UNL A   1      22.673  17.836   8.447  1.00  0.00    +0.000 C 
ATOM     55  C38 UNL A   1      23.954  17.800   9.235  1.00  0.00    +0.000 C 
ATOM     67  C45 UNL A   1      25.129  17.849   8.583  1.00  0.00    +0.000 C 
ATOM     68  C46 UNL A   1      26.449  17.809   9.206  1.00  0.00    +0.000 C 
ATOM     69  C47 UNL A   1      27.388  17.894   8.249  1.00  0.00    +0.000 C 
ATOM     70  C48 UNL A   1      26.734  17.963   6.942  1.00  0.00    +0.000 C 
ATOM     71  N6  UNL A   1      25.395  17.943   7.238  1.00  0.00    +0.000 N 
ATOM     72  C49 UNL A   1      21.421  17.772   9.215  1.00  0.00    +0.000 C 
ATOM     73  C50 UNL A   1      20.514  17.755   8.250  1.00  0.00    +0.000 C 
ATOM     74  C51 UNL A   1      26.398  18.440   2.339  1.00  0.00    +0.000 C 
ATOM     75  C52 UNL A   1      27.355  18.252   3.235  1.00  0.00    +0.000 C 
ATOM    112  H21 UNL A   1      21.213  18.235   1.227  1.00  0.00    +0.000 H 
ATOM    113  H22 UNL A   1      19.384  18.093   3.080  1.00  0.00    +0.000 H 
ATOM    114  H23 UNL A   1      23.094  18.133   4.916  1.00  0.00    +0.000 H 
ATOM    115  H24 UNL A   1      26.630  17.728  10.218  1.00  0.00    +0.000 H 
ATOM    116  H25 UNL A   1      28.407  17.908   8.411  1.00  0.00    +0.000 H 
ATOM    117  H26 UNL A   1      24.690  17.993   6.552  1.00  0.00    +0.000 H 
ATOM    118  H27 UNL A   1      21.286  17.749  10.238  1.00  0.00    +0.000 H 
ATOM    119  H28 UNL A   1      19.498  17.668   8.410  1.00  0.00    +0.000 H 
ATOM    120  H29 UNL A   1      26.564  18.631   1.338  1.00  0.00    +0.000 H 
ATOM    121  H30 UNL A   1      28.375  18.194   3.096  1.00  0.00    +0.000 H 
ENDROOT
BRANCH   19   18
ATOM     76  C53 UNL A   1      29.555  18.959   6.532  1.00  0.00    +0.000 C 
ATOM     77  C54 UNL A   1      30.945  19.024   6.474  1.00  0.00    +0.000 C 
ATOM    110  H19 UNL A   1      31.488  16.572   4.246  1.00  0.00    +0.000 H 
ATOM     15  C11 UNL A   1      31.654  18.117   5.678  1.00  0.00    +0.000 C 
ATOM     16  C12 UNL A   1      30.966  17.220   4.857  1.00  0.00    +0.000 C 
ATOM     17  C13 UNL A   1      29.570  17.202   4.865  1.00  0.00    +0.000 C 
ATOM    111  H20 UNL A   1      29.061  16.558   4.239  1.00  0.00    +0.000 H 
ATOM     18  C14 UNL A   1      28.853  18.056   5.719  1.00  0.00    +0.000 C 
ATOM    122  H31 UNL A   1      29.039  19.577   7.177  1.00  0.00    +0.000 H 
ATOM    123  H32 UNL A   1      31.452  19.741   7.015  1.00  0.00    +0.000 H 
BRANCH   15   13
ATOM     13  C10 UNL A   1      33.132  18.107   5.662  1.00  0.00    +0.000 C 
ATOM     14  O2  UNL A   1      33.748  17.522   6.548  1.00  0.00    +0.000 O 
BRANCH   13   12
ATOM     12  N2  UNL A   1      33.814  18.761   4.667  1.00  0.00    +0.000 N 
ATOM    109  H18 UNL A   1      33.254  19.152   3.957  1.00  0.00    +0.000 H 
BRANCH   12   11
ATOM     11  C9  UNL A   1      35.245  18.959   4.512  1.00  0.00    +0.000 C 
ATOM    108  H17 UNL A   1      35.637  18.122   3.972  1.00  0.00    +0.000 H 
ATOM    107  H16 UNL A   1      35.690  19.037   5.482  1.00  0.00    +0.000 H 
BRANCH   11   10
ATOM    105  H14 UNL A   1      34.783  20.384   3.013  1.00  0.00    +0.000 H 
ATOM     10  C8  UNL A   1      35.569  20.221   3.720  1.00  0.00    +0.000 C 
ATOM    106  H15 UNL A   1      35.662  21.012   4.435  1.00  0.00    +0.000 H 
BRANCH   10    9
ATOM      9  C7  UNL A   1      36.894  20.170   2.956  1.00  0.00    +0.000 C 
ATOM    103  H12 UNL A   1      36.674  20.036   1.918  1.00  0.00    +0.000 H 
ATOM    104  H13 UNL A   1      37.396  21.092   3.166  1.00  0.00    +0.000 H 
BRANCH    9    8
ATOM    101  H10 UNL A   1      37.463  18.616   4.286  1.00  0.00    +0.000 H 
ATOM    102  H11 UNL A   1      37.899  18.369   2.568  1.00  0.00    +0.000 H 
ATOM      8  C6  UNL A   1      37.849  19.053   3.389  1.00  0.00    +0.000 C 
BRANCH    8    7
ATOM     99  H8  UNL A   1      39.450  20.441   3.178  1.00  0.00    +0.000 H 
ATOM    100  H9  UNL A   1      39.403  19.560   4.724  1.00  0.00    +0.000 H 
ATOM      7  C5  UNL A   1      39.293  19.500   3.661  1.00  0.00    +0.000 C 
BRANCH    7    6
ATOM     97  H6  UNL A   1      40.382  17.669   3.812  1.00  0.00    +0.000 H 
ATOM     98  H7  UNL A   1      40.095  18.211   2.166  1.00  0.00    +0.000 H 
ATOM      6  C4  UNL A   1      40.352  18.517   3.159  1.00  0.00    +0.000 C 
BRANCH    6    5
ATOM      5  N1  UNL A   1      41.657  19.141   3.131  1.00  0.00    +0.000 N 
ATOM     96  H5  UNL A   1      41.900  19.642   3.943  1.00  0.00    +0.000 H 
BRANCH    5    3
ATOM      3  C3  UNL A   1      42.603  19.136   2.147  1.00  0.00    +0.000 C 
ATOM      4  O1  UNL A   1      43.390  18.188   2.137  1.00  0.00    +0.000 O 
BRANCH    3    2
ATOM      2  C2  UNL A   1      42.692  20.318   1.174  1.00  0.00    +0.000 C 
ATOM     95  H4  UNL A   1      43.354  20.010   0.392  1.00  0.00    +0.000 H 
BRANCH    2    1
ATOM      1  C1  UNL A   1      43.329  21.570   1.791  1.00  0.00    +0.000 C 
ATOM     92  H1  UNL A   1      42.715  21.922   2.594  1.00  0.00    +0.000 H 
ATOM     93  H2  UNL A   1      43.412  22.332   1.045  1.00  0.00    +0.000 H 
ATOM     94  H3  UNL A   1      44.301  21.329   2.165  1.00  0.00    +0.000 H 
ENDBRANCH    2    1
BRANCH    2   78
ATOM    137  H46 UNL A   1      39.282  19.718  -1.937  1.00  0.00    +0.000 H 
ATOM     78  C55 UNL A   1      41.336  20.630   0.560  1.00  0.00    +0.000 C 
ATOM     79  C56 UNL A   1      40.522  21.619   1.130  1.00  0.00    +0.000 C 
ATOM     80  C57 UNL A   1      39.248  21.872   0.616  1.00  0.00    +0.000 C 
ATOM     81  C58 UNL A   1      38.749  21.128  -0.460  1.00  0.00    +0.000 C 
ATOM     89  C65 UNL A   1      39.600  20.215  -1.092  1.00  0.00    +0.000 C 
ATOM     90  C66 UNL A   1      40.873  19.976  -0.586  1.00  0.00    +0.000 C 
ATOM     91  F16 UNL A   1      41.635  19.063  -1.203  1.00  0.00    +0.000 F 
ATOM    124  H33 UNL A   1      40.867  22.164   1.935  1.00  0.00    +0.000 H 
ATOM    125  H34 UNL A   1      38.667  22.615   1.035  1.00  0.00    +0.000 H 
BRANCH   81   82
ATOM     82  C59 UNL A   1      37.323  21.277  -0.923  1.00  0.00    +0.000 C 
ATOM    126  H35 UNL A   1      36.755  20.490  -0.472  1.00  0.00    +0.000 H 
ATOM    127  H36 UNL A   1      37.377  21.248  -1.990  1.00  0.00    +0.000 H 
BRANCH   82   83
ATOM    129  H38 UNL A   1      35.435  23.306   1.065  1.00  0.00    +0.000 H 
ATOM    130  H39 UNL A   1      35.477  21.582   0.930  1.00  0.00    +0.000 H 
ATOM    131  H40 UNL A   1      33.483  23.293  -0.096  1.00  0.00    +0.000 H 
ATOM    132  H41 UNL A   1      33.625  21.605  -0.438  1.00  0.00    +0.000 H 
ATOM    133  H42 UNL A   1      33.930  23.633  -2.310  1.00  0.00    +0.000 H 
ATOM    134  H43 UNL A   1      34.501  22.033  -2.549  1.00  0.00    +0.000 H 
ATOM    135  H44 UNL A   1      36.013  24.447  -1.573  1.00  0.00    +0.000 H 
ATOM     83  C60 UNL A   1      36.603  22.609  -0.602  1.00  0.00    +0.000 C 
ATOM     84  C61 UNL A   1      35.422  22.491   0.370  1.00  0.00    +0.000 C 
ATOM     85  C62 UNL A   1      34.143  22.540  -0.472  1.00  0.00    +0.000 C 
ATOM     86  C63 UNL A   1      34.567  22.880  -1.897  1.00  0.00    +0.000 C 
ATOM     87  C64 UNL A   1      35.996  23.396  -1.769  1.00  0.00    +0.000 C 
ATOM    128  H37 UNL A   1      37.450  23.121  -0.197  1.00  0.00    +0.000 H 
BRANCH   87   88
ATOM    136  H45 UNL A   1      37.647  23.608  -2.808  1.00  0.00    +0.000 H 
ATOM     88  O3  UNL A   1      36.738  23.308  -2.967  1.00  0.00    +0.000 O 
ENDBRANCH   87   88
ENDBRANCH   82   83
ENDBRANCH   81   82
ENDBRANCH    2   78
ENDBRANCH    3    2
ENDBRANCH    5    3
ENDBRANCH    6    5
ENDBRANCH    7    6
ENDBRANCH    8    7
ENDBRANCH    9    8
ENDBRANCH   10    9
ENDBRANCH   11   10
ENDBRANCH   12   11
ENDBRANCH   13   12
ENDBRANCH   15   13
ENDBRANCH   19   18
BRANCH   23   24
ATOM     33  C24 UNL A   1      23.747  19.824   0.197  1.00  0.00    +0.000 C 
ATOM     34  F5  UNL A   1      23.443  20.874   0.975  1.00  0.00    +0.000 F 
ATOM     24  C19 UNL A   1      24.002  18.569   0.771  1.00  0.00    +0.000 C 
ATOM     25  C20 UNL A   1      24.310  17.505  -0.091  1.00  0.00    +0.000 C 
ATOM     26  F1  UNL A   1      24.574  16.288   0.406  1.00  0.00    +0.000 F 
ATOM     27  C21 UNL A   1      24.393  17.699  -1.468  1.00  0.00    +0.000 C 
ATOM     28  F2  UNL A   1      24.743  16.679  -2.266  1.00  0.00    +0.000 F 
ATOM     29  C22 UNL A   1      24.133  18.946  -2.012  1.00  0.00    +0.000 C 
ATOM     30  F3  UNL A   1      24.211  19.131  -3.338  1.00  0.00    +0.000 F 
ATOM     31  C23 UNL A   1      23.801  20.007  -1.182  1.00  0.00    +0.000 C 
ATOM     32  F4  UNL A   1      23.538  21.211  -1.708  1.00  0.00    +0.000 F 
ENDBRANCH   23   24
BRANCH   40   41
ATOM     41  C30 UNL A   1      18.944  17.818   5.859  1.00  0.00    +0.000 C 
ATOM     42  C31 UNL A   1      18.120  18.952   5.813  1.00  0.00    +0.000 C 
ATOM     43  F6  UNL A   1      18.662  20.177   5.740  1.00  0.00    +0.000 F 
ATOM     44  C32 UNL A   1      16.735  18.832   5.886  1.00  0.00    +0.000 C 
ATOM     45  F7  UNL A   1      15.969  19.932   5.890  1.00  0.00    +0.000 F 
ATOM     46  C33 UNL A   1      16.147  17.578   5.971  1.00  0.00    +0.000 C 
ATOM     47  F8  UNL A   1      14.814  17.465   6.036  1.00  0.00    +0.000 F 
ATOM     48  C34 UNL A   1      16.943  16.443   5.996  1.00  0.00    +0.000 C 
ATOM     49  F9  UNL A   1      16.377  15.230   6.066  1.00  0.00    +0.000 F 
ATOM     50  C35 UNL A   1      18.329  16.561   5.954  1.00  0.00    +0.000 C 
ATOM     51  F10 UNL A   1      19.072  15.445   5.995  1.00  0.00    +0.000 F 
ENDBRANCH   40   41
BRANCH   55   56
ATOM     65  C44 UNL A   1      23.674  16.435  11.335  1.00  0.00    +0.000 C 
ATOM     66  F15 UNL A   1      23.431  15.346  10.592  1.00  0.00    +0.000 F 
ATOM     56  C39 UNL A   1      23.932  17.665  10.714  1.00  0.00    +0.000 C 
ATOM     57  C40 UNL A   1      24.176  18.775  11.536  1.00  0.00    +0.000 C 
ATOM     58  F11 UNL A   1      24.448  19.968  10.988  1.00  0.00    +0.000 F 
ATOM     59  C41 UNL A   1      24.179  18.654  12.924  1.00  0.00    +0.000 C 
ATOM     60  F12 UNL A   1      24.457  19.721  13.686  1.00  0.00    +0.000 F 
ATOM     61  C42 UNL A   1      23.912  17.429  13.517  1.00  0.00    +0.000 C 
ATOM     62  F13 UNL A   1      23.913  17.314  14.852  1.00  0.00    +0.000 F 
ATOM     63  C43 UNL A   1      23.653  16.322  12.723  1.00  0.00    +0.000 C 
ATOM     64  F14 UNL A   1      23.381  15.139  13.292  1.00  0.00    +0.000 F 
ENDBRANCH   55   56
TORSDOF 20
ENDMDL
MODEL 6
REMARK VINA RESULT:      -9.7     33.311     41.904
ROOT
ATOM     19  C15 UNL A   1       2.091  10.810  37.939  1.00  0.00    +0.000 C 
ATOM     20  C16 UNL A   1       3.151   9.750  38.049  1.00  0.00    +0.000 C 
ATOM     21  N3  UNL A   1       3.124   8.505  37.644  1.00  0.00    +0.000 N 
ATOM     22  C17 UNL A   1       4.374   7.983  37.946  1.00  0.00    +0.000 C 
ATOM     23  C18 UNL A   1       4.824   6.716  37.780  1.00  0.00    +0.000 C 
ATOM     35  C25 UNL A   1       4.035   5.640  37.239  1.00  0.00    +0.000 C 
ATOM     36  C26 UNL A   1       4.373   4.307  37.094  1.00  0.00    +0.000 C 
ATOM     37  C27 UNL A   1       3.302   3.647  36.483  1.00  0.00    +0.000 C 
ATOM     38  C28 UNL A   1       2.278   4.560  36.289  1.00  0.00    +0.000 C 
ATOM     39  N4  UNL A   1       2.742   5.780  36.753  1.00  0.00    +0.000 N 
ATOM     40  C29 UNL A   1       0.972   4.338  35.721  1.00  0.00    +0.000 C 
ATOM     52  C36 UNL A   1       0.019   5.288  35.568  1.00  0.00    +0.000 C 
ATOM     53  N5  UNL A   1       0.062   6.632  35.914  1.00  0.00    +0.000 N 
ATOM     54  C37 UNL A   1      -1.096   7.134  35.558  1.00  0.00    +0.000 C 
ATOM     55  C38 UNL A   1      -1.617   8.535  35.725  1.00  0.00    +0.000 C 
ATOM     67  C45 UNL A   1      -0.837   9.461  36.313  1.00  0.00    +0.000 C 
ATOM     68  C46 UNL A   1      -1.208  10.852  36.557  1.00  0.00    +0.000 C 
ATOM     69  C47 UNL A   1      -0.178  11.482  37.148  1.00  0.00    +0.000 C 
ATOM     70  C48 UNL A   1       0.913  10.529  37.352  1.00  0.00    +0.000 C 
ATOM     71  N6  UNL A   1       0.437   9.359  36.815  1.00  0.00    +0.000 N 
ATOM     72  C49 UNL A   1      -1.996   6.166  34.915  1.00  0.00    +0.000 C 
ATOM     73  C50 UNL A   1      -1.285   5.050  34.984  1.00  0.00    +0.000 C 
ATOM     74  C51 UNL A   1       5.155   9.057  38.521  1.00  0.00    +0.000 C 
ATOM     75  C52 UNL A   1       4.423  10.151  38.672  1.00  0.00    +0.000 C 
ATOM    112  H21 UNL A   1       5.264   3.874  37.386  1.00  0.00    +0.000 H 
ATOM    113  H22 UNL A   1       3.280   2.649  36.220  1.00  0.00    +0.000 H 
ATOM    114  H23 UNL A   1       2.231   6.620  36.741  1.00  0.00    +0.000 H 
ATOM    115  H24 UNL A   1      -2.113  11.281  36.315  1.00  0.00    +0.000 H 
ATOM    116  H25 UNL A   1      -0.161  12.479  37.414  1.00  0.00    +0.000 H 
ATOM    117  H26 UNL A   1       0.961   8.525  36.791  1.00  0.00    +0.000 H 
ATOM    118  H27 UNL A   1      -2.935   6.318  34.514  1.00  0.00    +0.000 H 
ATOM    119  H28 UNL A   1      -1.619   4.128  34.663  1.00  0.00    +0.000 H 
ATOM    120  H29 UNL A   1       6.151   8.981  38.779  1.00  0.00    +0.000 H 
ATOM    121  H30 UNL A   1       4.677  11.048  39.113  1.00  0.00    +0.000 H 
ENDROOT
BRANCH   19   18
ATOM     76  C53 UNL A   1       2.023  12.536  39.740  1.00  0.00    +0.000 C 
ATOM     77  C54 UNL A   1       2.228  13.836  40.197  1.00  0.00    +0.000 C 
ATOM    110  H19 UNL A   1       3.646  15.135  37.446  1.00  0.00    +0.000 H 
ATOM     15  C11 UNL A   1       2.869  14.771  39.377  1.00  0.00    +0.000 C 
ATOM     16  C12 UNL A   1       3.202  14.436  38.061  1.00  0.00    +0.000 C 
ATOM     17  C13 UNL A   1       2.933  13.153  37.582  1.00  0.00    +0.000 C 
ATOM    111  H20 UNL A   1       3.154  12.913  36.603  1.00  0.00    +0.000 H 
ATOM     18  C14 UNL A   1       2.361  12.186  38.425  1.00  0.00    +0.000 C 
ATOM    122  H31 UNL A   1       1.620  11.828  40.373  1.00  0.00    +0.000 H 
ATOM    123  H32 UNL A   1       1.908  14.109  41.139  1.00  0.00    +0.000 H 
BRANCH   15   13
ATOM     13  C10 UNL A   1       3.177  16.132  39.865  1.00  0.00    +0.000 C 
ATOM     14  O2  UNL A   1       3.054  17.092  39.111  1.00  0.00    +0.000 O 
BRANCH   13   12
ATOM     12  N2  UNL A   1       3.613  16.320  41.152  1.00  0.00    +0.000 N 
ATOM    109  H18 UNL A   1       2.908  16.337  41.839  1.00  0.00    +0.000 H 
BRANCH   12   11
ATOM     11  C9  UNL A   1       4.969  16.497  41.645  1.00  0.00    +0.000 C 
ATOM    108  H17 UNL A   1       4.909  16.852  42.653  1.00  0.00    +0.000 H 
ATOM    107  H16 UNL A   1       5.477  17.197  41.016  1.00  0.00    +0.000 H 
BRANCH   11   10
ATOM    105  H14 UNL A   1       6.023  14.969  42.668  1.00  0.00    +0.000 H 
ATOM     10  C8  UNL A   1       5.751  15.188  41.657  1.00  0.00    +0.000 C 
ATOM    106  H15 UNL A   1       5.111  14.448  41.224  1.00  0.00    +0.000 H 
BRANCH   10    9
ATOM      9  C7  UNL A   1       7.028  15.203  40.813  1.00  0.00    +0.000 C 
ATOM    103  H12 UNL A   1       7.850  14.948  41.449  1.00  0.00    +0.000 H 
ATOM    104  H13 UNL A   1       6.872  14.499  40.021  1.00  0.00    +0.000 H 
BRANCH    9    8
ATOM    101  H10 UNL A   1       6.842  16.565  39.196  1.00  0.00    +0.000 H 
ATOM    102  H11 UNL A   1       7.015  17.302  40.818  1.00  0.00    +0.000 H 
ATOM      8  C6  UNL A   1       7.344  16.542  40.140  1.00  0.00    +0.000 C 
BRANCH    8    7
ATOM     99  H8  UNL A   1       9.364  15.885  39.990  1.00  0.00    +0.000 H 
ATOM    100  H9  UNL A   1       8.917  17.226  38.909  1.00  0.00    +0.000 H 
ATOM      7  C5  UNL A   1       8.836  16.810  39.891  1.00  0.00    +0.000 C 
BRANCH    7    6
ATOM     97  H6  UNL A   1       8.732  18.583  41.077  1.00  0.00    +0.000 H 
ATOM     98  H7  UNL A   1       9.742  17.315  41.752  1.00  0.00    +0.000 H 
ATOM      6  C4  UNL A   1       9.454  17.824  40.856  1.00  0.00    +0.000 C 
BRANCH    6    5
ATOM      5  N1  UNL A   1      10.626  18.438  40.271  1.00  0.00    +0.000 N 
ATOM     96  H5  UNL A   1      10.994  17.975  39.485  1.00  0.00    +0.000 H 
BRANCH    5    3
ATOM      3  C3  UNL A   1      11.296  19.567  40.647  1.00  0.00    +0.000 C 
ATOM      4  O1  UNL A   1      10.963  20.080  41.717  1.00  0.00    +0.000 O 
BRANCH    3    2
ATOM      2  C2  UNL A   1      12.346  20.174  39.708  1.00  0.00    +0.000 C 
ATOM     95  H4  UNL A   1      11.802  20.626  38.906  1.00  0.00    +0.000 H 
BRANCH    2    1
ATOM      1  C1  UNL A   1      13.260  19.129  39.057  1.00  0.00    +0.000 C 
ATOM     92  H1  UNL A   1      14.261  19.260  39.413  1.00  0.00    +0.000 H 
ATOM     93  H2  UNL A   1      13.241  19.251  37.994  1.00  0.00    +0.000 H 
ATOM     94  H3  UNL A   1      12.917  18.148  39.309  1.00  0.00    +0.000 H 
ENDBRANCH    2    1
BRANCH    2   78
ATOM    137  H46 UNL A   1      14.649  24.217  39.875  1.00  0.00    +0.000 H 
ATOM     78  C55 UNL A   1      13.153  21.257  40.410  1.00  0.00    +0.000 C 
ATOM     79  C56 UNL A   1      13.452  21.131  41.774  1.00  0.00    +0.000 C 
ATOM     80  C57 UNL A   1      14.136  22.146  42.447  1.00  0.00    +0.000 C 
ATOM     81  C58 UNL A   1      14.512  23.319  41.781  1.00  0.00    +0.000 C 
ATOM     89  C65 UNL A   1      14.305  23.398  40.400  1.00  0.00    +0.000 C 
ATOM     90  C66 UNL A   1      13.636  22.379  39.731  1.00  0.00    +0.000 C 
ATOM     91  F16 UNL A   1      13.427  22.520  38.415  1.00  0.00    +0.000 F 
ATOM    124  H33 UNL A   1      13.166  20.281  42.284  1.00  0.00    +0.000 H 
ATOM    125  H34 UNL A   1      14.365  22.031  43.446  1.00  0.00    +0.000 H 
BRANCH   81   82
ATOM     82  C59 UNL A   1      15.106  24.487  42.524  1.00  0.00    +0.000 C 
ATOM    126  H35 UNL A   1      16.115  24.603  42.187  1.00  0.00    +0.000 H 
ATOM    127  H36 UNL A   1      14.995  24.239  43.559  1.00  0.00    +0.000 H 
BRANCH   82   83
ATOM    129  H38 UNL A   1      13.599  26.942  40.698  1.00  0.00    +0.000 H 
ATOM    130  H39 UNL A   1      14.793  25.773  40.248  1.00  0.00    +0.000 H 
ATOM    131  H40 UNL A   1      15.234  28.517  40.726  1.00  0.00    +0.000 H 
ATOM    132  H41 UNL A   1      16.469  27.329  40.504  1.00  0.00    +0.000 H 
ATOM    133  H42 UNL A   1      16.025  28.734  42.859  1.00  0.00    +0.000 H 
ATOM    134  H43 UNL A   1      16.929  27.278  42.783  1.00  0.00    +0.000 H 
ATOM    135  H44 UNL A   1      14.032  27.660  43.507  1.00  0.00    +0.000 H 
ATOM     83  C60 UNL A   1      14.407  25.860  42.373  1.00  0.00    +0.000 C 
ATOM     84  C61 UNL A   1      14.532  26.503  40.985  1.00  0.00    +0.000 C 
ATOM     85  C62 UNL A   1      15.611  27.585  41.089  1.00  0.00    +0.000 C 
ATOM     86  C63 UNL A   1      15.972  27.706  42.567  1.00  0.00    +0.000 C 
ATOM     87  C64 UNL A   1      14.844  26.995  43.305  1.00  0.00    +0.000 C 
ATOM    128  H37 UNL A   1      13.418  25.530  42.611  1.00  0.00    +0.000 H 
BRANCH   87   88
ATOM    136  H45 UNL A   1      16.167  26.582  44.695  1.00  0.00    +0.000 H 
ATOM     88  O3  UNL A   1      15.201  26.565  44.603  1.00  0.00    +0.000 O 
ENDBRANCH   87   88
ENDBRANCH   82   83
ENDBRANCH   81   82
ENDBRANCH    2   78
ENDBRANCH    3    2
ENDBRANCH    5    3
ENDBRANCH    6    5
ENDBRANCH    7    6
ENDBRANCH    8    7
ENDBRANCH    9    8
ENDBRANCH   10    9
ENDBRANCH   11   10
ENDBRANCH   12   11
ENDBRANCH   13   12
ENDBRANCH   15   13
ENDBRANCH   19   18
BRANCH   23   24
ATOM     33  C24 UNL A   1       6.508   5.783  39.409  1.00  0.00    +0.000 C 
ATOM     34  F5  UNL A   1       5.503   5.409  40.214  1.00  0.00    +0.000 F 
ATOM     24  C19 UNL A   1       6.238   6.424  38.191  1.00  0.00    +0.000 C 
ATOM     25  C20 UNL A   1       7.330   6.797  37.390  1.00  0.00    +0.000 C 
ATOM     26  F1  UNL A   1       7.126   7.402  36.211  1.00  0.00    +0.000 F 
ATOM     27  C21 UNL A   1       8.635   6.508  37.779  1.00  0.00    +0.000 C 
ATOM     28  F2  UNL A   1       9.658   6.825  36.972  1.00  0.00    +0.000 F 
ATOM     29  C22 UNL A   1       8.878   5.877  38.989  1.00  0.00    +0.000 C 
ATOM     30  F3  UNL A   1      10.135   5.601  39.363  1.00  0.00    +0.000 F 
ATOM     31  C23 UNL A   1       7.817   5.522  39.808  1.00  0.00    +0.000 C 
ATOM     32  F4  UNL A   1       8.050   4.923  40.984  1.00  0.00    +0.000 F 
ENDBRANCH   23   24
BRANCH   40   41
ATOM     41  C30 UNL A   1       0.626   2.943  35.288  1.00  0.00    +0.000 C 
ATOM     42  C31 UNL A   1      -0.129   2.086  36.101  1.00  0.00    +0.000 C 
ATOM     43  F6  UNL A   1      -0.526   2.487  37.319  1.00  0.00    +0.000 F 
ATOM     44  C32 UNL A   1      -0.445   0.797  35.682  1.00  0.00    +0.000 C 
ATOM     45  F7  UNL A   1      -1.126  -0.022  36.496  1.00  0.00    +0.000 F 
ATOM     46  C33 UNL A   1      -0.041   0.352  34.432  1.00  0.00    +0.000 C 
ATOM     47  F8  UNL A   1      -0.349  -0.888  34.029  1.00  0.00    +0.000 F 
ATOM     48  C34 UNL A   1       0.689   1.190  33.603  1.00  0.00    +0.000 C 
ATOM     49  F9  UNL A   1       1.070   0.768  32.390  1.00  0.00    +0.000 F 
ATOM     50  C35 UNL A   1       1.031   2.470  34.031  1.00  0.00    +0.000 C 
ATOM     51  F10 UNL A   1       1.751   3.253  33.214  1.00  0.00    +0.000 F 
ENDBRANCH   40   41
BRANCH   55   56
ATOM     65  C44 UNL A   1      -4.109   8.613  36.089  1.00  0.00    +0.000 C 
ATOM     66  F15 UNL A   1      -3.953   8.004  37.273  1.00  0.00    +0.000 F 
ATOM     56  C39 UNL A   1      -2.992   8.892  35.290  1.00  0.00    +0.000 C 
ATOM     57  C40 UNL A   1      -3.209   9.527  34.058  1.00  0.00    +0.000 C 
ATOM     58  F11 UNL A   1      -2.169   9.832  33.269  1.00  0.00    +0.000 F 
ATOM     59  C41 UNL A   1      -4.492   9.885  33.651  1.00  0.00    +0.000 C 
ATOM     60  F12 UNL A   1      -4.669  10.529  32.489  1.00  0.00    +0.000 F 
ATOM     61  C42 UNL A   1      -5.585   9.591  34.454  1.00  0.00    +0.000 C 
ATOM     62  F13 UNL A   1      -6.819   9.933  34.061  1.00  0.00    +0.000 F 
ATOM     63  C43 UNL A   1      -5.394   8.949  35.669  1.00  0.00    +0.000 C 
ATOM     64  F14 UNL A   1      -6.448   8.652  36.441  1.00  0.00    +0.000 F 
ENDBRANCH   55   56
TORSDOF 20
ENDMDL
MODEL 7
REMARK VINA RESULT:      -9.7     18.386     23.982
ROOT
ATOM     19  C15 UNL A   1      26.072  38.311  48.859  1.00  0.00    +0.000 C 
ATOM     20  C16 UNL A   1      27.368  39.007  48.546  1.00  0.00    +0.000 C 
ATOM     21  N3  UNL A   1      28.276  38.706  47.652  1.00  0.00    +0.000 N 
ATOM     22  C17 UNL A   1      29.242  39.697  47.747  1.00  0.00    +0.000 C 
ATOM     23  C18 UNL A   1      30.415  39.803  47.077  1.00  0.00    +0.000 C 
ATOM     35  C25 UNL A   1      30.881  38.848  46.105  1.00  0.00    +0.000 C 
ATOM     36  C26 UNL A   1      32.083  38.826  45.421  1.00  0.00    +0.000 C 
ATOM     37  C27 UNL A   1      32.073  37.730  44.552  1.00  0.00    +0.000 C 
ATOM     38  C28 UNL A   1      30.883  37.042  44.727  1.00  0.00    +0.000 C 
ATOM     39  N4  UNL A   1      30.159  37.741  45.680  1.00  0.00    +0.000 N 
ATOM     40  C29 UNL A   1      30.438  35.837  44.075  1.00  0.00    +0.000 C 
ATOM     52  C36 UNL A   1      29.254  35.220  44.306  1.00  0.00    +0.000 C 
ATOM     53  N5  UNL A   1      28.242  35.573  45.189  1.00  0.00    +0.000 N 
ATOM     54  C37 UNL A   1      27.302  34.672  45.040  1.00  0.00    +0.000 C 
ATOM     55  C38 UNL A   1      25.991  34.536  45.766  1.00  0.00    +0.000 C 
ATOM     67  C45 UNL A   1      25.670  35.433  46.716  1.00  0.00    +0.000 C 
ATOM     68  C46 UNL A   1      24.446  35.424  47.513  1.00  0.00    +0.000 C 
ATOM     69  C47 UNL A   1      24.460  36.476  48.349  1.00  0.00    +0.000 C 
ATOM     70  C48 UNL A   1      25.711  37.214  48.168  1.00  0.00    +0.000 C 
ATOM     71  N6  UNL A   1      26.359  36.531  47.171  1.00  0.00    +0.000 N 
ATOM     72  C49 UNL A   1      27.599  33.659  44.018  1.00  0.00    +0.000 C 
ATOM     73  C50 UNL A   1      28.816  34.014  43.633  1.00  0.00    +0.000 C 
ATOM     74  C51 UNL A   1      28.788  40.637  48.749  1.00  0.00    +0.000 C 
ATOM     75  C52 UNL A   1      27.670  40.219  49.323  1.00  0.00    +0.000 C 
ATOM    112  H21 UNL A   1      32.855  39.503  45.533  1.00  0.00    +0.000 H 
ATOM    113  H22 UNL A   1      32.825  37.478  43.891  1.00  0.00    +0.000 H 
ATOM    114  H23 UNL A   1      29.266  37.490  46.007  1.00  0.00    +0.000 H 
ATOM    115  H24 UNL A   1      23.693  34.723  47.445  1.00  0.00    +0.000 H 
ATOM    116  H25 UNL A   1      23.709  36.722  49.013  1.00  0.00    +0.000 H 
ATOM    117  H26 UNL A   1      27.237  36.802  46.814  1.00  0.00    +0.000 H 
ATOM    118  H27 UNL A   1      27.013  32.877  43.687  1.00  0.00    +0.000 H 
ATOM    119  H28 UNL A   1      29.381  33.498  42.940  1.00  0.00    +0.000 H 
ATOM    120  H29 UNL A   1      29.271  41.519  48.984  1.00  0.00    +0.000 H 
ATOM    121  H30 UNL A   1      27.148  40.635  50.110  1.00  0.00    +0.000 H 
ENDROOT
BRANCH   19   18
ATOM     76  C53 UNL A   1      25.274  38.436  51.220  1.00  0.00    +0.000 C 
ATOM     77  C54 UNL A   1      24.396  38.913  52.191  1.00  0.00    +0.000 C 
ATOM    110  H19 UNL A   1      22.623  41.036  50.290  1.00  0.00    +0.000 H 
ATOM     15  C11 UNL A   1      23.462  39.901  51.862  1.00  0.00    +0.000 C 
ATOM     16  C12 UNL A   1      23.333  40.330  50.538  1.00  0.00    +0.000 C 
ATOM     17  C13 UNL A   1      24.168  39.801  49.553  1.00  0.00    +0.000 C 
ATOM    111  H20 UNL A   1      24.056  40.097  48.571  1.00  0.00    +0.000 H 
ATOM     18  C14 UNL A   1      25.160  38.865  49.890  1.00  0.00    +0.000 C 
ATOM    122  H31 UNL A   1      26.011  37.764  51.482  1.00  0.00    +0.000 H 
ATOM    123  H32 UNL A   1      24.434  38.537  53.151  1.00  0.00    +0.000 H 
BRANCH   15   13
ATOM     13  C10 UNL A   1      22.575  40.488  52.890  1.00  0.00    +0.000 C 
ATOM     14  O2  UNL A   1      22.973  41.424  53.576  1.00  0.00    +0.000 O 
BRANCH   13   12
ATOM     12  N2  UNL A   1      21.317  39.977  53.085  1.00  0.00    +0.000 N 
ATOM    109  H18 UNL A   1      20.596  40.431  52.591  1.00  0.00    +0.000 H 
BRANCH   12   11
ATOM     11  C9  UNL A   1      20.898  38.862  53.917  1.00  0.00    +0.000 C 
ATOM    108  H17 UNL A   1      19.861  38.997  54.150  1.00  0.00    +0.000 H 
ATOM    107  H16 UNL A   1      21.496  38.849  54.804  1.00  0.00    +0.000 H 
BRANCH   11   10
ATOM    105  H14 UNL A   1      22.068  37.214  53.283  1.00  0.00    +0.000 H 
ATOM     10  C8  UNL A   1      21.048  37.524  53.203  1.00  0.00    +0.000 C 
ATOM    106  H15 UNL A   1      20.366  36.849  53.677  1.00  0.00    +0.000 H 
BRANCH   10    9
ATOM      9  C7  UNL A   1      20.671  37.548  51.720  1.00  0.00    +0.000 C 
ATOM    103  H12 UNL A   1      19.659  37.213  51.628  1.00  0.00    +0.000 H 
ATOM    104  H13 UNL A   1      20.813  38.557  51.391  1.00  0.00    +0.000 H 
BRANCH    9    8
ATOM    101  H10 UNL A   1      21.705  37.203  49.899  1.00  0.00    +0.000 H 
ATOM    102  H11 UNL A   1      22.446  36.487  51.362  1.00  0.00    +0.000 H 
ATOM      8  C6  UNL A   1      21.546  36.675  50.815  1.00  0.00    +0.000 C 
BRANCH    8    7
ATOM     99  H8  UNL A   1      21.401  34.573  51.125  1.00  0.00    +0.000 H 
ATOM    100  H9  UNL A   1      19.898  35.372  50.602  1.00  0.00    +0.000 H 
ATOM      7  C5  UNL A   1      20.958  35.298  50.474  1.00  0.00    +0.000 C 
BRANCH    7    6
ATOM     97  H6  UNL A   1      22.222  34.558  48.919  1.00  0.00    +0.000 H 
ATOM     98  H7  UNL A   1      20.548  34.043  48.801  1.00  0.00    +0.000 H 
ATOM      6  C4  UNL A   1      21.201  34.860  49.028  1.00  0.00    +0.000 C 
BRANCH    6    5
ATOM      5  N1  UNL A   1      20.926  35.945  48.112  1.00  0.00    +0.000 N 
ATOM     96  H5  UNL A   1      21.021  36.849  48.491  1.00  0.00    +0.000 H 
BRANCH    5    3
ATOM      3  C3  UNL A   1      20.555  35.902  46.798  1.00  0.00    +0.000 C 
ATOM      4  O1  UNL A   1      21.457  35.984  45.964  1.00  0.00    +0.000 O 
BRANCH    3    2
ATOM      2  C2  UNL A   1      19.067  35.837  46.431  1.00  0.00    +0.000 C 
ATOM     95  H4  UNL A   1      18.898  36.632  45.735  1.00  0.00    +0.000 H 
BRANCH    2    1
ATOM      1  C1  UNL A   1      18.133  36.112  47.616  1.00  0.00    +0.000 C 
ATOM     92  H1  UNL A   1      18.572  36.853  48.250  1.00  0.00    +0.000 H 
ATOM     93  H2  UNL A   1      17.987  35.209  48.172  1.00  0.00    +0.000 H 
ATOM     94  H3  UNL A   1      17.191  36.464  47.254  1.00  0.00    +0.000 H 
ENDBRANCH    2    1
BRANCH    2   78
ATOM    137  H46 UNL A   1      16.643  33.171  43.483  1.00  0.00    +0.000 H 
ATOM     78  C55 UNL A   1      18.725  34.521  45.748  1.00  0.00    +0.000 C 
ATOM     79  C56 UNL A   1      19.457  33.365  46.053  1.00  0.00    +0.000 C 
ATOM     80  C57 UNL A   1      19.197  32.165  45.387  1.00  0.00    +0.000 C 
ATOM     81  C58 UNL A   1      18.221  32.097  44.387  1.00  0.00    +0.000 C 
ATOM     89  C65 UNL A   1      17.423  33.224  44.156  1.00  0.00    +0.000 C 
ATOM     90  C66 UNL A   1      17.675  34.413  44.831  1.00  0.00    +0.000 C 
ATOM     91  F16 UNL A   1      16.908  35.474  44.546  1.00  0.00    +0.000 F 
ATOM    124  H33 UNL A   1      20.192  33.401  46.776  1.00  0.00    +0.000 H 
ATOM    125  H34 UNL A   1      19.731  31.318  45.636  1.00  0.00    +0.000 H 
BRANCH   81   82
ATOM     82  C59 UNL A   1      18.037  30.858  43.550  1.00  0.00    +0.000 C 
ATOM    126  H35 UNL A   1      18.979  30.350  43.518  1.00  0.00    +0.000 H 
ATOM    127  H36 UNL A   1      17.677  31.214  42.608  1.00  0.00    +0.000 H 
BRANCH   82   83
ATOM    129  H38 UNL A   1      17.082  27.855  44.854  1.00  0.00    +0.000 H 
ATOM    130  H39 UNL A   1      18.494  28.297  43.957  1.00  0.00    +0.000 H 
ATOM    131  H40 UNL A   1      16.278  26.848  42.984  1.00  0.00    +0.000 H 
ATOM    132  H41 UNL A   1      17.566  27.475  42.018  1.00  0.00    +0.000 H 
ATOM    133  H42 UNL A   1      14.923  28.314  41.873  1.00  0.00    +0.000 H 
ATOM    134  H43 UNL A   1      16.238  29.225  41.254  1.00  0.00    +0.000 H 
ATOM    135  H44 UNL A   1      14.844  29.494  43.909  1.00  0.00    +0.000 H 
ATOM     83  C60 UNL A   1      16.975  29.833  44.016  1.00  0.00    +0.000 C 
ATOM     84  C61 UNL A   1      17.427  28.367  43.980  1.00  0.00    +0.000 C 
ATOM     85  C62 UNL A   1      16.810  27.740  42.726  1.00  0.00    +0.000 C 
ATOM     86  C63 UNL A   1      15.851  28.772  42.143  1.00  0.00    +0.000 C 
ATOM     87  C64 UNL A   1      15.642  29.788  43.261  1.00  0.00    +0.000 C 
ATOM    128  H37 UNL A   1      16.842  30.223  45.003  1.00  0.00    +0.000 H 
BRANCH   87   88
ATOM    136  H45 UNL A   1      15.478  31.736  43.428  1.00  0.00    +0.000 H 
ATOM     88  O3  UNL A   1      15.200  31.049  42.802  1.00  0.00    +0.000 O 
ENDBRANCH   87   88
ENDBRANCH   82   83
ENDBRANCH   81   82
ENDBRANCH    2   78
ENDBRANCH    3    2
ENDBRANCH    5    3
ENDBRANCH    6    5
ENDBRANCH    7    6
ENDBRANCH    8    7
ENDBRANCH    9    8
ENDBRANCH   10    9
ENDBRANCH   11   10
ENDBRANCH   12   11
ENDBRANCH   13   12
ENDBRANCH   15   13
ENDBRANCH   19   18
BRANCH   23   24
ATOM     33  C24 UNL A   1      32.328  40.902  48.298  1.00  0.00    +0.000 C 
ATOM     34  F5  UNL A   1      32.583  39.740  48.917  1.00  0.00    +0.000 F 
ATOM     24  C19 UNL A   1      31.277  40.995  47.373  1.00  0.00    +0.000 C 
ATOM     25  C20 UNL A   1      31.053  42.238  46.759  1.00  0.00    +0.000 C 
ATOM     26  F1  UNL A   1      30.069  42.377  45.858  1.00  0.00    +0.000 F 
ATOM     27  C21 UNL A   1      31.869  43.331  47.035  1.00  0.00    +0.000 C 
ATOM     28  F2  UNL A   1      31.669  44.492  46.395  1.00  0.00    +0.000 F 
ATOM     29  C22 UNL A   1      32.899  43.217  47.955  1.00  0.00    +0.000 C 
ATOM     30  F3  UNL A   1      33.683  44.271  48.222  1.00  0.00    +0.000 F 
ATOM     31  C23 UNL A   1      33.124  42.006  48.594  1.00  0.00    +0.000 C 
ATOM     32  F4  UNL A   1      34.111  41.897  49.493  1.00  0.00    +0.000 F 
ENDBRANCH   23   24
BRANCH   40   41
ATOM     41  C30 UNL A   1      31.362  35.197  43.082  1.00  0.00    +0.000 C 
ATOM     42  C31 UNL A   1      32.211  34.140  43.441  1.00  0.00    +0.000 C 
ATOM     43  F6  UNL A   1      32.244  33.702  44.709  1.00  0.00    +0.000 F 
ATOM     44  C32 UNL A   1      33.060  33.555  42.505  1.00  0.00    +0.000 C 
ATOM     45  F7  UNL A   1      33.897  32.579  42.882  1.00  0.00    +0.000 F 
ATOM     46  C33 UNL A   1      33.052  33.992  41.189  1.00  0.00    +0.000 C 
ATOM     47  F8  UNL A   1      33.867  33.425  40.289  1.00  0.00    +0.000 F 
ATOM     48  C34 UNL A   1      32.206  35.022  40.808  1.00  0.00    +0.000 C 
ATOM     49  F9  UNL A   1      32.189  35.438  39.534  1.00  0.00    +0.000 F 
ATOM     50  C35 UNL A   1      31.378  35.629  41.747  1.00  0.00    +0.000 C 
ATOM     51  F10 UNL A   1      30.581  36.632  41.352  1.00  0.00    +0.000 F 
ENDBRANCH   40   41
BRANCH   55   56
ATOM     65  C44 UNL A   1      23.994  33.541  44.595  1.00  0.00    +0.000 C 
ATOM     66  F15 UNL A   1      23.760  34.719  43.999  1.00  0.00    +0.000 F 
ATOM     56  C39 UNL A   1      25.076  33.403  45.476  1.00  0.00    +0.000 C 
ATOM     57  C40 UNL A   1      25.274  32.152  46.078  1.00  0.00    +0.000 C 
ATOM     58  F11 UNL A   1      26.309  31.966  46.910  1.00  0.00    +0.000 F 
ATOM     59  C41 UNL A   1      24.435  31.077  45.795  1.00  0.00    +0.000 C 
ATOM     60  F12 UNL A   1      24.672  29.881  46.350  1.00  0.00    +0.000 F 
ATOM     61  C42 UNL A   1      23.364  31.239  44.928  1.00  0.00    +0.000 C 
ATOM     62  F13 UNL A   1      22.555  30.206  44.658  1.00  0.00    +0.000 F 
ATOM     63  C43 UNL A   1      23.140  32.473  44.334  1.00  0.00    +0.000 C 
ATOM     64  F14 UNL A   1      22.099  32.637  43.506  1.00  0.00    +0.000 F 
ENDBRANCH   55   56
TORSDOF 20
ENDMDL
MODEL 8
REMARK VINA RESULT:      -9.6     20.954     26.593
ROOT
ATOM     19  C15 UNL A   1      21.652  38.367  49.001  1.00  0.00    +0.000 C 
ATOM     20  C16 UNL A   1      22.206  37.211  48.215  1.00  0.00    +0.000 C 
ATOM     21  N3  UNL A   1      23.387  37.069  47.669  1.00  0.00    +0.000 N 
ATOM     22  C17 UNL A   1      23.394  35.799  47.109  1.00  0.00    +0.000 C 
ATOM     23  C18 UNL A   1      24.366  35.202  46.378  1.00  0.00    +0.000 C 
ATOM     35  C25 UNL A   1      25.620  35.823  46.037  1.00  0.00    +0.000 C 
ATOM     36  C26 UNL A   1      26.641  35.331  45.245  1.00  0.00    +0.000 C 
ATOM     37  C27 UNL A   1      27.679  36.270  45.234  1.00  0.00    +0.000 C 
ATOM     38  C28 UNL A   1      27.284  37.367  45.982  1.00  0.00    +0.000 C 
ATOM     39  N4  UNL A   1      26.021  37.078  46.473  1.00  0.00    +0.000 N 
ATOM     40  C29 UNL A   1      28.005  38.589  46.233  1.00  0.00    +0.000 C 
ATOM     52  C36 UNL A   1      27.546  39.624  46.978  1.00  0.00    +0.000 C 
ATOM     53  N5  UNL A   1      26.330  39.755  47.635  1.00  0.00    +0.000 N 
ATOM     54  C37 UNL A   1      26.362  40.927  48.222  1.00  0.00    +0.000 C 
ATOM     55  C38 UNL A   1      25.301  41.609  49.042  1.00  0.00    +0.000 C 
ATOM     67  C45 UNL A   1      24.126  40.986  49.246  1.00  0.00    +0.000 C 
ATOM     68  C46 UNL A   1      23.000  41.524  50.005  1.00  0.00    +0.000 C 
ATOM     69  C47 UNL A   1      22.004  40.622  50.010  1.00  0.00    +0.000 C 
ATOM     70  C48 UNL A   1      22.412  39.455  49.227  1.00  0.00    +0.000 C 
ATOM     71  N6  UNL A   1      23.689  39.754  48.824  1.00  0.00    +0.000 N 
ATOM     72  C49 UNL A   1      27.621  41.661  48.028  1.00  0.00    +0.000 C 
ATOM     73  C50 UNL A   1      28.289  40.842  47.230  1.00  0.00    +0.000 C 
ATOM     74  C51 UNL A   1      22.120  35.190  47.423  1.00  0.00    +0.000 C 
ATOM     75  C52 UNL A   1      21.322  36.046  48.044  1.00  0.00    +0.000 C 
ATOM    112  H21 UNL A   1      26.639  34.426  44.747  1.00  0.00    +0.000 H 
ATOM    113  H22 UNL A   1      28.584  36.162  44.751  1.00  0.00    +0.000 H 
ATOM    114  H23 UNL A   1      25.488  37.674  47.046  1.00  0.00    +0.000 H 
ATOM    115  H24 UNL A   1      22.974  42.448  50.463  1.00  0.00    +0.000 H 
ATOM    116  H25 UNL A   1      21.098  40.735  50.490  1.00  0.00    +0.000 H 
ATOM    117  H26 UNL A   1      24.241  39.143  48.283  1.00  0.00    +0.000 H 
ATOM    118  H27 UNL A   1      27.908  42.574  48.414  1.00  0.00    +0.000 H 
ATOM    119  H28 UNL A   1      29.222  41.046  46.837  1.00  0.00    +0.000 H 
ATOM    120  H29 UNL A   1      21.866  34.216  47.194  1.00  0.00    +0.000 H 
ATOM    121  H30 UNL A   1      20.339  35.928  48.331  1.00  0.00    +0.000 H 
ENDROOT
BRANCH   19   18
ATOM     76  C53 UNL A   1      19.246  39.027  49.000  1.00  0.00    +0.000 C 
ATOM     77  C54 UNL A   1      17.970  39.000  49.558  1.00  0.00    +0.000 C 
ATOM    110  H19 UNL A   1      18.538  36.819  52.046  1.00  0.00    +0.000 H 
ATOM     15  C11 UNL A   1      17.699  38.153  50.638  1.00  0.00    +0.000 C 
ATOM     16  C12 UNL A   1      18.731  37.419  51.229  1.00  0.00    +0.000 C 
ATOM     17  C13 UNL A   1      20.025  37.501  50.711  1.00  0.00    +0.000 C 
ATOM    111  H20 UNL A   1      20.793  36.980  51.164  1.00  0.00    +0.000 H 
ATOM     18  C14 UNL A   1      20.288  38.289  49.579  1.00  0.00    +0.000 C 
ATOM    122  H31 UNL A   1      19.425  39.594  48.156  1.00  0.00    +0.000 H 
ATOM    123  H32 UNL A   1      17.226  39.604  49.176  1.00  0.00    +0.000 H 
BRANCH   15   13
ATOM     13  C10 UNL A   1      16.334  38.039  51.197  1.00  0.00    +0.000 C 
ATOM     14  O2  UNL A   1      16.179  37.653  52.351  1.00  0.00    +0.000 O 
BRANCH   13   12
ATOM     12  N2  UNL A   1      15.245  38.350  50.422  1.00  0.00    +0.000 N 
ATOM    109  H18 UNL A   1      14.988  39.300  50.417  1.00  0.00    +0.000 H 
BRANCH   12   11
ATOM     11  C9  UNL A   1      14.417  37.474  49.610  1.00  0.00    +0.000 C 
ATOM    108  H17 UNL A   1      14.024  38.052  48.800  1.00  0.00    +0.000 H 
ATOM    107  H16 UNL A   1      13.633  37.077  50.220  1.00  0.00    +0.000 H 
BRANCH   11   10
ATOM    105  H14 UNL A   1      15.954  36.020  49.730  1.00  0.00    +0.000 H 
ATOM     10  C8  UNL A   1      15.214  36.318  49.017  1.00  0.00    +0.000 C 
ATOM    106  H15 UNL A   1      14.508  35.544  48.797  1.00  0.00    +0.000 H 
BRANCH   10    9
ATOM      9  C7  UNL A   1      15.923  36.642  47.701  1.00  0.00    +0.000 C 
ATOM    103  H12 UNL A   1      15.349  36.224  46.901  1.00  0.00    +0.000 H 
ATOM    104  H13 UNL A   1      15.997  37.709  47.655  1.00  0.00    +0.000 H 
BRANCH    9    8
ATOM    101  H10 UNL A   1      17.901  36.443  48.445  1.00  0.00    +0.000 H 
ATOM    102  H11 UNL A   1      17.273  35.045  47.522  1.00  0.00    +0.000 H 
ATOM      8  C6  UNL A   1      17.355  36.109  47.588  1.00  0.00    +0.000 C 
BRANCH    8    7
ATOM     99  H8  UNL A   1      17.456  37.131  45.722  1.00  0.00    +0.000 H 
ATOM    100  H9  UNL A   1      18.963  37.123  46.670  1.00  0.00    +0.000 H 
ATOM      7  C5  UNL A   1      18.120  36.557  46.334  1.00  0.00    +0.000 C 
BRANCH    7    6
ATOM     97  H6  UNL A   1      19.243  35.796  44.684  1.00  0.00    +0.000 H 
ATOM     98  H7  UNL A   1      19.282  34.784  46.118  1.00  0.00    +0.000 H 
ATOM      6  C4  UNL A   1      18.668  35.400  45.495  1.00  0.00    +0.000 C 
BRANCH    6    5
ATOM      5  N1  UNL A   1      17.588  34.596  44.964  1.00  0.00    +0.000 N 
ATOM     96  H5  UNL A   1      16.718  34.717  45.407  1.00  0.00    +0.000 H 
BRANCH    5    3
ATOM      3  C3  UNL A   1      17.597  33.696  43.937  1.00  0.00    +0.000 C 
ATOM      4  O1  UNL A   1      18.696  33.410  43.459  1.00  0.00    +0.000 O 
BRANCH    3    2
ATOM      2  C2  UNL A   1      16.270  33.158  43.388  1.00  0.00    +0.000 C 
ATOM     95  H4  UNL A   1      16.120  33.643  42.446  1.00  0.00    +0.000 H 
BRANCH    2    1
ATOM      1  C1  UNL A   1      15.057  33.532  44.249  1.00  0.00    +0.000 C 
ATOM     92  H1  UNL A   1      14.272  32.824  44.083  1.00  0.00    +0.000 H 
ATOM     93  H2  UNL A   1      14.717  34.511  43.980  1.00  0.00    +0.000 H 
ATOM     94  H3  UNL A   1      15.335  33.522  45.281  1.00  0.00    +0.000 H 
ENDBRANCH    2    1
BRANCH    2   78
ATOM    137  H46 UNL A   1      16.746  28.732  44.751  1.00  0.00    +0.000 H 
ATOM     78  C55 UNL A   1      16.340  31.657  43.149  1.00  0.00    +0.000 C 
ATOM     79  C56 UNL A   1      16.186  31.150  41.852  1.00  0.00    +0.000 C 
ATOM     80  C57 UNL A   1      16.184  29.771  41.625  1.00  0.00    +0.000 C 
ATOM     81  C58 UNL A   1      16.310  28.870  42.690  1.00  0.00    +0.000 C 
ATOM     89  C65 UNL A   1      16.567  29.379  43.968  1.00  0.00    +0.000 C 
ATOM     90  C66 UNL A   1      16.582  30.752  44.186  1.00  0.00    +0.000 C 
ATOM     91  F16 UNL A   1      16.793  31.189  45.435  1.00  0.00    +0.000 F 
ATOM    124  H33 UNL A   1      16.074  31.798  41.058  1.00  0.00    +0.000 H 
ATOM    125  H34 UNL A   1      16.087  29.412  40.663  1.00  0.00    +0.000 H 
BRANCH   81   82
ATOM     82  C59 UNL A   1      16.150  27.386  42.485  1.00  0.00    +0.000 C 
ATOM    126  H35 UNL A   1      16.590  26.896  43.330  1.00  0.00    +0.000 H 
ATOM    127  H36 UNL A   1      16.620  27.187  41.545  1.00  0.00    +0.000 H 
BRANCH   82   83
ATOM    129  H38 UNL A   1      13.266  26.038  43.707  1.00  0.00    +0.000 H 
ATOM    130  H39 UNL A   1      14.895  25.924  44.279  1.00  0.00    +0.000 H 
ATOM    131  H40 UNL A   1      13.455  23.916  42.919  1.00  0.00    +0.000 H 
ATOM    132  H41 UNL A   1      15.145  23.868  43.276  1.00  0.00    +0.000 H 
ATOM    133  H42 UNL A   1      14.067  23.990  40.719  1.00  0.00    +0.000 H 
ATOM    134  H43 UNL A   1      15.697  24.388  41.078  1.00  0.00    +0.000 H 
ATOM    135  H44 UNL A   1      13.332  26.226  40.783  1.00  0.00    +0.000 H 
ATOM     83  C60 UNL A   1      14.711  26.837  42.330  1.00  0.00    +0.000 C 
ATOM     84  C61 UNL A   1      14.276  25.840  43.412  1.00  0.00    +0.000 C 
ATOM     85  C62 UNL A   1      14.379  24.441  42.798  1.00  0.00    +0.000 C 
ATOM     86  C63 UNL A   1      14.683  24.631  41.315  1.00  0.00    +0.000 C 
ATOM     87  C64 UNL A   1      14.363  26.095  41.035  1.00  0.00    +0.000 C 
ATOM    128  H37 UNL A   1      14.207  27.779  42.378  1.00  0.00    +0.000 H 
BRANCH   87   88
ATOM    136  H45 UNL A   1      15.812  26.086  39.712  1.00  0.00    +0.000 H 
ATOM     88  O3  UNL A   1      15.012  26.606  39.889  1.00  0.00    +0.000 O 
ENDBRANCH   87   88
ENDBRANCH   82   83
ENDBRANCH   81   82
ENDBRANCH    2   78
ENDBRANCH    3    2
ENDBRANCH    5    3
ENDBRANCH    6    5
ENDBRANCH    7    6
ENDBRANCH    8    7
ENDBRANCH    9    8
ENDBRANCH   10    9
ENDBRANCH   11   10
ENDBRANCH   12   11
ENDBRANCH   13   12
ENDBRANCH   15   13
ENDBRANCH   19   18
BRANCH   23   24
ATOM     33  C24 UNL A   1      23.326  33.576  44.755  1.00  0.00    +0.000 C 
ATOM     34  F5  UNL A   1      22.809  34.609  44.072  1.00  0.00    +0.000 F 
ATOM     24  C19 UNL A   1      24.110  33.804  45.896  1.00  0.00    +0.000 C 
ATOM     25  C20 UNL A   1      24.622  32.686  46.573  1.00  0.00    +0.000 C 
ATOM     26  F1  UNL A   1      25.387  32.849  47.663  1.00  0.00    +0.000 F 
ATOM     27  C21 UNL A   1      24.386  31.395  46.106  1.00  0.00    +0.000 C 
ATOM     28  F2  UNL A   1      24.931  30.346  46.739  1.00  0.00    +0.000 F 
ATOM     29  C22 UNL A   1      23.605  31.194  44.979  1.00  0.00    +0.000 C 
ATOM     30  F3  UNL A   1      23.377  29.952  44.531  1.00  0.00    +0.000 F 
ATOM     31  C23 UNL A   1      23.068  32.283  44.308  1.00  0.00    +0.000 C 
ATOM     32  F4  UNL A   1      22.303  32.090  43.224  1.00  0.00    +0.000 F 
ENDBRANCH   23   24
BRANCH   40   41
ATOM     41  C30 UNL A   1      29.357  38.745  45.602  1.00  0.00    +0.000 C 
ATOM     42  C31 UNL A   1      30.512  38.213  46.194  1.00  0.00    +0.000 C 
ATOM     43  F6  UNL A   1      30.435  37.582  47.375  1.00  0.00    +0.000 F 
ATOM     44  C32 UNL A   1      31.758  38.364  45.592  1.00  0.00    +0.000 C 
ATOM     45  F7  UNL A   1      32.855  37.889  46.199  1.00  0.00    +0.000 F 
ATOM     46  C33 UNL A   1      31.869  39.018  44.373  1.00  0.00    +0.000 C 
ATOM     47  F8  UNL A   1      33.069  39.158  43.794  1.00  0.00    +0.000 F 
ATOM     48  C34 UNL A   1      30.737  39.534  43.761  1.00  0.00    +0.000 C 
ATOM     49  F9  UNL A   1      30.840  40.157  42.579  1.00  0.00    +0.000 F 
ATOM     50  C35 UNL A   1      29.494  39.411  44.375  1.00  0.00    +0.000 C 
ATOM     51  F10 UNL A   1      28.419  39.933  43.765  1.00  0.00    +0.000 F 
ENDBRANCH   40   41
BRANCH   55   56
ATOM     65  C44 UNL A   1      25.206  44.119  48.843  1.00  0.00    +0.000 C 
ATOM     66  F15 UNL A   1      24.702  44.000  47.606  1.00  0.00    +0.000 F 
ATOM     56  C39 UNL A   1      25.521  42.973  49.587  1.00  0.00    +0.000 C 
ATOM     57  C40 UNL A   1      26.050  43.153  50.873  1.00  0.00    +0.000 C 
ATOM     58  F11 UNL A   1      26.346  42.086  51.630  1.00  0.00    +0.000 F 
ATOM     59  C41 UNL A   1      26.239  44.428  51.401  1.00  0.00    +0.000 C 
ATOM     60  F12 UNL A   1      26.706  44.571  52.649  1.00  0.00    +0.000 F 
ATOM     61  C42 UNL A   1      25.930  45.548  50.644  1.00  0.00    +0.000 C 
ATOM     62  F13 UNL A   1      26.115  46.774  51.151  1.00  0.00    +0.000 F 
ATOM     63  C43 UNL A   1      25.421  45.394  49.362  1.00  0.00    +0.000 C 
ATOM     64  F14 UNL A   1      25.133  46.474  48.623  1.00  0.00    +0.000 F 
ENDBRANCH   55   56
TORSDOF 20
ENDMDL
MODEL 9
REMARK VINA RESULT:      -9.6     22.209     29.556
ROOT
ATOM     19  C15 UNL A   1      25.728  39.257  46.711  1.00  0.00    +0.000 C 
ATOM     20  C16 UNL A   1      25.103  37.900  46.537  1.00  0.00    +0.000 C 
ATOM     21  N3  UNL A   1      23.898  37.496  46.852  1.00  0.00    +0.000 N 
ATOM     22  C17 UNL A   1      23.823  36.174  46.434  1.00  0.00    +0.000 C 
ATOM     23  C18 UNL A   1      22.804  35.295  46.588  1.00  0.00    +0.000 C 
ATOM     35  C25 UNL A   1      21.564  35.601  47.251  1.00  0.00    +0.000 C 
ATOM     36  C26 UNL A   1      20.496  34.764  47.520  1.00  0.00    +0.000 C 
ATOM     37  C27 UNL A   1      19.496  35.515  48.146  1.00  0.00    +0.000 C 
ATOM     38  C28 UNL A   1      19.958  36.811  48.309  1.00  0.00    +0.000 C 
ATOM     39  N4  UNL A   1      21.226  36.851  47.751  1.00  0.00    +0.000 N 
ATOM     40  C29 UNL A   1      19.293  37.931  48.925  1.00  0.00    +0.000 C 
ATOM     52  C36 UNL A   1      19.818  39.174  49.050  1.00  0.00    +0.000 C 
ATOM     53  N5  UNL A   1      21.060  39.642  48.646  1.00  0.00    +0.000 N 
ATOM     54  C37 UNL A   1      21.094  40.909  48.978  1.00  0.00    +0.000 C 
ATOM     55  C38 UNL A   1      22.209  41.907  48.814  1.00  0.00    +0.000 C 
ATOM     67  C45 UNL A   1      23.366  41.513  48.251  1.00  0.00    +0.000 C 
ATOM     68  C46 UNL A   1      24.538  42.358  48.039  1.00  0.00    +0.000 C 
ATOM     69  C47 UNL A   1      25.498  41.632  47.441  1.00  0.00    +0.000 C 
ATOM     70  C48 UNL A   1      25.018  40.262  47.258  1.00  0.00    +0.000 C 
ATOM     71  N6  UNL A   1      23.740  40.287  47.756  1.00  0.00    +0.000 N 
ATOM     72  C49 UNL A   1      19.858  41.398  49.606  1.00  0.00    +0.000 C 
ATOM     73  C50 UNL A   1      19.131  40.292  49.663  1.00  0.00    +0.000 C 
ATOM     74  C51 UNL A   1      25.085  35.858  45.799  1.00  0.00    +0.000 C 
ATOM     75  C52 UNL A   1      25.936  36.868  45.899  1.00  0.00    +0.000 C 
ATOM    112  H21 UNL A   1      20.447  33.757  47.296  1.00  0.00    +0.000 H 
ATOM    113  H22 UNL A   1      18.570  35.163  48.436  1.00  0.00    +0.000 H 
ATOM    114  H23 UNL A   1      21.802  37.648  47.716  1.00  0.00    +0.000 H 
ATOM    115  H24 UNL A   1      24.616  43.351  48.305  1.00  0.00    +0.000 H 
ATOM    116  H25 UNL A   1      26.425  41.986  47.157  1.00  0.00    +0.000 H 
ATOM    117  H26 UNL A   1      23.147  39.501  47.758  1.00  0.00    +0.000 H 
ATOM    118  H27 UNL A   1      19.620  42.352  49.918  1.00  0.00    +0.000 H 
ATOM    119  H28 UNL A   1      18.193  40.234  50.091  1.00  0.00    +0.000 H 
ATOM    120  H29 UNL A   1      25.293  34.964  45.328  1.00  0.00    +0.000 H 
ATOM    121  H30 UNL A   1      26.924  36.918  45.607  1.00  0.00    +0.000 H 
ENDROOT
BRANCH   19   18
ATOM     76  C53 UNL A   1      28.201  39.070  46.990  1.00  0.00    +0.000 C 
ATOM     77  C54 UNL A   1      29.502  39.338  46.573  1.00  0.00    +0.000 C 
ATOM    110  H19 UNL A   1      28.810  40.891  43.678  1.00  0.00    +0.000 H 
ATOM     15  C11 UNL A   1      29.726  39.956  45.338  1.00  0.00    +0.000 C 
ATOM     16  C12 UNL A   1      28.645  40.406  44.574  1.00  0.00    +0.000 C 
ATOM     17  C13 UNL A   1      27.341  40.198  45.027  1.00  0.00    +0.000 C 
ATOM    111  H20 UNL A   1      26.543  40.554  44.477  1.00  0.00    +0.000 H 
ATOM     18  C14 UNL A   1      27.108  39.508  46.228  1.00  0.00    +0.000 C 
ATOM    122  H31 UNL A   1      28.040  38.546  47.864  1.00  0.00    +0.000 H 
ATOM    123  H32 UNL A   1      30.301  39.081  47.174  1.00  0.00    +0.000 H 
BRANCH   15   13
ATOM     13  C10 UNL A   1      31.097  40.176  44.830  1.00  0.00    +0.000 C 
ATOM     14  O2  UNL A   1      31.520  39.493  43.903  1.00  0.00    +0.000 O 
BRANCH   13   12
ATOM     12  N2  UNL A   1      31.897  41.132  45.402  1.00  0.00    +0.000 N 
ATOM    109  H18 UNL A   1      31.973  41.976  44.900  1.00  0.00    +0.000 H 
BRANCH   12   11
ATOM     11  C9  UNL A   1      32.650  41.075  46.644  1.00  0.00    +0.000 C 
ATOM    108  H17 UNL A   1      33.692  41.087  46.398  1.00  0.00    +0.000 H 
ATOM    107  H16 UNL A   1      32.385  40.181  47.168  1.00  0.00    +0.000 H 
BRANCH   11   10
ATOM    105  H14 UNL A   1      32.925  42.153  48.447  1.00  0.00    +0.000 H 
ATOM     10  C8  UNL A   1      32.367  42.274  47.542  1.00  0.00    +0.000 C 
ATOM    106  H15 UNL A   1      32.652  43.143  46.987  1.00  0.00    +0.000 H 
BRANCH   10    9
ATOM      9  C7  UNL A   1      30.894  42.459  47.911  1.00  0.00    +0.000 C 
ATOM    103  H12 UNL A   1      30.380  41.545  47.699  1.00  0.00    +0.000 H 
ATOM    104  H13 UNL A   1      30.876  42.723  48.948  1.00  0.00    +0.000 H 
BRANCH    9    8
ATOM    101  H10 UNL A   1      30.232  44.472  47.774  1.00  0.00    +0.000 H 
ATOM    102  H11 UNL A   1      30.674  43.690  46.226  1.00  0.00    +0.000 H 
ATOM      8  C6  UNL A   1      30.178  43.592  47.168  1.00  0.00    +0.000 C 
BRANCH    8    7
ATOM     99  H8  UNL A   1      28.574  43.365  45.785  1.00  0.00    +0.000 H 
ATOM    100  H9  UNL A   1      28.461  42.366  47.255  1.00  0.00    +0.000 H 
ATOM      7  C5  UNL A   1      28.699  43.326  46.847  1.00  0.00    +0.000 C 
BRANCH    7    6
ATOM     97  H6  UNL A   1      27.865  45.286  47.016  1.00  0.00    +0.000 H 
ATOM     98  H7  UNL A   1      26.734  43.983  47.343  1.00  0.00    +0.000 H 
ATOM      6  C4  UNL A   1      27.736  44.331  47.484  1.00  0.00    +0.000 C 
BRANCH    6    5
ATOM      5  N1  UNL A   1      27.991  44.457  48.902  1.00  0.00    +0.000 N 
ATOM     96  H5  UNL A   1      28.906  44.732  49.141  1.00  0.00    +0.000 H 
BRANCH    5    3
ATOM      3  C3  UNL A   1      27.151  44.253  49.959  1.00  0.00    +0.000 C 
ATOM      4  O1  UNL A   1      26.069  44.842  49.930  1.00  0.00    +0.000 O 
BRANCH    3    2
ATOM      2  C2  UNL A   1      27.612  43.389  51.139  1.00  0.00    +0.000 C 
ATOM     95  H4  UNL A   1      27.345  43.928  52.024  1.00  0.00    +0.000 H 
BRANCH    2    1
ATOM      1  C1  UNL A   1      29.134  43.206  51.204  1.00  0.00    +0.000 C 
ATOM     92  H1  UNL A   1      29.587  44.117  51.535  1.00  0.00    +0.000 H 
ATOM     93  H2  UNL A   1      29.505  42.955  50.232  1.00  0.00    +0.000 H 
ATOM     94  H3  UNL A   1      29.370  42.420  51.890  1.00  0.00    +0.000 H 
ENDBRANCH    2    1
BRANCH    2   78
ATOM    137  H46 UNL A   1      26.973  38.974  49.807  1.00  0.00    +0.000 H 
ATOM     78  C55 UNL A   1      26.891  42.049  51.157  1.00  0.00    +0.000 C 
ATOM     79  C56 UNL A   1      25.782  41.865  51.994  1.00  0.00    +0.000 C 
ATOM     80  C57 UNL A   1      25.148  40.622  52.069  1.00  0.00    +0.000 C 
ATOM     81  C58 UNL A   1      25.623  39.531  51.331  1.00  0.00    +0.000 C 
ATOM     89  C65 UNL A   1      26.663  39.743  50.420  1.00  0.00    +0.000 C 
ATOM     90  C66 UNL A   1      27.282  40.986  50.338  1.00  0.00    +0.000 C 
ATOM     91  F16 UNL A   1      28.300  41.127  49.479  1.00  0.00    +0.000 F 
ATOM    124  H33 UNL A   1      25.430  42.654  52.558  1.00  0.00    +0.000 H 
ATOM    125  H34 UNL A   1      24.322  40.507  52.676  1.00  0.00    +0.000 H 
BRANCH   81   82
ATOM     82  C59 UNL A   1      25.054  38.149  51.520  1.00  0.00    +0.000 C 
ATOM    126  H35 UNL A   1      24.611  38.114  52.494  1.00  0.00    +0.000 H 
ATOM    127  H36 UNL A   1      25.882  37.489  51.371  1.00  0.00    +0.000 H 
BRANCH   82   83
ATOM    129  H38 UNL A   1      21.874  38.029  50.294  1.00  0.00    +0.000 H 
ATOM    130  H39 UNL A   1      22.452  38.284  51.904  1.00  0.00    +0.000 H 
ATOM    131  H40 UNL A   1      21.296  35.917  50.896  1.00  0.00    +0.000 H 
ATOM    132  H41 UNL A   1      22.073  36.076  52.431  1.00  0.00    +0.000 H 
ATOM    133  H42 UNL A   1      22.995  34.493  50.343  1.00  0.00    +0.000 H 
ATOM    134  H43 UNL A   1      23.978  34.987  51.660  1.00  0.00    +0.000 H 
ATOM    135  H44 UNL A   1      23.733  36.223  48.926  1.00  0.00    +0.000 H 
ATOM     83  C60 UNL A   1      23.984  37.672  50.508  1.00  0.00    +0.000 C 
ATOM     84  C61 UNL A   1      22.546  37.660  51.041  1.00  0.00    +0.000 C 
ATOM     85  C62 UNL A   1      22.206  36.204  51.378  1.00  0.00    +0.000 C 
ATOM     86  C63 UNL A   1      23.362  35.352  50.864  1.00  0.00    +0.000 C 
ATOM     87  C64 UNL A   1      24.132  36.266  49.917  1.00  0.00    +0.000 C 
ATOM    128  H37 UNL A   1      24.166  38.420  49.765  1.00  0.00    +0.000 H 
BRANCH   87   88
ATOM    136  H45 UNL A   1      25.646  35.796  48.760  1.00  0.00    +0.000 H 
ATOM     88  O3  UNL A   1      25.472  35.868  49.712  1.00  0.00    +0.000 O 
ENDBRANCH   87   88
ENDBRANCH   82   83
ENDBRANCH   81   82
ENDBRANCH    2   78
ENDBRANCH    3    2
ENDBRANCH    5    3
ENDBRANCH    6    5
ENDBRANCH    7    6
ENDBRANCH    8    7
ENDBRANCH    9    8
ENDBRANCH   10    9
ENDBRANCH   11   10
ENDBRANCH   12   11
ENDBRANCH   13   12
ENDBRANCH   15   13
ENDBRANCH   19   18
BRANCH   23   24
ATOM     33  C24 UNL A   1      22.383  33.551  44.815  1.00  0.00    +0.000 C 
ATOM     34  F5  UNL A   1      21.643  34.439  44.136  1.00  0.00    +0.000 F 
ATOM     24  C19 UNL A   1      22.990  33.915  46.027  1.00  0.00    +0.000 C 
ATOM     25  C20 UNL A   1      23.750  32.943  46.698  1.00  0.00    +0.000 C 
ATOM     26  F1  UNL A   1      24.360  33.243  47.854  1.00  0.00    +0.000 F 
ATOM     27  C21 UNL A   1      23.923  31.672  46.158  1.00  0.00    +0.000 C 
ATOM     28  F2  UNL A   1      24.698  30.778  46.790  1.00  0.00    +0.000 F 
ATOM     29  C22 UNL A   1      23.311  31.333  44.962  1.00  0.00    +0.000 C 
ATOM     30  F3  UNL A   1      23.477  30.108  44.444  1.00  0.00    +0.000 F 
ATOM     31  C23 UNL A   1      22.535  32.268  44.294  1.00  0.00    +0.000 C 
ATOM     32  F4  UNL A   1      21.933  31.939  43.143  1.00  0.00    +0.000 F 
ENDBRANCH   23   24
BRANCH   40   41
ATOM     41  C30 UNL A   1      17.926  37.702  49.500  1.00  0.00    +0.000 C 
ATOM     42  C31 UNL A   1      17.697  37.715  50.883  1.00  0.00    +0.000 C 
ATOM     43  F6  UNL A   1      18.719  37.891  51.735  1.00  0.00    +0.000 F 
ATOM     44  C32 UNL A   1      16.421  37.505  51.398  1.00  0.00    +0.000 C 
ATOM     45  F7  UNL A   1      16.233  37.473  52.725  1.00  0.00    +0.000 F 
ATOM     46  C33 UNL A   1      15.346  37.312  50.542  1.00  0.00    +0.000 C 
ATOM     47  F8  UNL A   1      14.119  37.114  51.040  1.00  0.00    +0.000 F 
ATOM     48  C34 UNL A   1      15.547  37.316  49.170  1.00  0.00    +0.000 C 
ATOM     49  F9  UNL A   1      14.509  37.142  48.341  1.00  0.00    +0.000 F 
ATOM     50  C35 UNL A   1      16.827  37.496  48.652  1.00  0.00    +0.000 C 
ATOM     51  F10 UNL A   1      16.992  37.481  47.322  1.00  0.00    +0.000 F 
ENDBRANCH   40   41
BRANCH   55   56
ATOM     65  C44 UNL A   1      21.705  44.347  48.443  1.00  0.00    +0.000 C 
ATOM     66  F15 UNL A   1      21.499  44.105  47.141  1.00  0.00    +0.000 F 
ATOM     56  C39 UNL A   1      22.060  43.300  49.305  1.00  0.00    +0.000 C 
ATOM     57  C40 UNL A   1      22.269  43.608  50.657  1.00  0.00    +0.000 C 
ATOM     58  F11 UNL A   1      22.589  42.636  51.524  1.00  0.00    +0.000 F 
ATOM     59  C41 UNL A   1      22.110  44.908  51.132  1.00  0.00    +0.000 C 
ATOM     60  F12 UNL A   1      22.273  45.167  52.437  1.00  0.00    +0.000 F 
ATOM     61  C42 UNL A   1      21.767  45.930  50.259  1.00  0.00    +0.000 C 
ATOM     62  F13 UNL A   1      21.617  47.181  50.715  1.00  0.00    +0.000 F 
ATOM     63  C43 UNL A   1      21.572  45.651  48.914  1.00  0.00    +0.000 C 
ATOM     64  F14 UNL A   1      21.254  46.639  48.066  1.00  0.00    +0.000 F 
ENDBRANCH   55   56
TORSDOF 20
ENDMDL
MODEL 10
REMARK VINA RESULT:      -9.5     33.505     41.997
ROOT
ATOM     19  C15 UNL A   1       2.387  11.008  37.918  1.00  0.00    +0.000 C 
ATOM     20  C16 UNL A   1       3.411   9.915  38.051  1.00  0.00    +0.000 C 
ATOM     21  N3  UNL A   1       3.348   8.667  37.661  1.00  0.00    +0.000 N 
ATOM     22  C17 UNL A   1       4.578   8.109  37.981  1.00  0.00    +0.000 C 
ATOM     23  C18 UNL A   1       4.989   6.826  37.836  1.00  0.00    +0.000 C 
ATOM     35  C25 UNL A   1       4.170   5.770  37.300  1.00  0.00    +0.000 C 
ATOM     36  C26 UNL A   1       4.466   4.425  37.175  1.00  0.00    +0.000 C 
ATOM     37  C27 UNL A   1       3.380   3.792  36.561  1.00  0.00    +0.000 C 
ATOM     38  C28 UNL A   1       2.388   4.734  36.346  1.00  0.00    +0.000 C 
ATOM     39  N4  UNL A   1       2.887   5.944  36.800  1.00  0.00    +0.000 N 
ATOM     40  C29 UNL A   1       1.081   4.547  35.768  1.00  0.00    +0.000 C 
ATOM     52  C36 UNL A   1       0.160   5.525  35.595  1.00  0.00    +0.000 C 
ATOM     53  N5  UNL A   1       0.244   6.871  35.924  1.00  0.00    +0.000 N 
ATOM     54  C37 UNL A   1      -0.894   7.405  35.551  1.00  0.00    +0.000 C 
ATOM     55  C38 UNL A   1      -1.372   8.825  35.696  1.00  0.00    +0.000 C 
ATOM     67  C45 UNL A   1      -0.568   9.733  36.280  1.00  0.00    +0.000 C 
ATOM     68  C46 UNL A   1      -0.896  11.138  36.503  1.00  0.00    +0.000 C 
ATOM     69  C47 UNL A   1       0.148  11.742  37.096  1.00  0.00    +0.000 C 
ATOM     70  C48 UNL A   1       1.206  10.757  37.323  1.00  0.00    +0.000 C 
ATOM     71  N6  UNL A   1       0.698   9.596  36.795  1.00  0.00    +0.000 N 
ATOM     72  C49 UNL A   1      -1.819   6.459  34.911  1.00  0.00    +0.000 C 
ATOM     73  C50 UNL A   1      -1.145   5.322  35.001  1.00  0.00    +0.000 C 
ATOM     74  C51 UNL A   1       5.387   9.165  38.551  1.00  0.00    +0.000 C 
ATOM     75  C52 UNL A   1       4.689  10.283  38.682  1.00  0.00    +0.000 C 
ATOM    112  H21 UNL A   1       5.340   3.967  37.481  1.00  0.00    +0.000 H 
ATOM    113  H22 UNL A   1       3.328   2.792  36.310  1.00  0.00    +0.000 H 
ATOM    114  H23 UNL A   1       2.403   6.801  36.772  1.00  0.00    +0.000 H 
ATOM    115  H24 UNL A   1      -1.785  11.593  36.247  1.00  0.00    +0.000 H 
ATOM    116  H25 UNL A   1       0.195  12.741  37.351  1.00  0.00    +0.000 H 
ATOM    117  H26 UNL A   1       1.195   8.745  36.786  1.00  0.00    +0.000 H 
ATOM    118  H27 UNL A   1      -2.749   6.636  34.499  1.00  0.00    +0.000 H 
ATOM    119  H28 UNL A   1      -1.505   4.407  34.688  1.00  0.00    +0.000 H 
ATOM    120  H29 UNL A   1       6.378   9.060  38.819  1.00  0.00    +0.000 H 
ATOM    121  H30 UNL A   1       4.968  11.177  39.113  1.00  0.00    +0.000 H 
ENDROOT
BRANCH   19   18
ATOM     76  C53 UNL A   1       2.415  12.738  39.716  1.00  0.00    +0.000 C 
ATOM     77  C54 UNL A   1       2.658  14.035  40.161  1.00  0.00    +0.000 C 
ATOM    110  H19 UNL A   1       3.987  15.307  37.354  1.00  0.00    +0.000 H 
ATOM     15  C11 UNL A   1       3.280  14.958  39.315  1.00  0.00    +0.000 C 
ATOM     16  C12 UNL A   1       3.557  14.616  37.987  1.00  0.00    +0.000 C 
ATOM     17  C13 UNL A   1       3.250  13.336  37.523  1.00  0.00    +0.000 C 
ATOM    111  H20 UNL A   1       3.429  13.091  36.536  1.00  0.00    +0.000 H 
ATOM     18  C14 UNL A   1       2.696  12.380  38.389  1.00  0.00    +0.000 C 
ATOM    122  H31 UNL A   1       2.026  12.037  40.366  1.00  0.00    +0.000 H 
ATOM    123  H32 UNL A   1       2.378  14.315  41.114  1.00  0.00    +0.000 H 
BRANCH   15   13
ATOM     13  C10 UNL A   1       3.628  16.316  39.786  1.00  0.00    +0.000 C 
ATOM     14  O2  UNL A   1       3.017  17.287  39.352  1.00  0.00    +0.000 O 
BRANCH   13   12
ATOM     12  N2  UNL A   1       4.640  16.490  40.696  1.00  0.00    +0.000 N 
ATOM    109  H18 UNL A   1       4.521  17.240  41.322  1.00  0.00    +0.000 H 
BRANCH   12   11
ATOM     11  C9  UNL A   1       5.863  15.724  40.865  1.00  0.00    +0.000 C 
ATOM    108  H17 UNL A   1       6.685  16.410  40.859  1.00  0.00    +0.000 H 
ATOM    107  H16 UNL A   1       5.942  15.017  40.066  1.00  0.00    +0.000 H 
BRANCH   11   10
ATOM    105  H14 UNL A   1       6.560  15.483  42.852  1.00  0.00    +0.000 H 
ATOM     10  C8  UNL A   1       5.891  14.972  42.191  1.00  0.00    +0.000 C 
ATOM    106  H15 UNL A   1       4.883  14.950  42.549  1.00  0.00    +0.000 H 
BRANCH   10    9
ATOM      9  C7  UNL A   1       6.346  13.514  42.087  1.00  0.00    +0.000 C 
ATOM    103  H12 UNL A   1       7.384  13.470  42.343  1.00  0.00    +0.000 H 
ATOM    104  H13 UNL A   1       5.722  12.957  42.754  1.00  0.00    +0.000 H 
BRANCH    9    8
ATOM    101  H10 UNL A   1       5.247  12.336  40.704  1.00  0.00    +0.000 H 
ATOM    102  H11 UNL A   1       6.191  13.684  40.000  1.00  0.00    +0.000 H 
ATOM      8  C6  UNL A   1       6.169  12.878  40.704  1.00  0.00    +0.000 C 
BRANCH    8    7
ATOM     99  H8  UNL A   1       7.811  11.601  41.163  1.00  0.00    +0.000 H 
ATOM    100  H9  UNL A   1       6.819  11.098  39.773  1.00  0.00    +0.000 H 
ATOM      7  C5  UNL A   1       7.288  11.914  40.284  1.00  0.00    +0.000 C 
BRANCH    7    6
ATOM     97  H6  UNL A   1       8.475  13.544  39.580  1.00  0.00    +0.000 H 
ATOM     98  H7  UNL A   1       9.211  11.965  39.367  1.00  0.00    +0.000 H 
ATOM      6  C4  UNL A   1       8.300  12.523  39.311  1.00  0.00    +0.000 C 
BRANCH    6    5
ATOM      5  N1  UNL A   1       7.803  12.468  37.954  1.00  0.00    +0.000 N 
ATOM     96  H5  UNL A   1       7.924  11.604  37.497  1.00  0.00    +0.000 H 
BRANCH    5    3
ATOM      3  C3  UNL A   1       7.188  13.435  37.212  1.00  0.00    +0.000 C 
ATOM      4  O1  UNL A   1       6.735  14.402  37.827  1.00  0.00    +0.000 O 
BRANCH    3    2
ATOM      2  C2  UNL A   1       7.021  13.241  35.700  1.00  0.00    +0.000 C 
ATOM     95  H4  UNL A   1       5.967  13.224  35.517  1.00  0.00    +0.000 H 
BRANCH    2    1
ATOM      1  C1  UNL A   1       7.556  11.895  35.194  1.00  0.00    +0.000 C 
ATOM     92  H1  UNL A   1       6.830  11.443  34.551  1.00  0.00    +0.000 H 
ATOM     93  H2  UNL A   1       7.744  11.251  36.027  1.00  0.00    +0.000 H 
ATOM     94  H3  UNL A   1       8.464  12.053  34.652  1.00  0.00    +0.000 H 
ENDBRANCH    2    1
BRANCH    2   78
ATOM    137  H46 UNL A   1       7.104  16.354  32.238  1.00  0.00    +0.000 H 
ATOM     78  C55 UNL A   1       7.623  14.404  34.925  1.00  0.00    +0.000 C 
ATOM     79  C56 UNL A   1       8.813  14.997  35.369  1.00  0.00    +0.000 C 
ATOM     80  C57 UNL A   1       9.343  16.106  34.705  1.00  0.00    +0.000 C 
ATOM     81  C58 UNL A   1       8.685  16.663  33.602  1.00  0.00    +0.000 C 
ATOM     89  C65 UNL A   1       7.555  16.009  33.099  1.00  0.00    +0.000 C 
ATOM     90  C66 UNL A   1       7.038  14.896  33.755  1.00  0.00    +0.000 C 
ATOM     91  F16 UNL A   1       5.931  14.330  33.256  1.00  0.00    +0.000 F 
ATOM    124  H33 UNL A   1       9.302  14.611  36.191  1.00  0.00    +0.000 H 
ATOM    125  H34 UNL A   1      10.230  16.520  35.032  1.00  0.00    +0.000 H 
BRANCH   81   82
ATOM     82  C59 UNL A   1       9.155  17.950  32.975  1.00  0.00    +0.000 C 
ATOM    126  H35 UNL A   1      10.014  18.279  33.522  1.00  0.00    +0.000 H 
ATOM    127  H36 UNL A   1       8.308  18.601  33.019  1.00  0.00    +0.000 H 
BRANCH   82   83
ATOM    129  H38 UNL A   1       9.949  16.327  30.083  1.00  0.00    +0.000 H 
ATOM    130  H39 UNL A   1      10.167  15.860  31.734  1.00  0.00    +0.000 H 
ATOM    131  H40 UNL A   1      12.173  16.774  29.974  1.00  0.00    +0.000 H 
ATOM    132  H41 UNL A   1      12.367  16.533  31.675  1.00  0.00    +0.000 H 
ATOM    133  H42 UNL A   1      12.508  18.994  30.395  1.00  0.00    +0.000 H 
ATOM    134  H43 UNL A   1      12.257  18.820  32.083  1.00  0.00    +0.000 H 
ATOM    135  H44 UNL A   1      10.217  19.240  29.910  1.00  0.00    +0.000 H 
ATOM     83  C60 UNL A   1       9.546  17.914  31.478  1.00  0.00    +0.000 C 
ATOM     84  C61 UNL A   1      10.308  16.657  31.036  1.00  0.00    +0.000 C 
ATOM     85  C62 UNL A   1      11.787  17.043  30.935  1.00  0.00    +0.000 C 
ATOM     86  C63 UNL A   1      11.862  18.554  31.125  1.00  0.00    +0.000 C 
ATOM     87  C64 UNL A   1      10.430  19.044  30.940  1.00  0.00    +0.000 C 
ATOM    128  H37 UNL A   1       8.555  17.983  31.082  1.00  0.00    +0.000 H 
BRANCH   87   88
ATOM    136  H45 UNL A   1       9.380  20.689  31.149  1.00  0.00    +0.000 H 
ATOM     88  O3  UNL A   1      10.181  20.300  31.536  1.00  0.00    +0.000 O 
ENDBRANCH   87   88
ENDBRANCH   82   83
ENDBRANCH   81   82
ENDBRANCH    2   78
ENDBRANCH    3    2
ENDBRANCH    5    3
ENDBRANCH    6    5
ENDBRANCH    7    6
ENDBRANCH    8    7
ENDBRANCH    9    8
ENDBRANCH   10    9
ENDBRANCH   11   10
ENDBRANCH   12   11
ENDBRANCH   13   12
ENDBRANCH   15   13
ENDBRANCH   19   18
BRANCH   23   24
ATOM     33  C24 UNL A   1       7.483   6.869  37.470  1.00  0.00    +0.000 C 
ATOM     34  F5  UNL A   1       7.291   7.543  36.326  1.00  0.00    +0.000 F 
ATOM     24  C19 UNL A   1       6.389   6.494  38.263  1.00  0.00    +0.000 C 
ATOM     25  C20 UNL A   1       6.649   5.787  39.448  1.00  0.00    +0.000 C 
ATOM     26  F1  UNL A   1       5.639   5.415  40.248  1.00  0.00    +0.000 F 
ATOM     27  C21 UNL A   1       7.954   5.498  39.837  1.00  0.00    +0.000 C 
ATOM     28  F2  UNL A   1       8.180   4.869  41.000  1.00  0.00    +0.000 F 
ATOM     29  C22 UNL A   1       9.020   5.875  39.036  1.00  0.00    +0.000 C 
ATOM     30  F3  UNL A   1      10.276   5.594  39.411  1.00  0.00    +0.000 F 
ATOM     31  C23 UNL A   1       8.786   6.552  37.848  1.00  0.00    +0.000 C 
ATOM     32  F4  UNL A   1       9.814   6.907  37.066  1.00  0.00    +0.000 F 
ENDBRANCH   23   24
BRANCH   40   41
ATOM     41  C30 UNL A   1       0.694   3.159  35.350  1.00  0.00    +0.000 C 
ATOM     42  C31 UNL A   1       1.123   2.610  34.133  1.00  0.00    +0.000 C 
ATOM     43  F6  UNL A   1       1.862   3.343  33.285  1.00  0.00    +0.000 F 
ATOM     44  C32 UNL A   1       0.758   1.319  33.762  1.00  0.00    +0.000 C 
ATOM     45  F7  UNL A   1       1.138   0.832  32.573  1.00  0.00    +0.000 F 
ATOM     46  C33 UNL A   1      -0.013   0.541  34.614  1.00  0.00    +0.000 C 
ATOM     47  F8  UNL A   1      -0.359  -0.703  34.258  1.00  0.00    +0.000 F 
ATOM     48  C34 UNL A   1      -0.430   1.057  35.832  1.00  0.00    +0.000 C 
ATOM     49  F9  UNL A   1      -1.164   0.303  36.663  1.00  0.00    +0.000 F 
ATOM     50  C35 UNL A   1      -0.091   2.358  36.192  1.00  0.00    +0.000 C 
ATOM     51  F10 UNL A   1      -0.521   2.834  37.370  1.00  0.00    +0.000 F 
ENDBRANCH   40   41
BRANCH   55   56
ATOM     65  C44 UNL A   1      -2.951   9.752  33.965  1.00  0.00    +0.000 C 
ATOM     66  F15 UNL A   1      -1.923   9.924  33.122  1.00  0.00    +0.000 F 
ATOM     56  C39 UNL A   1      -2.730   9.220  35.243  1.00  0.00    +0.000 C 
ATOM     57  C40 UNL A   1      -3.838   9.065  36.088  1.00  0.00    +0.000 C 
ATOM     58  F11 UNL A   1      -3.679   8.540  37.312  1.00  0.00    +0.000 F 
ATOM     59  C41 UNL A   1      -5.119   9.412  35.665  1.00  0.00    +0.000 C 
ATOM     60  F12 UNL A   1      -6.167   9.214  36.477  1.00  0.00    +0.000 F 
ATOM     61  C42 UNL A   1      -5.313   9.946  34.399  1.00  0.00    +0.000 C 
ATOM     62  F13 UNL A   1      -6.545  10.281  33.993  1.00  0.00    +0.000 F 
ATOM     63  C43 UNL A   1      -4.229  10.122  33.553  1.00  0.00    +0.000 C 
ATOM     64  F14 UNL A   1      -4.410  10.650  32.334  1.00  0.00    +0.000 F 
ENDBRANCH   55   56
TORSDOF 20
ENDMDL
