MODEL 1
REMARK VINA RESULT:     -10.5      0.000      0.000
ROOT
ATOM     19  C15 UNL A   1      21.194  38.402  49.176  1.00  0.00    +0.000 C 
ATOM     20  C16 UNL A   1      22.006  39.662  49.276  1.00  0.00    +0.000 C 
ATOM     21  N3  UNL A   1      23.178  39.938  48.758  1.00  0.00    +0.000 N 
ATOM     22  C17 UNL A   1      23.447  41.254  49.110  1.00  0.00    +0.000 C 
ATOM     23  C18 UNL A   1      24.561  41.984  48.865  1.00  0.00    +0.000 C 
ATOM     35  C25 UNL A   1      25.718  41.484  48.171  1.00  0.00    +0.000 C 
ATOM     36  C26 UNL A   1      26.927  42.117  47.938  1.00  0.00    +0.000 C 
ATOM     37  C27 UNL A   1      27.735  41.256  47.188  1.00  0.00    +0.000 C 
ATOM     38  C28 UNL A   1      27.047  40.068  46.993  1.00  0.00    +0.000 C 
ATOM     39  N4  UNL A   1      25.811  40.224  47.598  1.00  0.00    +0.000 N 
ATOM     40  C29 UNL A   1      27.485  38.880  46.308  1.00  0.00    +0.000 C 
ATOM     52  C36 UNL A   1      26.748  37.751  46.158  1.00  0.00    +0.000 C 
ATOM     53  N5  UNL A   1      25.468  37.477  46.620  1.00  0.00    +0.000 N 
ATOM     54  C37 UNL A   1      25.192  36.261  46.217  1.00  0.00    +0.000 C 
ATOM     55  C38 UNL A   1      23.959  35.434  46.462  1.00  0.00    +0.000 C 
ATOM     67  C45 UNL A   1      22.952  35.954  47.189  1.00  0.00    +0.000 C 
ATOM     68  C46 UNL A   1      21.706  35.272  47.526  1.00  0.00    +0.000 C 
ATOM     69  C47 UNL A   1      20.938  36.096  48.256  1.00  0.00    +0.000 C 
ATOM     70  C48 UNL A   1      21.652  37.356  48.463  1.00  0.00    +0.000 C 
ATOM     71  N6  UNL A   1      22.830  37.188  47.780  1.00  0.00    +0.000 N 
ATOM     72  C49 UNL A   1      26.258  35.636  45.422  1.00  0.00    +0.000 C 
ATOM     73  C50 UNL A   1      27.198  36.569  45.453  1.00  0.00    +0.000 C 
ATOM     74  C51 UNL A   1      22.298  41.739  49.842  1.00  0.00    +0.000 C 
ATOM     75  C52 UNL A   1      21.412  40.774  50.035  1.00  0.00    +0.000 C 
ATOM    112  H21 UNL A   1      27.188  43.062  48.262  1.00  0.00    +0.000 H 
ATOM    113  H22 UNL A   1      28.683  41.468  46.838  1.00  0.00    +0.000 H 
ATOM    114  H23 UNL A   1      25.101  39.541  47.618  1.00  0.00    +0.000 H 
ATOM    115  H24 UNL A   1      21.456  34.310  47.247  1.00  0.00    +0.000 H 
ATOM    116  H25 UNL A   1      19.995  35.876  48.614  1.00  0.00    +0.000 H 
ATOM    117  H26 UNL A   1      23.523  37.886  47.718  1.00  0.00    +0.000 H 
ATOM    118  H27 UNL A   1      26.270  34.713  44.960  1.00  0.00    +0.000 H 
ATOM    119  H28 UNL A   1      28.133  36.467  45.028  1.00  0.00    +0.000 H 
ATOM    120  H29 UNL A   1      22.184  42.711  50.172  1.00  0.00    +0.000 H 
ATOM    121  H30 UNL A   1      20.533  40.796  50.576  1.00  0.00    +0.000 H 
ENDROOT
BRANCH   19   18
ATOM     76  C53 UNL A   1      19.735  37.794  51.110  1.00  0.00    +0.000 C 
ATOM     77  C54 UNL A   1      18.480  37.658  51.698  1.00  0.00    +0.000 C 
ATOM    110  H19 UNL A   1      16.613  39.012  49.260  1.00  0.00    +0.000 H 
ATOM     15  C11 UNL A   1      17.345  38.146  51.043  1.00  0.00    +0.000 C 
ATOM     16  C12 UNL A   1      17.455  38.676  49.754  1.00  0.00    +0.000 C 
ATOM     17  C13 UNL A   1      18.705  38.750  49.137  1.00  0.00    +0.000 C 
ATOM    111  H20 UNL A   1      18.781  39.118  48.176  1.00  0.00    +0.000 H 
ATOM     18  C14 UNL A   1      19.857  38.326  49.817  1.00  0.00    +0.000 C 
ATOM    122  H31 UNL A   1      20.580  37.504  51.628  1.00  0.00    +0.000 H 
ATOM    123  H32 UNL A   1      18.388  37.196  52.616  1.00  0.00    +0.000 H 
BRANCH   15   13
ATOM     13  C10 UNL A   1      16.009  38.078  51.673  1.00  0.00    +0.000 C 
ATOM     14  O2  UNL A   1      15.914  37.867  52.880  1.00  0.00    +0.000 O 
BRANCH   13   12
ATOM     12  N2  UNL A   1      14.880  38.236  50.913  1.00  0.00    +0.000 N 
ATOM    109  H18 UNL A   1      14.733  39.143  50.556  1.00  0.00    +0.000 H 
BRANCH   12   11
ATOM     11  C9  UNL A   1      13.868  37.256  50.559  1.00  0.00    +0.000 C 
ATOM    108  H17 UNL A   1      12.909  37.679  50.776  1.00  0.00    +0.000 H 
ATOM    107  H16 UNL A   1      14.038  36.365  51.127  1.00  0.00    +0.000 H 
BRANCH   11   10
ATOM    105  H14 UNL A   1      13.055  36.287  48.860  1.00  0.00    +0.000 H 
ATOM     10  C8  UNL A   1      13.901  36.906  49.075  1.00  0.00    +0.000 C 
ATOM    106  H15 UNL A   1      13.888  37.835  48.545  1.00  0.00    +0.000 H 
BRANCH   10    9
ATOM      9  C7  UNL A   1      15.160  36.165  48.621  1.00  0.00    +0.000 C 
ATOM    103  H12 UNL A   1      15.945  36.388  49.313  1.00  0.00    +0.000 H 
ATOM    104  H13 UNL A   1      14.901  35.128  48.589  1.00  0.00    +0.000 H 
BRANCH    9    8
ATOM    101  H10 UNL A   1      15.050  35.994  46.508  1.00  0.00    +0.000 H 
ATOM    102  H11 UNL A   1      15.569  37.589  47.134  1.00  0.00    +0.000 H 
ATOM      8  C6  UNL A   1      15.652  36.525  47.215  1.00  0.00    +0.000 C 
BRANCH    8    7
ATOM     99  H8  UNL A   1      17.701  37.081  47.061  1.00  0.00    +0.000 H 
ATOM    100  H9  UNL A   1      17.399  35.415  47.617  1.00  0.00    +0.000 H 
ATOM      7  C5  UNL A   1      17.123  36.190  46.933  1.00  0.00    +0.000 C 
BRANCH    7    6
ATOM     97  H6  UNL A   1      16.681  34.864  45.320  1.00  0.00    +0.000 H 
ATOM     98  H7  UNL A   1      17.264  36.447  44.825  1.00  0.00    +0.000 H 
ATOM      6  C4  UNL A   1      17.380  35.648  45.527  1.00  0.00    +0.000 C 
BRANCH    6    5
ATOM      5  N1  UNL A   1      18.724  35.125  45.414  1.00  0.00    +0.000 N 
ATOM     96  H5  UNL A   1      19.435  35.730  45.727  1.00  0.00    +0.000 H 
BRANCH    5    3
ATOM      3  C3  UNL A   1      19.159  33.920  44.941  1.00  0.00    +0.000 C 
ATOM      4  O1  UNL A   1      19.600  33.907  43.790  1.00  0.00    +0.000 O 
BRANCH    3    2
ATOM      2  C2  UNL A   1      19.010  32.662  45.811  1.00  0.00    +0.000 C 
ATOM     95  H4  UNL A   1      18.301  32.929  46.567  1.00  0.00    +0.000 H 
BRANCH    2    1
ATOM      1  C1  UNL A   1      20.297  32.259  46.536  1.00  0.00    +0.000 C 
ATOM     92  H1  UNL A   1      20.412  31.196  46.494  1.00  0.00    +0.000 H 
ATOM     93  H2  UNL A   1      20.245  32.572  47.558  1.00  0.00    +0.000 H 
ATOM     94  H3  UNL A   1      21.135  32.727  46.063  1.00  0.00    +0.000 H 
ENDBRANCH    2    1
BRANCH    2   78
ATOM    136  H45 UNL A   1      15.725  30.442  43.383  1.00  0.00    +0.000 H 
ATOM     78  C55 UNL A   1      18.465  31.487  45.018  1.00  0.00    +0.000 C 
ATOM     79  C56 UNL A   1      19.263  30.363  44.787  1.00  0.00    +0.000 C 
ATOM     80  C57 UNL A   1      18.771  29.285  44.040  1.00  0.00    +0.000 C 
ATOM     81  C58 UNL A   1      17.467  29.266  43.538  1.00  0.00    +0.000 C 
ATOM     89  C64 UNL A   1      16.684  30.403  43.764  1.00  0.00    +0.000 C 
ATOM     90  C65 UNL A   1      17.172  31.486  44.493  1.00  0.00    +0.000 C 
ATOM     91  F16 UNL A   1      16.374  32.551  44.661  1.00  0.00    +0.000 F 
ATOM    124  H33 UNL A   1      20.221  30.327  45.170  1.00  0.00    +0.000 H 
ATOM    125  H34 UNL A   1      19.392  28.481  43.855  1.00  0.00    +0.000 H 
BRANCH   81   82
ATOM     82  N7  UNL A   1      16.943  28.260  42.747  1.00  0.00    +0.000 N 
ATOM    126  H35 UNL A   1      17.526  27.938  42.021  1.00  0.00    +0.000 H 
BRANCH   82   83
ATOM    129  H38 UNL A   1      14.314  27.829  41.145  1.00  0.00    +0.000 H 
ATOM    130  H39 UNL A   1      15.124  25.003  41.393  1.00  0.00    +0.000 H 
ATOM    131  H40 UNL A   1      13.525  25.629  41.296  1.00  0.00    +0.000 H 
ATOM    132  H41 UNL A   1      14.383  24.629  43.603  1.00  0.00    +0.000 H 
ATOM    133  H42 UNL A   1      13.442  26.049  43.671  1.00  0.00    +0.000 H 
ATOM    134  H43 UNL A   1      16.485  25.821  43.775  1.00  0.00    +0.000 H 
ATOM     83  C59 UNL A   1      15.638  27.615  42.849  1.00  0.00    +0.000 C 
ATOM     84  C60 UNL A   1      15.056  27.151  41.511  1.00  0.00    +0.000 C 
ATOM     85  C61 UNL A   1      14.473  25.761  41.776  1.00  0.00    +0.000 C 
ATOM     86  C62 UNL A   1      14.360  25.651  43.290  1.00  0.00    +0.000 C 
ATOM     87  C63 UNL A   1      15.586  26.402  43.790  1.00  0.00    +0.000 C 
ATOM    127  H36 UNL A   1      15.050  28.412  43.255  1.00  0.00    +0.000 H 
ATOM    128  H37 UNL A   1      15.824  27.098  40.768  1.00  0.00    +0.000 H 
BRANCH   87   88
ATOM    135  H44 UNL A   1      14.537  27.130  45.289  1.00  0.00    +0.000 H 
ATOM     88  O3  UNL A   1      15.432  26.786  45.149  1.00  0.00    +0.000 O 
ENDBRANCH   87   88
ENDBRANCH   82   83
ENDBRANCH   81   82
ENDBRANCH    2   78
ENDBRANCH    3    2
ENDBRANCH    5    3
ENDBRANCH    6    5
ENDBRANCH    7    6
ENDBRANCH    8    7
ENDBRANCH    9    8
ENDBRANCH   10    9
ENDBRANCH   11   10
ENDBRANCH   12   11
ENDBRANCH   13   12
ENDBRANCH   15   13
ENDBRANCH   19   18
BRANCH   23   24
ATOM     33  C24 UNL A   1      25.016  43.705  50.649  1.00  0.00    +0.000 C 
ATOM     34  F5  UNL A   1      25.436  42.728  51.466  1.00  0.00    +0.000 F 
ATOM     24  C19 UNL A   1      24.580  43.404  49.350  1.00  0.00    +0.000 C 
ATOM     25  C20 UNL A   1      24.147  44.467  48.541  1.00  0.00    +0.000 C 
ATOM     26  F1  UNL A   1      23.732  44.234  47.286  1.00  0.00    +0.000 F 
ATOM     27  C21 UNL A   1      24.182  45.780  49.003  1.00  0.00    +0.000 C 
ATOM     28  F2  UNL A   1      23.815  46.782  48.193  1.00  0.00    +0.000 F 
ATOM     29  C22 UNL A   1      24.614  46.053  50.292  1.00  0.00    +0.000 C 
ATOM     30  F3  UNL A   1      24.644  47.317  50.735  1.00  0.00    +0.000 F 
ATOM     31  C23 UNL A   1      25.022  45.017  51.117  1.00  0.00    +0.000 C 
ATOM     32  F4  UNL A   1      25.427  45.279  52.368  1.00  0.00    +0.000 F 
ENDBRANCH   23   24
BRANCH   40   41
ATOM     41  C30 UNL A   1      28.871  38.874  45.733  1.00  0.00    +0.000 C 
ATOM     42  C31 UNL A   1      29.920  38.173  46.345  1.00  0.00    +0.000 C 
ATOM     43  F6  UNL A   1      29.713  37.519  47.498  1.00  0.00    +0.000 F 
ATOM     44  C32 UNL A   1      31.199  38.176  45.795  1.00  0.00    +0.000 C 
ATOM     45  F7  UNL A   1      32.198  37.540  46.422  1.00  0.00    +0.000 F 
ATOM     46  C33 UNL A   1      31.445  38.849  44.607  1.00  0.00    +0.000 C 
ATOM     47  F8  UNL A   1      32.675  38.848  44.077  1.00  0.00    +0.000 F 
ATOM     48  C34 UNL A   1      30.417  39.532  43.974  1.00  0.00    +0.000 C 
ATOM     49  F9  UNL A   1      30.649  40.174  42.821  1.00  0.00    +0.000 F 
ATOM     50  C35 UNL A   1      29.144  39.555  44.537  1.00  0.00    +0.000 C 
ATOM     51  F10 UNL A   1      28.173  40.236  43.909  1.00  0.00    +0.000 F 
ENDBRANCH   40   41
BRANCH   55   56
ATOM     65  C44 UNL A   1      24.461  32.971  46.631  1.00  0.00    +0.000 C 
ATOM     66  F15 UNL A   1      25.145  33.189  47.763  1.00  0.00    +0.000 F 
ATOM     56  C39 UNL A   1      23.864  34.042  45.953  1.00  0.00    +0.000 C 
ATOM     57  C40 UNL A   1      23.163  33.761  44.772  1.00  0.00    +0.000 C 
ATOM     58  F11 UNL A   1      22.558  34.751  44.100  1.00  0.00    +0.000 F 
ATOM     59  C41 UNL A   1      23.047  32.455  44.298  1.00  0.00    +0.000 C 
ATOM     60  F12 UNL A   1      22.336  32.209  43.189  1.00  0.00    +0.000 F 
ATOM     61  C42 UNL A   1      23.653  31.411  44.979  1.00  0.00    +0.000 C 
ATOM     62  F13 UNL A   1      23.545  30.158  44.523  1.00  0.00    +0.000 F 
ATOM     63  C43 UNL A   1      24.365  31.669  46.142  1.00  0.00    +0.000 C 
ATOM     64  F14 UNL A   1      24.963  30.664  46.796  1.00  0.00    +0.000 F 
ENDBRANCH   55   56
TORSDOF 20
ENDMDL
MODEL 2
REMARK VINA RESULT:      -9.9     40.823     47.733
ROOT
ATOM     19  C15 UNL A   1      21.715  16.035   8.699  1.00  0.00    +0.000 C 
ATOM     20  C16 UNL A   1      21.933  14.592   8.340  1.00  0.00    +0.000 C 
ATOM     21  N3  UNL A   1      21.228  13.817   7.553  1.00  0.00    +0.000 N 
ATOM     22  C17 UNL A   1      21.894  12.599   7.528  1.00  0.00    +0.000 C 
ATOM     23  C18 UNL A   1      21.533  11.451   6.904  1.00  0.00    +0.000 C 
ATOM     35  C25 UNL A   1      20.329  11.295   6.133  1.00  0.00    +0.000 C 
ATOM     36  C26 UNL A   1      19.834  10.154   5.526  1.00  0.00    +0.000 C 
ATOM     37  C27 UNL A   1      18.654  10.491   4.855  1.00  0.00    +0.000 C 
ATOM     38  C28 UNL A   1      18.390  11.833   5.081  1.00  0.00    +0.000 C 
ATOM     39  N4  UNL A   1      19.427  12.314   5.864  1.00  0.00    +0.000 N 
ATOM     40  C29 UNL A   1      17.274  12.619   4.620  1.00  0.00    +0.000 C 
ATOM     52  C36 UNL A   1      17.085  13.935   4.887  1.00  0.00    +0.000 C 
ATOM     53  N5  UNL A   1      17.872  14.794   5.642  1.00  0.00    +0.000 N 
ATOM     54  C37 UNL A   1      17.278  15.961   5.597  1.00  0.00    +0.000 C 
ATOM     55  C38 UNL A   1      17.663  17.252   6.265  1.00  0.00    +0.000 C 
ATOM     67  C45 UNL A   1      18.768  17.290   7.034  1.00  0.00    +0.000 C 
ATOM     68  C46 UNL A   1      19.260  18.458   7.759  1.00  0.00    +0.000 C 
ATOM     69  C47 UNL A   1      20.384  18.128   8.412  1.00  0.00    +0.000 C 
ATOM     70  C48 UNL A   1      20.677  16.714   8.175  1.00  0.00    +0.000 C 
ATOM     71  N6  UNL A   1      19.676  16.303   7.331  1.00  0.00    +0.000 N 
ATOM     72  C49 UNL A   1      16.059  15.982   4.776  1.00  0.00    +0.000 C 
ATOM     73  C50 UNL A   1      15.965  14.713   4.403  1.00  0.00    +0.000 C 
ATOM     74  C51 UNL A   1      23.083  12.750   8.337  1.00  0.00    +0.000 C 
ATOM     75  C52 UNL A   1      23.117  13.938   8.920  1.00  0.00    +0.000 C 
ATOM    112  H21 UNL A   1      20.261   9.215   5.562  1.00  0.00    +0.000 H 
ATOM    113  H22 UNL A   1      18.077   9.851   4.286  1.00  0.00    +0.000 H 
ATOM    114  H23 UNL A   1      19.512  13.242   6.181  1.00  0.00    +0.000 H 
ATOM    115  H24 UNL A   1      18.813  19.389   7.767  1.00  0.00    +0.000 H 
ATOM    116  H25 UNL A   1      20.953  18.768   8.989  1.00  0.00    +0.000 H 
ATOM    117  H26 UNL A   1      19.613  15.387   6.974  1.00  0.00    +0.000 H 
ATOM    118  H27 UNL A   1      15.440  16.775   4.549  1.00  0.00    +0.000 H 
ATOM    119  H28 UNL A   1      15.190  14.329   3.839  1.00  0.00    +0.000 H 
ATOM    120  H29 UNL A   1      23.810  12.025   8.446  1.00  0.00    +0.000 H 
ATOM    121  H30 UNL A   1      23.796  14.309   9.603  1.00  0.00    +0.000 H 
ENDROOT
BRANCH   19   18
ATOM     76  C53 UNL A   1      22.566  16.588  10.981  1.00  0.00    +0.000 C 
ATOM     77  C54 UNL A   1      23.419  17.288  11.830  1.00  0.00    +0.000 C 
ATOM    110  H19 UNL A   1      25.326  18.801   9.520  1.00  0.00    +0.000 H 
ATOM     15  C11 UNL A   1      24.457  18.058  11.297  1.00  0.00    +0.000 C 
ATOM     16  C12 UNL A   1      24.576  18.212   9.913  1.00  0.00    +0.000 C 
ATOM     17  C13 UNL A   1      23.677  17.564   9.063  1.00  0.00    +0.000 C 
ATOM    111  H20 UNL A   1      23.749  17.698   8.042  1.00  0.00    +0.000 H 
ATOM     18  C14 UNL A   1      22.676  16.733   9.589  1.00  0.00    +0.000 C 
ATOM    122  H31 UNL A   1      21.850  15.959  11.376  1.00  0.00    +0.000 H 
ATOM    123  H32 UNL A   1      23.285  17.238  12.852  1.00  0.00    +0.000 H 
BRANCH   15   13
ATOM     13  C10 UNL A   1      25.422  18.756  12.175  1.00  0.00    +0.000 C 
ATOM     14  O2  UNL A   1      25.360  18.602  13.392  1.00  0.00    +0.000 O 
BRANCH   13   12
ATOM     12  N2  UNL A   1      26.373  19.581  11.635  1.00  0.00    +0.000 N 
ATOM    109  H18 UNL A   1      26.027  20.378  11.170  1.00  0.00    +0.000 H 
BRANCH   12   11
ATOM     11  C9  UNL A   1      27.820  19.447  11.650  1.00  0.00    +0.000 C 
ATOM    108  H17 UNL A   1      28.056  18.481  12.044  1.00  0.00    +0.000 H 
ATOM    107  H16 UNL A   1      28.231  20.227  12.256  1.00  0.00    +0.000 H 
BRANCH   11   10
ATOM    105  H14 UNL A   1      27.912  20.322   9.723  1.00  0.00    +0.000 H 
ATOM     10  C8  UNL A   1      28.420  19.543  10.252  1.00  0.00    +0.000 C 
ATOM    106  H15 UNL A   1      29.464  19.737  10.384  1.00  0.00    +0.000 H 
BRANCH   10    9
ATOM      9  C7  UNL A   1      28.320  18.260   9.423  1.00  0.00    +0.000 C 
ATOM    103  H12 UNL A   1      28.892  17.501   9.914  1.00  0.00    +0.000 H 
ATOM    104  H13 UNL A   1      27.277  18.030   9.354  1.00  0.00    +0.000 H 
BRANCH    9    8
ATOM    101  H10 UNL A   1      27.979  18.510   7.343  1.00  0.00    +0.000 H 
ATOM    102  H11 UNL A   1      29.503  19.207   7.971  1.00  0.00    +0.000 H 
ATOM      8  C6  UNL A   1      28.827  18.378   7.983  1.00  0.00    +0.000 C 
BRANCH    8    7
ATOM     99  H8  UNL A   1      30.664  17.357   7.642  1.00  0.00    +0.000 H 
ATOM    100  H9  UNL A   1      29.264  16.316   8.003  1.00  0.00    +0.000 H 
ATOM      7  C5  UNL A   1      29.624  17.171   7.471  1.00  0.00    +0.000 C 
BRANCH    7    6
ATOM     97  H6  UNL A   1      29.482  17.796   5.435  1.00  0.00    +0.000 H 
ATOM     98  H7  UNL A   1      30.195  16.206   5.661  1.00  0.00    +0.000 H 
ATOM      6  C4  UNL A   1      29.427  16.878   5.983  1.00  0.00    +0.000 C 
BRANCH    6    5
ATOM      5  N1  UNL A   1      28.141  16.260   5.745  1.00  0.00    +0.000 N 
ATOM     96  H5  UNL A   1      28.158  15.279   5.669  1.00  0.00    +0.000 H 
BRANCH    5    3
ATOM      3  C3  UNL A   1      26.907  16.829   5.611  1.00  0.00    +0.000 C 
ATOM      4  O1  UNL A   1      26.798  17.713   4.758  1.00  0.00    +0.000 O 
BRANCH    3    2
ATOM      2  C2  UNL A   1      25.769  16.408   6.553  1.00  0.00    +0.000 C 
ATOM     95  H4  UNL A   1      25.445  17.315   7.020  1.00  0.00    +0.000 H 
BRANCH    2    1
ATOM      1  C1  UNL A   1      26.214  15.468   7.676  1.00  0.00    +0.000 C 
ATOM     92  H1  UNL A   1      27.269  15.570   7.828  1.00  0.00    +0.000 H 
ATOM     93  H2  UNL A   1      25.990  14.458   7.406  1.00  0.00    +0.000 H 
ATOM     94  H3  UNL A   1      25.698  15.719   8.579  1.00  0.00    +0.000 H 
ENDBRANCH    2    1
BRANCH    2   78
ATOM    136  H45 UNL A   1      21.561  16.548   4.579  1.00  0.00    +0.000 H 
ATOM     78  C55 UNL A   1      24.601  15.802   5.794  1.00  0.00    +0.000 C 
ATOM     79  C56 UNL A   1      24.654  14.472   5.367  1.00  0.00    +0.000 C 
ATOM     80  C57 UNL A   1      23.588  13.914   4.649  1.00  0.00    +0.000 C 
ATOM     81  C58 UNL A   1      22.424  14.636   4.372  1.00  0.00    +0.000 C 
ATOM     89  C64 UNL A   1      22.390  15.970   4.792  1.00  0.00    +0.000 C 
ATOM     90  C65 UNL A   1      23.454  16.537   5.492  1.00  0.00    +0.000 C 
ATOM     91  F16 UNL A   1      23.362  17.825   5.854  1.00  0.00    +0.000 F 
ATOM    124  H33 UNL A   1      25.484  13.898   5.582  1.00  0.00    +0.000 H 
ATOM    125  H34 UNL A   1      23.666  12.940   4.316  1.00  0.00    +0.000 H 
BRANCH   81   82
ATOM     82  N7  UNL A   1      21.364  14.162   3.621  1.00  0.00    +0.000 N 
ATOM    126  H35 UNL A   1      20.467  14.374   3.965  1.00  0.00    +0.000 H 
BRANCH   82   83
ATOM    129  H38 UNL A   1      22.158  11.359   2.535  1.00  0.00    +0.000 H 
ATOM    130  H39 UNL A   1      19.289  11.279   1.849  1.00  0.00    +0.000 H 
ATOM    131  H40 UNL A   1      20.585  10.507   1.023  1.00  0.00    +0.000 H 
ATOM    132  H41 UNL A   1      19.374  12.577  -0.121  1.00  0.00    +0.000 H 
ATOM    133  H42 UNL A   1      21.071  12.489  -0.267  1.00  0.00    +0.000 H 
ATOM    134  H43 UNL A   1      19.454  14.135   1.732  1.00  0.00    +0.000 H 
ATOM     83  C59 UNL A   1      21.406  13.387   2.384  1.00  0.00    +0.000 C 
ATOM     84  C60 UNL A   1      21.224  11.879   2.577  1.00  0.00    +0.000 C 
ATOM     85  C61 UNL A   1      20.275  11.433   1.462  1.00  0.00    +0.000 C 
ATOM     86  C62 UNL A   1      20.279  12.569   0.449  1.00  0.00    +0.000 C 
ATOM     87  C63 UNL A   1      20.387  13.815   1.317  1.00  0.00    +0.000 C 
ATOM    127  H36 UNL A   1      22.398  13.602   2.044  1.00  0.00    +0.000 H 
ATOM    128  H37 UNL A   1      20.795  11.674   3.536  1.00  0.00    +0.000 H 
BRANCH   87   88
ATOM    135  H44 UNL A   1      21.594  15.341   1.012  1.00  0.00    +0.000 H 
ATOM     88  O3  UNL A   1      20.842  14.928   0.561  1.00  0.00    +0.000 O 
ENDBRANCH   87   88
ENDBRANCH   82   83
ENDBRANCH   81   82
ENDBRANCH    2   78
ENDBRANCH    3    2
ENDBRANCH    5    3
ENDBRANCH    6    5
ENDBRANCH    7    6
ENDBRANCH    8    7
ENDBRANCH    9    8
ENDBRANCH   10    9
ENDBRANCH   11   10
ENDBRANCH   12   11
ENDBRANCH   13   12
ENDBRANCH   15   13
ENDBRANCH   19   18
BRANCH   23   24
ATOM     33  C24 UNL A   1      23.354   9.961   5.998  1.00  0.00    +0.000 C 
ATOM     34  F5  UNL A   1      23.407  10.720   4.894  1.00  0.00    +0.000 F 
ATOM     24  C19 UNL A   1      22.457  10.274   7.030  1.00  0.00    +0.000 C 
ATOM     25  C20 UNL A   1      22.441   9.442   8.161  1.00  0.00    +0.000 C 
ATOM     26  F1  UNL A   1      21.611   9.705   9.181  1.00  0.00    +0.000 F 
ATOM     27  C21 UNL A   1      23.313   8.361   8.267  1.00  0.00    +0.000 C 
ATOM     28  F2  UNL A   1      23.317   7.615   9.380  1.00  0.00    +0.000 F 
ATOM     29  C22 UNL A   1      24.188   8.068   7.233  1.00  0.00    +0.000 C 
ATOM     30  F3  UNL A   1      25.024   7.027   7.336  1.00  0.00    +0.000 F 
ATOM     31  C23 UNL A   1      24.203   8.862   6.096  1.00  0.00    +0.000 C 
ATOM     32  F4  UNL A   1      25.041   8.572   5.090  1.00  0.00    +0.000 F 
ENDBRANCH   23   24
BRANCH   40   41
ATOM     41  C30 UNL A   1      16.222  11.928   3.802  1.00  0.00    +0.000 C 
ATOM     42  C31 UNL A   1      16.240  11.958   2.401  1.00  0.00    +0.000 C 
ATOM     43  F6  UNL A   1      17.188  12.652   1.752  1.00  0.00    +0.000 F 
ATOM     44  C32 UNL A   1      15.258  11.308   1.659  1.00  0.00    +0.000 C 
ATOM     45  F7  UNL A   1      15.266  11.390   0.321  1.00  0.00    +0.000 F 
ATOM     46  C33 UNL A   1      14.261  10.588   2.302  1.00  0.00    +0.000 C 
ATOM     47  F8  UNL A   1      13.319   9.960   1.587  1.00  0.00    +0.000 F 
ATOM     48  C34 UNL A   1      14.236  10.529   3.687  1.00  0.00    +0.000 C 
ATOM     49  F9  UNL A   1      13.281   9.825   4.311  1.00  0.00    +0.000 F 
ATOM     50  C35 UNL A   1      15.200  11.202   4.432  1.00  0.00    +0.000 C 
ATOM     51  F10 UNL A   1      15.142  11.137   5.771  1.00  0.00    +0.000 F 
ENDBRANCH   40   41
BRANCH   55   56
ATOM     65  C44 UNL A   1      17.002  19.371   5.073  1.00  0.00    +0.000 C 
ATOM     66  F15 UNL A   1      17.967  19.160   4.166  1.00  0.00    +0.000 F 
ATOM     56  C39 UNL A   1      16.816  18.464   6.125  1.00  0.00    +0.000 C 
ATOM     57  C40 UNL A   1      15.796  18.733   7.048  1.00  0.00    +0.000 C 
ATOM     58  F11 UNL A   1      15.568  17.882   8.060  1.00  0.00    +0.000 F 
ATOM     59  C41 UNL A   1      14.981  19.855   6.913  1.00  0.00    +0.000 C 
ATOM     60  F12 UNL A   1      13.986  20.066   7.786  1.00  0.00    +0.000 F 
ATOM     61  C42 UNL A   1      15.188  20.743   5.870  1.00  0.00    +0.000 C 
ATOM     62  F13 UNL A   1      14.407  21.823   5.741  1.00  0.00    +0.000 F 
ATOM     63  C43 UNL A   1      16.202  20.506   4.954  1.00  0.00    +0.000 C 
ATOM     64  F14 UNL A   1      16.413  21.370   3.951  1.00  0.00    +0.000 F 
ENDBRANCH   55   56
TORSDOF 20
ENDMDL
MODEL 3
REMARK VINA RESULT:      -9.6     45.155     50.866
ROOT
ATOM     19  C15 UNL A   1      53.660  19.515  11.699  1.00  0.00    +0.000 C 
ATOM     20  C16 UNL A   1      55.029  18.904  11.599  1.00  0.00    +0.000 C 
ATOM     21  N3  UNL A   1      56.009  18.917  12.468  1.00  0.00    +0.000 N 
ATOM     22  C17 UNL A   1      57.027  18.162  11.902  1.00  0.00    +0.000 C 
ATOM     23  C18 UNL A   1      58.271  17.924  12.382  1.00  0.00    +0.000 C 
ATOM     35  C25 UNL A   1      58.774  18.454  13.622  1.00  0.00    +0.000 C 
ATOM     36  C26 UNL A   1      60.043  18.337  14.160  1.00  0.00    +0.000 C 
ATOM     37  C27 UNL A   1      60.054  18.982  15.401  1.00  0.00    +0.000 C 
ATOM     38  C28 UNL A   1      58.804  19.541  15.615  1.00  0.00    +0.000 C 
ATOM     39  N4  UNL A   1      58.028  19.207  14.517  1.00  0.00    +0.000 N 
ATOM     40  C29 UNL A   1      58.350  20.324  16.736  1.00  0.00    +0.000 C 
ATOM     52  C36 UNL A   1      57.103  20.839  16.872  1.00  0.00    +0.000 C 
ATOM     53  N5  UNL A   1      56.024  20.755  16.002  1.00  0.00    +0.000 N 
ATOM     54  C37 UNL A   1      55.044  21.405  16.580  1.00  0.00    +0.000 C 
ATOM     55  C38 UNL A   1      53.652  21.670  16.077  1.00  0.00    +0.000 C 
ATOM     67  C45 UNL A   1      53.288  21.201  14.869  1.00  0.00    +0.000 C 
ATOM     68  C46 UNL A   1      51.984  21.391  14.240  1.00  0.00    +0.000 C 
ATOM     69  C47 UNL A   1      51.981  20.782  13.044  1.00  0.00    +0.000 C 
ATOM     70  C48 UNL A   1      53.295  20.182  12.810  1.00  0.00    +0.000 C 
ATOM     71  N6  UNL A   1      54.000  20.465  13.953  1.00  0.00    +0.000 N 
ATOM     72  C49 UNL A   1      55.382  21.948  17.903  1.00  0.00    +0.000 C 
ATOM     73  C50 UNL A   1      56.659  21.612  18.013  1.00  0.00    +0.000 C 
ATOM     74  C51 UNL A   1      56.531  17.664  10.637  1.00  0.00    +0.000 C 
ATOM     75  C52 UNL A   1      55.330  18.153  10.370  1.00  0.00    +0.000 C 
ATOM    112  H21 UNL A   1      60.844  17.855  13.722  1.00  0.00    +0.000 H 
ATOM    113  H22 UNL A   1      60.856  19.033  16.049  1.00  0.00    +0.000 H 
ATOM    114  H23 UNL A   1      57.086  19.464  14.391  1.00  0.00    +0.000 H 
ATOM    115  H24 UNL A   1      51.192  21.912  14.649  1.00  0.00    +0.000 H 
ATOM    116  H25 UNL A   1      51.181  20.742  12.393  1.00  0.00    +0.000 H 
ATOM    117  H26 UNL A   1      54.927  20.169  14.103  1.00  0.00    +0.000 H 
ATOM    118  H27 UNL A   1      54.782  22.457  18.571  1.00  0.00    +0.000 H 
ATOM    119  H28 UNL A   1      57.262  21.869  18.811  1.00  0.00    +0.000 H 
ATOM    120  H29 UNL A   1      57.047  17.013  10.024  1.00  0.00    +0.000 H 
ATOM    121  H30 UNL A   1      54.755  18.037   9.521  1.00  0.00    +0.000 H 
ENDROOT
BRANCH   19   18
ATOM     76  C53 UNL A   1      51.898  18.177  10.540  1.00  0.00    +0.000 C 
ATOM     77  C54 UNL A   1      51.025  17.968   9.475  1.00  0.00    +0.000 C 
ATOM    110  H19 UNL A   1      51.525  20.845   7.821  1.00  0.00    +0.000 H 
ATOM     15  C11 UNL A   1      50.853  18.962   8.507  1.00  0.00    +0.000 C 
ATOM     16  C12 UNL A   1      51.633  20.122   8.550  1.00  0.00    +0.000 C 
ATOM     17  C13 UNL A   1      52.557  20.300   9.581  1.00  0.00    +0.000 C 
ATOM    111  H20 UNL A   1      53.150  21.145   9.597  1.00  0.00    +0.000 H 
ATOM     18  C14 UNL A   1      52.684  19.338  10.594  1.00  0.00    +0.000 C 
ATOM    122  H31 UNL A   1      51.965  17.475  11.294  1.00  0.00    +0.000 H 
ATOM    123  H32 UNL A   1      50.507  17.079   9.399  1.00  0.00    +0.000 H 
BRANCH   15   13
ATOM     13  C10 UNL A   1      49.883  18.798   7.403  1.00  0.00    +0.000 C 
ATOM     14  O2  UNL A   1      49.258  17.746   7.293  1.00  0.00    +0.000 O 
BRANCH   13   12
ATOM     12  N2  UNL A   1      49.690  19.810   6.499  1.00  0.00    +0.000 N 
ATOM    109  H18 UNL A   1      50.397  19.911   5.820  1.00  0.00    +0.000 H 
BRANCH   12   11
ATOM     11  C9  UNL A   1      48.591  20.754   6.400  1.00  0.00    +0.000 C 
ATOM    108  H17 UNL A   1      48.874  21.518   5.707  1.00  0.00    +0.000 H 
ATOM    107  H16 UNL A   1      48.398  21.161   7.371  1.00  0.00    +0.000 H 
BRANCH   11   10
ATOM    105  H14 UNL A   1      47.535  19.077   5.651  1.00  0.00    +0.000 H 
ATOM     10  C8  UNL A   1      47.316  20.099   5.880  1.00  0.00    +0.000 C 
ATOM    106  H15 UNL A   1      46.583  20.208   6.653  1.00  0.00    +0.000 H 
BRANCH   10    9
ATOM      9  C7  UNL A   1      46.725  20.751   4.629  1.00  0.00    +0.000 C 
ATOM    103  H12 UNL A   1      46.677  21.807   4.795  1.00  0.00    +0.000 H 
ATOM    104  H13 UNL A   1      47.367  20.477   3.818  1.00  0.00    +0.000 H 
BRANCH    9    8
ATOM    101  H10 UNL A   1      45.065  19.455   4.892  1.00  0.00    +0.000 H 
ATOM    102  H11 UNL A   1      44.678  21.115   4.345  1.00  0.00    +0.000 H 
ATOM      8  C6  UNL A   1      45.324  20.267   4.245  1.00  0.00    +0.000 C 
BRANCH    8    7
ATOM     99  H8  UNL A   1      44.490  20.439   2.294  1.00  0.00    +0.000 H 
ATOM    100  H9  UNL A   1      46.152  19.801   2.363  1.00  0.00    +0.000 H 
ATOM      7  C5  UNL A   1      45.173  19.786   2.795  1.00  0.00    +0.000 C 
BRANCH    7    6
ATOM     97  H6  UNL A   1      45.224  17.843   1.916  1.00  0.00    +0.000 H 
ATOM     98  H7  UNL A   1      44.757  17.864   3.610  1.00  0.00    +0.000 H 
ATOM      6  C4  UNL A   1      44.655  18.354   2.664  1.00  0.00    +0.000 C 
BRANCH    6    5
ATOM      5  N1  UNL A   1      43.259  18.344   2.286  1.00  0.00    +0.000 N 
ATOM     96  H5  UNL A   1      42.760  17.538   2.554  1.00  0.00    +0.000 H 
BRANCH    5    3
ATOM      3  C3  UNL A   1      42.526  19.281   1.617  1.00  0.00    +0.000 C 
ATOM      4  O1  UNL A   1      42.998  19.695   0.556  1.00  0.00    +0.000 O 
BRANCH    3    2
ATOM      2  C2  UNL A   1      41.225  19.816   2.237  1.00  0.00    +0.000 C 
ATOM     95  H4  UNL A   1      41.534  20.598   2.900  1.00  0.00    +0.000 H 
BRANCH    2    1
ATOM      1  C1  UNL A   1      40.479  18.785   3.088  1.00  0.00    +0.000 C 
ATOM     92  H1  UNL A   1      41.103  17.928   3.237  1.00  0.00    +0.000 H 
ATOM     93  H2  UNL A   1      39.582  18.489   2.586  1.00  0.00    +0.000 H 
ATOM     94  H3  UNL A   1      40.232  19.215   4.036  1.00  0.00    +0.000 H 
ENDBRANCH    2    1
BRANCH    2   78
ATOM    136  H45 UNL A   1      38.304  19.520  -1.368  1.00  0.00    +0.000 H 
ATOM     78  C55 UNL A   1      40.296  20.401   1.188  1.00  0.00    +0.000 C 
ATOM     79  C56 UNL A   1      40.071  21.779   1.136  1.00  0.00    +0.000 C 
ATOM     80  C57 UNL A   1      39.199  22.321   0.183  1.00  0.00    +0.000 C 
ATOM     81  C58 UNL A   1      38.560  21.526  -0.772  1.00  0.00    +0.000 C 
ATOM     89  C64 UNL A   1      38.782  20.146  -0.700  1.00  0.00    +0.000 C 
ATOM     90  C65 UNL A   1      39.635  19.598   0.256  1.00  0.00    +0.000 C 
ATOM     91  F16 UNL A   1      39.794  18.266   0.279  1.00  0.00    +0.000 F 
ATOM    124  H33 UNL A   1      40.550  22.402   1.805  1.00  0.00    +0.000 H 
ATOM    125  H34 UNL A   1      39.024  23.338   0.186  1.00  0.00    +0.000 H 
BRANCH   81   82
ATOM     82  N7  UNL A   1      37.646  21.991  -1.701  1.00  0.00    +0.000 N 
ATOM    126  H35 UNL A   1      38.014  22.561  -2.415  1.00  0.00    +0.000 H 
BRANCH   82   83
ATOM    129  H38 UNL A   1      35.281  20.999   0.055  1.00  0.00    +0.000 H 
ATOM    130  H39 UNL A   1      34.290  23.724  -0.485  1.00  0.00    +0.000 H 
ATOM    131  H40 UNL A   1      33.356  22.306  -0.215  1.00  0.00    +0.000 H 
ATOM    132  H41 UNL A   1      33.438  23.353  -2.655  1.00  0.00    +0.000 H 
ATOM    133  H42 UNL A   1      33.501  21.654  -2.535  1.00  0.00    +0.000 H 
ATOM    134  H43 UNL A   1      35.839  23.584  -2.888  1.00  0.00    +0.000 H 
ATOM     83  C59 UNL A   1      36.209  21.747  -1.756  1.00  0.00    +0.000 C 
ATOM     84  C60 UNL A   1      35.484  21.935  -0.421  1.00  0.00    +0.000 C 
ATOM     85  C61 UNL A   1      34.196  22.693  -0.754  1.00  0.00    +0.000 C 
ATOM     86  C62 UNL A   1      34.020  22.548  -2.259  1.00  0.00    +0.000 C 
ATOM     87  C63 UNL A   1      35.447  22.593  -2.787  1.00  0.00    +0.000 C 
ATOM    127  H36 UNL A   1      36.189  20.717  -2.049  1.00  0.00    +0.000 H 
ATOM    128  H37 UNL A   1      36.088  22.504   0.256  1.00  0.00    +0.000 H 
BRANCH   87   88
ATOM    135  H44 UNL A   1      34.635  21.831  -4.411  1.00  0.00    +0.000 H 
ATOM     88  O3  UNL A   1      35.527  22.043  -4.094  1.00  0.00    +0.000 O 
ENDBRANCH   87   88
ENDBRANCH   82   83
ENDBRANCH   81   82
ENDBRANCH    2   78
ENDBRANCH    3    2
ENDBRANCH    5    3
ENDBRANCH    6    5
ENDBRANCH    7    6
ENDBRANCH    8    7
ENDBRANCH    9    8
ENDBRANCH   10    9
ENDBRANCH   11   10
ENDBRANCH   12   11
ENDBRANCH   13   12
ENDBRANCH   15   13
ENDBRANCH   19   18
BRANCH   23   24
ATOM     33  C24 UNL A   1      60.005  17.609  10.580  1.00  0.00    +0.000 C 
ATOM     34  F5  UNL A   1      60.011  18.934  10.372  1.00  0.00    +0.000 F 
ATOM     24  C19 UNL A   1      59.175  17.049  11.563  1.00  0.00    +0.000 C 
ATOM     25  C20 UNL A   1      59.207  15.656  11.732  1.00  0.00    +0.000 C 
ATOM     26  F1  UNL A   1      58.442  15.072  12.667  1.00  0.00    +0.000 F 
ATOM     27  C21 UNL A   1      60.060  14.861  10.972  1.00  0.00    +0.000 C 
ATOM     28  F2  UNL A   1      60.112  13.540  11.190  1.00  0.00    +0.000 F 
ATOM     29  C22 UNL A   1      60.868  15.435  10.003  1.00  0.00    +0.000 C 
ATOM     30  F3  UNL A   1      61.687  14.668   9.271  1.00  0.00    +0.000 F 
ATOM     31  C23 UNL A   1      60.835  16.806   9.801  1.00  0.00    +0.000 C 
ATOM     32  F4  UNL A   1      61.607  17.362   8.856  1.00  0.00    +0.000 F 
ENDBRANCH   23   24
BRANCH   40   41
ATOM     41  C30 UNL A   1      59.336  20.617  17.829  1.00  0.00    +0.000 C 
ATOM     42  C31 UNL A   1      59.539  19.730  18.895  1.00  0.00    +0.000 C 
ATOM     43  F6  UNL A   1      58.815  18.603  18.985  1.00  0.00    +0.000 F 
ATOM     44  C32 UNL A   1      60.461  20.017  19.898  1.00  0.00    +0.000 C 
ATOM     45  F7  UNL A   1      60.605  19.178  20.934  1.00  0.00    +0.000 F 
ATOM     46  C33 UNL A   1      61.219  21.177  19.837  1.00  0.00    +0.000 C 
ATOM     47  F8  UNL A   1      62.108  21.450  20.801  1.00  0.00    +0.000 F 
ATOM     48  C34 UNL A   1      61.048  22.059  18.781  1.00  0.00    +0.000 C 
ATOM     49  F9  UNL A   1      61.787  23.174  18.712  1.00  0.00    +0.000 F 
ATOM     50  C35 UNL A   1      60.107  21.789  17.791  1.00  0.00    +0.000 C 
ATOM     51  F10 UNL A   1      59.954  22.667  16.789  1.00  0.00    +0.000 F 
ENDBRANCH   40   41
BRANCH   55   56
ATOM     65  C44 UNL A   1      52.521  23.851  16.640  1.00  0.00    +0.000 C 
ATOM     66  F15 UNL A   1      53.229  24.464  15.681  1.00  0.00    +0.000 F 
ATOM     56  C39 UNL A   1      52.696  22.481  16.876  1.00  0.00    +0.000 C 
ATOM     57  C40 UNL A   1      51.934  21.889  17.892  1.00  0.00    +0.000 C 
ATOM     58  F11 UNL A   1      52.052  20.575  18.140  1.00  0.00    +0.000 F 
ATOM     59  C41 UNL A   1      51.017  22.635  18.631  1.00  0.00    +0.000 C 
ATOM     60  F12 UNL A   1      50.271  22.035  19.570  1.00  0.00    +0.000 F 
ATOM     61  C42 UNL A   1      50.867  23.990  18.388  1.00  0.00    +0.000 C 
ATOM     62  F13 UNL A   1      49.989  24.708  19.100  1.00  0.00    +0.000 F 
ATOM     63  C43 UNL A   1      51.622  24.601  17.397  1.00  0.00    +0.000 C 
ATOM     64  F14 UNL A   1      51.489  25.914  17.167  1.00  0.00    +0.000 F 
ENDBRANCH   55   56
TORSDOF 20
ENDMDL
MODEL 4
REMARK VINA RESULT:      -9.4     30.390     35.667
ROOT
ATOM     19  C15 UNL A   1      46.305  11.650  47.267  1.00  0.00    +0.000 C 
ATOM     20  C16 UNL A   1      47.270  12.801  47.295  1.00  0.00    +0.000 C 
ATOM     21  N3  UNL A   1      48.268  13.028  48.112  1.00  0.00    +0.000 N 
ATOM     22  C17 UNL A   1      48.865  14.199  47.664  1.00  0.00    +0.000 C 
ATOM     23  C18 UNL A   1      49.901  14.881  48.208  1.00  0.00    +0.000 C 
ATOM     35  C25 UNL A   1      50.584  14.489  49.412  1.00  0.00    +0.000 C 
ATOM     36  C26 UNL A   1      51.594  15.152  50.088  1.00  0.00    +0.000 C 
ATOM     37  C27 UNL A   1      51.973  14.371  51.185  1.00  0.00    +0.000 C 
ATOM     38  C28 UNL A   1      51.168  13.243  51.219  1.00  0.00    +0.000 C 
ATOM     39  N4  UNL A   1      50.323  13.327  50.124  1.00  0.00    +0.000 N 
ATOM     40  C29 UNL A   1      51.167  12.169  52.178  1.00  0.00    +0.000 C 
ATOM     52  C36 UNL A   1      50.342  11.093  52.142  1.00  0.00    +0.000 C 
ATOM     53  N5  UNL A   1      49.341  10.791  51.229  1.00  0.00    +0.000 N 
ATOM     54  C37 UNL A   1      48.835   9.646  51.615  1.00  0.00    +0.000 C 
ATOM     55  C38 UNL A   1      47.697   8.861  51.023  1.00  0.00    +0.000 C 
ATOM     67  C45 UNL A   1      47.062   9.340  49.937  1.00  0.00    +0.000 C 
ATOM     68  C46 UNL A   1      45.934   8.705  49.262  1.00  0.00    +0.000 C 
ATOM     69  C47 UNL A   1      45.564   9.463  48.218  1.00  0.00    +0.000 C 
ATOM     70  C48 UNL A   1      46.412  10.655  48.168  1.00  0.00    +0.000 C 
ATOM     71  N6  UNL A   1      47.283  10.488  49.215  1.00  0.00    +0.000 N 
ATOM     72  C49 UNL A   1      49.483   9.073  52.803  1.00  0.00    +0.000 C 
ATOM     73  C50 UNL A   1      50.365  10.014  53.108  1.00  0.00    +0.000 C 
ATOM     74  C51 UNL A   1      48.149  14.611  46.476  1.00  0.00    +0.000 C 
ATOM     75  C52 UNL A   1      47.111  13.822  46.247  1.00  0.00    +0.000 C 
ATOM    112  H21 UNL A   1      51.999  16.065  49.828  1.00  0.00    +0.000 H 
ATOM    113  H22 UNL A   1      52.726  14.595  51.855  1.00  0.00    +0.000 H 
ATOM    114  H23 UNL A   1      49.639  12.660  49.885  1.00  0.00    +0.000 H 
ATOM    115  H24 UNL A   1      45.491   7.816  49.543  1.00  0.00    +0.000 H 
ATOM    116  H25 UNL A   1      44.803   9.242  47.555  1.00  0.00    +0.000 H 
ATOM    117  H26 UNL A   1      47.999  11.129  49.429  1.00  0.00    +0.000 H 
ATOM    118  H27 UNL A   1      49.301   8.174  53.275  1.00  0.00    +0.000 H 
ATOM    119  H28 UNL A   1      50.989   9.983  53.930  1.00  0.00    +0.000 H 
ATOM    120  H29 UNL A   1      48.415  15.414  45.885  1.00  0.00    +0.000 H 
ATOM    121  H30 UNL A   1      46.380  13.903  45.523  1.00  0.00    +0.000 H 
ENDROOT
BRANCH   19   18
ATOM     76  C53 UNL A   1      44.086  12.331  46.344  1.00  0.00    +0.000 C 
ATOM     77  C54 UNL A   1      43.073  12.223  45.395  1.00  0.00    +0.000 C 
ATOM    110  H19 UNL A   1      44.567  10.089  43.279  1.00  0.00    +0.000 H 
ATOM     15  C11 UNL A   1      43.267  11.443  44.251  1.00  0.00    +0.000 C 
ATOM     16  C12 UNL A   1      44.435  10.686  44.110  1.00  0.00    +0.000 C 
ATOM     17  C13 UNL A   1      45.421  10.741  45.097  1.00  0.00    +0.000 C 
ATOM    111  H20 UNL A   1      46.272  10.164  45.004  1.00  0.00    +0.000 H 
ATOM     18  C14 UNL A   1      45.263  11.578  46.212  1.00  0.00    +0.000 C 
ATOM    122  H31 UNL A   1      43.972  12.968  47.148  1.00  0.00    +0.000 H 
ATOM    123  H32 UNL A   1      42.179  12.719  45.535  1.00  0.00    +0.000 H 
BRANCH   15   13
ATOM     13  C10 UNL A   1      42.238  11.365  43.192  1.00  0.00    +0.000 C 
ATOM     14  O2  UNL A   1      41.365  10.503  43.254  1.00  0.00    +0.000 O 
BRANCH   13   12
ATOM     12  N2  UNL A   1      42.264  12.241  42.139  1.00  0.00    +0.000 N 
ATOM    109  H18 UNL A   1      43.040  12.847  42.112  1.00  0.00    +0.000 H 
BRANCH   12   11
ATOM     11  C9  UNL A   1      41.309  12.402  41.057  1.00  0.00    +0.000 C 
ATOM    108  H17 UNL A   1      40.330  12.226  41.452  1.00  0.00    +0.000 H 
ATOM    107  H16 UNL A   1      41.547  11.705  40.280  1.00  0.00    +0.000 H 
BRANCH   11   10
ATOM    105  H14 UNL A   1      42.016  13.820  39.651  1.00  0.00    +0.000 H 
ATOM     10  C8  UNL A   1      41.333  13.811  40.475  1.00  0.00    +0.000 C 
ATOM    106  H15 UNL A   1      40.327  14.038  40.189  1.00  0.00    +0.000 H 
BRANCH   10    9
ATOM      9  C7  UNL A   1      41.759  14.903  41.458  1.00  0.00    +0.000 C 
ATOM    103  H12 UNL A   1      40.983  15.639  41.496  1.00  0.00    +0.000 H 
ATOM    104  H13 UNL A   1      41.926  14.412  42.395  1.00  0.00    +0.000 H 
BRANCH    9    8
ATOM    101  H10 UNL A   1      43.366  16.198  41.958  1.00  0.00    +0.000 H 
ATOM    102  H11 UNL A   1      43.769  14.844  40.858  1.00  0.00    +0.000 H 
ATOM      8  C6  UNL A   1      43.070  15.614  41.110  1.00  0.00    +0.000 C 
BRANCH    8    7
ATOM     99  H8  UNL A   1      42.046  16.429  39.432  1.00  0.00    +0.000 H 
ATOM    100  H9  UNL A   1      43.171  17.538  40.255  1.00  0.00    +0.000 H 
ATOM      7  C5  UNL A   1      43.004  16.545  39.892  1.00  0.00    +0.000 C 
BRANCH    7    6
ATOM     97  H6  UNL A   1      44.048  15.240  38.565  1.00  0.00    +0.000 H 
ATOM     98  H7  UNL A   1      43.890  16.893  37.988  1.00  0.00    +0.000 H 
ATOM      6  C4  UNL A   1      44.080  16.274  38.840  1.00  0.00    +0.000 C 
BRANCH    6    5
ATOM      5  N1  UNL A   1      45.395  16.586  39.355  1.00  0.00    +0.000 N 
ATOM     96  H5  UNL A   1      45.891  15.821  39.726  1.00  0.00    +0.000 H 
BRANCH    5    3
ATOM      3  C3  UNL A   1      46.056  17.780  39.404  1.00  0.00    +0.000 C 
ATOM      4  O1  UNL A   1      46.038  18.462  38.377  1.00  0.00    +0.000 O 
BRANCH    3    2
ATOM      2  C2  UNL A   1      46.831  18.170  40.673  1.00  0.00    +0.000 C 
ATOM     95  H4  UNL A   1      46.807  19.239  40.696  1.00  0.00    +0.000 H 
BRANCH    2    1
ATOM      1  C1  UNL A   1      48.307  17.762  40.642  1.00  0.00    +0.000 C 
ATOM     92  H1  UNL A   1      48.757  17.981  41.588  1.00  0.00    +0.000 H 
ATOM     93  H2  UNL A   1      48.812  18.308  39.872  1.00  0.00    +0.000 H 
ATOM     94  H3  UNL A   1      48.384  16.714  40.444  1.00  0.00    +0.000 H 
ENDBRANCH    2    1
BRANCH    2   78
ATOM    136  H45 UNL A   1      43.694  18.302  44.102  1.00  0.00    +0.000 H 
ATOM     78  C55 UNL A   1      46.166  17.636  41.929  1.00  0.00    +0.000 C 
ATOM     79  C56 UNL A   1      46.614  16.447  42.512  1.00  0.00    +0.000 C 
ATOM     80  C57 UNL A   1      45.991  15.940  43.660  1.00  0.00    +0.000 C 
ATOM     81  C58 UNL A   1      44.939  16.611  44.288  1.00  0.00    +0.000 C 
ATOM     89  C64 UNL A   1      44.490  17.792  43.686  1.00  0.00    +0.000 C 
ATOM     90  C65 UNL A   1      45.095  18.294  42.535  1.00  0.00    +0.000 C 
ATOM     91  F16 UNL A   1      44.606  19.423  42.001  1.00  0.00    +0.000 F 
ATOM    124  H33 UNL A   1      47.410  15.940  42.095  1.00  0.00    +0.000 H 
ATOM    125  H34 UNL A   1      46.319  15.044  44.052  1.00  0.00    +0.000 H 
BRANCH   81   82
ATOM     82  N7  UNL A   1      44.246  16.135  45.387  1.00  0.00    +0.000 N 
ATOM    126  H35 UNL A   1      43.593  15.421  45.205  1.00  0.00    +0.000 H 
BRANCH   82   83
ATOM    129  H38 UNL A   1      43.104  15.519  48.211  1.00  0.00    +0.000 H 
ATOM    130  H39 UNL A   1      45.931  14.866  48.748  1.00  0.00    +0.000 H 
ATOM    131  H40 UNL A   1      44.768  15.475  49.859  1.00  0.00    +0.000 H 
ATOM    132  H41 UNL A   1      46.737  17.064  49.048  1.00  0.00    +0.000 H 
ATOM    133  H42 UNL A   1      45.186  17.757  49.192  1.00  0.00    +0.000 H 
ATOM    134  H43 UNL A   1      46.538  16.724  46.657  1.00  0.00    +0.000 H 
ATOM     83  C59 UNL A   1      44.358  16.557  46.780  1.00  0.00    +0.000 C 
ATOM     84  C60 UNL A   1      44.089  15.447  47.799  1.00  0.00    +0.000 C 
ATOM     85  C61 UNL A   1      45.167  15.604  48.874  1.00  0.00    +0.000 C 
ATOM     86  C62 UNL A   1      45.738  17.001  48.673  1.00  0.00    +0.000 C 
ATOM     87  C63 UNL A   1      45.710  17.179  47.162  1.00  0.00    +0.000 C 
ATOM    127  H36 UNL A   1      43.592  17.302  46.828  1.00  0.00    +0.000 H 
ATOM    128  H37 UNL A   1      44.163  14.486  47.334  1.00  0.00    +0.000 H 
BRANCH   87   88
ATOM    135  H44 UNL A   1      44.915  18.963  46.915  1.00  0.00    +0.000 H 
ATOM     88  O3  UNL A   1      45.786  18.552  46.806  1.00  0.00    +0.000 O 
ENDBRANCH   87   88
ENDBRANCH   82   83
ENDBRANCH   81   82
ENDBRANCH    2   78
ENDBRANCH    3    2
ENDBRANCH    5    3
ENDBRANCH    6    5
ENDBRANCH    7    6
ENDBRANCH    8    7
ENDBRANCH    9    8
ENDBRANCH   10    9
ENDBRANCH   11   10
ENDBRANCH   12   11
ENDBRANCH   13   12
ENDBRANCH   15   13
ENDBRANCH   19   18
BRANCH   23   24
ATOM     33  C24 UNL A   1      49.753  17.359  47.770  1.00  0.00    +0.000 C 
ATOM     34  F5  UNL A   1      48.767  17.447  48.674  1.00  0.00    +0.000 F 
ATOM     24  C19 UNL A   1      50.360  16.123  47.501  1.00  0.00    +0.000 C 
ATOM     25  C20 UNL A   1      51.385  16.091  46.541  1.00  0.00    +0.000 C 
ATOM     26  F1  UNL A   1      52.006  14.936  46.256  1.00  0.00    +0.000 F 
ATOM     27  C21 UNL A   1      51.806  17.254  45.903  1.00  0.00    +0.000 C 
ATOM     28  F2  UNL A   1      52.822  17.207  45.031  1.00  0.00    +0.000 F 
ATOM     29  C22 UNL A   1      51.189  18.464  46.182  1.00  0.00    +0.000 C 
ATOM     30  F3  UNL A   1      51.595  19.582  45.565  1.00  0.00    +0.000 F 
ATOM     31  C23 UNL A   1      50.158  18.516  47.108  1.00  0.00    +0.000 C 
ATOM     32  F4  UNL A   1      49.552  19.683  47.369  1.00  0.00    +0.000 F 
ENDBRANCH   23   24
BRANCH   40   41
ATOM     41  C30 UNL A   1      52.135  12.252  53.323  1.00  0.00    +0.000 C 
ATOM     42  C31 UNL A   1      51.777  12.827  54.550  1.00  0.00    +0.000 C 
ATOM     43  F6  UNL A   1      50.557  13.362  54.716  1.00  0.00    +0.000 F 
ATOM     44  C32 UNL A   1      52.687  12.892  55.601  1.00  0.00    +0.000 C 
ATOM     45  F7  UNL A   1      52.340  13.489  56.750  1.00  0.00    +0.000 F 
ATOM     46  C33 UNL A   1      53.958  12.354  55.457  1.00  0.00    +0.000 C 
ATOM     47  F8  UNL A   1      54.831  12.414  56.471  1.00  0.00    +0.000 F 
ATOM     48  C34 UNL A   1      54.326  11.763  54.258  1.00  0.00    +0.000 C 
ATOM     49  F9  UNL A   1      55.549  11.233  54.120  1.00  0.00    +0.000 F 
ATOM     50  C35 UNL A   1      53.428  11.723  53.195  1.00  0.00    +0.000 C 
ATOM     51  F10 UNL A   1      53.817  11.157  52.043  1.00  0.00    +0.000 F 
ENDBRANCH   40   41
BRANCH   55   56
ATOM     65  C44 UNL A   1      47.941   6.393  51.471  1.00  0.00    +0.000 C 
ATOM     66  F15 UNL A   1      49.049   6.367  50.717  1.00  0.00    +0.000 F 
ATOM     56  C39 UNL A   1      47.240   7.593  51.649  1.00  0.00    +0.000 C 
ATOM     57  C40 UNL A   1      46.086   7.566  52.444  1.00  0.00    +0.000 C 
ATOM     58  F11 UNL A   1      45.393   8.694  52.659  1.00  0.00    +0.000 F 
ATOM     59  C41 UNL A   1      45.661   6.387  53.055  1.00  0.00    +0.000 C 
ATOM     60  F12 UNL A   1      44.578   6.398  53.844  1.00  0.00    +0.000 F 
ATOM     61  C42 UNL A   1      46.365   5.209  52.859  1.00  0.00    +0.000 C 
ATOM     62  F13 UNL A   1      45.955   4.076  53.443  1.00  0.00    +0.000 F 
ATOM     63  C43 UNL A   1      47.501   5.210  52.062  1.00  0.00    +0.000 C 
ATOM     64  F14 UNL A   1      48.177   4.071  51.860  1.00  0.00    +0.000 F 
ENDBRANCH   55   56
TORSDOF 20
ENDMDL
MODEL 5
REMARK VINA RESULT:      -9.4     47.300     53.050
ROOT
ATOM     19  C15 UNL A   1      29.109 -14.020  30.978  1.00  0.00    +0.000 C 
ATOM     20  C16 UNL A   1      28.880 -14.109  32.460  1.00  0.00    +0.000 C 
ATOM     21  N3  UNL A   1      27.882 -13.651  33.175  1.00  0.00    +0.000 N 
ATOM     22  C17 UNL A   1      28.137 -14.050  34.480  1.00  0.00    +0.000 C 
ATOM     23  C18 UNL A   1      27.430 -13.773  35.602  1.00  0.00    +0.000 C 
ATOM     35  C25 UNL A   1      26.239 -12.966  35.629  1.00  0.00    +0.000 C 
ATOM     36  C26 UNL A   1      25.493 -12.562  36.723  1.00  0.00    +0.000 C 
ATOM     37  C27 UNL A   1      24.400 -11.824  36.258  1.00  0.00    +0.000 C 
ATOM     38  C28 UNL A   1      24.490 -11.728  34.879  1.00  0.00    +0.000 C 
ATOM     39  N4  UNL A   1      25.621 -12.436  34.506  1.00  0.00    +0.000 N 
ATOM     40  C29 UNL A   1      23.611 -11.041  33.967  1.00  0.00    +0.000 C 
ATOM     52  C36 UNL A   1      23.768 -10.994  32.621  1.00  0.00    +0.000 C 
ATOM     53  N5  UNL A   1      24.771 -11.552  31.839  1.00  0.00    +0.000 N 
ATOM     54  C37 UNL A   1      24.480 -11.236  30.601  1.00  0.00    +0.000 C 
ATOM     55  C38 UNL A   1      25.237 -11.543  29.338  1.00  0.00    +0.000 C 
ATOM     67  C45 UNL A   1      26.386 -12.241  29.413  1.00  0.00    +0.000 C 
ATOM     68  C46 UNL A   1      27.238 -12.599  28.283  1.00  0.00    +0.000 C 
ATOM     69  C47 UNL A   1      28.293 -13.296  28.733  1.00  0.00    +0.000 C 
ATOM     70  C48 UNL A   1      28.205 -13.409  30.188  1.00  0.00    +0.000 C 
ATOM     71  N6  UNL A   1      27.032 -12.770  30.503  1.00  0.00    +0.000 N 
ATOM     72  C49 UNL A   1      23.237 -10.467  30.454  1.00  0.00    +0.000 C 
ATOM     73  C50 UNL A   1      22.867 -10.310  31.717  1.00  0.00    +0.000 C 
ATOM     74  C51 UNL A   1      29.357 -14.827  34.454  1.00  0.00    +0.000 C 
ATOM     75  C52 UNL A   1      29.894 -14.833  33.244  1.00  0.00    +0.000 C 
ATOM    112  H21 UNL A   1      25.706 -12.771  37.711  1.00  0.00    +0.000 H 
ATOM    113  H22 UNL A   1      23.651 -11.419  36.843  1.00  0.00    +0.000 H 
ATOM    114  H23 UNL A   1      25.939 -12.548  33.581  1.00  0.00    +0.000 H 
ATOM    115  H24 UNL A   1      27.059 -12.354  27.296  1.00  0.00    +0.000 H 
ATOM    116  H25 UNL A   1      29.046 -13.691  28.146  1.00  0.00    +0.000 H 
ATOM    117  H26 UNL A   1      26.687 -12.696  31.422  1.00  0.00    +0.000 H 
ATOM    118  H27 UNL A   1      22.773 -10.136  29.594  1.00  0.00    +0.000 H 
ATOM    119  H28 UNL A   1      22.041  -9.769  32.019  1.00  0.00    +0.000 H 
ATOM    120  H29 UNL A   1      29.755 -15.314  35.273  1.00  0.00    +0.000 H 
ATOM    121  H30 UNL A   1      30.790 -15.238  32.932  1.00  0.00    +0.000 H 
ENDROOT
BRANCH   19   18
ATOM     76  C53 UNL A   1      30.273 -16.013  30.023  1.00  0.00    +0.000 C 
ATOM     77  C54 UNL A   1      31.409 -16.636  29.514  1.00  0.00    +0.000 C 
ATOM    110  H19 UNL A   1      33.461 -13.982  29.423  1.00  0.00    +0.000 H 
ATOM     15  C11 UNL A   1      32.558 -15.885  29.249  1.00  0.00    +0.000 C 
ATOM     16  C12 UNL A   1      32.604 -14.531  29.594  1.00  0.00    +0.000 C 
ATOM     17  C13 UNL A   1      31.487 -13.922  30.168  1.00  0.00    +0.000 C 
ATOM    111  H20 UNL A   1      31.530 -12.929  30.446  1.00  0.00    +0.000 H 
ATOM     18  C14 UNL A   1      30.306 -14.654  30.371  1.00  0.00    +0.000 C 
ATOM    122  H31 UNL A   1      29.402 -16.553  30.145  1.00  0.00    +0.000 H 
ATOM    123  H32 UNL A   1      31.403 -17.652  29.332  1.00  0.00    +0.000 H 
BRANCH   15   13
ATOM     13  C10 UNL A   1      33.756 -16.505  28.643  1.00  0.00    +0.000 C 
ATOM     14  O2  UNL A   1      34.567 -17.089  29.358  1.00  0.00    +0.000 O 
BRANCH   13   12
ATOM     12  N2  UNL A   1      33.969 -16.417  27.292  1.00  0.00    +0.000 N 
ATOM    109  H18 UNL A   1      34.895 -16.581  26.998  1.00  0.00    +0.000 H 
BRANCH   12   11
ATOM     11  C9  UNL A   1      33.022 -16.118  26.232  1.00  0.00    +0.000 C 
ATOM    108  H17 UNL A   1      32.037 -16.289  26.613  1.00  0.00    +0.000 H 
ATOM    107  H16 UNL A   1      33.232 -16.749  25.394  1.00  0.00    +0.000 H 
BRANCH   11   10
ATOM    105  H14 UNL A   1      32.666 -14.589  24.810  1.00  0.00    +0.000 H 
ATOM     10  C8  UNL A   1      33.105 -14.663  25.783  1.00  0.00    +0.000 C 
ATOM    106  H15 UNL A   1      32.587 -14.088  26.522  1.00  0.00    +0.000 H 
BRANCH   10    9
ATOM      9  C7  UNL A   1      34.524 -14.095  25.709  1.00  0.00    +0.000 C 
ATOM    103  H12 UNL A   1      35.192 -14.812  26.140  1.00  0.00    +0.000 H 
ATOM    104  H13 UNL A   1      34.715 -13.902  24.674  1.00  0.00    +0.000 H 
BRANCH    9    8
ATOM    101  H10 UNL A   1      33.826 -12.192  26.341  1.00  0.00    +0.000 H 
ATOM    102  H11 UNL A   1      34.972 -13.010  27.448  1.00  0.00    +0.000 H 
ATOM      8  C6  UNL A   1      34.728 -12.763  26.436  1.00  0.00    +0.000 C 
BRANCH    8    7
ATOM     99  H8  UNL A   1      35.595 -10.877  25.961  1.00  0.00    +0.000 H 
ATOM    100  H9  UNL A   1      36.734 -12.123  26.533  1.00  0.00    +0.000 H 
ATOM      7  C5  UNL A   1      35.888 -11.905  25.914  1.00  0.00    +0.000 C 
BRANCH    7    6
ATOM     97  H6  UNL A   1      37.365 -12.141  24.392  1.00  0.00    +0.000 H 
ATOM     98  H7  UNL A   1      35.983 -13.217  24.240  1.00  0.00    +0.000 H 
ATOM      6  C4  UNL A   1      36.302 -12.223  24.477  1.00  0.00    +0.000 C 
BRANCH    6    5
ATOM      5  N1  UNL A   1      35.681 -11.305  23.547  1.00  0.00    +0.000 N 
ATOM     96  H5  UNL A   1      36.306 -10.736  23.043  1.00  0.00    +0.000 H 
BRANCH    5    3
ATOM      3  C3  UNL A   1      34.360 -11.108  23.261  1.00  0.00    +0.000 C 
ATOM      4  O1  UNL A   1      33.776 -12.031  22.692  1.00  0.00    +0.000 O 
BRANCH    3    2
ATOM      2  C2  UNL A   1      33.705  -9.755  23.584  1.00  0.00    +0.000 C 
ATOM     95  H4  UNL A   1      32.855  -9.696  22.937  1.00  0.00    +0.000 H 
BRANCH    2    1
ATOM      1  C1  UNL A   1      34.591  -8.549  23.260  1.00  0.00    +0.000 C 
ATOM     92  H1  UNL A   1      34.641  -8.419  22.199  1.00  0.00    +0.000 H 
ATOM     93  H2  UNL A   1      35.576  -8.716  23.644  1.00  0.00    +0.000 H 
ATOM     94  H3  UNL A   1      34.178  -7.671  23.708  1.00  0.00    +0.000 H 
ENDBRANCH    2    1
BRANCH    2   78
ATOM    136  H45 UNL A   1      30.848 -10.846  27.086  1.00  0.00    +0.000 H 
ATOM     78  C55 UNL A   1      33.231  -9.685  25.025  1.00  0.00    +0.000 C 
ATOM     79  C56 UNL A   1      33.930  -8.916  25.959  1.00  0.00    +0.000 C 
ATOM     80  C57 UNL A   1      33.508  -8.864  27.294  1.00  0.00    +0.000 C 
ATOM     81  C58 UNL A   1      32.363  -9.532  27.735  1.00  0.00    +0.000 C 
ATOM     89  C64 UNL A   1      31.682 -10.311  26.793  1.00  0.00    +0.000 C 
ATOM     90  C65 UNL A   1      32.105 -10.380  25.467  1.00  0.00    +0.000 C 
ATOM     91  F16 UNL A   1      31.413 -11.156  24.619  1.00  0.00    +0.000 F 
ATOM    124  H33 UNL A   1      34.762  -8.382  25.664  1.00  0.00    +0.000 H 
ATOM    125  H34 UNL A   1      34.061  -8.315  27.972  1.00  0.00    +0.000 H 
BRANCH   81   82
ATOM     82  N7  UNL A   1      31.929  -9.567  29.048  1.00  0.00    +0.000 N 
ATOM    126  H35 UNL A   1      32.410 -10.188  29.642  1.00  0.00    +0.000 H 
BRANCH   82   83
ATOM    129  H38 UNL A   1      30.929  -6.649  29.432  1.00  0.00    +0.000 H 
ATOM    130  H39 UNL A   1      28.609  -7.695  27.941  1.00  0.00    +0.000 H 
ATOM    131  H40 UNL A   1      28.617  -6.447  29.124  1.00  0.00    +0.000 H 
ATOM    132  H41 UNL A   1      27.523  -8.792  29.727  1.00  0.00    +0.000 H 
ATOM    133  H42 UNL A   1      28.454  -8.033  30.937  1.00  0.00    +0.000 H 
ATOM    134  H43 UNL A   1      29.330 -10.245  29.024  1.00  0.00    +0.000 H 
ATOM     83  C59 UNL A   1      30.848  -8.803  29.663  1.00  0.00    +0.000 C 
ATOM     84  C60 UNL A   1      30.506  -7.498  28.940  1.00  0.00    +0.000 C 
ATOM     85  C61 UNL A   1      28.976  -7.432  28.911  1.00  0.00    +0.000 C 
ATOM     86  C62 UNL A   1      28.509  -8.443  29.949  1.00  0.00    +0.000 C 
ATOM     87  C63 UNL A   1      29.526  -9.568  29.830  1.00  0.00    +0.000 C 
ATOM    127  H36 UNL A   1      31.269  -8.596  30.625  1.00  0.00    +0.000 H 
ATOM    128  H37 UNL A   1      30.897  -7.509  27.943  1.00  0.00    +0.000 H 
BRANCH   87   88
ATOM    135  H44 UNL A   1      30.411 -10.756  31.127  1.00  0.00    +0.000 H 
ATOM     88  O3  UNL A   1      29.525 -10.386  30.991  1.00  0.00    +0.000 O 
ENDBRANCH   87   88
ENDBRANCH   82   83
ENDBRANCH   81   82
ENDBRANCH    2   78
ENDBRANCH    3    2
ENDBRANCH    5    3
ENDBRANCH    6    5
ENDBRANCH    7    6
ENDBRANCH    8    7
ENDBRANCH    9    8
ENDBRANCH   10    9
ENDBRANCH   11   10
ENDBRANCH   12   11
ENDBRANCH   13   12
ENDBRANCH   15   13
ENDBRANCH   19   18
BRANCH   23   24
ATOM     33  C24 UNL A   1      27.359 -15.524  37.414  1.00  0.00    +0.000 C 
ATOM     34  F5  UNL A   1      26.375 -16.151  36.753  1.00  0.00    +0.000 F 
ATOM     24  C19 UNL A   1      27.928 -14.352  36.895  1.00  0.00    +0.000 C 
ATOM     25  C20 UNL A   1      28.951 -13.737  37.633  1.00  0.00    +0.000 C 
ATOM     26  F1  UNL A   1      29.537 -12.620  37.174  1.00  0.00    +0.000 F 
ATOM     27  C21 UNL A   1      29.409 -14.293  38.825  1.00  0.00    +0.000 C 
ATOM     28  F2  UNL A   1      30.424 -13.717  39.483  1.00  0.00    +0.000 F 
ATOM     29  C22 UNL A   1      28.830 -15.450  39.321  1.00  0.00    +0.000 C 
ATOM     30  F3  UNL A   1      29.271 -15.983  40.469  1.00  0.00    +0.000 F 
ATOM     31  C23 UNL A   1      27.801 -16.061  38.621  1.00  0.00    +0.000 C 
ATOM     32  F4  UNL A   1      27.231 -17.174  39.106  1.00  0.00    +0.000 F 
ENDBRANCH   23   24
BRANCH   40   41
ATOM     41  C30 UNL A   1      22.444 -10.298  34.547  1.00  0.00    +0.000 C 
ATOM     42  C31 UNL A   1      22.592  -9.033  35.133  1.00  0.00    +0.000 C 
ATOM     43  F6  UNL A   1      23.807  -8.471  35.229  1.00  0.00    +0.000 F 
ATOM     44  C32 UNL A   1      21.497  -8.358  35.663  1.00  0.00    +0.000 C 
ATOM     45  F7  UNL A   1      21.668  -7.171  36.263  1.00  0.00    +0.000 F 
ATOM     46  C33 UNL A   1      20.229  -8.916  35.585  1.00  0.00    +0.000 C 
ATOM     47  F8  UNL A   1      19.175  -8.263  36.092  1.00  0.00    +0.000 F 
ATOM     48  C34 UNL A   1      20.056 -10.157  34.991  1.00  0.00    +0.000 C 
ATOM     49  F9  UNL A   1      18.832 -10.694  34.904  1.00  0.00    +0.000 F 
ATOM     50  C35 UNL A   1      21.154 -10.848  34.487  1.00  0.00    +0.000 C 
ATOM     51  F10 UNL A   1      20.958 -12.053  33.930  1.00  0.00    +0.000 F 
ENDBRANCH   40   41
BRANCH   55   56
ATOM     65  C44 UNL A   1      25.283  -9.883  27.442  1.00  0.00    +0.000 C 
ATOM     66  F15 UNL A   1      26.237  -9.188  28.076  1.00  0.00    +0.000 F 
ATOM     56  C39 UNL A   1      24.757 -11.045  28.023  1.00  0.00    +0.000 C 
ATOM     57  C40 UNL A   1      23.758 -11.734  27.321  1.00  0.00    +0.000 C 
ATOM     58  F11 UNL A   1      23.239 -12.862  27.828  1.00  0.00    +0.000 F 
ATOM     59  C41 UNL A   1      23.316 -11.288  26.076  1.00  0.00    +0.000 C 
ATOM     60  F12 UNL A   1      22.390 -11.989  25.407  1.00  0.00    +0.000 F 
ATOM     61  C42 UNL A   1      23.844 -10.132  25.524  1.00  0.00    +0.000 C 
ATOM     62  F13 UNL A   1      23.418  -9.702  24.329  1.00  0.00    +0.000 F 
ATOM     63  C43 UNL A   1      24.822  -9.426  26.209  1.00  0.00    +0.000 C 
ATOM     64  F14 UNL A   1      25.326  -8.301  25.683  1.00  0.00    +0.000 F 
ENDBRANCH   55   56
TORSDOF 20
ENDMDL
MODEL 6
REMARK VINA RESULT:      -9.3     34.985     41.720
ROOT
ATOM     19  C15 UNL A   1      46.408  50.831  18.061  1.00  0.00    +0.000 C 
ATOM     20  C16 UNL A   1      47.376  50.322  19.092  1.00  0.00    +0.000 C 
ATOM     21  N3  UNL A   1      48.455  50.891  19.570  1.00  0.00    +0.000 N 
ATOM     22  C17 UNL A   1      48.948  50.019  20.532  1.00  0.00    +0.000 C 
ATOM     23  C18 UNL A   1      50.079  50.126  21.270  1.00  0.00    +0.000 C 
ATOM     35  C25 UNL A   1      51.013  51.215  21.164  1.00  0.00    +0.000 C 
ATOM     36  C26 UNL A   1      52.225  51.379  21.810  1.00  0.00    +0.000 C 
ATOM     37  C27 UNL A   1      52.764  52.612  21.425  1.00  0.00    +0.000 C 
ATOM     38  C28 UNL A   1      51.908  53.195  20.503  1.00  0.00    +0.000 C 
ATOM     39  N4  UNL A   1      50.837  52.329  20.356  1.00  0.00    +0.000 N 
ATOM     40  C29 UNL A   1      52.057  54.447  19.807  1.00  0.00    +0.000 C 
ATOM     52  C36 UNL A   1      51.169  54.952  18.914  1.00  0.00    +0.000 C 
ATOM     53  N5  UNL A   1      49.975  54.404  18.466  1.00  0.00    +0.000 N 
ATOM     54  C37 UNL A   1      49.478  55.269  17.617  1.00  0.00    +0.000 C 
ATOM     55  C38 UNL A   1      48.220  55.183  16.797  1.00  0.00    +0.000 C 
ATOM     67  C45 UNL A   1      47.440  54.089  16.902  1.00  0.00    +0.000 C 
ATOM     68  C46 UNL A   1      46.205  53.853  16.161  1.00  0.00    +0.000 C 
ATOM     69  C47 UNL A   1      45.697  52.664  16.523  1.00  0.00    +0.000 C 
ATOM     70  C48 UNL A   1      46.590  52.042  17.502  1.00  0.00    +0.000 C 
ATOM     71  N6  UNL A   1      47.587  52.967  17.679  1.00  0.00    +0.000 N 
ATOM     72  C49 UNL A   1      50.288  56.484  17.455  1.00  0.00    +0.000 C 
ATOM     73  C50 UNL A   1      51.327  56.220  18.234  1.00  0.00    +0.000 C 
ATOM     74  C51 UNL A   1      48.027  48.906  20.605  1.00  0.00    +0.000 C 
ATOM     75  C52 UNL A   1      47.079  49.009  19.687  1.00  0.00    +0.000 C 
ATOM    112  H21 UNL A   1      52.659  50.709  22.465  1.00  0.00    +0.000 H 
ATOM    113  H22 UNL A   1      53.648  53.019  21.769  1.00  0.00    +0.000 H 
ATOM    114  H23 UNL A   1      50.064  52.481  19.765  1.00  0.00    +0.000 H 
ATOM    115  H24 UNL A   1      45.788  54.496  15.469  1.00  0.00    +0.000 H 
ATOM    116  H25 UNL A   1      44.818  52.254  16.169  1.00  0.00    +0.000 H 
ATOM    117  H26 UNL A   1      48.338  52.839  18.304  1.00  0.00    +0.000 H 
ATOM    118  H27 UNL A   1      50.098  57.323  16.885  1.00  0.00    +0.000 H 
ATOM    119  H28 UNL A   1      52.145  56.840  18.342  1.00  0.00    +0.000 H 
ATOM    120  H29 UNL A   1      48.100  48.133  21.286  1.00  0.00    +0.000 H 
ATOM    121  H30 UNL A   1      46.328  48.342  19.449  1.00  0.00    +0.000 H 
ENDROOT
BRANCH   19   18
ATOM     76  C53 UNL A   1      45.320  49.045  16.696  1.00  0.00    +0.000 C 
ATOM     77  C54 UNL A   1      44.196  48.325  16.299  1.00  0.00    +0.000 C 
ATOM    110  H19 UNL A   1      41.963  49.623  18.442  1.00  0.00    +0.000 H 
ATOM     15  C11 UNL A   1      42.981  48.501  16.968  1.00  0.00    +0.000 C 
ATOM     16  C12 UNL A   1      42.866  49.474  17.966  1.00  0.00    +0.000 C 
ATOM     17  C13 UNL A   1      43.977  50.244  18.316  1.00  0.00    +0.000 C 
ATOM    111  H20 UNL A   1      43.885  50.979  19.035  1.00  0.00    +0.000 H 
ATOM     18  C14 UNL A   1      45.217  50.023  17.697  1.00  0.00    +0.000 C 
ATOM    122  H31 UNL A   1      46.233  48.858  16.253  1.00  0.00    +0.000 H 
ATOM    123  H32 UNL A   1      44.259  47.662  15.510  1.00  0.00    +0.000 H 
BRANCH   15   13
ATOM     13  C10 UNL A   1      41.789  47.701  16.616  1.00  0.00    +0.000 C 
ATOM     14  O2  UNL A   1      40.944  48.169  15.856  1.00  0.00    +0.000 O 
BRANCH   13   12
ATOM     12  N2  UNL A   1      41.618  46.448  17.144  1.00  0.00    +0.000 N 
ATOM    109  H18 UNL A   1      41.430  46.418  18.110  1.00  0.00    +0.000 H 
BRANCH   12   11
ATOM     11  C9  UNL A   1      41.675  45.157  16.479  1.00  0.00    +0.000 C 
ATOM    108  H17 UNL A   1      41.526  45.319  15.432  1.00  0.00    +0.000 H 
ATOM    107  H16 UNL A   1      40.915  44.525  16.888  1.00  0.00    +0.000 H 
BRANCH   11   10
ATOM    105  H14 UNL A   1      43.251  43.936  15.765  1.00  0.00    +0.000 H 
ATOM     10  C8  UNL A   1      43.028  44.478  16.660  1.00  0.00    +0.000 C 
ATOM    106  H15 UNL A   1      43.733  45.257  16.866  1.00  0.00    +0.000 H 
BRANCH   10    9
ATOM      9  C7  UNL A   1      43.103  43.505  17.837  1.00  0.00    +0.000 C 
ATOM    103  H12 UNL A   1      42.578  42.613  17.567  1.00  0.00    +0.000 H 
ATOM    104  H13 UNL A   1      44.145  43.345  18.026  1.00  0.00    +0.000 H 
BRANCH    9    8
ATOM    101  H10 UNL A   1      43.243  44.641  19.625  1.00  0.00    +0.000 H 
ATOM    102  H11 UNL A   1      41.617  44.555  18.881  1.00  0.00    +0.000 H 
ATOM      8  C6  UNL A   1      42.508  44.026  19.149  1.00  0.00    +0.000 C 
BRANCH    8    7
ATOM     99  H8  UNL A   1      41.205  43.287  20.662  1.00  0.00    +0.000 H 
ATOM    100  H9  UNL A   1      41.898  42.054  19.578  1.00  0.00    +0.000 H 
ATOM      7  C5  UNL A   1      42.077  42.942  20.147  1.00  0.00    +0.000 C 
BRANCH    7    6
ATOM     97  H6  UNL A   1      42.668  42.421  22.130  1.00  0.00    +0.000 H 
ATOM     98  H7  UNL A   1      43.660  41.713  20.863  1.00  0.00    +0.000 H 
ATOM      6  C4  UNL A   1      43.143  42.592  21.186  1.00  0.00    +0.000 C 
BRANCH    6    5
ATOM      5  N1  UNL A   1      44.100  43.667  21.325  1.00  0.00    +0.000 N 
ATOM     96  H5  UNL A   1      43.711  44.548  21.532  1.00  0.00    +0.000 H 
BRANCH    5    3
ATOM      3  C3  UNL A   1      45.461  43.649  21.214  1.00  0.00    +0.000 C 
ATOM      4  O1  UNL A   1      45.995  42.538  21.182  1.00  0.00    +0.000 O 
BRANCH    3    2
ATOM      2  C2  UNL A   1      46.243  44.972  21.214  1.00  0.00    +0.000 C 
ATOM     95  H4  UNL A   1      47.048  44.818  21.902  1.00  0.00    +0.000 H 
BRANCH    2    1
ATOM      1  C1  UNL A   1      45.437  46.164  21.737  1.00  0.00    +0.000 C 
ATOM     92  H1  UNL A   1      45.970  46.631  22.539  1.00  0.00    +0.000 H 
ATOM     93  H2  UNL A   1      44.486  45.824  22.092  1.00  0.00    +0.000 H 
ATOM     94  H3  UNL A   1      45.290  46.869  20.947  1.00  0.00    +0.000 H 
ENDBRANCH    2    1
BRANCH    2   78
ATOM    136  H45 UNL A   1      49.735  45.671  18.225  1.00  0.00    +0.000 H 
ATOM     78  C55 UNL A   1      46.819  45.288  19.844  1.00  0.00    +0.000 C 
ATOM     79  C56 UNL A   1      45.969  45.518  18.760  1.00  0.00    +0.000 C 
ATOM     80  C57 UNL A   1      46.495  45.790  17.490  1.00  0.00    +0.000 C 
ATOM     81  C58 UNL A   1      47.871  45.887  17.265  1.00  0.00    +0.000 C 
ATOM     89  C64 UNL A   1      48.711  45.640  18.357  1.00  0.00    +0.000 C 
ATOM     90  C65 UNL A   1      48.195  45.352  19.619  1.00  0.00    +0.000 C 
ATOM     91  F16 UNL A   1      49.056  45.113  20.619  1.00  0.00    +0.000 F 
ATOM    124  H33 UNL A   1      44.946  45.487  18.894  1.00  0.00    +0.000 H 
ATOM    125  H34 UNL A   1      45.847  45.923  16.698  1.00  0.00    +0.000 H 
BRANCH   81   82
ATOM     82  N7  UNL A   1      48.453  46.096  16.028  1.00  0.00    +0.000 N 
ATOM    126  H35 UNL A   1      48.352  45.364  15.378  1.00  0.00    +0.000 H 
BRANCH   82   83
ATOM    129  H38 UNL A   1      48.135  49.150  15.547  1.00  0.00    +0.000 H 
ATOM    130  H39 UNL A   1      50.274  49.265  17.575  1.00  0.00    +0.000 H 
ATOM    131  H40 UNL A   1      49.990  50.371  16.290  1.00  0.00    +0.000 H 
ATOM    132  H41 UNL A   1      52.104  48.766  16.168  1.00  0.00    +0.000 H 
ATOM    133  H42 UNL A   1      51.235  49.021  14.723  1.00  0.00    +0.000 H 
ATOM    134  H43 UNL A   1      51.007  46.659  16.643  1.00  0.00    +0.000 H 
ATOM     83  C59 UNL A   1      49.199  47.262  15.564  1.00  0.00    +0.000 C 
ATOM     84  C60 UNL A   1      48.764  48.584  16.201  1.00  0.00    +0.000 C 
ATOM     85  C61 UNL A   1      50.059  49.330  16.528  1.00  0.00    +0.000 C 
ATOM     86  C62 UNL A   1      51.143  48.634  15.717  1.00  0.00    +0.000 C 
ATOM     87  C63 UNL A   1      50.722  47.172  15.748  1.00  0.00    +0.000 C 
ATOM    127  H36 UNL A   1      48.960  47.253  14.521  1.00  0.00    +0.000 H 
ATOM    128  H37 UNL A   1      48.202  48.402  17.094  1.00  0.00    +0.000 H 
BRANCH   87   88
ATOM    135  H44 UNL A   1      51.857  45.707  15.081  1.00  0.00    +0.000 H 
ATOM     88  O3  UNL A   1      51.343  46.438  14.703  1.00  0.00    +0.000 O 
ENDBRANCH   87   88
ENDBRANCH   82   83
ENDBRANCH   81   82
ENDBRANCH    2   78
ENDBRANCH    3    2
ENDBRANCH    5    3
ENDBRANCH    6    5
ENDBRANCH    7    6
ENDBRANCH    8    7
ENDBRANCH    9    8
ENDBRANCH   10    9
ENDBRANCH   11   10
ENDBRANCH   12   11
ENDBRANCH   13   12
ENDBRANCH   15   13
ENDBRANCH   19   18
BRANCH   23   24
ATOM     33  C24 UNL A   1      50.035  49.197  23.613  1.00  0.00    +0.000 C 
ATOM     34  F5  UNL A   1      49.443  50.324  24.035  1.00  0.00    +0.000 F 
ATOM     24  C19 UNL A   1      50.366  49.034  22.260  1.00  0.00    +0.000 C 
ATOM     25  C20 UNL A   1      50.989  47.836  21.876  1.00  0.00    +0.000 C 
ATOM     26  F1  UNL A   1      51.315  47.625  20.592  1.00  0.00    +0.000 F 
ATOM     27  C21 UNL A   1      51.238  46.829  22.805  1.00  0.00    +0.000 C 
ATOM     28  F2  UNL A   1      51.783  45.672  22.405  1.00  0.00    +0.000 F 
ATOM     29  C22 UNL A   1      50.905  47.013  24.138  1.00  0.00    +0.000 C 
ATOM     30  F3  UNL A   1      51.147  46.044  25.030  1.00  0.00    +0.000 F 
ATOM     31  C23 UNL A   1      50.312  48.199  24.544  1.00  0.00    +0.000 C 
ATOM     32  F4  UNL A   1      50.002  48.384  25.835  1.00  0.00    +0.000 F 
ENDBRANCH   23   24
BRANCH   40   41
ATOM     41  C30 UNL A   1      53.298  55.249  20.067  1.00  0.00    +0.000 C 
ATOM     42  C31 UNL A   1      54.471  55.052  19.325  1.00  0.00    +0.000 C 
ATOM     43  F6  UNL A   1      54.523  54.099  18.383  1.00  0.00    +0.000 F 
ATOM     44  C32 UNL A   1      55.612  55.809  19.578  1.00  0.00    +0.000 C 
ATOM     45  F7  UNL A   1      56.738  55.571  18.891  1.00  0.00    +0.000 F 
ATOM     46  C33 UNL A   1      55.592  56.797  20.552  1.00  0.00    +0.000 C 
ATOM     47  F8  UNL A   1      56.689  57.527  20.791  1.00  0.00    +0.000 F 
ATOM     48  C34 UNL A   1      54.435  57.022  21.284  1.00  0.00    +0.000 C 
ATOM     49  F9  UNL A   1      54.408  57.984  22.216  1.00  0.00    +0.000 F 
ATOM     50  C35 UNL A   1      53.302  56.248  21.053  1.00  0.00    +0.000 C 
ATOM     51  F10 UNL A   1      52.202  56.479  21.786  1.00  0.00    +0.000 F 
ENDBRANCH   40   41
BRANCH   55   56
ATOM     65  C44 UNL A   1      47.225  57.438  16.275  1.00  0.00    +0.000 C 
ATOM     66  F15 UNL A   1      46.928  57.606  17.572  1.00  0.00    +0.000 F 
ATOM     56  C39 UNL A   1      47.856  56.264  15.845  1.00  0.00    +0.000 C 
ATOM     57  C40 UNL A   1      48.142  56.136  14.478  1.00  0.00    +0.000 C 
ATOM     58  F11 UNL A   1      48.764  55.038  14.024  1.00  0.00    +0.000 F 
ATOM     59  C41 UNL A   1      47.826  57.154  13.580  1.00  0.00    +0.000 C 
ATOM     60  F12 UNL A   1      48.148  57.024  12.285  1.00  0.00    +0.000 F 
ATOM     61  C42 UNL A   1      47.194  58.304  14.025  1.00  0.00    +0.000 C 
ATOM     62  F13 UNL A   1      46.888  59.280  13.162  1.00  0.00    +0.000 F 
ATOM     63  C43 UNL A   1      46.887  58.444  15.371  1.00  0.00    +0.000 C 
ATOM     64  F14 UNL A   1      46.265  59.549  15.804  1.00  0.00    +0.000 F 
ENDBRANCH   55   56
TORSDOF 20
ENDMDL
MODEL 7
REMARK VINA RESULT:      -9.3     28.736     35.863
ROOT
ATOM     19  C15 UNL A   1       1.052   9.835  36.875  1.00  0.00    +0.000 C 
ATOM     20  C16 UNL A   1       1.251  11.095  37.670  1.00  0.00    +0.000 C 
ATOM     21  N3  UNL A   1       0.398  12.055  37.930  1.00  0.00    +0.000 N 
ATOM     22  C17 UNL A   1       1.076  12.951  38.746  1.00  0.00    +0.000 C 
ATOM     23  C18 UNL A   1       0.647  14.138  39.237  1.00  0.00    +0.000 C 
ATOM     35  C25 UNL A   1      -0.650  14.702  38.971  1.00  0.00    +0.000 C 
ATOM     36  C26 UNL A   1      -1.154  15.932  39.356  1.00  0.00    +0.000 C 
ATOM     37  C27 UNL A   1      -2.473  16.027  38.902  1.00  0.00    +0.000 C 
ATOM     38  C28 UNL A   1      -2.777  14.875  38.193  1.00  0.00    +0.000 C 
ATOM     39  N4  UNL A   1      -1.650  14.070  38.246  1.00  0.00    +0.000 N 
ATOM     40  C29 UNL A   1      -4.001  14.534  37.515  1.00  0.00    +0.000 C 
ATOM     52  C36 UNL A   1      -4.221  13.380  36.839  1.00  0.00    +0.000 C 
ATOM     53  N5  UNL A   1      -3.359  12.311  36.632  1.00  0.00    +0.000 N 
ATOM     54  C37 UNL A   1      -4.033  11.436  35.927  1.00  0.00    +0.000 C 
ATOM     55  C38 UNL A   1      -3.586  10.107  35.383  1.00  0.00    +0.000 C 
ATOM     67  C45 UNL A   1      -2.328   9.689  35.616  1.00  0.00    +0.000 C 
ATOM     68  C46 UNL A   1      -1.745   8.438  35.140  1.00  0.00    +0.000 C 
ATOM     69  C47 UNL A   1      -0.475   8.356  35.567  1.00  0.00    +0.000 C 
ATOM     70  C48 UNL A   1      -0.146   9.564  36.323  1.00  0.00    +0.000 C 
ATOM     71  N6  UNL A   1      -1.310  10.290  36.316  1.00  0.00    +0.000 N 
ATOM     72  C49 UNL A   1      -5.415  11.838  35.634  1.00  0.00    +0.000 C 
ATOM     73  C50 UNL A   1      -5.464  13.047  36.175  1.00  0.00    +0.000 C 
ATOM     74  C51 UNL A   1       2.393  12.400  38.978  1.00  0.00    +0.000 C 
ATOM     75  C52 UNL A   1       2.577  11.291  38.277  1.00  0.00    +0.000 C 
ATOM    112  H21 UNL A   1      -0.644  16.655  39.889  1.00  0.00    +0.000 H 
ATOM    113  H22 UNL A   1      -3.114  16.820  39.067  1.00  0.00    +0.000 H 
ATOM    114  H23 UNL A   1      -1.571  13.180  37.832  1.00  0.00    +0.000 H 
ATOM    115  H24 UNL A   1      -2.232   7.731  34.567  1.00  0.00    +0.000 H 
ATOM    116  H25 UNL A   1       0.167   7.566  35.391  1.00  0.00    +0.000 H 
ATOM    117  H26 UNL A   1      -1.407  11.159  36.769  1.00  0.00    +0.000 H 
ATOM    118  H27 UNL A   1      -6.155  11.315  35.139  1.00  0.00    +0.000 H 
ATOM    119  H28 UNL A   1      -6.284  13.672  36.129  1.00  0.00    +0.000 H 
ATOM    120  H29 UNL A   1       3.097  12.817  39.607  1.00  0.00    +0.000 H 
ATOM    121  H30 UNL A   1       3.428  10.715  38.182  1.00  0.00    +0.000 H 
ENDROOT
BRANCH   19   18
ATOM     76  C53 UNL A   1       2.315   7.846  37.704  1.00  0.00    +0.000 C 
ATOM     77  C54 UNL A   1       3.388   6.962  37.627  1.00  0.00    +0.000 C 
ATOM    110  H19 UNL A   1       4.775   8.070  34.780  1.00  0.00    +0.000 H 
ATOM     15  C11 UNL A   1       4.259   7.012  36.535  1.00  0.00    +0.000 C 
ATOM     16  C12 UNL A   1       4.116   8.017  35.572  1.00  0.00    +0.000 C 
ATOM     17  C13 UNL A   1       3.080   8.945  35.686  1.00  0.00    +0.000 C 
ATOM    111  H20 UNL A   1       2.991   9.701  34.990  1.00  0.00    +0.000 H 
ATOM     18  C14 UNL A   1       2.161   8.857  36.743  1.00  0.00    +0.000 C 
ATOM    122  H31 UNL A   1       1.629   7.756  38.470  1.00  0.00    +0.000 H 
ATOM    123  H32 UNL A   1       3.542   6.269  38.377  1.00  0.00    +0.000 H 
BRANCH   15   13
ATOM     13  C10 UNL A   1       5.366   6.042  36.390  1.00  0.00    +0.000 C 
ATOM     14  O2  UNL A   1       5.887   5.872  35.291  1.00  0.00    +0.000 O 
BRANCH   13   12
ATOM     12  N2  UNL A   1       5.801   5.326  37.475  1.00  0.00    +0.000 N 
ATOM    109  H18 UNL A   1       5.780   4.346  37.371  1.00  0.00    +0.000 H 
BRANCH   12   11
ATOM     11  C9  UNL A   1       6.288   5.807  38.756  1.00  0.00    +0.000 C 
ATOM    108  H17 UNL A   1       6.413   4.962  39.400  1.00  0.00    +0.000 H 
ATOM    107  H16 UNL A   1       5.578   6.501  39.156  1.00  0.00    +0.000 H 
BRANCH   11   10
ATOM    105  H14 UNL A   1       8.156   6.397  39.562  1.00  0.00    +0.000 H 
ATOM     10  C8  UNL A   1       7.638   6.505  38.632  1.00  0.00    +0.000 C 
ATOM    106  H15 UNL A   1       8.145   6.040  37.812  1.00  0.00    +0.000 H 
BRANCH   10    9
ATOM      9  C7  UNL A   1       7.559   7.997  38.301  1.00  0.00    +0.000 C 
ATOM    103  H12 UNL A   1       8.473   8.456  38.617  1.00  0.00    +0.000 H 
ATOM    104  H13 UNL A   1       7.394   8.060  37.245  1.00  0.00    +0.000 H 
BRANCH    9    8
ATOM    101  H10 UNL A   1       5.547   8.099  38.969  1.00  0.00    +0.000 H 
ATOM    102  H11 UNL A   1       6.737   9.020  39.938  1.00  0.00    +0.000 H 
ATOM      8  C6  UNL A   1       6.398   8.747  38.960  1.00  0.00    +0.000 C 
BRANCH    8    7
ATOM     99  H8  UNL A   1       4.923  10.089  38.216  1.00  0.00    +0.000 H 
ATOM    100  H9  UNL A   1       6.402  10.853  38.854  1.00  0.00    +0.000 H 
ATOM      7  C5  UNL A   1       5.991  10.056  38.270  1.00  0.00    +0.000 C 
BRANCH    7    6
ATOM     97  H6  UNL A   1       6.982   9.288  36.543  1.00  0.00    +0.000 H 
ATOM     98  H7  UNL A   1       5.748  10.491  36.200  1.00  0.00    +0.000 H 
ATOM      6  C4  UNL A   1       6.548  10.215  36.855  1.00  0.00    +0.000 C 
BRANCH    6    5
ATOM      5  N1  UNL A   1       7.559  11.249  36.812  1.00  0.00    +0.000 N 
ATOM     96  H5  UNL A   1       8.364  11.068  37.349  1.00  0.00    +0.000 H 
BRANCH    5    3
ATOM      3  C3  UNL A   1       7.568  12.437  36.139  1.00  0.00    +0.000 C 
ATOM      4  O1  UNL A   1       7.566  12.372  34.908  1.00  0.00    +0.000 O 
BRANCH    3    2
ATOM      2  C2  UNL A   1       7.657  13.756  36.923  1.00  0.00    +0.000 C 
ATOM     95  H4  UNL A   1       7.024  14.437  36.394  1.00  0.00    +0.000 H 
BRANCH    2    1
ATOM      1  C1  UNL A   1       9.058  14.372  36.933  1.00  0.00    +0.000 C 
ATOM     92  H1  UNL A   1       9.063  15.235  37.567  1.00  0.00    +0.000 H 
ATOM     93  H2  UNL A   1       9.329  14.660  35.939  1.00  0.00    +0.000 H 
ATOM     94  H3  UNL A   1       9.762  13.656  37.301  1.00  0.00    +0.000 H 
ENDBRANCH    2    1
BRANCH    2   78
ATOM    136  H45 UNL A   1       8.103  12.693  41.427  1.00  0.00    +0.000 H 
ATOM     78  C55 UNL A   1       7.140  13.605  38.343  1.00  0.00    +0.000 C 
ATOM     79  C56 UNL A   1       5.815  13.931  38.647  1.00  0.00    +0.000 C 
ATOM     80  C57 UNL A   1       5.339  13.813  39.960  1.00  0.00    +0.000 C 
ATOM     81  C58 UNL A   1       6.141  13.330  40.998  1.00  0.00    +0.000 C 
ATOM     89  C64 UNL A   1       7.469  13.023  40.682  1.00  0.00    +0.000 C 
ATOM     90  C65 UNL A   1       7.954  13.153  39.382  1.00  0.00    +0.000 C 
ATOM     91  F16 UNL A   1       9.241  12.854  39.151  1.00  0.00    +0.000 F 
ATOM    124  H33 UNL A   1       5.184  14.259  37.901  1.00  0.00    +0.000 H 
ATOM    125  H34 UNL A   1       4.366  14.091  40.165  1.00  0.00    +0.000 H 
BRANCH   81   82
ATOM     82  N7  UNL A   1       5.748  13.245  42.321  1.00  0.00    +0.000 N 
ATOM    126  H35 UNL A   1       5.934  14.038  42.875  1.00  0.00    +0.000 H 
BRANCH   82   83
ATOM    129  H38 UNL A   1       5.240  12.096  45.164  1.00  0.00    +0.000 H 
ATOM    130  H39 UNL A   1       2.431  12.560  44.390  1.00  0.00    +0.000 H 
ATOM    131  H40 UNL A   1       3.038  11.347  45.446  1.00  0.00    +0.000 H 
ATOM    132  H41 UNL A   1       2.123  10.638  43.055  1.00  0.00    +0.000 H 
ATOM    133  H42 UNL A   1       3.537   9.862  43.610  1.00  0.00    +0.000 H 
ATOM    134  H43 UNL A   1       3.341  12.231  41.695  1.00  0.00    +0.000 H 
ATOM     83  C59 UNL A   1       5.095  12.131  43.001  1.00  0.00    +0.000 C 
ATOM     84  C60 UNL A   1       4.581  12.462  44.405  1.00  0.00    +0.000 C 
ATOM     85  C61 UNL A   1       3.195  11.819  44.498  1.00  0.00    +0.000 C 
ATOM     86  C62 UNL A   1       3.135  10.820  43.351  1.00  0.00    +0.000 C 
ATOM     87  C63 UNL A   1       3.913  11.510  42.240  1.00  0.00    +0.000 C 
ATOM    127  H36 UNL A   1       5.900  11.427  43.055  1.00  0.00    +0.000 H 
ATOM    128  H37 UNL A   1       4.510  13.522  44.537  1.00  0.00    +0.000 H 
BRANCH   87   88
ATOM    135  H44 UNL A   1       3.846   9.750  41.360  1.00  0.00    +0.000 H 
ATOM     88  O3  UNL A   1       4.341  10.577  41.259  1.00  0.00    +0.000 O 
ENDBRANCH   87   88
ENDBRANCH   82   83
ENDBRANCH   81   82
ENDBRANCH    2   78
ENDBRANCH    3    2
ENDBRANCH    5    3
ENDBRANCH    6    5
ENDBRANCH    7    6
ENDBRANCH    8    7
ENDBRANCH    9    8
ENDBRANCH   10    9
ENDBRANCH   11   10
ENDBRANCH   12   11
ENDBRANCH   13   12
ENDBRANCH   15   13
ENDBRANCH   19   18
BRANCH   23   24
ATOM     33  C24 UNL A   1       2.337  15.974  39.595  1.00  0.00    +0.000 C 
ATOM     34  F5  UNL A   1       2.203  16.330  38.309  1.00  0.00    +0.000 F 
ATOM     24  C19 UNL A   1       1.590  14.907  40.116  1.00  0.00    +0.000 C 
ATOM     25  C20 UNL A   1       1.775  14.576  41.468  1.00  0.00    +0.000 C 
ATOM     26  F1  UNL A   1       1.076  13.572  42.018  1.00  0.00    +0.000 F 
ATOM     27  C21 UNL A   1       2.646  15.306  42.272  1.00  0.00    +0.000 C 
ATOM     28  F2  UNL A   1       2.764  15.006  43.572  1.00  0.00    +0.000 F 
ATOM     29  C22 UNL A   1       3.376  16.355  41.735  1.00  0.00    +0.000 C 
ATOM     30  F3  UNL A   1       4.215  17.055  42.509  1.00  0.00    +0.000 F 
ATOM     31  C23 UNL A   1       3.229  16.683  40.396  1.00  0.00    +0.000 C 
ATOM     32  F4  UNL A   1       3.943  17.689  39.871  1.00  0.00    +0.000 F 
ENDBRANCH   23   24
BRANCH   40   41
ATOM     41  C30 UNL A   1      -5.115  15.540  37.535  1.00  0.00    +0.000 C 
ATOM     42  C31 UNL A   1      -5.412  16.332  36.417  1.00  0.00    +0.000 C 
ATOM     43  F6  UNL A   1      -4.669  16.237  35.304  1.00  0.00    +0.000 F 
ATOM     44  C32 UNL A   1      -6.452  17.257  36.453  1.00  0.00    +0.000 C 
ATOM     45  F7  UNL A   1      -6.689  18.039  35.390  1.00  0.00    +0.000 F 
ATOM     46  C33 UNL A   1      -7.234  17.383  37.592  1.00  0.00    +0.000 C 
ATOM     47  F8  UNL A   1      -8.237  18.271  37.624  1.00  0.00    +0.000 F 
ATOM     48  C34 UNL A   1      -6.970  16.595  38.702  1.00  0.00    +0.000 C 
ATOM     49  F9  UNL A   1      -7.730  16.706  39.800  1.00  0.00    +0.000 F 
ATOM     50  C35 UNL A   1      -5.913  15.690  38.679  1.00  0.00    +0.000 C 
ATOM     51  F10 UNL A   1      -5.672  14.951  39.773  1.00  0.00    +0.000 F 
ENDBRANCH   40   41
BRANCH   55   56
ATOM     65  C44 UNL A   1      -5.271   8.251  35.118  1.00  0.00    +0.000 C 
ATOM     66  F15 UNL A   1      -5.188   7.991  36.431  1.00  0.00    +0.000 F 
ATOM     56  C39 UNL A   1      -4.501   9.277  34.555  1.00  0.00    +0.000 C 
ATOM     57  C40 UNL A   1      -4.620   9.506  33.178  1.00  0.00    +0.000 C 
ATOM     58  F11 UNL A   1      -3.918  10.492  32.598  1.00  0.00    +0.000 F 
ATOM     59  C41 UNL A   1      -5.492   8.750  32.396  1.00  0.00    +0.000 C 
ATOM     60  F12 UNL A   1      -5.618   9.016  31.089  1.00  0.00    +0.000 F 
ATOM     61  C42 UNL A   1      -6.238   7.733  32.972  1.00  0.00    +0.000 C 
ATOM     62  F13 UNL A   1      -7.073   7.004  32.221  1.00  0.00    +0.000 F 
ATOM     63  C43 UNL A   1      -6.123   7.479  34.331  1.00  0.00    +0.000 C 
ATOM     64  F14 UNL A   1      -6.833   6.489  34.888  1.00  0.00    +0.000 F 
ENDBRANCH   55   56
TORSDOF 20
ENDMDL
MODEL 8
REMARK VINA RESULT:      -9.2     40.341     49.337
ROOT
ATOM     19  C15 UNL A   1      22.195   8.765   7.554  1.00  0.00    +0.000 C 
ATOM     20  C16 UNL A   1      23.316   8.184   6.740  1.00  0.00    +0.000 C 
ATOM     21  N3  UNL A   1      23.731   6.943   6.664  1.00  0.00    +0.000 N 
ATOM     22  C17 UNL A   1      24.758   6.944   5.730  1.00  0.00    +0.000 C 
ATOM     23  C18 UNL A   1      25.548   5.914   5.341  1.00  0.00    +0.000 C 
ATOM     35  C25 UNL A   1      25.456   4.580   5.872  1.00  0.00    +0.000 C 
ATOM     36  C26 UNL A   1      26.259   3.485   5.603  1.00  0.00    +0.000 C 
ATOM     37  C27 UNL A   1      25.764   2.391   6.321  1.00  0.00    +0.000 C 
ATOM     38  C28 UNL A   1      24.680   2.815   7.073  1.00  0.00    +0.000 C 
ATOM     39  N4  UNL A   1      24.501   4.159   6.786  1.00  0.00    +0.000 N 
ATOM     40  C29 UNL A   1      23.869   2.054   7.988  1.00  0.00    +0.000 C 
ATOM     52  C36 UNL A   1      22.819   2.545   8.692  1.00  0.00    +0.000 C 
ATOM     53  N5  UNL A   1      22.309   3.836   8.712  1.00  0.00    +0.000 N 
ATOM     54  C37 UNL A   1      21.292   3.808   9.537  1.00  0.00    +0.000 C 
ATOM     55  C38 UNL A   1      20.390   4.930   9.974  1.00  0.00    +0.000 C 
ATOM     67  C45 UNL A   1      20.595   6.168   9.484  1.00  0.00    +0.000 C 
ATOM     68  C46 UNL A   1      19.819   7.357   9.825  1.00  0.00    +0.000 C 
ATOM     69  C47 UNL A   1      20.305   8.407   9.144  1.00  0.00    +0.000 C 
ATOM     70  C48 UNL A   1      21.446   7.969   8.341  1.00  0.00    +0.000 C 
ATOM     71  N6  UNL A   1      21.534   6.623   8.591  1.00  0.00    +0.000 N 
ATOM     72  C49 UNL A   1      21.020   2.483  10.111  1.00  0.00    +0.000 C 
ATOM     73  C50 UNL A   1      22.005   1.760   9.596  1.00  0.00    +0.000 C 
ATOM     74  C51 UNL A   1      24.873   8.296   5.229  1.00  0.00    +0.000 C 
ATOM     75  C52 UNL A   1      24.055   9.115   5.872  1.00  0.00    +0.000 C 
ATOM    112  H21 UNL A   1      27.081   3.477   4.979  1.00  0.00    +0.000 H 
ATOM    113  H22 UNL A   1      26.141   1.430   6.294  1.00  0.00    +0.000 H 
ATOM    114  H23 UNL A   1      23.798   4.731   7.171  1.00  0.00    +0.000 H 
ATOM    115  H24 UNL A   1      19.025   7.385  10.484  1.00  0.00    +0.000 H 
ATOM    116  H25 UNL A   1      19.932   9.369   9.181  1.00  0.00    +0.000 H 
ATOM    117  H26 UNL A   1      22.206   6.038   8.171  1.00  0.00    +0.000 H 
ATOM    118  H27 UNL A   1      20.261   2.192  10.747  1.00  0.00    +0.000 H 
ATOM    119  H28 UNL A   1      22.170   0.765   9.813  1.00  0.00    +0.000 H 
ATOM    120  H29 UNL A   1      25.509   8.583   4.469  1.00  0.00    +0.000 H 
ATOM    121  H30 UNL A   1      23.961  10.139   5.788  1.00  0.00    +0.000 H 
ENDROOT
BRANCH   19   18
ATOM     76  C53 UNL A   1      22.527  11.130   8.286  1.00  0.00    +0.000 C 
ATOM     77  C54 UNL A   1      22.189  12.480   8.246  1.00  0.00    +0.000 C 
ATOM    110  H19 UNL A   1      19.912  12.373   5.783  1.00  0.00    +0.000 H 
ATOM     15  C11 UNL A   1      21.270  12.942   7.299  1.00  0.00    +0.000 C 
ATOM     16  C12 UNL A   1      20.610  12.035   6.464  1.00  0.00    +0.000 C 
ATOM     17  C13 UNL A   1      20.900  10.672   6.552  1.00  0.00    +0.000 C 
ATOM    111  H20 UNL A   1      20.395  10.001   5.953  1.00  0.00    +0.000 H 
ATOM     18  C14 UNL A   1      21.874  10.211   7.451  1.00  0.00    +0.000 C 
ATOM    122  H31 UNL A   1      23.263  10.803   8.932  1.00  0.00    +0.000 H 
ATOM    123  H32 UNL A   1      22.617  13.139   8.914  1.00  0.00    +0.000 H 
BRANCH   15   13
ATOM     13  C10 UNL A   1      20.943  14.379   7.186  1.00  0.00    +0.000 C 
ATOM     14  O2  UNL A   1      19.929  14.728   6.586  1.00  0.00    +0.000 O 
BRANCH   13   12
ATOM     12  N2  UNL A   1      21.773  15.321   7.736  1.00  0.00    +0.000 N 
ATOM    109  H18 UNL A   1      22.737  15.129   7.665  1.00  0.00    +0.000 H 
BRANCH   12   11
ATOM     11  C9  UNL A   1      21.433  16.562   8.410  1.00  0.00    +0.000 C 
ATOM    108  H17 UNL A   1      20.657  16.352   9.116  1.00  0.00    +0.000 H 
ATOM    107  H16 UNL A   1      21.112  17.274   7.678  1.00  0.00    +0.000 H 
BRANCH   11   10
ATOM    105  H14 UNL A   1      23.330  17.502   8.461  1.00  0.00    +0.000 H 
ATOM     10  C8  UNL A   1      22.617  17.144   9.174  1.00  0.00    +0.000 C 
ATOM    106  H15 UNL A   1      22.222  17.919   9.799  1.00  0.00    +0.000 H 
BRANCH   10    9
ATOM      9  C7  UNL A   1      23.326  16.158  10.104  1.00  0.00    +0.000 C 
ATOM    103  H12 UNL A   1      22.989  15.171   9.862  1.00  0.00    +0.000 H 
ATOM    104  H13 UNL A   1      24.375  16.300   9.946  1.00  0.00    +0.000 H 
BRANCH    9    8
ATOM    101  H10 UNL A   1      22.371  15.663  11.934  1.00  0.00    +0.000 H 
ATOM    102  H11 UNL A   1      24.040  16.296  12.072  1.00  0.00    +0.000 H 
ATOM      8  C6  UNL A   1      23.084  16.387  11.599  1.00  0.00    +0.000 C 
BRANCH    8    7
ATOM     99  H8  UNL A   1      22.647  18.413  11.111  1.00  0.00    +0.000 H 
ATOM    100  H9  UNL A   1      21.541  17.651  12.282  1.00  0.00    +0.000 H 
ATOM      7  C5  UNL A   1      22.556  17.780  11.969  1.00  0.00    +0.000 C 
BRANCH    7    6
ATOM     97  H6  UNL A   1      23.235  19.502  13.030  1.00  0.00    +0.000 H 
ATOM     98  H7  UNL A   1      22.840  18.127  14.049  1.00  0.00    +0.000 H 
ATOM      6  C4  UNL A   1      23.296  18.439  13.133  1.00  0.00    +0.000 C 
BRANCH    6    5
ATOM      5  N1  UNL A   1      24.687  18.043  13.150  1.00  0.00    +0.000 N 
ATOM     96  H5  UNL A   1      24.851  17.089  12.972  1.00  0.00    +0.000 H 
BRANCH    5    3
ATOM      3  C3  UNL A   1      25.808  18.790  13.374  1.00  0.00    +0.000 C 
ATOM      4  O1  UNL A   1      26.447  18.532  14.395  1.00  0.00    +0.000 O 
BRANCH    3    2
ATOM      2  C2  UNL A   1      26.164  19.934  12.411  1.00  0.00    +0.000 C 
ATOM     95  H4  UNL A   1      27.041  20.385  12.828  1.00  0.00    +0.000 H 
BRANCH    2    1
ATOM      1  C1  UNL A   1      25.098  21.030  12.335  1.00  0.00    +0.000 C 
ATOM     92  H1  UNL A   1      25.389  21.761  11.609  1.00  0.00    +0.000 H 
ATOM     93  H2  UNL A   1      24.998  21.499  13.291  1.00  0.00    +0.000 H 
ATOM     94  H3  UNL A   1      24.162  20.598  12.050  1.00  0.00    +0.000 H 
ENDBRANCH    2    1
BRANCH    2   78
ATOM    136  H45 UNL A   1      28.965  18.039   9.221  1.00  0.00    +0.000 H 
ATOM     78  C55 UNL A   1      26.490  19.421  11.019  1.00  0.00    +0.000 C 
ATOM     79  C56 UNL A   1      25.521  19.455  10.012  1.00  0.00    +0.000 C 
ATOM     80  C57 UNL A   1      25.811  18.965   8.732  1.00  0.00    +0.000 C 
ATOM     81  C58 UNL A   1      27.073  18.469   8.397  1.00  0.00    +0.000 C 
ATOM     89  C64 UNL A   1      28.029  18.427   9.419  1.00  0.00    +0.000 C 
ATOM     90  C65 UNL A   1      27.743  18.898  10.699  1.00  0.00    +0.000 C 
ATOM     91  F16 UNL A   1      28.701  18.815  11.635  1.00  0.00    +0.000 F 
ATOM    124  H33 UNL A   1      24.587  19.844  10.213  1.00  0.00    +0.000 H 
ATOM    125  H34 UNL A   1      25.068  18.971   8.015  1.00  0.00    +0.000 H 
BRANCH   81   82
ATOM     82  N7  UNL A   1      27.404  17.920   7.172  1.00  0.00    +0.000 N 
ATOM    126  H35 UNL A   1      28.101  18.395   6.663  1.00  0.00    +0.000 H 
BRANCH   82   83
ATOM    129  H38 UNL A   1      27.298  14.829   7.483  1.00  0.00    +0.000 H 
ATOM    130  H39 UNL A   1      24.409  15.375   7.725  1.00  0.00    +0.000 H 
ATOM    131  H40 UNL A   1      25.157  13.963   7.092  1.00  0.00    +0.000 H 
ATOM    132  H41 UNL A   1      23.915  15.623   5.430  1.00  0.00    +0.000 H 
ATOM    133  H42 UNL A   1      25.392  14.953   4.903  1.00  0.00    +0.000 H 
ATOM    134  H43 UNL A   1      24.932  17.704   6.144  1.00  0.00    +0.000 H 
ATOM     83  C59 UNL A   1      26.852  16.727   6.536  1.00  0.00    +0.000 C 
ATOM     84  C60 UNL A   1      26.540  15.583   7.504  1.00  0.00    +0.000 C 
ATOM     85  C61 UNL A   1      25.180  15.033   7.067  1.00  0.00    +0.000 C 
ATOM     86  C62 UNL A   1      24.959  15.572   5.661  1.00  0.00    +0.000 C 
ATOM     87  C63 UNL A   1      25.574  16.963   5.715  1.00  0.00    +0.000 C 
ATOM    127  H36 UNL A   1      27.655  16.455   5.884  1.00  0.00    +0.000 H 
ATOM    128  H37 UNL A   1      26.489  15.947   8.510  1.00  0.00    +0.000 H 
BRANCH   87   88
ATOM    135  H44 UNL A   1      25.032  17.687   3.967  1.00  0.00    +0.000 H 
ATOM     88  O3  UNL A   1      25.859  17.449   4.412  1.00  0.00    +0.000 O 
ENDBRANCH   87   88
ENDBRANCH   82   83
ENDBRANCH   81   82
ENDBRANCH    2   78
ENDBRANCH    3    2
ENDBRANCH    5    3
ENDBRANCH    6    5
ENDBRANCH    7    6
ENDBRANCH    8    7
ENDBRANCH    9    8
ENDBRANCH   10    9
ENDBRANCH   11   10
ENDBRANCH   12   11
ENDBRANCH   13   12
ENDBRANCH   15   13
ENDBRANCH   19   18
BRANCH   23   24
ATOM     33  C24 UNL A   1      27.874   6.600   4.653  1.00  0.00    +0.000 C 
ATOM     34  F5  UNL A   1      28.204   6.729   5.946  1.00  0.00    +0.000 F 
ATOM     24  C19 UNL A   1      26.581   6.192   4.289  1.00  0.00    +0.000 C 
ATOM     25  C20 UNL A   1      26.291   6.079   2.920  1.00  0.00    +0.000 C 
ATOM     26  F1  UNL A   1      25.074   5.680   2.520  1.00  0.00    +0.000 F 
ATOM     27  C21 UNL A   1      27.265   6.329   1.957  1.00  0.00    +0.000 C 
ATOM     28  F2  UNL A   1      26.979   6.161   0.659  1.00  0.00    +0.000 F 
ATOM     29  C22 UNL A   1      28.534   6.735   2.340  1.00  0.00    +0.000 C 
ATOM     30  F3  UNL A   1      29.469   6.978   1.412  1.00  0.00    +0.000 F 
ATOM     31  C23 UNL A   1      28.836   6.878   3.686  1.00  0.00    +0.000 C 
ATOM     32  F4  UNL A   1      30.060   7.282   4.057  1.00  0.00    +0.000 F 
ENDBRANCH   23   24
BRANCH   40   41
ATOM     41  C30 UNL A   1      24.223   0.611   8.203  1.00  0.00    +0.000 C 
ATOM     42  C31 UNL A   1      23.680  -0.407   7.408  1.00  0.00    +0.000 C 
ATOM     43  F6  UNL A   1      22.784  -0.114   6.452  1.00  0.00    +0.000 F 
ATOM     44  C32 UNL A   1      24.024  -1.740   7.620  1.00  0.00    +0.000 C 
ATOM     45  F7  UNL A   1      23.455  -2.703   6.881  1.00  0.00    +0.000 F 
ATOM     46  C33 UNL A   1      24.941  -2.075   8.605  1.00  0.00    +0.000 C 
ATOM     47  F8  UNL A   1      25.274  -3.357   8.805  1.00  0.00    +0.000 F 
ATOM     48  C34 UNL A   1      25.506  -1.081   9.389  1.00  0.00    +0.000 C 
ATOM     49  F9  UNL A   1      26.402  -1.400  10.333  1.00  0.00    +0.000 F 
ATOM     50  C35 UNL A   1      25.143   0.249   9.199  1.00  0.00    +0.000 C 
ATOM     51  F10 UNL A   1      25.696   1.188   9.983  1.00  0.00    +0.000 F 
ENDBRANCH   40   41
BRANCH   55   56
ATOM     65  C44 UNL A   1      19.559   4.762  12.347  1.00  0.00    +0.000 C 
ATOM     66  F15 UNL A   1      20.793   5.032  12.796  1.00  0.00    +0.000 F 
ATOM     56  C39 UNL A   1      19.312   4.697  10.969  1.00  0.00    +0.000 C 
ATOM     57  C40 UNL A   1      18.005   4.407  10.551  1.00  0.00    +0.000 C 
ATOM     58  F11 UNL A   1      17.717   4.356   9.242  1.00  0.00    +0.000 F 
ATOM     59  C41 UNL A   1      16.982   4.210  11.476  1.00  0.00    +0.000 C 
ATOM     60  F12 UNL A   1      15.733   3.976  11.049  1.00  0.00    +0.000 F 
ATOM     61  C42 UNL A   1      17.250   4.270  12.834  1.00  0.00    +0.000 C 
ATOM     62  F13 UNL A   1      16.268   4.077  13.723  1.00  0.00    +0.000 F 
ATOM     63  C43 UNL A   1      18.539   4.539  13.270  1.00  0.00    +0.000 C 
ATOM     64  F14 UNL A   1      18.806   4.585  14.583  1.00  0.00    +0.000 F 
ENDBRANCH   55   56
TORSDOF 20
ENDMDL
MODEL 9
REMARK VINA RESULT:      -9.0     40.623     47.313
ROOT
ATOM     19  C15 UNL A   1      21.764  15.966   8.766  1.00  0.00    +0.000 C 
ATOM     20  C16 UNL A   1      21.985  14.532   8.376  1.00  0.00    +0.000 C 
ATOM     21  N3  UNL A   1      21.269  13.765   7.591  1.00  0.00    +0.000 N 
ATOM     22  C17 UNL A   1      21.944  12.554   7.528  1.00  0.00    +0.000 C 
ATOM     23  C18 UNL A   1      21.578  11.415   6.892  1.00  0.00    +0.000 C 
ATOM     35  C25 UNL A   1      20.357  11.261   6.147  1.00  0.00    +0.000 C 
ATOM     36  C26 UNL A   1      19.857  10.127   5.531  1.00  0.00    +0.000 C 
ATOM     37  C27 UNL A   1      18.659  10.466   4.894  1.00  0.00    +0.000 C 
ATOM     38  C28 UNL A   1      18.388  11.801   5.152  1.00  0.00    +0.000 C 
ATOM     39  N4  UNL A   1      19.440  12.277   5.918  1.00  0.00    +0.000 N 
ATOM     40  C29 UNL A   1      17.255  12.585   4.732  1.00  0.00    +0.000 C 
ATOM     52  C36 UNL A   1      17.062  13.895   5.027  1.00  0.00    +0.000 C 
ATOM     53  N5  UNL A   1      17.859  14.747   5.780  1.00  0.00    +0.000 N 
ATOM     54  C37 UNL A   1      17.254  15.909   5.770  1.00  0.00    +0.000 C 
ATOM     55  C38 UNL A   1      17.645  17.191   6.453  1.00  0.00    +0.000 C 
ATOM     67  C45 UNL A   1      18.767  17.225   7.195  1.00  0.00    +0.000 C 
ATOM     68  C46 UNL A   1      19.266  18.384   7.930  1.00  0.00    +0.000 C 
ATOM     69  C47 UNL A   1      20.409  18.052   8.550  1.00  0.00    +0.000 C 
ATOM     70  C48 UNL A   1      20.707  16.645   8.280  1.00  0.00    +0.000 C 
ATOM     71  N6  UNL A   1      19.690  16.241   7.453  1.00  0.00    +0.000 N 
ATOM     72  C49 UNL A   1      16.016  15.934   4.979  1.00  0.00    +0.000 C 
ATOM     73  C50 UNL A   1      15.924  14.672   4.584  1.00  0.00    +0.000 C 
ATOM     74  C51 UNL A   1      23.151  12.700   8.312  1.00  0.00    +0.000 C 
ATOM     75  C52 UNL A   1      23.188  13.878   8.915  1.00  0.00    +0.000 C 
ATOM    112  H21 UNL A   1      20.293   9.191   5.540  1.00  0.00    +0.000 H 
ATOM    113  H22 UNL A   1      18.074   9.831   4.327  1.00  0.00    +0.000 H 
ATOM    114  H23 UNL A   1      19.525  13.200   6.251  1.00  0.00    +0.000 H 
ATOM    115  H24 UNL A   1      18.812  19.310   7.966  1.00  0.00    +0.000 H 
ATOM    116  H25 UNL A   1      20.985  18.686   9.126  1.00  0.00    +0.000 H 
ATOM    117  H26 UNL A   1      19.626  15.331   7.080  1.00  0.00    +0.000 H 
ATOM    118  H27 UNL A   1      15.385  16.726   4.782  1.00  0.00    +0.000 H 
ATOM    119  H28 UNL A   1      15.139  14.291   4.032  1.00  0.00    +0.000 H 
ATOM    120  H29 UNL A   1      23.886  11.980   8.390  1.00  0.00    +0.000 H 
ATOM    121  H30 UNL A   1      23.880  14.242   9.588  1.00  0.00    +0.000 H 
ENDROOT
BRANCH   19   18
ATOM     76  C53 UNL A   1      22.554  16.641  11.038  1.00  0.00    +0.000 C 
ATOM     77  C54 UNL A   1      23.425  17.338  11.871  1.00  0.00    +0.000 C 
ATOM    110  H19 UNL A   1      25.559  18.485   9.549  1.00  0.00    +0.000 H 
ATOM     15  C11 UNL A   1      24.549  17.971  11.333  1.00  0.00    +0.000 C 
ATOM     16  C12 UNL A   1      24.743  17.995   9.948  1.00  0.00    +0.000 C 
ATOM     17  C13 UNL A   1      23.832  17.354   9.108  1.00  0.00    +0.000 C 
ATOM    111  H20 UNL A   1      23.962  17.393   8.085  1.00  0.00    +0.000 H 
ATOM     18  C14 UNL A   1      22.740  16.656   9.647  1.00  0.00    +0.000 C 
ATOM    122  H31 UNL A   1      21.768  16.109  11.445  1.00  0.00    +0.000 H 
ATOM    123  H32 UNL A   1      23.240  17.388  12.885  1.00  0.00    +0.000 H 
BRANCH   15   13
ATOM     13  C10 UNL A   1      25.529  18.660  12.200  1.00  0.00    +0.000 C 
ATOM     14  O2  UNL A   1      25.328  18.731  13.410  1.00  0.00    +0.000 O 
BRANCH   13   12
ATOM     12  N2  UNL A   1      26.651  19.228  11.656  1.00  0.00    +0.000 N 
ATOM    109  H18 UNL A   1      27.260  18.606  11.195  1.00  0.00    +0.000 H 
BRANCH   12   11
ATOM     11  C9  UNL A   1      27.070  20.620  11.664  1.00  0.00    +0.000 C 
ATOM    108  H17 UNL A   1      27.977  20.693  11.102  1.00  0.00    +0.000 H 
ATOM    107  H16 UNL A   1      27.212  20.930  12.678  1.00  0.00    +0.000 H 
BRANCH   11   10
ATOM    105  H14 UNL A   1      25.073  21.270  11.388  1.00  0.00    +0.000 H 
ATOM     10  C8  UNL A   1      26.039  21.534  11.011  1.00  0.00    +0.000 C 
ATOM    106  H15 UNL A   1      26.326  22.536  11.255  1.00  0.00    +0.000 H 
BRANCH   10    9
ATOM      9  C7  UNL A   1      25.992  21.457   9.484  1.00  0.00    +0.000 C 
ATOM    103  H12 UNL A   1      25.251  20.735   9.210  1.00  0.00    +0.000 H 
ATOM    104  H13 UNL A   1      25.770  22.446   9.142  1.00  0.00    +0.000 H 
BRANCH    9    8
ATOM    101  H10 UNL A   1      27.728  21.936   8.360  1.00  0.00    +0.000 H 
ATOM    102  H11 UNL A   1      27.924  20.645   9.585  1.00  0.00    +0.000 H 
ATOM      8  C6  UNL A   1      27.310  21.060   8.813  1.00  0.00    +0.000 C 
BRANCH    8    7
ATOM     99  H8  UNL A   1      27.453  19.036   8.171  1.00  0.00    +0.000 H 
ATOM    100  H9  UNL A   1      26.185  20.004   7.378  1.00  0.00    +0.000 H 
ATOM      7  C5  UNL A   1      27.193  19.977   7.733  1.00  0.00    +0.000 C 
BRANCH    7    6
ATOM     97  H6  UNL A   1      27.530  20.032   5.626  1.00  0.00    +0.000 H 
ATOM     98  H7  UNL A   1      28.452  21.214   6.543  1.00  0.00    +0.000 H 
ATOM      6  C4  UNL A   1      28.094  20.206   6.519  1.00  0.00    +0.000 C 
BRANCH    6    5
ATOM      5  N1  UNL A   1      29.230  19.312   6.543  1.00  0.00    +0.000 N 
ATOM     96  H5  UNL A   1      30.085  19.715   6.269  1.00  0.00    +0.000 H 
BRANCH    5    3
ATOM      3  C3  UNL A   1      29.299  17.992   6.890  1.00  0.00    +0.000 C 
ATOM      4  O1  UNL A   1      29.692  17.743   8.031  1.00  0.00    +0.000 O 
BRANCH    3    2
ATOM      2  C2  UNL A   1      28.968  16.913   5.847  1.00  0.00    +0.000 C 
ATOM     95  H4  UNL A   1      29.428  16.020   6.215  1.00  0.00    +0.000 H 
BRANCH    2    1
ATOM      1  C1  UNL A   1      29.572  17.185   4.467  1.00  0.00    +0.000 C 
ATOM     92  H1  UNL A   1      29.721  18.238   4.344  1.00  0.00    +0.000 H 
ATOM     93  H2  UNL A   1      28.905  16.829   3.709  1.00  0.00    +0.000 H 
ATOM     94  H3  UNL A   1      30.510  16.679   4.381  1.00  0.00    +0.000 H 
ENDBRANCH    2    1
BRANCH    2   78
ATOM    136  H45 UNL A   1      24.949  14.930   7.086  1.00  0.00    +0.000 H 
ATOM     78  C55 UNL A   1      27.471  16.681   5.728  1.00  0.00    +0.000 C 
ATOM     79  C56 UNL A   1      26.726  17.372   4.769  1.00  0.00    +0.000 C 
ATOM     80  C57 UNL A   1      25.342  17.177   4.668  1.00  0.00    +0.000 C 
ATOM     81  C58 UNL A   1      24.663  16.264   5.480  1.00  0.00    +0.000 C 
ATOM     89  C64 UNL A   1      25.419  15.590   6.446  1.00  0.00    +0.000 C 
ATOM     90  C65 UNL A   1      26.793  15.792   6.562  1.00  0.00    +0.000 C 
ATOM     91  F16 UNL A   1      27.455  15.123   7.518  1.00  0.00    +0.000 F 
ATOM    124  H33 UNL A   1      27.198  18.031   4.130  1.00  0.00    +0.000 H 
ATOM    125  H34 UNL A   1      24.809  17.724   3.974  1.00  0.00    +0.000 H 
BRANCH   81   82
ATOM     82  N7  UNL A   1      23.294  16.068   5.469  1.00  0.00    +0.000 N 
ATOM    126  H35 UNL A   1      22.878  15.903   6.346  1.00  0.00    +0.000 H 
BRANCH   82   83
ATOM    129  H38 UNL A   1      22.284  14.246   3.162  1.00  0.00    +0.000 H 
ATOM    130  H39 UNL A   1      19.701  14.678   4.518  1.00  0.00    +0.000 H 
ATOM    131  H40 UNL A   1      19.970  14.407   2.842  1.00  0.00    +0.000 H 
ATOM    132  H41 UNL A   1      19.217  16.822   3.656  1.00  0.00    +0.000 H 
ATOM    133  H42 UNL A   1      20.406  16.747   2.436  1.00  0.00    +0.000 H 
ATOM    134  H43 UNL A   1      20.833  17.143   5.433  1.00  0.00    +0.000 H 
ATOM     83  C59 UNL A   1      22.389  16.073   4.324  1.00  0.00    +0.000 C 
ATOM     84  C60 UNL A   1      21.787  14.706   3.989  1.00  0.00    +0.000 C 
ATOM     85  C61 UNL A   1      20.309  14.969   3.688  1.00  0.00    +0.000 C 
ATOM     86  C62 UNL A   1      20.206  16.469   3.450  1.00  0.00    +0.000 C 
ATOM     87  C63 UNL A   1      21.209  17.052   4.435  1.00  0.00    +0.000 C 
ATOM    127  H36 UNL A   1      23.049  16.390   3.544  1.00  0.00    +0.000 H 
ATOM    128  H37 UNL A   1      21.885  14.040   4.822  1.00  0.00    +0.000 H 
BRANCH   87   88
ATOM    135  H44 UNL A   1      22.464  18.569   4.409  1.00  0.00    +0.000 H 
ATOM     88  O3  UNL A   1      21.577  18.374   4.070  1.00  0.00    +0.000 O 
ENDBRANCH   87   88
ENDBRANCH   82   83
ENDBRANCH   81   82
ENDBRANCH    2   78
ENDBRANCH    3    2
ENDBRANCH    5    3
ENDBRANCH    6    5
ENDBRANCH    7    6
ENDBRANCH    8    7
ENDBRANCH    9    8
ENDBRANCH   10    9
ENDBRANCH   11   10
ENDBRANCH   12   11
ENDBRANCH   13   12
ENDBRANCH   15   13
ENDBRANCH   19   18
BRANCH   23   24
ATOM     33  C24 UNL A   1      22.524   9.421   8.111  1.00  0.00    +0.000 C 
ATOM     34  F5  UNL A   1      21.686   9.663   9.130  1.00  0.00    +0.000 F 
ATOM     24  C19 UNL A   1      22.514  10.244   6.975  1.00  0.00    +0.000 C 
ATOM     25  C20 UNL A   1      23.417   9.946   5.942  1.00  0.00    +0.000 C 
ATOM     26  F1  UNL A   1      23.439  10.694   4.828  1.00  0.00    +0.000 F 
ATOM     27  C21 UNL A   1      24.270   8.849   6.030  1.00  0.00    +0.000 C 
ATOM     28  F2  UNL A   1      25.084   8.553   5.008  1.00  0.00    +0.000 F 
ATOM     29  C22 UNL A   1      24.266   8.052   7.164  1.00  0.00    +0.000 C 
ATOM     30  F3  UNL A   1      25.089   6.999   7.248  1.00  0.00    +0.000 F 
ATOM     31  C23 UNL A   1      23.400   8.343   8.208  1.00  0.00    +0.000 C 
ATOM     32  F4  UNL A   1      23.403   7.581   9.311  1.00  0.00    +0.000 F 
ENDBRANCH   23   24
BRANCH   40   41
ATOM     41  C30 UNL A   1      16.190  11.900   3.927  1.00  0.00    +0.000 C 
ATOM     42  C31 UNL A   1      15.129  11.218   4.537  1.00  0.00    +0.000 C 
ATOM     43  F6  UNL A   1      15.065  11.124   5.874  1.00  0.00    +0.000 F 
ATOM     44  C32 UNL A   1      14.148  10.591   3.773  1.00  0.00    +0.000 C 
ATOM     45  F7  UNL A   1      13.169   9.903   4.376  1.00  0.00    +0.000 F 
ATOM     46  C33 UNL A   1      14.191  10.664   2.388  1.00  0.00    +0.000 C 
ATOM     47  F8  UNL A   1      13.244  10.064   1.654  1.00  0.00    +0.000 F 
ATOM     48  C34 UNL A   1      15.221  11.351   1.764  1.00  0.00    +0.000 C 
ATOM     49  F9  UNL A   1      15.259  11.434   0.427  1.00  0.00    +0.000 F 
ATOM     50  C35 UNL A   1      16.219  11.954   2.525  1.00  0.00    +0.000 C 
ATOM     51  F10 UNL A   1      17.211  12.600   1.893  1.00  0.00    +0.000 F 
ENDBRANCH   40   41
BRANCH   55   56
ATOM     65  C44 UNL A   1      15.776  18.658   7.293  1.00  0.00    +0.000 C 
ATOM     66  F15 UNL A   1      15.565  17.806   8.306  1.00  0.00    +0.000 F 
ATOM     56  C39 UNL A   1      16.784  18.398   6.355  1.00  0.00    +0.000 C 
ATOM     57  C40 UNL A   1      16.963  19.319   5.313  1.00  0.00    +0.000 C 
ATOM     58  F11 UNL A   1      17.928  19.122   4.403  1.00  0.00    +0.000 F 
ATOM     59  C41 UNL A   1      16.176  20.466   5.225  1.00  0.00    +0.000 C 
ATOM     60  F12 UNL A   1      16.396  21.351   4.242  1.00  0.00    +0.000 F 
ATOM     61  C42 UNL A   1      15.180  20.700   6.158  1.00  0.00    +0.000 C 
ATOM     62  F13 UNL A   1      14.422  21.800   6.072  1.00  0.00    +0.000 F 
ATOM     63  C43 UNL A   1      14.975  19.794   7.189  1.00  0.00    +0.000 C 
ATOM     64  F14 UNL A   1      14.004  20.010   8.087  1.00  0.00    +0.000 F 
ENDBRANCH   55   56
TORSDOF 20
ENDMDL
MODEL 10
REMARK VINA RESULT:      -9.0     21.437     28.310
ROOT
ATOM     19  C15 UNL A   1      43.115  28.062  33.691  1.00  0.00    +0.000 C 
ATOM     20  C16 UNL A   1      42.922  27.752  32.233  1.00  0.00    +0.000 C 
ATOM     21  N3  UNL A   1      42.046  28.240  31.390  1.00  0.00    +0.000 N 
ATOM     22  C17 UNL A   1      42.338  27.658  30.163  1.00  0.00    +0.000 C 
ATOM     23  C18 UNL A   1      41.681  27.794  28.986  1.00  0.00    +0.000 C 
ATOM     35  C25 UNL A   1      40.502  28.599  28.806  1.00  0.00    +0.000 C 
ATOM     36  C26 UNL A   1      39.718  28.742  27.675  1.00  0.00    +0.000 C 
ATOM     37  C27 UNL A   1      38.700  29.659  27.960  1.00  0.00    +0.000 C 
ATOM     38  C28 UNL A   1      38.824  30.052  29.284  1.00  0.00    +0.000 C 
ATOM     39  N4  UNL A   1      39.934  29.397  29.789  1.00  0.00    +0.000 N 
ATOM     40  C29 UNL A   1      37.990  30.957  30.033  1.00  0.00    +0.000 C 
ATOM     52  C36 UNL A   1      38.178  31.293  31.334  1.00  0.00    +0.000 C 
ATOM     53  N5  UNL A   1      39.157  30.856  32.215  1.00  0.00    +0.000 N 
ATOM     54  C37 UNL A   1      38.921  31.469  33.349  1.00  0.00    +0.000 C 
ATOM     55  C38 UNL A   1      39.641  31.349  34.664  1.00  0.00    +0.000 C 
ATOM     67  C45 UNL A   1      40.692  30.512  34.764  1.00  0.00    +0.000 C 
ATOM     68  C46 UNL A   1      41.477  30.274  35.972  1.00  0.00    +0.000 C 
ATOM     69  C47 UNL A   1      42.444  29.385  35.698  1.00  0.00    +0.000 C 
ATOM     70  C48 UNL A   1      42.327  28.967  34.301  1.00  0.00    +0.000 C 
ATOM     71  N6  UNL A   1      41.272  29.701  33.820  1.00  0.00    +0.000 N 
ATOM     72  C49 UNL A   1      37.780  32.394  33.304  1.00  0.00    +0.000 C 
ATOM     73  C50 UNL A   1      37.338  32.216  32.067  1.00  0.00    +0.000 C 
ATOM     74  C51 UNL A   1      43.499  26.819  30.358  1.00  0.00    +0.000 C 
ATOM     75  C52 UNL A   1      43.855  26.785  31.633  1.00  0.00    +0.000 C 
ATOM    112  H21 UNL A   1      39.859  28.257  26.775  1.00  0.00    +0.000 H 
ATOM    113  H22 UNL A   1      37.980  29.989  27.298  1.00  0.00    +0.000 H 
ATOM    114  H23 UNL A   1      40.273  29.485  30.710  1.00  0.00    +0.000 H 
ATOM    115  H24 UNL A   1      41.314  30.719  36.889  1.00  0.00    +0.000 H 
ATOM    116  H25 UNL A   1      43.156  29.049  36.366  1.00  0.00    +0.000 H 
ATOM    117  H26 UNL A   1      40.960  29.650  32.887  1.00  0.00    +0.000 H 
ATOM    118  H27 UNL A   1      37.419  33.018  34.042  1.00  0.00    +0.000 H 
ATOM    119  H28 UNL A   1      36.501  32.677  31.677  1.00  0.00    +0.000 H 
ATOM    120  H29 UNL A   1      43.987  26.313  29.602  1.00  0.00    +0.000 H 
ATOM    121  H30 UNL A   1      44.594  26.226  32.087  1.00  0.00    +0.000 H 
ENDROOT
BRANCH   19   18
ATOM     76  C53 UNL A   1      45.495  27.979  34.444  1.00  0.00    +0.000 C 
ATOM     77  C54 UNL A   1      46.548  27.345  35.098  1.00  0.00    +0.000 C 
ATOM    110  H19 UNL A   1      44.864  24.749  36.398  1.00  0.00    +0.000 H 
ATOM     15  C11 UNL A   1      46.309  26.191  35.852  1.00  0.00    +0.000 C 
ATOM     16  C12 UNL A   1      45.035  25.615  35.863  1.00  0.00    +0.000 C 
ATOM     17  C13 UNL A   1      43.995  26.214  35.150  1.00  0.00    +0.000 C 
ATOM    111  H20 UNL A   1      43.061  25.774  35.139  1.00  0.00    +0.000 H 
ATOM     18  C14 UNL A   1      44.212  27.411  34.450  1.00  0.00    +0.000 C 
ATOM    122  H31 UNL A   1      45.659  28.872  33.954  1.00  0.00    +0.000 H 
ATOM    123  H32 UNL A   1      47.505  27.725  35.027  1.00  0.00    +0.000 H 
BRANCH   15   13
ATOM     13  C10 UNL A   1      47.393  25.535  36.614  1.00  0.00    +0.000 C 
ATOM     14  O2  UNL A   1      47.194  25.182  37.774  1.00  0.00    +0.000 O 
BRANCH   13   12
ATOM     12  N2  UNL A   1      48.618  25.332  36.035  1.00  0.00    +0.000 N 
ATOM    109  H18 UNL A   1      49.145  26.147  35.863  1.00  0.00    +0.000 H 
BRANCH   12   11
ATOM     11  C9  UNL A   1      49.250  24.086  35.639  1.00  0.00    +0.000 C 
ATOM    108  H17 UNL A   1      49.211  23.417  36.474  1.00  0.00    +0.000 H 
ATOM    107  H16 UNL A   1      50.259  24.289  35.349  1.00  0.00    +0.000 H 
BRANCH   11   10
ATOM    105  H14 UNL A   1      47.812  24.115  34.085  1.00  0.00    +0.000 H 
ATOM     10  C8  UNL A   1      48.528  23.421  34.472  1.00  0.00    +0.000 C 
ATOM    106  H15 UNL A   1      49.282  23.155  33.762  1.00  0.00    +0.000 H 
BRANCH   10    9
ATOM      9  C7  UNL A   1      47.793  22.127  34.828  1.00  0.00    +0.000 C 
ATOM    103  H12 UNL A   1      47.928  21.436  34.022  1.00  0.00    +0.000 H 
ATOM    104  H13 UNL A   1      48.212  21.790  35.753  1.00  0.00    +0.000 H 
BRANCH    9    8
ATOM    101  H10 UNL A   1      46.029  23.306  34.905  1.00  0.00    +0.000 H 
ATOM    102  H11 UNL A   1      45.807  21.603  34.401  1.00  0.00    +0.000 H 
ATOM      8  C6  UNL A   1      46.289  22.281  35.073  1.00  0.00    +0.000 C 
BRANCH    8    7
ATOM     99  H8  UNL A   1      45.139  22.652  36.826  1.00  0.00    +0.000 H 
ATOM    100  H9  UNL A   1      45.351  20.935  36.397  1.00  0.00    +0.000 H 
ATOM      7  C5  UNL A   1      45.814  21.896  36.481  1.00  0.00    +0.000 C 
BRANCH    7    6
ATOM     97  H6  UNL A   1      47.733  21.177  37.074  1.00  0.00    +0.000 H 
ATOM     98  H7  UNL A   1      47.293  22.732  37.764  1.00  0.00    +0.000 H 
ATOM      6  C4  UNL A   1      46.942  21.755  37.503  1.00  0.00    +0.000 C 
BRANCH    6    5
ATOM      5  N1  UNL A   1      46.471  21.098  38.702  1.00  0.00    +0.000 N 
ATOM     96  H5  UNL A   1      45.953  21.669  39.315  1.00  0.00    +0.000 H 
BRANCH    5    3
ATOM      3  C3  UNL A   1      46.634  19.807  39.115  1.00  0.00    +0.000 C 
ATOM      4  O1  UNL A   1      46.320  18.928  38.310  1.00  0.00    +0.000 O 
BRANCH    3    2
ATOM      2  C2  UNL A   1      47.112  19.520  40.547  1.00  0.00    +0.000 C 
ATOM     95  H4  UNL A   1      47.013  20.451  41.065  1.00  0.00    +0.000 H 
BRANCH    2    1
ATOM      1  C1  UNL A   1      48.588  19.121  40.635  1.00  0.00    +0.000 C 
ATOM     92  H1  UNL A   1      49.098  19.787  41.301  1.00  0.00    +0.000 H 
ATOM     93  H2  UNL A   1      49.032  19.180  39.664  1.00  0.00    +0.000 H 
ATOM     94  H3  UNL A   1      48.667  18.120  41.002  1.00  0.00    +0.000 H 
ENDBRANCH    2    1
BRANCH    2   78
ATOM    136  H45 UNL A   1      43.349  18.127  42.895  1.00  0.00    +0.000 H 
ATOM     78  C55 UNL A   1      46.246  18.479  41.236  1.00  0.00    +0.000 C 
ATOM     79  C56 UNL A   1      46.649  17.142  41.272  1.00  0.00    +0.000 C 
ATOM     80  C57 UNL A   1      45.844  16.174  41.888  1.00  0.00    +0.000 C 
ATOM     81  C58 UNL A   1      44.643  16.506  42.523  1.00  0.00    +0.000 C 
ATOM     89  C64 UNL A   1      44.245  17.846  42.465  1.00  0.00    +0.000 C 
ATOM     90  C65 UNL A   1      45.033  18.810  41.840  1.00  0.00    +0.000 C 
ATOM     91  F16 UNL A   1      44.585  20.075  41.810  1.00  0.00    +0.000 F 
ATOM    124  H33 UNL A   1      47.545  16.864  40.843  1.00  0.00    +0.000 H 
ATOM    125  H34 UNL A   1      46.147  15.188  41.873  1.00  0.00    +0.000 H 
BRANCH   81   82
ATOM     82  N7  UNL A   1      43.778  15.592  43.097  1.00  0.00    +0.000 N 
ATOM    126  H35 UNL A   1      44.021  15.282  44.000  1.00  0.00    +0.000 H 
BRANCH   82   83
ATOM    129  H38 UNL A   1      41.732  16.033  40.799  1.00  0.00    +0.000 H 
ATOM    130  H39 UNL A   1      42.680  13.354  40.009  1.00  0.00    +0.000 H 
ATOM    131  H40 UNL A   1      41.122  14.031  39.748  1.00  0.00    +0.000 H 
ATOM    132  H41 UNL A   1      41.400  12.077  41.527  1.00  0.00    +0.000 H 
ATOM    133  H42 UNL A   1      40.359  13.364  41.939  1.00  0.00    +0.000 H 
ATOM    134  H43 UNL A   1      43.266  12.974  42.785  1.00  0.00    +0.000 H 
ATOM     83  C59 UNL A   1      42.554  15.029  42.536  1.00  0.00    +0.000 C 
ATOM     84  C60 UNL A   1      42.401  15.230  41.026  1.00  0.00    +0.000 C 
ATOM     85  C61 UNL A   1      41.888  13.894  40.483  1.00  0.00    +0.000 C 
ATOM     86  C62 UNL A   1      41.377  13.133  41.699  1.00  0.00    +0.000 C 
ATOM     87  C63 UNL A   1      42.351  13.529  42.798  1.00  0.00    +0.000 C 
ATOM    127  H36 UNL A   1      41.812  15.591  43.064  1.00  0.00    +0.000 H 
ATOM    128  H37 UNL A   1      43.344  15.475  40.584  1.00  0.00    +0.000 H 
BRANCH   87   88
ATOM    135  H44 UNL A   1      41.073  13.899  44.249  1.00  0.00    +0.000 H 
ATOM     88  O3  UNL A   1      41.801  13.281  44.084  1.00  0.00    +0.000 O 
ENDBRANCH   87   88
ENDBRANCH   82   83
ENDBRANCH   81   82
ENDBRANCH    2   78
ENDBRANCH    3    2
ENDBRANCH    5    3
ENDBRANCH    6    5
ENDBRANCH    7    6
ENDBRANCH    8    7
ENDBRANCH    9    8
ENDBRANCH   10    9
ENDBRANCH   11   10
ENDBRANCH   12   11
ENDBRANCH   13   12
ENDBRANCH   15   13
ENDBRANCH   19   18
BRANCH   23   24
ATOM     33  C24 UNL A   1      41.841  25.730  27.548  1.00  0.00    +0.000 C 
ATOM     34  F5  UNL A   1      40.968  25.114  28.357  1.00  0.00    +0.000 F 
ATOM     24  C19 UNL A   1      42.227  27.056  27.799  1.00  0.00    +0.000 C 
ATOM     25  C20 UNL A   1      43.148  27.648  26.920  1.00  0.00    +0.000 C 
ATOM     26  F1  UNL A   1      43.540  28.917  27.109  1.00  0.00    +0.000 F 
ATOM     27  C21 UNL A   1      43.636  26.952  25.817  1.00  0.00    +0.000 C 
ATOM     28  F2  UNL A   1      44.472  27.557  24.963  1.00  0.00    +0.000 F 
ATOM     29  C22 UNL A   1      43.244  25.642  25.591  1.00  0.00    +0.000 C 
ATOM     30  F3  UNL A   1      43.716  24.973  24.530  1.00  0.00    +0.000 F 
ATOM     31  C23 UNL A   1      42.354  25.028  26.460  1.00  0.00    +0.000 C 
ATOM     32  F4  UNL A   1      41.984  23.757  26.249  1.00  0.00    +0.000 F 
ENDBRANCH   23   24
BRANCH   40   41
ATOM     41  C30 UNL A   1      36.806  31.559  29.334  1.00  0.00    +0.000 C 
ATOM     42  C31 UNL A   1      36.773  32.914  28.975  1.00  0.00    +0.000 C 
ATOM     43  F6  UNL A   1      37.795  33.723  29.292  1.00  0.00    +0.000 F 
ATOM     44  C32 UNL A   1      35.667  33.453  28.323  1.00  0.00    +0.000 C 
ATOM     45  F7  UNL A   1      35.635  34.761  28.033  1.00  0.00    +0.000 F 
ATOM     46  C33 UNL A   1      34.592  32.643  27.988  1.00  0.00    +0.000 C 
ATOM     47  F8  UNL A   1      33.530  33.164  27.358  1.00  0.00    +0.000 F 
ATOM     48  C34 UNL A   1      34.613  31.296  28.316  1.00  0.00    +0.000 C 
ATOM     49  F9  UNL A   1      33.581  30.509  27.984  1.00  0.00    +0.000 F 
ATOM     50  C35 UNL A   1      35.704  30.760  28.993  1.00  0.00    +0.000 C 
ATOM     51  F10 UNL A   1      35.690  29.456  29.310  1.00  0.00    +0.000 F 
ENDBRANCH   40   41
BRANCH   55   56
ATOM     65  C44 UNL A   1      39.607  33.414  36.107  1.00  0.00    +0.000 C 
ATOM     66  F15 UNL A   1      40.460  34.015  35.265  1.00  0.00    +0.000 F 
ATOM     56  C39 UNL A   1      39.179  32.104  35.857  1.00  0.00    +0.000 C 
ATOM     57  C40 UNL A   1      38.290  31.520  36.770  1.00  0.00    +0.000 C 
ATOM     58  F11 UNL A   1      37.837  30.274  36.560  1.00  0.00    +0.000 F 
ATOM     59  C41 UNL A   1      37.831  32.227  37.880  1.00  0.00    +0.000 C 
ATOM     60  F12 UNL A   1      36.949  31.660  38.714  1.00  0.00    +0.000 F 
ATOM     61  C42 UNL A   1      38.274  33.519  38.113  1.00  0.00    +0.000 C 
ATOM     62  F13 UNL A   1      37.837  34.197  39.181  1.00  0.00    +0.000 F 
ATOM     63  C43 UNL A   1      39.167  34.111  37.231  1.00  0.00    +0.000 C 
ATOM     64  F14 UNL A   1      39.608  35.355  37.460  1.00  0.00    +0.000 F 
ENDBRANCH   55   56
TORSDOF 20
ENDMDL
