MODEL 1
REMARK VINA RESULT:      -8.6      0.000      0.000
ROOT
ATOM    136  H36 UNL A   1       1.697  14.451  37.341  1.00  0.00    +0.000 H 
ATOM    137  H37 UNL A   1       4.286  14.877  37.792  1.00  0.00    +0.000 H 
ATOM    138  H38 UNL A   1       2.124  16.951  40.471  1.00  0.00    +0.000 H 
ATOM    139  H39 UNL A   1       5.239  11.176  45.573  1.00  0.00    +0.000 H 
ATOM    140  H40 UNL A   1       4.088   9.633  43.903  1.00  0.00    +0.000 H 
ATOM    141  H41 UNL A   1       3.259  13.539  42.752  1.00  0.00    +0.000 H 
ATOM    142  H42 UNL A   1       2.694  16.030  44.822  1.00  0.00    +0.000 H 
ATOM    143  H43 UNL A   1       2.576  16.894  42.398  1.00  0.00    +0.000 H 
ATOM    144  H44 UNL A   1      -1.689  13.107  41.130  1.00  0.00    +0.000 H 
ATOM    145  H45 UNL A   1      -0.634  11.138  42.398  1.00  0.00    +0.000 H 
ATOM     42  C30 UNL A   1       2.214  11.032  42.186  1.00  0.00    +0.000 C 
ATOM     43  C31 UNL A   1       1.280  12.020  41.558  1.00  0.00    +0.000 C 
ATOM     44  N9  UNL A   1       1.554  13.008  40.762  1.00  0.00    +0.000 N 
ATOM     45  C32 UNL A   1       0.352  13.690  40.561  1.00  0.00    +0.000 C 
ATOM     46  C33 UNL A   1       0.277  14.935  40.013  1.00  0.00    +0.000 C 
ATOM     58  C40 UNL A   1       1.472  15.309  39.318  1.00  0.00    +0.000 C 
ATOM     59  C41 UNL A   1       2.122  14.864  38.185  1.00  0.00    +0.000 C 
ATOM     60  C42 UNL A   1       3.507  15.094  38.432  1.00  0.00    +0.000 C 
ATOM     61  C43 UNL A   1       3.611  15.668  39.699  1.00  0.00    +0.000 C 
ATOM     62  N10 UNL A   1       2.352  16.151  39.944  1.00  0.00    +0.000 N 
ATOM     63  C44 UNL A   1       4.666  15.644  40.683  1.00  0.00    +0.000 C 
ATOM     75  C51 UNL A   1       4.477  15.842  42.019  1.00  0.00    +0.000 C 
ATOM     76  N11 UNL A   1       5.327  15.267  42.951  1.00  0.00    +0.000 N 
ATOM     77  C52 UNL A   1       4.593  15.106  44.018  1.00  0.00    +0.000 C 
ATOM     78  C53 UNL A   1       4.772  14.003  44.993  1.00  0.00    +0.000 C 
ATOM     90  C60 UNL A   1       4.410  12.850  44.384  1.00  0.00    +0.000 C 
ATOM     91  C61 UNL A   1       4.661  11.479  44.773  1.00  0.00    +0.000 C 
ATOM     92  C62 UNL A   1       4.015  10.663  43.916  1.00  0.00    +0.000 C 
ATOM     93  C63 UNL A   1       3.194  11.464  43.006  1.00  0.00    +0.000 C 
ATOM     94  N12 UNL A   1       3.560  12.762  43.277  1.00  0.00    +0.000 N 
ATOM     95  C64 UNL A   1       3.357  15.869  44.047  1.00  0.00    +0.000 C 
ATOM     96  C65 UNL A   1       3.327  16.302  42.786  1.00  0.00    +0.000 C 
ATOM     97  C66 UNL A   1      -0.680  12.898  41.184  1.00  0.00    +0.000 C 
ATOM     98  C67 UNL A   1      -0.156  11.862  41.839  1.00  0.00    +0.000 C 
ENDROOT
BRANCH   42   41
ATOM     99  C68 UNL A   1       1.400   8.852  43.087  1.00  0.00    +0.000 C 
ATOM    100  C69 UNL A   1       1.207   7.483  42.924  1.00  0.00    +0.000 C 
ATOM     38  C26 UNL A   1       1.479   6.852  41.697  1.00  0.00    +0.000 C 
ATOM     39  C27 UNL A   1       1.881   7.642  40.620  1.00  0.00    +0.000 C 
ATOM    134  H34 UNL A   1       2.009   7.212  39.690  1.00  0.00    +0.000 H 
ATOM     40  C28 UNL A   1       2.109   9.009  40.785  1.00  0.00    +0.000 C 
ATOM    135  H35 UNL A   1       2.429   9.578  39.986  1.00  0.00    +0.000 H 
ATOM     41  C29 UNL A   1       1.906   9.608  42.029  1.00  0.00    +0.000 C 
ATOM    146  H46 UNL A   1       1.170   9.304  43.984  1.00  0.00    +0.000 H 
ATOM    147  H47 UNL A   1       0.858   6.922  43.717  1.00  0.00    +0.000 H 
BRANCH   38   36
ATOM     36  C25 UNL A   1       1.310   5.371  41.685  1.00  0.00    +0.000 C 
ATOM     37  O3  UNL A   1       0.377   4.881  42.309  1.00  0.00    +0.000 O 
BRANCH   36   35
ATOM     35  N8  UNL A   1       2.159   4.493  41.064  1.00  0.00    +0.000 N 
ATOM    133  H33 UNL A   1       1.681   3.735  40.658  1.00  0.00    +0.000 H 
BRANCH   35   34
ATOM     34  C24 UNL A   1       3.589   4.415  40.861  1.00  0.00    +0.000 C 
ATOM    131  H31 UNL A   1       4.066   4.969  41.642  1.00  0.00    +0.000 H 
ATOM    132  H32 UNL A   1       3.835   3.374  40.867  1.00  0.00    +0.000 H 
BRANCH   34   33
ATOM     33  C23 UNL A   1       4.083   4.963  39.522  1.00  0.00    +0.000 C 
ATOM    130  H30 UNL A   1       3.254   5.493  39.101  1.00  0.00    +0.000 H 
ATOM    129  H29 UNL A   1       4.414   4.135  38.930  1.00  0.00    +0.000 H 
BRANCH   33   32
ATOM    128  H28 UNL A   1       5.670   5.830  40.567  1.00  0.00    +0.000 H 
ATOM    127  H27 UNL A   1       4.817   6.949  39.441  1.00  0.00    +0.000 H 
ATOM     32  C22 UNL A   1       5.231   5.975  39.601  1.00  0.00    +0.000 C 
BRANCH   32   31
ATOM    125  H25 UNL A   1       6.820   4.828  38.780  1.00  0.00    +0.000 H 
ATOM    126  H26 UNL A   1       5.950   5.895  37.631  1.00  0.00    +0.000 H 
ATOM     31  C21 UNL A   1       6.384   5.790  38.604  1.00  0.00    +0.000 C 
BRANCH   31   30
ATOM    123  H23 UNL A   1       8.011   6.712  39.614  1.00  0.00    +0.000 H 
ATOM    124  H24 UNL A   1       8.133   6.672  37.836  1.00  0.00    +0.000 H 
ATOM     30  C20 UNL A   1       7.501   6.837  38.682  1.00  0.00    +0.000 C 
BRANCH   30   29
ATOM    121  H21 UNL A   1       6.016   8.338  38.957  1.00  0.00    +0.000 H 
ATOM    122  H22 UNL A   1       7.682   8.888  39.177  1.00  0.00    +0.000 H 
ATOM     29  C19 UNL A   1       7.019   8.286  38.590  1.00  0.00    +0.000 C 
BRANCH   29   28
ATOM     28  N7  UNL A   1       7.047   8.792  37.233  1.00  0.00    +0.000 N 
ATOM    120  H20 UNL A   1       7.425   8.145  36.595  1.00  0.00    +0.000 H 
BRANCH   28   26
ATOM     26  C18 UNL A   1       6.674   9.949  36.642  1.00  0.00    +0.000 C 
ATOM     27  O2  UNL A   1       6.927  10.011  35.425  1.00  0.00    +0.000 O 
BRANCH   26    2
ATOM      2  C1  UNL A   1       5.922  11.145  37.283  1.00  0.00    +0.000 C 
ATOM    104  H4  UNL A   1       6.508  11.301  38.165  1.00  0.00    +0.000 H 
BRANCH    2    1
ATOM      1  N1  UNL A   1       5.972  12.321  36.393  1.00  0.00    +0.000 N 
ATOM    101  H1  UNL A   1       6.298  12.036  35.469  1.00  0.00    +0.000 H 
ATOM    102  H2  UNL A   1       6.614  13.014  36.779  1.00  0.00    +0.000 H 
ATOM    103  H3  UNL A   1       5.041  12.729  36.314  1.00  0.00    +0.000 H 
ENDBRANCH    2    1
BRANCH    2    3
ATOM    105  H5  UNL A   1       4.379  11.968  38.427  1.00  0.00    +0.000 H 
ATOM    106  H6  UNL A   1       4.979  10.250  38.833  1.00  0.00    +0.000 H 
ATOM      3  C2  UNL A   1       4.655  10.980  38.121  1.00  0.00    +0.000 C 
BRANCH    3    4
ATOM      4  C3  UNL A   1       3.384  10.341  37.623  1.00  0.00    +0.000 C 
ATOM      5  C4  UNL A   1       2.191  11.052  37.625  1.00  0.00    +0.000 C 
ATOM      6  N2  UNL A   1       1.157  10.201  37.337  1.00  0.00    +0.000 N 
ATOM    107  H7  UNL A   1       2.098  12.062  37.815  1.00  0.00    +0.000 H 
ATOM     20  C12 UNL A   1       1.661   8.960  37.001  1.00  0.00    +0.000 C 
ATOM     21  C13 UNL A   1       0.990   7.789  36.599  1.00  0.00    +0.000 C 
ATOM    116  H16 UNL A   1      -0.040   7.763  36.546  1.00  0.00    +0.000 H 
ATOM     23  C15 UNL A   1       3.132   6.709  36.344  1.00  0.00    +0.000 C 
ATOM     24  C16 UNL A   1       3.788   7.877  36.754  1.00  0.00    +0.000 C 
ATOM     25  C17 UNL A   1       3.060   9.038  37.101  1.00  0.00    +0.000 C 
ATOM    119  H19 UNL A   1       4.819   7.890  36.806  1.00  0.00    +0.000 H 
ATOM    118  H18 UNL A   1       3.684   5.874  36.093  1.00  0.00    +0.000 H 
ATOM     22  C14 UNL A   1       1.749   6.666  36.273  1.00  0.00    +0.000 C 
ATOM    117  H17 UNL A   1       1.277   5.798  35.976  1.00  0.00    +0.000 H 
BRANCH    6    7
ATOM      7  C5  UNL A   1      -0.210  10.541  37.470  1.00  0.00    +0.000 C 
ATOM      8  N3  UNL A   1      -0.820  10.154  38.585  1.00  0.00    +0.000 N 
ATOM      9  C6  UNL A   1      -2.048  10.637  38.674  1.00  0.00    +0.000 C 
ATOM     10 Cl1  UNL A   1      -2.905  10.234  40.096  1.00  0.00    +0.000 Cl
ATOM     11  N4  UNL A   1      -2.703  11.360  37.779  1.00  0.00    +0.000 N 
ATOM     12  C7  UNL A   1      -2.038  11.581  36.654  1.00  0.00    +0.000 C 
ATOM     19  N6  UNL A   1      -0.763  11.249  36.482  1.00  0.00    +0.000 N 
BRANCH   12   13
ATOM    108  H8  UNL A   1      -4.537  13.084  35.254  1.00  0.00    +0.000 H 
ATOM    109  H9  UNL A   1      -4.425  12.246  36.803  1.00  0.00    +0.000 H 
ATOM     13  N5  UNL A   1      -2.772  12.046  35.584  1.00  0.00    +0.000 N 
ATOM     14  C8  UNL A   1      -4.220  12.193  35.755  1.00  0.00    +0.000 C 
ATOM     15  C9  UNL A   1      -4.990  11.001  35.180  1.00  0.00    +0.000 C 
ATOM     17  C10 UNL A   1      -3.212  10.445  33.740  1.00  0.00    +0.000 C 
ATOM     18  C11 UNL A   1      -2.337  11.602  34.256  1.00  0.00    +0.000 C 
ATOM    114  H14 UNL A   1      -1.321  11.271  34.314  1.00  0.00    +0.000 H 
ATOM    115  H15 UNL A   1      -2.429  12.424  33.578  1.00  0.00    +0.000 H 
ATOM    110  H10 UNL A   1      -6.039  11.210  35.221  1.00  0.00    +0.000 H 
ATOM    111  H11 UNL A   1      -4.758  10.134  35.762  1.00  0.00    +0.000 H 
ATOM     16  O1  UNL A   1      -4.613  10.754  33.817  1.00  0.00    +0.000 O 
ATOM    112  H12 UNL A   1      -2.958  10.247  32.720  1.00  0.00    +0.000 H 
ATOM    113  H13 UNL A   1      -3.028   9.590  34.356  1.00  0.00    +0.000 H 
ENDBRANCH   12   13
ENDBRANCH    6    7
ENDBRANCH    3    4
ENDBRANCH    2    3
ENDBRANCH   26    2
ENDBRANCH   28   26
ENDBRANCH   29   28
ENDBRANCH   30   29
ENDBRANCH   31   30
ENDBRANCH   32   31
ENDBRANCH   33   32
ENDBRANCH   34   33
ENDBRANCH   35   34
ENDBRANCH   36   35
ENDBRANCH   38   36
ENDBRANCH   42   41
BRANCH   46   47
ATOM     47  C34 UNL A   1      -0.816  15.926  40.303  1.00  0.00    +0.000 C 
ATOM     48  C35 UNL A   1      -1.739  16.290  39.303  1.00  0.00    +0.000 C 
ATOM     49  F1  UNL A   1      -1.777  15.630  38.137  1.00  0.00    +0.000 F 
ATOM     50  C36 UNL A   1      -2.600  17.382  39.458  1.00  0.00    +0.000 C 
ATOM     51  F2  UNL A   1      -3.404  17.745  38.450  1.00  0.00    +0.000 F 
ATOM     52  C37 UNL A   1      -2.590  18.122  40.627  1.00  0.00    +0.000 C 
ATOM     53  F3  UNL A   1      -3.389  19.189  40.763  1.00  0.00    +0.000 F 
ATOM     54  C38 UNL A   1      -1.715  17.780  41.639  1.00  0.00    +0.000 C 
ATOM     55  F4  UNL A   1      -1.676  18.503  42.767  1.00  0.00    +0.000 F 
ATOM     56  C39 UNL A   1      -0.825  16.721  41.469  1.00  0.00    +0.000 C 
ATOM     57  F5  UNL A   1       0.090  16.551  42.433  1.00  0.00    +0.000 F 
ENDBRANCH   46   47
BRANCH   63   64
ATOM     65  C46 UNL A   1       7.112  15.837  39.964  1.00  0.00    +0.000 C 
ATOM     66  F6  UNL A   1       7.056  17.174  40.029  1.00  0.00    +0.000 F 
ATOM     67  C47 UNL A   1       8.337  15.245  39.664  1.00  0.00    +0.000 C 
ATOM     68  F7  UNL A   1       9.401  16.010  39.379  1.00  0.00    +0.000 F 
ATOM     69  C48 UNL A   1       8.467  13.866  39.692  1.00  0.00    +0.000 C 
ATOM     70  F8  UNL A   1       9.656  13.296  39.447  1.00  0.00    +0.000 F 
ATOM     71  C49 UNL A   1       7.372  13.077  40.005  1.00  0.00    +0.000 C 
ATOM     72  F9  UNL A   1       7.507  11.745  40.085  1.00  0.00    +0.000 F 
ATOM     73  C50 UNL A   1       6.137  13.665  40.268  1.00  0.00    +0.000 C 
ATOM     74  F10 UNL A   1       5.103  12.874  40.596  1.00  0.00    +0.000 F 
ATOM     64  C45 UNL A   1       5.978  15.057  40.249  1.00  0.00    +0.000 C 
ENDBRANCH   63   64
BRANCH   78   79
ATOM     79  C54 UNL A   1       4.965  14.239  46.441  1.00  0.00    +0.000 C 
ATOM     80  C55 UNL A   1       3.997  13.838  47.373  1.00  0.00    +0.000 C 
ATOM     81  F11 UNL A   1       2.795  13.414  46.957  1.00  0.00    +0.000 F 
ATOM     82  C56 UNL A   1       4.273  13.802  48.744  1.00  0.00    +0.000 C 
ATOM     83  F12 UNL A   1       3.344  13.354  49.600  1.00  0.00    +0.000 F 
ATOM     84  C57 UNL A   1       5.519  14.176  49.219  1.00  0.00    +0.000 C 
ATOM     85  F13 UNL A   1       5.801  14.089  50.526  1.00  0.00    +0.000 F 
ATOM     86  C58 UNL A   1       6.486  14.601  48.328  1.00  0.00    +0.000 C 
ATOM     87  F14 UNL A   1       7.707  14.935  48.771  1.00  0.00    +0.000 F 
ATOM     88  C59 UNL A   1       6.217  14.625  46.961  1.00  0.00    +0.000 C 
ATOM     89  F15 UNL A   1       7.234  14.945  46.148  1.00  0.00    +0.000 F 
ENDBRANCH   78   79
TORSDOF 20
ENDMDL
MODEL 2
REMARK VINA RESULT:      -8.5      1.429      2.326
ROOT
ATOM    136  H36 UNL A   1       1.589  15.252  37.618  1.00  0.00    +0.000 H 
ATOM    137  H37 UNL A   1       4.228  15.406  37.941  1.00  0.00    +0.000 H 
ATOM    138  H38 UNL A   1       2.418  17.481  40.870  1.00  0.00    +0.000 H 
ATOM    139  H39 UNL A   1       5.232  11.107  45.402  1.00  0.00    +0.000 H 
ATOM    140  H40 UNL A   1       3.852   9.795  43.709  1.00  0.00    +0.000 H 
ATOM    141  H41 UNL A   1       3.341  13.831  42.858  1.00  0.00    +0.000 H 
ATOM    142  H42 UNL A   1       3.127  16.215  45.112  1.00  0.00    +0.000 H 
ATOM    143  H43 UNL A   1       2.965  17.251  42.759  1.00  0.00    +0.000 H 
ATOM    144  H44 UNL A   1      -1.705  13.968  41.508  1.00  0.00    +0.000 H 
ATOM    145  H45 UNL A   1      -0.777  11.828  42.583  1.00  0.00    +0.000 H 
ATOM     42  C30 UNL A   1       2.032  11.475  42.198  1.00  0.00    +0.000 C 
ATOM     43  C31 UNL A   1       1.165  12.585  41.689  1.00  0.00    +0.000 C 
ATOM     44  N9  UNL A   1       1.490  13.597  40.944  1.00  0.00    +0.000 N 
ATOM     45  C32 UNL A   1       0.350  14.398  40.858  1.00  0.00    +0.000 C 
ATOM     46  C33 UNL A   1       0.365  15.680  40.395  1.00  0.00    +0.000 C 
ATOM     58  C40 UNL A   1       1.552  15.989  39.655  1.00  0.00    +0.000 C 
ATOM     59  C41 UNL A   1       2.096  15.565  38.460  1.00  0.00    +0.000 C 
ATOM     60  C42 UNL A   1       3.508  15.650  38.638  1.00  0.00    +0.000 C 
ATOM     61  C43 UNL A   1       3.733  16.123  39.931  1.00  0.00    +0.000 C 
ATOM     62  N10 UNL A   1       2.541  16.702  40.280  1.00  0.00    +0.000 N 
ATOM     63  C44 UNL A   1       4.832  15.934  40.848  1.00  0.00    +0.000 C 
ATOM     75  C51 UNL A   1       4.733  16.057  42.203  1.00  0.00    +0.000 C 
ATOM     76  N11 UNL A   1       5.573  15.343  43.044  1.00  0.00    +0.000 N 
ATOM     77  C52 UNL A   1       4.885  15.177  44.140  1.00  0.00    +0.000 C 
ATOM     78  C53 UNL A   1       5.009  13.999  45.031  1.00  0.00    +0.000 C 
ATOM     90  C60 UNL A   1       4.505  12.929  44.373  1.00  0.00    +0.000 C 
ATOM     91  C61 UNL A   1       4.645  11.516  44.659  1.00  0.00    +0.000 C 
ATOM     92  C62 UNL A   1       3.879  10.824  43.791  1.00  0.00    +0.000 C 
ATOM     93  C63 UNL A   1       3.092  11.758  42.983  1.00  0.00    +0.000 C 
ATOM     94  N12 UNL A   1       3.594  12.995  43.315  1.00  0.00    +0.000 N 
ATOM     95  C64 UNL A   1       3.730  16.048  44.291  1.00  0.00    +0.000 C 
ATOM     96  C65 UNL A   1       3.675  16.567  43.063  1.00  0.00    +0.000 C 
ATOM     97  C66 UNL A   1      -0.718  13.664  41.489  1.00  0.00    +0.000 C 
ATOM     98  C67 UNL A   1      -0.262  12.542  42.044  1.00  0.00    +0.000 C 
ENDROOT
BRANCH   42   41
ATOM     99  C68 UNL A   1       1.854   9.433  40.775  1.00  0.00    +0.000 C 
ATOM    100  C69 UNL A   1       1.330   8.162  40.560  1.00  0.00    +0.000 C 
ATOM     38  C26 UNL A   1       0.559   7.519  41.545  1.00  0.00    +0.000 C 
ATOM     39  C27 UNL A   1       0.388   8.155  42.775  1.00  0.00    +0.000 C 
ATOM    134  H34 UNL A   1      -0.107   7.668  43.538  1.00  0.00    +0.000 H 
ATOM     40  C28 UNL A   1       0.881   9.445  42.984  1.00  0.00    +0.000 C 
ATOM    135  H35 UNL A   1       0.727   9.914  43.889  1.00  0.00    +0.000 H 
ATOM     41  C29 UNL A   1       1.581  10.100  41.969  1.00  0.00    +0.000 C 
ATOM    146  H46 UNL A   1       2.440   9.880  40.054  1.00  0.00    +0.000 H 
ATOM    147  H47 UNL A   1       1.512   7.682  39.665  1.00  0.00    +0.000 H 
BRANCH   38   36
ATOM     36  C25 UNL A   1      -0.010   6.197  41.154  1.00  0.00    +0.000 C 
ATOM     37  O3  UNL A   1      -1.074   6.171  40.549  1.00  0.00    +0.000 O 
BRANCH   36   35
ATOM     35  N8  UNL A   1       0.546   4.985  41.468  1.00  0.00    +0.000 N 
ATOM    133  H33 UNL A   1       0.302   4.686  42.374  1.00  0.00    +0.000 H 
BRANCH   35   34
ATOM     34  C24 UNL A   1       1.403   4.040  40.788  1.00  0.00    +0.000 C 
ATOM    131  H31 UNL A   1       1.288   3.087  41.261  1.00  0.00    +0.000 H 
ATOM    132  H32 UNL A   1       1.100   4.044  39.763  1.00  0.00    +0.000 H 
BRANCH   34   33
ATOM     33  C23 UNL A   1       2.890   4.395  40.795  1.00  0.00    +0.000 C 
ATOM    130  H30 UNL A   1       3.385   3.571  41.265  1.00  0.00    +0.000 H 
ATOM    129  H29 UNL A   1       3.004   5.324  41.315  1.00  0.00    +0.000 H 
BRANCH   33   32
ATOM    128  H28 UNL A   1       2.902   4.015  38.741  1.00  0.00    +0.000 H 
ATOM    127  H27 UNL A   1       4.538   4.154  39.484  1.00  0.00    +0.000 H 
ATOM     32  C22 UNL A   1       3.544   4.544  39.416  1.00  0.00    +0.000 C 
BRANCH   32   31
ATOM    125  H25 UNL A   1       3.856   5.891  37.802  1.00  0.00    +0.000 H 
ATOM    126  H26 UNL A   1       2.700   6.432  39.062  1.00  0.00    +0.000 H 
ATOM     31  C21 UNL A   1       3.640   5.967  38.848  1.00  0.00    +0.000 C 
BRANCH   31   30
ATOM    123  H23 UNL A   1       4.658   7.826  39.020  1.00  0.00    +0.000 H 
ATOM    124  H24 UNL A   1       4.492   6.896  40.532  1.00  0.00    +0.000 H 
ATOM     30  C20 UNL A   1       4.707   6.864  39.486  1.00  0.00    +0.000 C 
BRANCH   30   29
ATOM    121  H21 UNL A   1       6.533   6.161  40.328  1.00  0.00    +0.000 H 
ATOM    122  H22 UNL A   1       6.103   5.439  38.772  1.00  0.00    +0.000 H 
ATOM     29  C19 UNL A   1       6.138   6.340  39.350  1.00  0.00    +0.000 C 
BRANCH   29   28
ATOM     28  N7  UNL A   1       7.004   7.274  38.661  1.00  0.00    +0.000 N 
ATOM    120  H20 UNL A   1       7.566   7.797  39.277  1.00  0.00    +0.000 H 
BRANCH   28   26
ATOM     26  C18 UNL A   1       7.218   7.595  37.365  1.00  0.00    +0.000 C 
ATOM     27  O2  UNL A   1       8.202   7.034  36.850  1.00  0.00    +0.000 O 
BRANCH   26    2
ATOM      2  C1  UNL A   1       6.350   8.505  36.455  1.00  0.00    +0.000 C 
ATOM    104  H4  UNL A   1       5.819   9.074  37.189  1.00  0.00    +0.000 H 
BRANCH    2    1
ATOM      1  N1  UNL A   1       7.209   9.371  35.624  1.00  0.00    +0.000 N 
ATOM    101  H1  UNL A   1       7.679   8.806  34.917  1.00  0.00    +0.000 H 
ATOM    102  H2  UNL A   1       7.907   9.825  36.214  1.00  0.00    +0.000 H 
ATOM    103  H3  UNL A   1       6.637  10.081  35.168  1.00  0.00    +0.000 H 
ENDBRANCH    2    1
BRANCH    2    3
ATOM    105  H5  UNL A   1       4.990   6.987  35.993  1.00  0.00    +0.000 H 
ATOM    106  H6  UNL A   1       5.139   8.441  34.836  1.00  0.00    +0.000 H 
ATOM      3  C2  UNL A   1       5.037   8.043  35.824  1.00  0.00    +0.000 C 
BRANCH    3    4
ATOM      4  C3  UNL A   1       3.679   8.575  36.202  1.00  0.00    +0.000 C 
ATOM      5  C4  UNL A   1       2.528   7.882  35.850  1.00  0.00    +0.000 C 
ATOM      6  N2  UNL A   1       1.433   8.662  36.109  1.00  0.00    +0.000 N 
ATOM    107  H7  UNL A   1       2.503   6.928  35.456  1.00  0.00    +0.000 H 
ATOM     20  C12 UNL A   1       1.830   9.812  36.762  1.00  0.00    +0.000 C 
ATOM     21  C13 UNL A   1       1.061  10.883  37.257  1.00  0.00    +0.000 C 
ATOM    116  H16 UNL A   1       0.037  10.901  37.129  1.00  0.00    +0.000 H 
ATOM     23  C15 UNL A   1       3.089  11.888  38.092  1.00  0.00    +0.000 C 
ATOM     24  C16 UNL A   1       3.845  10.821  37.587  1.00  0.00    +0.000 C 
ATOM     25  C17 UNL A   1       3.227   9.752  36.900  1.00  0.00    +0.000 C 
ATOM    119  H19 UNL A   1       4.869  10.816  37.718  1.00  0.00    +0.000 H 
ATOM    118  H18 UNL A   1       3.561  12.656  38.594  1.00  0.00    +0.000 H 
ATOM     22  C14 UNL A   1       1.715  11.919  37.923  1.00  0.00    +0.000 C 
ATOM    117  H17 UNL A   1       1.170  12.713  38.293  1.00  0.00    +0.000 H 
BRANCH    6    7
ATOM      7  C5  UNL A   1       0.122   8.358  35.671  1.00  0.00    +0.000 C 
ATOM      8  N3  UNL A   1      -0.236   7.079  35.689  1.00  0.00    +0.000 N 
ATOM      9  C6  UNL A   1      -1.516   6.917  35.396  1.00  0.00    +0.000 C 
ATOM     10 Cl1  UNL A   1      -2.090   5.308  35.435  1.00  0.00    +0.000 Cl
ATOM     11  N4  UNL A   1      -2.391   7.844  35.039  1.00  0.00    +0.000 N 
ATOM     12  C7  UNL A   1      -1.891   9.066  34.937  1.00  0.00    +0.000 C 
ATOM     19  N6  UNL A   1      -0.655   9.383  35.310  1.00  0.00    +0.000 N 
BRANCH   12   13
ATOM    108  H8  UNL A   1      -2.386  11.723  33.159  1.00  0.00    +0.000 H 
ATOM    109  H9  UNL A   1      -1.068  11.308  34.258  1.00  0.00    +0.000 H 
ATOM     13  N5  UNL A   1      -2.662   9.997  34.277  1.00  0.00    +0.000 N 
ATOM     14  C8  UNL A   1      -2.129  11.354  34.130  1.00  0.00    +0.000 C 
ATOM     15  C9  UNL A   1      -2.692  12.309  35.187  1.00  0.00    +0.000 C 
ATOM     17  C10 UNL A   1      -4.587  10.951  35.520  1.00  0.00    +0.000 C 
ATOM     18  C11 UNL A   1      -4.110   9.910  34.490  1.00  0.00    +0.000 C 
ATOM    114  H14 UNL A   1      -4.352   8.931  34.848  1.00  0.00    +0.000 H 
ATOM    115  H15 UNL A   1      -4.602  10.105  33.560  1.00  0.00    +0.000 H 
ATOM    110  H10 UNL A   1      -2.368  13.305  34.966  1.00  0.00    +0.000 H 
ATOM    111  H11 UNL A   1      -2.334  12.003  36.147  1.00  0.00    +0.000 H 
ATOM     16  O1  UNL A   1      -4.127  12.273  35.199  1.00  0.00    +0.000 O 
ATOM    112  H12 UNL A   1      -5.656  10.952  35.541  1.00  0.00    +0.000 H 
ATOM    113  H13 UNL A   1      -4.182  10.682  36.473  1.00  0.00    +0.000 H 
ENDBRANCH   12   13
ENDBRANCH    6    7
ENDBRANCH    3    4
ENDBRANCH    2    3
ENDBRANCH   26    2
ENDBRANCH   28   26
ENDBRANCH   29   28
ENDBRANCH   30   29
ENDBRANCH   31   30
ENDBRANCH   32   31
ENDBRANCH   33   32
ENDBRANCH   34   33
ENDBRANCH   35   34
ENDBRANCH   36   35
ENDBRANCH   38   36
ENDBRANCH   42   41
BRANCH   46   47
ATOM     47  C34 UNL A   1      -0.611  16.745  40.811  1.00  0.00    +0.000 C 
ATOM     48  C35 UNL A   1      -1.657  17.136  39.953  1.00  0.00    +0.000 C 
ATOM     49  F1  UNL A   1      -1.915  16.445  38.833  1.00  0.00    +0.000 F 
ATOM     50  C36 UNL A   1      -2.419  18.282  40.196  1.00  0.00    +0.000 C 
ATOM     51  F2  UNL A   1      -3.350  18.665  39.311  1.00  0.00    +0.000 F 
ATOM     52  C37 UNL A   1      -2.185  19.056  41.320  1.00  0.00    +0.000 C 
ATOM     53  F3  UNL A   1      -2.891  20.173  41.535  1.00  0.00    +0.000 F 
ATOM     54  C38 UNL A   1      -1.183  18.690  42.196  1.00  0.00    +0.000 C 
ATOM     55  F4  UNL A   1      -0.927  19.442  43.276  1.00  0.00    +0.000 F 
ATOM     56  C39 UNL A   1      -0.391  17.573  41.932  1.00  0.00    +0.000 C 
ATOM     57  F5  UNL A   1       0.652  17.375  42.750  1.00  0.00    +0.000 F 
ENDBRANCH   46   47
BRANCH   63   64
ATOM     65  C46 UNL A   1       7.257  15.943  40.039  1.00  0.00    +0.000 C 
ATOM     66  F6  UNL A   1       7.348  17.266  40.233  1.00  0.00    +0.000 F 
ATOM     67  C47 UNL A   1       8.400  15.260  39.628  1.00  0.00    +0.000 C 
ATOM     68  F7  UNL A   1       9.530  15.935  39.369  1.00  0.00    +0.000 F 
ATOM     69  C48 UNL A   1       8.382  13.879  39.520  1.00  0.00    +0.000 C 
ATOM     70  F8  UNL A   1       9.493  13.216  39.168  1.00  0.00    +0.000 F 
ATOM     71  C49 UNL A   1       7.220  13.181  39.807  1.00  0.00    +0.000 C 
ATOM     72  F9  UNL A   1       7.214  11.841  39.754  1.00  0.00    +0.000 F 
ATOM     73  C50 UNL A   1       6.065  13.864  40.180  1.00  0.00    +0.000 C 
ATOM     74  F10 UNL A   1       4.965  13.156  40.479  1.00  0.00    +0.000 F 
ATOM     64  C45 UNL A   1       6.057  15.260  40.300  1.00  0.00    +0.000 C 
ENDBRANCH   63   64
BRANCH   78   79
ATOM     79  C54 UNL A   1       5.299  14.116  46.477  1.00  0.00    +0.000 C 
ATOM     80  C55 UNL A   1       6.478  14.726  46.930  1.00  0.00    +0.000 C 
ATOM     81  F11 UNL A   1       7.453  15.035  46.064  1.00  0.00    +0.000 F 
ATOM     82  C56 UNL A   1       6.644  15.089  48.271  1.00  0.00    +0.000 C 
ATOM     83  F12 UNL A   1       7.758  15.726  48.655  1.00  0.00    +0.000 F 
ATOM     84  C57 UNL A   1       5.642  14.843  49.194  1.00  0.00    +0.000 C 
ATOM     85  F13 UNL A   1       5.779  15.241  50.466  1.00  0.00    +0.000 F 
ATOM     86  C58 UNL A   1       4.478  14.220  48.784  1.00  0.00    +0.000 C 
ATOM     87  F14 UNL A   1       3.486  14.005  49.661  1.00  0.00    +0.000 F 
ATOM     88  C59 UNL A   1       4.306  13.869  47.446  1.00  0.00    +0.000 C 
ATOM     89  F15 UNL A   1       3.112  13.367  47.100  1.00  0.00    +0.000 F 
ENDBRANCH   78   79
TORSDOF 20
ENDMDL
MODEL 3
REMARK VINA RESULT:      -8.5      0.722      2.000
ROOT
ATOM    136  H36 UNL A   1       2.067  14.626  37.419  1.00  0.00    +0.000 H 
ATOM    137  H37 UNL A   1       4.654  14.967  37.948  1.00  0.00    +0.000 H 
ATOM    138  H38 UNL A   1       2.477  17.014  40.637  1.00  0.00    +0.000 H 
ATOM    139  H39 UNL A   1       5.306  11.001  45.629  1.00  0.00    +0.000 H 
ATOM    140  H40 UNL A   1       4.160   9.542  43.882  1.00  0.00    +0.000 H 
ATOM    141  H41 UNL A   1       3.464  13.504  42.835  1.00  0.00    +0.000 H 
ATOM    142  H42 UNL A   1       2.910  15.943  44.969  1.00  0.00    +0.000 H 
ATOM    143  H43 UNL A   1       2.878  16.885  42.572  1.00  0.00    +0.000 H 
ATOM    144  H44 UNL A   1      -1.451  13.256  41.077  1.00  0.00    +0.000 H 
ATOM    145  H45 UNL A   1      -0.480  11.220  42.307  1.00  0.00    +0.000 H 
ATOM     42  C30 UNL A   1       2.368  11.045  42.164  1.00  0.00    +0.000 C 
ATOM     43  C31 UNL A   1       1.477  12.076  41.544  1.00  0.00    +0.000 C 
ATOM     44  N9  UNL A   1       1.797  13.081  40.788  1.00  0.00    +0.000 N 
ATOM     45  C32 UNL A   1       0.619  13.801  40.578  1.00  0.00    +0.000 C 
ATOM     46  C33 UNL A   1       0.591  15.064  40.069  1.00  0.00    +0.000 C 
ATOM     58  C40 UNL A   1       1.813  15.427  39.416  1.00  0.00    +0.000 C 
ATOM     59  C41 UNL A   1       2.481  15.000  38.286  1.00  0.00    +0.000 C 
ATOM     60  C42 UNL A   1       3.864  15.186  38.574  1.00  0.00    +0.000 C 
ATOM     61  C43 UNL A   1       3.950  15.717  39.862  1.00  0.00    +0.000 C 
ATOM     62  N10 UNL A   1       2.699  16.226  40.090  1.00  0.00    +0.000 N 
ATOM     63  C44 UNL A   1       4.978  15.633  40.871  1.00  0.00    +0.000 C 
ATOM     75  C51 UNL A   1       4.760  15.795  42.208  1.00  0.00    +0.000 C 
ATOM     76  N11 UNL A   1       5.570  15.168  43.142  1.00  0.00    +0.000 N 
ATOM     77  C52 UNL A   1       4.805  14.993  44.184  1.00  0.00    +0.000 C 
ATOM     78  C53 UNL A   1       4.930  13.856  45.127  1.00  0.00    +0.000 C 
ATOM     90  C60 UNL A   1       4.553  12.733  44.473  1.00  0.00    +0.000 C 
ATOM     91  C61 UNL A   1       4.758  11.344  44.825  1.00  0.00    +0.000 C 
ATOM     92  C62 UNL A   1       4.114  10.573  43.926  1.00  0.00    +0.000 C 
ATOM     93  C63 UNL A   1       3.338  11.424  43.021  1.00  0.00    +0.000 C 
ATOM     94  N12 UNL A   1       3.730  12.703  43.343  1.00  0.00    +0.000 N 
ATOM     95  C64 UNL A   1       3.589  15.789  44.206  1.00  0.00    +0.000 C 
ATOM     96  C65 UNL A   1       3.602  16.261  42.959  1.00  0.00    +0.000 C 
ATOM     97  C66 UNL A   1      -0.448  13.018  41.149  1.00  0.00    +0.000 C 
ATOM     98  C67 UNL A   1       0.031  11.949  41.783  1.00  0.00    +0.000 C 
ENDROOT
BRANCH   42   41
ATOM     99  C68 UNL A   1       1.507   8.850  42.983  1.00  0.00    +0.000 C 
ATOM    100  C69 UNL A   1       1.282   7.494  42.770  1.00  0.00    +0.000 C 
ATOM     38  C26 UNL A   1       1.537   6.904  41.519  1.00  0.00    +0.000 C 
ATOM     39  C27 UNL A   1       1.953   7.725  40.470  1.00  0.00    +0.000 C 
ATOM    134  H34 UNL A   1       2.069   7.328  39.525  1.00  0.00    +0.000 H 
ATOM     40  C28 UNL A   1       2.213   9.080  40.687  1.00  0.00    +0.000 C 
ATOM    135  H35 UNL A   1       2.544   9.671  39.909  1.00  0.00    +0.000 H 
ATOM     41  C29 UNL A   1       2.027   9.635  41.954  1.00  0.00    +0.000 C 
ATOM    146  H46 UNL A   1       1.290   9.274  43.898  1.00  0.00    +0.000 H 
ATOM    147  H47 UNL A   1       0.922   6.911  43.542  1.00  0.00    +0.000 H 
BRANCH   38   36
ATOM     36  C25 UNL A   1       1.333   5.428  41.451  1.00  0.00    +0.000 C 
ATOM     37  O3  UNL A   1       0.372   4.940  42.030  1.00  0.00    +0.000 O 
BRANCH   36   35
ATOM     35  N8  UNL A   1       2.179   4.552  40.824  1.00  0.00    +0.000 N 
ATOM    133  H33 UNL A   1       1.695   3.847  40.338  1.00  0.00    +0.000 H 
BRANCH   35   34
ATOM     34  C24 UNL A   1       3.614   4.416  40.703  1.00  0.00    +0.000 C 
ATOM    131  H31 UNL A   1       4.068   4.956  41.507  1.00  0.00    +0.000 H 
ATOM    132  H32 UNL A   1       3.818   3.366  40.728  1.00  0.00    +0.000 H 
BRANCH   34   33
ATOM     33  C23 UNL A   1       4.205   4.934  39.391  1.00  0.00    +0.000 C 
ATOM    130  H30 UNL A   1       3.390   5.382  38.862  1.00  0.00    +0.000 H 
ATOM    129  H29 UNL A   1       4.650   4.105  38.881  1.00  0.00    +0.000 H 
BRANCH   33   32
ATOM    128  H28 UNL A   1       5.818   5.780  40.413  1.00  0.00    +0.000 H 
ATOM    127  H27 UNL A   1       4.762   6.971  39.569  1.00  0.00    +0.000 H 
ATOM     32  C22 UNL A   1       5.269   6.030  39.528  1.00  0.00    +0.000 C 
BRANCH   32   31
ATOM    125  H25 UNL A   1       6.830   5.174  38.369  1.00  0.00    +0.000 H 
ATOM    126  H26 UNL A   1       5.781   6.354  37.520  1.00  0.00    +0.000 H 
ATOM     31  C21 UNL A   1       6.320   6.114  38.412  1.00  0.00    +0.000 C 
BRANCH   31   30
ATOM    123  H23 UNL A   1       7.896   7.044  39.495  1.00  0.00    +0.000 H 
ATOM    124  H24 UNL A   1       8.008   7.161  37.719  1.00  0.00    +0.000 H 
ATOM     30  C20 UNL A   1       7.373   7.216  38.577  1.00  0.00    +0.000 C 
BRANCH   30   29
ATOM    121  H21 UNL A   1       5.811   8.600  39.004  1.00  0.00    +0.000 H 
ATOM    122  H22 UNL A   1       7.447   9.232  39.224  1.00  0.00    +0.000 H 
ATOM     29  C19 UNL A   1       6.804   8.636  38.609  1.00  0.00    +0.000 C 
BRANCH   29   28
ATOM     28  N7  UNL A   1       6.762   9.243  37.295  1.00  0.00    +0.000 N 
ATOM    120  H20 UNL A   1       6.841   8.583  36.569  1.00  0.00    +0.000 H 
BRANCH   28   26
ATOM     26  C18 UNL A   1       6.639  10.509  36.835  1.00  0.00    +0.000 C 
ATOM     27  O2  UNL A   1       7.331  10.763  35.833  1.00  0.00    +0.000 O 
BRANCH   26    2
ATOM      2  C1  UNL A   1       5.700  11.625  37.364  1.00  0.00    +0.000 C 
ATOM    104  H4  UNL A   1       6.185  11.876  38.285  1.00  0.00    +0.000 H 
BRANCH    2    1
ATOM      1  N1  UNL A   1       5.690  12.772  36.435  1.00  0.00    +0.000 N 
ATOM    101  H1  UNL A   1       6.260  12.553  35.617  1.00  0.00    +0.000 H 
ATOM    102  H2  UNL A   1       6.072  13.594  36.904  1.00  0.00    +0.000 H 
ATOM    103  H3  UNL A   1       4.733  12.964  36.140  1.00  0.00    +0.000 H 
ENDBRANCH    2    1
BRANCH    2    3
ATOM    105  H5  UNL A   1       4.057  12.279  38.478  1.00  0.00    +0.000 H 
ATOM    106  H6  UNL A   1       4.704  10.553  38.760  1.00  0.00    +0.000 H 
ATOM      3  C2  UNL A   1       4.392  11.336  38.100  1.00  0.00    +0.000 C 
BRANCH    3    4
ATOM      4  C3  UNL A   1       3.182  10.701  37.464  1.00  0.00    +0.000 C 
ATOM      5  C4  UNL A   1       2.059  11.464  37.171  1.00  0.00    +0.000 C 
ATOM      6  N2  UNL A   1       1.031  10.635  36.808  1.00  0.00    +0.000 N 
ATOM    107  H7  UNL A   1       2.008  12.494  37.220  1.00  0.00    +0.000 H 
ATOM     20  C12 UNL A   1       1.495   9.339  36.716  1.00  0.00    +0.000 C 
ATOM     21  C13 UNL A   1       0.821   8.160  36.343  1.00  0.00    +0.000 C 
ATOM    116  H16 UNL A   1      -0.185   8.178  36.112  1.00  0.00    +0.000 H 
ATOM     23  C15 UNL A   1       2.892   6.951  36.601  1.00  0.00    +0.000 C 
ATOM     24  C16 UNL A   1       3.551   8.128  36.979  1.00  0.00    +0.000 C 
ATOM     25  C17 UNL A   1       2.859   9.359  37.051  1.00  0.00    +0.000 C 
ATOM    119  H19 UNL A   1       4.556   8.097  37.211  1.00  0.00    +0.000 H 
ATOM    118  H18 UNL A   1       3.418   6.064  36.552  1.00  0.00    +0.000 H 
ATOM     22  C14 UNL A   1       1.542   6.968  36.292  1.00  0.00    +0.000 C 
ATOM    117  H17 UNL A   1       1.066   6.093  36.021  1.00  0.00    +0.000 H 
BRANCH    6    7
ATOM      7  C5  UNL A   1      -0.311  11.057  36.656  1.00  0.00    +0.000 C 
ATOM      8  N3  UNL A   1      -0.864  11.685  37.687  1.00  0.00    +0.000 N 
ATOM      9  C6  UNL A   1      -2.065  12.158  37.396  1.00  0.00    +0.000 C 
ATOM     10 Cl1  UNL A   1      -2.846  13.024  38.644  1.00  0.00    +0.000 Cl
ATOM     11  N4  UNL A   1      -2.747  12.005  36.272  1.00  0.00    +0.000 N 
ATOM     12  C7  UNL A   1      -2.146  11.256  35.358  1.00  0.00    +0.000 C 
ATOM     19  N6  UNL A   1      -0.898  10.818  35.480  1.00  0.00    +0.000 N 
BRANCH   12   13
ATOM    108  H8  UNL A   1      -4.630  11.407  33.291  1.00  0.00    +0.000 H 
ATOM    109  H9  UNL A   1      -4.456  12.056  34.924  1.00  0.00    +0.000 H 
ATOM     13  N5  UNL A   1      -2.927  10.810  34.315  1.00  0.00    +0.000 N 
ATOM     14  C8  UNL A   1      -4.341  11.196  34.299  1.00  0.00    +0.000 C 
ATOM     15  C9  UNL A   1      -5.244  10.088  34.849  1.00  0.00    +0.000 C 
ATOM     17  C10 UNL A   1      -3.637   8.433  34.376  1.00  0.00    +0.000 C 
ATOM     18  C11 UNL A   1      -2.637   9.462  33.817  1.00  0.00    +0.000 C 
ATOM    114  H14 UNL A   1      -1.648   9.184  34.117  1.00  0.00    +0.000 H 
ATOM    115  H15 UNL A   1      -2.721   9.469  32.751  1.00  0.00    +0.000 H 
ATOM    110  H10 UNL A   1      -6.267  10.368  34.707  1.00  0.00    +0.000 H 
ATOM    111  H11 UNL A   1      -5.032   9.961  35.890  1.00  0.00    +0.000 H 
ATOM     16  O1  UNL A   1      -4.999   8.843  34.177  1.00  0.00    +0.000 O 
ATOM    112  H12 UNL A   1      -3.482   7.496  33.883  1.00  0.00    +0.000 H 
ATOM    113  H13 UNL A   1      -3.468   8.346  35.430  1.00  0.00    +0.000 H 
ENDBRANCH   12   13
ENDBRANCH    6    7
ENDBRANCH    3    4
ENDBRANCH    2    3
ENDBRANCH   26    2
ENDBRANCH   28   26
ENDBRANCH   29   28
ENDBRANCH   30   29
ENDBRANCH   31   30
ENDBRANCH   32   31
ENDBRANCH   33   32
ENDBRANCH   34   33
ENDBRANCH   35   34
ENDBRANCH   36   35
ENDBRANCH   38   36
ENDBRANCH   42   41
BRANCH   46   47
ATOM     47  C34 UNL A   1      -0.483  16.075  40.362  1.00  0.00    +0.000 C 
ATOM     48  C35 UNL A   1      -0.637  16.603  41.658  1.00  0.00    +0.000 C 
ATOM     49  F1  UNL A   1       0.278  16.359  42.608  1.00  0.00    +0.000 F 
ATOM     50  C36 UNL A   1      -1.767  17.343  42.022  1.00  0.00    +0.000 C 
ATOM     51  F2  UNL A   1      -1.913  17.757  43.289  1.00  0.00    +0.000 F 
ATOM     52  C37 UNL A   1      -2.761  17.606  41.097  1.00  0.00    +0.000 C 
ATOM     53  F3  UNL A   1      -3.860  18.284  41.454  1.00  0.00    +0.000 F 
ATOM     54  C38 UNL A   1      -2.633  17.124  39.809  1.00  0.00    +0.000 C 
ATOM     55  F4  UNL A   1      -3.599  17.349  38.908  1.00  0.00    +0.000 F 
ATOM     56  C39 UNL A   1      -1.529  16.348  39.457  1.00  0.00    +0.000 C 
ATOM     57  F5  UNL A   1      -1.556  15.795  38.236  1.00  0.00    +0.000 F 
ENDBRANCH   46   47
BRANCH   63   64
ATOM     65  C46 UNL A   1       6.492  13.638  40.355  1.00  0.00    +0.000 C 
ATOM     66  F6  UNL A   1       5.519  12.777  40.681  1.00  0.00    +0.000 F 
ATOM     67  C47 UNL A   1       7.689  13.120  39.864  1.00  0.00    +0.000 C 
ATOM     68  F7  UNL A   1       7.869  11.793  39.796  1.00  0.00    +0.000 F 
ATOM     69  C48 UNL A   1       8.682  13.975  39.413  1.00  0.00    +0.000 C 
ATOM     70  F8  UNL A   1       9.816  13.478  38.899  1.00  0.00    +0.000 F 
ATOM     71  C49 UNL A   1       8.487  15.346  39.465  1.00  0.00    +0.000 C 
ATOM     72  F9  UNL A   1       9.424  16.174  38.982  1.00  0.00    +0.000 F 
ATOM     73  C50 UNL A   1       7.307  15.866  39.991  1.00  0.00    +0.000 C 
ATOM     74  F10 UNL A   1       7.138  17.198  40.001  1.00  0.00    +0.000 F 
ATOM     64  C45 UNL A   1       6.286  15.025  40.452  1.00  0.00    +0.000 C 
ENDBRANCH   63   64
BRANCH   78   79
ATOM     79  C54 UNL A   1       5.090  14.042  46.587  1.00  0.00    +0.000 C 
ATOM     80  C55 UNL A   1       6.262  14.600  47.119  1.00  0.00    +0.000 C 
ATOM     81  F11 UNL A   1       7.334  14.791  46.337  1.00  0.00    +0.000 F 
ATOM     82  C56 UNL A   1       6.327  15.032  48.449  1.00  0.00    +0.000 C 
ATOM     83  F12 UNL A   1       7.442  15.617  48.905  1.00  0.00    +0.000 F 
ATOM     84  C57 UNL A   1       5.227  14.908  49.281  1.00  0.00    +0.000 C 
ATOM     85  F13 UNL A   1       5.272  15.372  50.537  1.00  0.00    +0.000 F 
ATOM     86  C58 UNL A   1       4.066  14.339  48.793  1.00  0.00    +0.000 C 
ATOM     87  F14 UNL A   1       2.983  14.243  49.579  1.00  0.00    +0.000 F 
ATOM     88  C59 UNL A   1       3.995  13.920  47.466  1.00  0.00    +0.000 C 
ATOM     89  F15 UNL A   1       2.807  13.477  47.032  1.00  0.00    +0.000 F 
ENDBRANCH   78   79
TORSDOF 20
ENDMDL
MODEL 4
REMARK VINA RESULT:      -8.2      1.909      3.040
ROOT
ATOM    136  H36 UNL A   1       1.897  15.170  37.643  1.00  0.00    +0.000 H 
ATOM    137  H37 UNL A   1       4.517  15.326  38.088  1.00  0.00    +0.000 H 
ATOM    138  H38 UNL A   1       2.569  17.346  40.965  1.00  0.00    +0.000 H 
ATOM    139  H39 UNL A   1       5.198  10.905  45.514  1.00  0.00    +0.000 H 
ATOM    140  H40 UNL A   1       3.901   9.618  43.738  1.00  0.00    +0.000 H 
ATOM    141  H41 UNL A   1       3.414  13.666  42.933  1.00  0.00    +0.000 H 
ATOM    142  H42 UNL A   1       3.089  16.011  45.213  1.00  0.00    +0.000 H 
ATOM    143  H43 UNL A   1       3.030  17.086  42.873  1.00  0.00    +0.000 H 
ATOM    144  H44 UNL A   1      -1.566  13.811  41.357  1.00  0.00    +0.000 H 
ATOM    145  H45 UNL A   1      -0.679  11.655  42.437  1.00  0.00    +0.000 H 
ATOM     42  C30 UNL A   1       2.145  11.318  42.174  1.00  0.00    +0.000 C 
ATOM     43  C31 UNL A   1       1.298  12.434  41.645  1.00  0.00    +0.000 C 
ATOM     44  N9  UNL A   1       1.653  13.459  40.932  1.00  0.00    +0.000 N 
ATOM     45  C32 UNL A   1       0.515  14.258  40.808  1.00  0.00    +0.000 C 
ATOM     46  C33 UNL A   1       0.546  15.547  40.368  1.00  0.00    +0.000 C 
ATOM     58  C40 UNL A   1       1.765  15.872  39.688  1.00  0.00    +0.000 C 
ATOM     59  C41 UNL A   1       2.364  15.470  38.512  1.00  0.00    +0.000 C 
ATOM     60  C42 UNL A   1       3.765  15.556  38.756  1.00  0.00    +0.000 C 
ATOM     61  C43 UNL A   1       3.930  16.008  40.065  1.00  0.00    +0.000 C 
ATOM     62  N10 UNL A   1       2.721  16.578  40.369  1.00  0.00    +0.000 N 
ATOM     63  C44 UNL A   1       4.987  15.807  41.027  1.00  0.00    +0.000 C 
ATOM     75  C51 UNL A   1       4.826  15.907  42.378  1.00  0.00    +0.000 C 
ATOM     76  N11 UNL A   1       5.629  15.181  43.245  1.00  0.00    +0.000 N 
ATOM     77  C52 UNL A   1       4.893  14.995  44.306  1.00  0.00    +0.000 C 
ATOM     78  C53 UNL A   1       4.981  13.802  45.181  1.00  0.00    +0.000 C 
ATOM     90  C60 UNL A   1       4.512  12.742  44.483  1.00  0.00    +0.000 C 
ATOM     91  C61 UNL A   1       4.643  11.325  44.751  1.00  0.00    +0.000 C 
ATOM     92  C62 UNL A   1       3.921  10.645  43.839  1.00  0.00    +0.000 C 
ATOM     93  C63 UNL A   1       3.167  11.591  43.012  1.00  0.00    +0.000 C 
ATOM     94  N12 UNL A   1       3.649  12.824  43.386  1.00  0.00    +0.000 N 
ATOM     95  C64 UNL A   1       3.729  15.859  44.418  1.00  0.00    +0.000 C 
ATOM     96  C65 UNL A   1       3.728  16.399  43.198  1.00  0.00    +0.000 C 
ATOM     97  C66 UNL A   1      -0.578  13.510  41.378  1.00  0.00    +0.000 C 
ATOM     98  C67 UNL A   1      -0.144  12.380  41.934  1.00  0.00    +0.000 C 
ENDROOT
BRANCH   42   41
ATOM     99  C68 UNL A   1       2.078   9.283  40.731  1.00  0.00    +0.000 C 
ATOM    100  C69 UNL A   1       1.570   8.014  40.468  1.00  0.00    +0.000 C 
ATOM     38  C26 UNL A   1       0.718   7.370  41.382  1.00  0.00    +0.000 C 
ATOM     39  C27 UNL A   1       0.448   8.001  42.597  1.00  0.00    +0.000 C 
ATOM    134  H34 UNL A   1      -0.110   7.512  43.315  1.00  0.00    +0.000 H 
ATOM     40  C28 UNL A   1       0.927   9.288  42.852  1.00  0.00    +0.000 C 
ATOM    135  H35 UNL A   1       0.700   9.754  43.744  1.00  0.00    +0.000 H 
ATOM     41  C29 UNL A   1       1.711   9.945  41.902  1.00  0.00    +0.000 C 
ATOM    146  H46 UNL A   1       2.723   9.731  40.063  1.00  0.00    +0.000 H 
ATOM    147  H47 UNL A   1       1.823   7.539  39.588  1.00  0.00    +0.000 H 
BRANCH   38   36
ATOM     36  C25 UNL A   1       0.179   6.052  40.939  1.00  0.00    +0.000 C 
ATOM     37  O3  UNL A   1      -0.784   6.035  40.184  1.00  0.00    +0.000 O 
BRANCH   36   35
ATOM     35  N8  UNL A   1       0.651   4.836  41.357  1.00  0.00    +0.000 N 
ATOM    133  H33 UNL A   1       0.331   4.600  42.258  1.00  0.00    +0.000 H 
BRANCH   35   34
ATOM     34  C24 UNL A   1       1.506   3.815  40.793  1.00  0.00    +0.000 C 
ATOM    131  H31 UNL A   1       1.354   2.911  41.345  1.00  0.00    +0.000 H 
ATOM    132  H32 UNL A   1       1.235   3.734  39.762  1.00  0.00    +0.000 H 
BRANCH   34   33
ATOM     33  C23 UNL A   1       3.001   4.138  40.817  1.00  0.00    +0.000 C 
ATOM    130  H30 UNL A   1       3.470   3.310  41.306  1.00  0.00    +0.000 H 
ATOM    129  H29 UNL A   1       3.127   5.071  41.325  1.00  0.00    +0.000 H 
BRANCH   33   32
ATOM    128  H28 UNL A   1       3.053   3.697  38.776  1.00  0.00    +0.000 H 
ATOM    127  H27 UNL A   1       4.674   3.876  39.543  1.00  0.00    +0.000 H 
ATOM     32  C22 UNL A   1       3.678   4.252  39.446  1.00  0.00    +0.000 C 
BRANCH   32   31
ATOM    125  H25 UNL A   1       3.969   5.553  37.790  1.00  0.00    +0.000 H 
ATOM    126  H26 UNL A   1       2.835   6.133  39.052  1.00  0.00    +0.000 H 
ATOM     31  C21 UNL A   1       3.769   5.659  38.837  1.00  0.00    +0.000 C 
BRANCH   31   30
ATOM    123  H23 UNL A   1       4.740   7.543  39.004  1.00  0.00    +0.000 H 
ATOM    124  H24 UNL A   1       4.703   6.562  40.493  1.00  0.00    +0.000 H 
ATOM     30  C20 UNL A   1       4.849   6.569  39.434  1.00  0.00    +0.000 C 
BRANCH   30   29
ATOM    121  H21 UNL A   1       6.733   5.858  40.128  1.00  0.00    +0.000 H 
ATOM    122  H22 UNL A   1       6.240   5.240  38.547  1.00  0.00    +0.000 H 
ATOM     29  C19 UNL A   1       6.283   6.097  39.188  1.00  0.00    +0.000 C 
BRANCH   29   28
ATOM     28  N7  UNL A   1       7.089   7.103  38.527  1.00  0.00    +0.000 N 
ATOM    120  H20 UNL A   1       7.601   7.655  39.160  1.00  0.00    +0.000 H 
BRANCH   28   26
ATOM     26  C18 UNL A   1       7.299   7.458  37.240  1.00  0.00    +0.000 C 
ATOM     27  O2  UNL A   1       8.281   6.910  36.707  1.00  0.00    +0.000 O 
BRANCH   26    2
ATOM      2  C1  UNL A   1       6.431   8.394  36.358  1.00  0.00    +0.000 C 
ATOM    104  H4  UNL A   1       5.937   8.976  37.109  1.00  0.00    +0.000 H 
BRANCH    2    1
ATOM      1  N1  UNL A   1       7.289   9.240  35.505  1.00  0.00    +0.000 N 
ATOM    101  H1  UNL A   1       6.712   9.917  35.007  1.00  0.00    +0.000 H 
ATOM    102  H2  UNL A   1       7.782   8.654  34.831  1.00  0.00    +0.000 H 
ATOM    103  H3  UNL A   1       7.967   9.733  36.086  1.00  0.00    +0.000 H 
ENDBRANCH    2    1
BRANCH    2    3
ATOM    105  H5  UNL A   1       5.041   6.908  35.884  1.00  0.00    +0.000 H 
ATOM    106  H6  UNL A   1       5.150   8.416  34.792  1.00  0.00    +0.000 H 
ATOM      3  C2  UNL A   1       5.088   7.970  35.764  1.00  0.00    +0.000 C 
BRANCH    3    4
ATOM      4  C3  UNL A   1       3.752   8.491  36.226  1.00  0.00    +0.000 C 
ATOM      5  C4  UNL A   1       2.593   7.762  35.992  1.00  0.00    +0.000 C 
ATOM      6  N2  UNL A   1       1.504   8.531  36.306  1.00  0.00    +0.000 N 
ATOM    107  H7  UNL A   1       2.559   6.794  35.637  1.00  0.00    +0.000 H 
ATOM     20  C12 UNL A   1       1.924   9.712  36.883  1.00  0.00    +0.000 C 
ATOM     21  C13 UNL A   1       1.173  10.787  37.396  1.00  0.00    +0.000 C 
ATOM    116  H16 UNL A   1       0.142  10.780  37.349  1.00  0.00    +0.000 H 
ATOM     23  C15 UNL A   1       3.236  11.863  38.031  1.00  0.00    +0.000 C 
ATOM     24  C16 UNL A   1       3.974  10.792  37.510  1.00  0.00    +0.000 C 
ATOM     25  C17 UNL A   1       3.329   9.685  36.913  1.00  0.00    +0.000 C 
ATOM    119  H19 UNL A   1       5.005  10.812  37.560  1.00  0.00    +0.000 H 
ATOM    118  H18 UNL A   1       3.729  12.659  38.466  1.00  0.00    +0.000 H 
ATOM     22  C14 UNL A   1       1.853  11.860  37.970  1.00  0.00    +0.000 C 
ATOM    117  H17 UNL A   1       1.321  12.658  38.351  1.00  0.00    +0.000 H 
BRANCH    6    7
ATOM      7  C5  UNL A   1       0.170   8.185  35.985  1.00  0.00    +0.000 C 
ATOM      8  N3  UNL A   1      -0.489   9.012  35.181  1.00  0.00    +0.000 N 
ATOM      9  C6  UNL A   1      -1.671   8.531  34.832  1.00  0.00    +0.000 C 
ATOM     10 Cl1  UNL A   1      -2.582   9.501  33.761  1.00  0.00    +0.000 Cl
ATOM     11  N4  UNL A   1      -2.245   7.412  35.244  1.00  0.00    +0.000 N 
ATOM     12  C7  UNL A   1      -1.547   6.729  36.139  1.00  0.00    +0.000 C 
ATOM     19  N6  UNL A   1      -0.303   7.041  36.487  1.00  0.00    +0.000 N 
BRANCH   12   13
ATOM    108  H8  UNL A   1      -1.865   3.814  37.506  1.00  0.00    +0.000 H 
ATOM    109  H9  UNL A   1      -0.853   4.345  36.161  1.00  0.00    +0.000 H 
ATOM     13  N5  UNL A   1      -2.219   5.742  36.826  1.00  0.00    +0.000 N 
ATOM     14  C8  UNL A   1      -1.836   4.349  36.579  1.00  0.00    +0.000 C 
ATOM     15  C9  UNL A   1      -2.777   3.663  35.584  1.00  0.00    +0.000 C 
ATOM     17  C10 UNL A   1      -4.510   5.189  36.047  1.00  0.00    +0.000 C 
ATOM     18  C11 UNL A   1      -3.649   5.970  37.057  1.00  0.00    +0.000 C 
ATOM    114  H14 UNL A   1      -3.856   7.015  36.956  1.00  0.00    +0.000 H 
ATOM    115  H15 UNL A   1      -3.891   5.630  38.042  1.00  0.00    +0.000 H 
ATOM    110  H10 UNL A   1      -2.530   2.623  35.529  1.00  0.00    +0.000 H 
ATOM    111  H11 UNL A   1      -2.658   4.127  34.628  1.00  0.00    +0.000 H 
ATOM     16  O1  UNL A   1      -4.147   3.800  35.992  1.00  0.00    +0.000 O 
ATOM    112  H12 UNL A   1      -5.537   5.266  36.336  1.00  0.00    +0.000 H 
ATOM    113  H13 UNL A   1      -4.348   5.612  35.078  1.00  0.00    +0.000 H 
ENDBRANCH   12   13
ENDBRANCH    6    7
ENDBRANCH    3    4
ENDBRANCH    2    3
ENDBRANCH   26    2
ENDBRANCH   28   26
ENDBRANCH   29   28
ENDBRANCH   30   29
ENDBRANCH   31   30
ENDBRANCH   32   31
ENDBRANCH   33   32
ENDBRANCH   34   33
ENDBRANCH   35   34
ENDBRANCH   36   35
ENDBRANCH   38   36
ENDBRANCH   42   41
BRANCH   46   47
ATOM     47  C34 UNL A   1      -0.452  16.602  40.757  1.00  0.00    +0.000 C 
ATOM     48  C35 UNL A   1      -1.522  16.929  39.902  1.00  0.00    +0.000 C 
ATOM     49  F1  UNL A   1      -1.779  16.185  38.816  1.00  0.00    +0.000 F 
ATOM     50  C36 UNL A   1      -2.312  18.064  40.111  1.00  0.00    +0.000 C 
ATOM     51  F2  UNL A   1      -3.267  18.384  39.227  1.00  0.00    +0.000 F 
ATOM     52  C37 UNL A   1      -2.080  18.889  41.197  1.00  0.00    +0.000 C 
ATOM     53  F3  UNL A   1      -2.813  19.995  41.379  1.00  0.00    +0.000 F 
ATOM     54  C38 UNL A   1      -1.054  18.587  42.071  1.00  0.00    +0.000 C 
ATOM     55  F4  UNL A   1      -0.800  19.391  43.113  1.00  0.00    +0.000 F 
ATOM     56  C39 UNL A   1      -0.236  17.482  41.839  1.00  0.00    +0.000 C 
ATOM     57  F5  UNL A   1       0.825  17.347  42.645  1.00  0.00    +0.000 F 
ENDBRANCH   46   47
BRANCH   63   64
ATOM     65  C46 UNL A   1       6.333  13.766  40.281  1.00  0.00    +0.000 C 
ATOM     66  F6  UNL A   1       5.297  12.953  40.533  1.00  0.00    +0.000 F 
ATOM     67  C47 UNL A   1       7.481  13.210  39.720  1.00  0.00    +0.000 C 
ATOM     68  F7  UNL A   1       7.555  11.887  39.511  1.00  0.00    +0.000 F 
ATOM     69  C48 UNL A   1       8.534  14.027  39.343  1.00  0.00    +0.000 C 
ATOM     70  F8  UNL A   1       9.621  13.500  38.761  1.00  0.00    +0.000 F 
ATOM     71  C49 UNL A   1       8.449  15.396  39.541  1.00  0.00    +0.000 C 
ATOM     72  F9  UNL A   1       9.445  16.195  39.130  1.00  0.00    +0.000 F 
ATOM     73  C50 UNL A   1       7.319  15.949  40.138  1.00  0.00    +0.000 C 
ATOM     74  F10 UNL A   1       7.256  17.282  40.289  1.00  0.00    +0.000 F 
ATOM     64  C45 UNL A   1       6.238  15.146  40.525  1.00  0.00    +0.000 C 
ENDBRANCH   63   64
BRANCH   78   79
ATOM     79  C54 UNL A   1       5.205  13.896  46.641  1.00  0.00    +0.000 C 
ATOM     80  C55 UNL A   1       6.342  14.533  47.158  1.00  0.00    +0.000 C 
ATOM     81  F11 UNL A   1       7.343  14.893  46.342  1.00  0.00    +0.000 F 
ATOM     82  C56 UNL A   1       6.439  14.871  48.512  1.00  0.00    +0.000 C 
ATOM     83  F12 UNL A   1       7.513  15.534  48.958  1.00  0.00    +0.000 F 
ATOM     84  C57 UNL A   1       5.406  14.571  49.385  1.00  0.00    +0.000 C 
ATOM     85  F13 UNL A   1       5.475  14.944  50.670  1.00  0.00    +0.000 F 
ATOM     86  C58 UNL A   1       4.283  13.921  48.912  1.00  0.00    +0.000 C 
ATOM     87  F14 UNL A   1       3.262  13.654  49.739  1.00  0.00    +0.000 F 
ATOM     88  C59 UNL A   1       4.179  13.595  47.560  1.00  0.00    +0.000 C 
ATOM     89  F15 UNL A   1       3.019  13.062  47.152  1.00  0.00    +0.000 F 
ENDBRANCH   78   79
TORSDOF 20
ENDMDL
MODEL 5
REMARK VINA RESULT:      -7.9     41.510     48.063
ROOT
ATOM    136  H36 UNL A   1      43.526  29.904  34.124  1.00  0.00    +0.000 H 
ATOM    137  H37 UNL A   1      41.836  28.468  32.649  1.00  0.00    +0.000 H 
ATOM    138  H38 UNL A   1      39.761  30.504  35.425  1.00  0.00    +0.000 H 
ATOM    139  H39 UNL A   1      37.350  34.745  28.696  1.00  0.00    +0.000 H 
ATOM    140  H40 UNL A   1      39.867  35.069  28.472  1.00  0.00    +0.000 H 
ATOM    141  H41 UNL A   1      39.200  32.947  31.983  1.00  0.00    +0.000 H 
ATOM    142  H42 UNL A   1      36.677  33.444  34.031  1.00  0.00    +0.000 H 
ATOM    143  H43 UNL A   1      38.136  31.521  34.929  1.00  0.00    +0.000 H 
ATOM    144  H44 UNL A   1      42.816  35.013  35.138  1.00  0.00    +0.000 H 
ATOM    145  H45 UNL A   1      42.353  36.154  32.884  1.00  0.00    +0.000 H 
ATOM     42  C30 UNL A   1      41.308  34.388  30.897  1.00  0.00    +0.000 C 
ATOM     43  C31 UNL A   1      41.714  34.059  32.301  1.00  0.00    +0.000 C 
ATOM     44  N9  UNL A   1      41.711  32.907  32.900  1.00  0.00    +0.000 N 
ATOM     45  C32 UNL A   1      42.061  33.160  34.228  1.00  0.00    +0.000 C 
ATOM     46  C33 UNL A   1      41.902  32.254  35.233  1.00  0.00    +0.000 C 
ATOM     58  C40 UNL A   1      41.717  30.918  34.752  1.00  0.00    +0.000 C 
ATOM     59  C41 UNL A   1      42.501  30.007  34.073  1.00  0.00    +0.000 C 
ATOM     60  C42 UNL A   1      41.592  29.242  33.286  1.00  0.00    +0.000 C 
ATOM     61  C43 UNL A   1      40.311  29.734  33.539  1.00  0.00    +0.000 C 
ATOM     62  N10 UNL A   1      40.447  30.406  34.725  1.00  0.00    +0.000 N 
ATOM     63  C44 UNL A   1      39.116  29.765  32.731  1.00  0.00    +0.000 C 
ATOM     75  C51 UNL A   1      38.095  30.654  32.902  1.00  0.00    +0.000 C 
ATOM     76  N11 UNL A   1      37.297  31.035  31.834  1.00  0.00    +0.000 N 
ATOM     77  C52 UNL A   1      36.894  32.240  32.130  1.00  0.00    +0.000 C 
ATOM     78  C53 UNL A   1      36.617  33.295  31.127  1.00  0.00    +0.000 C 
ATOM     90  C60 UNL A   1      37.797  33.661  30.575  1.00  0.00    +0.000 C 
ATOM     91  C61 UNL A   1      38.060  34.420  29.370  1.00  0.00    +0.000 C 
ATOM     92  C62 UNL A   1      39.388  34.630  29.275  1.00  0.00    +0.000 C 
ATOM     93  C63 UNL A   1      40.047  34.138  30.487  1.00  0.00    +0.000 C 
ATOM     94  N12 UNL A   1      39.049  33.482  31.170  1.00  0.00    +0.000 N 
ATOM     95  C64 UNL A   1      37.047  32.624  33.524  1.00  0.00    +0.000 C 
ATOM     96  C65 UNL A   1      37.801  31.614  33.958  1.00  0.00    +0.000 C 
ATOM     97  C66 UNL A   1      42.432  34.552  34.298  1.00  0.00    +0.000 C 
ATOM     98  C67 UNL A   1      42.212  35.163  33.135  1.00  0.00    +0.000 C 
ENDROOT
BRANCH   42   41
ATOM     99  C68 UNL A   1      41.819  36.015  29.075  1.00  0.00    +0.000 C 
ATOM    100  C69 UNL A   1      42.749  36.646  28.256  1.00  0.00    +0.000 C 
ATOM     38  C26 UNL A   1      44.130  36.450  28.440  1.00  0.00    +0.000 C 
ATOM     39  C27 UNL A   1      44.551  35.663  29.512  1.00  0.00    +0.000 C 
ATOM    134  H34 UNL A   1      45.559  35.570  29.713  1.00  0.00    +0.000 H 
ATOM     40  C28 UNL A   1      43.622  35.000  30.317  1.00  0.00    +0.000 C 
ATOM    135  H35 UNL A   1      43.947  34.401  31.091  1.00  0.00    +0.000 H 
ATOM     41  C29 UNL A   1      42.255  35.145  30.074  1.00  0.00    +0.000 C 
ATOM    146  H46 UNL A   1      40.811  36.190  28.945  1.00  0.00    +0.000 H 
ATOM    147  H47 UNL A   1      42.421  37.268  27.500  1.00  0.00    +0.000 H 
BRANCH   38   36
ATOM     36  C25 UNL A   1      45.012  37.117  27.440  1.00  0.00    +0.000 C 
ATOM     37  O3  UNL A   1      45.509  36.441  26.550  1.00  0.00    +0.000 O 
BRANCH   36   35
ATOM     35  N8  UNL A   1      45.360  38.442  27.469  1.00  0.00    +0.000 N 
ATOM    133  H33 UNL A   1      46.278  38.595  27.149  1.00  0.00    +0.000 H 
BRANCH   35   34
ATOM     34  C24 UNL A   1      44.701  39.671  27.855  1.00  0.00    +0.000 C 
ATOM    131  H31 UNL A   1      44.255  39.521  28.816  1.00  0.00    +0.000 H 
ATOM    132  H32 UNL A   1      45.456  40.429  27.851  1.00  0.00    +0.000 H 
BRANCH   34   33
ATOM     33  C23 UNL A   1      43.611  40.149  26.896  1.00  0.00    +0.000 C 
ATOM    130  H30 UNL A   1      43.480  39.358  26.187  1.00  0.00    +0.000 H 
ATOM    129  H29 UNL A   1      43.937  41.071  26.462  1.00  0.00    +0.000 H 
BRANCH   33   32
ATOM    128  H28 UNL A   1      41.586  39.665  27.059  1.00  0.00    +0.000 H 
ATOM    127  H27 UNL A   1      41.964  41.404  27.345  1.00  0.00    +0.000 H 
ATOM     32  C22 UNL A   1      42.231  40.383  27.522  1.00  0.00    +0.000 C 
BRANCH   32   31
ATOM    125  H25 UNL A   1      41.788  39.110  29.164  1.00  0.00    +0.000 H 
ATOM    126  H26 UNL A   1      43.068  40.333  29.445  1.00  0.00    +0.000 H 
ATOM     31  C21 UNL A   1      42.105  40.124  29.030  1.00  0.00    +0.000 C 
BRANCH   31   30
ATOM    123  H23 UNL A   1      40.906  41.875  29.156  1.00  0.00    +0.000 H 
ATOM    124  H24 UNL A   1      40.255  40.436  29.983  1.00  0.00    +0.000 H 
ATOM     30  C20 UNL A   1      41.119  41.030  29.777  1.00  0.00    +0.000 C 
BRANCH   30   29
ATOM    121  H21 UNL A   1      40.788  41.805  31.733  1.00  0.00    +0.000 H 
ATOM    122  H22 UNL A   1      42.208  40.764  31.575  1.00  0.00    +0.000 H 
ATOM     29  C19 UNL A   1      41.628  41.544  31.125  1.00  0.00    +0.000 C 
BRANCH   29   28
ATOM     28  N7  UNL A   1      42.483  42.705  30.986  1.00  0.00    +0.000 N 
ATOM    120  H20 UNL A   1      41.985  43.552  31.047  1.00  0.00    +0.000 H 
BRANCH   28   26
ATOM     26  C18 UNL A   1      43.807  42.894  30.791  1.00  0.00    +0.000 C 
ATOM     27  O2  UNL A   1      44.539  42.202  31.521  1.00  0.00    +0.000 O 
BRANCH   26    2
ATOM      2  C1  UNL A   1      44.492  43.801  29.735  1.00  0.00    +0.000 C 
ATOM    104  H4  UNL A   1      44.008  43.468  28.840  1.00  0.00    +0.000 H 
BRANCH    2    1
ATOM      1  N1  UNL A   1      44.197  45.221  30.007  1.00  0.00    +0.000 N 
ATOM    101  H1  UNL A   1      43.387  45.511  29.459  1.00  0.00    +0.000 H 
ATOM    102  H2  UNL A   1      45.003  45.792  29.750  1.00  0.00    +0.000 H 
ATOM    103  H3  UNL A   1      43.997  45.344  30.999  1.00  0.00    +0.000 H 
ENDBRANCH    2    1
BRANCH    2    3
ATOM    105  H5  UNL A   1      46.257  42.682  29.715  1.00  0.00    +0.000 H 
ATOM    106  H6  UNL A   1      46.318  44.464  29.169  1.00  0.00    +0.000 H 
ATOM      3  C2  UNL A   1      45.866  43.494  29.139  1.00  0.00    +0.000 C 
BRANCH    3    4
ATOM      4  C3  UNL A   1      46.103  43.119  27.698  1.00  0.00    +0.000 C 
ATOM      5  C4  UNL A   1      45.378  43.730  26.683  1.00  0.00    +0.000 C 
ATOM      6  N2  UNL A   1      45.614  43.077  25.503  1.00  0.00    +0.000 N 
ATOM    107  H7  UNL A   1      44.760  44.548  26.801  1.00  0.00    +0.000 H 
ATOM     20  C12 UNL A   1      46.597  42.126  25.690  1.00  0.00    +0.000 C 
ATOM     21  C13 UNL A   1      47.191  41.244  24.767  1.00  0.00    +0.000 C 
ATOM    116  H16 UNL A   1      46.882  41.224  23.782  1.00  0.00    +0.000 H 
ATOM     23  C15 UNL A   1      48.618  40.434  26.535  1.00  0.00    +0.000 C 
ATOM     24  C16 UNL A   1      48.013  41.309  27.447  1.00  0.00    +0.000 C 
ATOM     25  C17 UNL A   1      46.976  42.179  27.042  1.00  0.00    +0.000 C 
ATOM    119  H19 UNL A   1      48.329  41.318  28.429  1.00  0.00    +0.000 H 
ATOM    118  H18 UNL A   1      49.377  39.809  26.852  1.00  0.00    +0.000 H 
ATOM     22  C14 UNL A   1      48.207  40.400  25.213  1.00  0.00    +0.000 C 
ATOM    117  H17 UNL A   1      48.655  39.746  24.552  1.00  0.00    +0.000 H 
BRANCH    6    7
ATOM      7  C5  UNL A   1      44.875  43.294  24.315  1.00  0.00    +0.000 C 
ATOM      8  N3  UNL A   1      43.768  42.577  24.156  1.00  0.00    +0.000 N 
ATOM      9  C6  UNL A   1      43.082  42.953  23.089  1.00  0.00    +0.000 C 
ATOM     10 Cl1  UNL A   1      41.615  42.121  22.817  1.00  0.00    +0.000 Cl
ATOM     11  N4  UNL A   1      43.416  43.864  22.188  1.00  0.00    +0.000 N 
ATOM     12  C7  UNL A   1      44.599  44.427  22.384  1.00  0.00    +0.000 C 
ATOM     19  N6  UNL A   1      45.333  44.224  23.472  1.00  0.00    +0.000 N 
BRANCH   12   13
ATOM    108  H8  UNL A   1      44.510  45.850  19.480  1.00  0.00    +0.000 H 
ATOM    109  H9  UNL A   1      43.586  44.488  20.118  1.00  0.00    +0.000 H 
ATOM     13  N5  UNL A   1      45.127  45.137  21.328  1.00  0.00    +0.000 N 
ATOM     14  C8  UNL A   1      44.559  44.913  19.996  1.00  0.00    +0.000 C 
ATOM     15  C9  UNL A   1      45.401  43.938  19.169  1.00  0.00    +0.000 C 
ATOM     17  C10 UNL A   1      47.324  44.385  20.452  1.00  0.00    +0.000 C 
ATOM     18  C11 UNL A   1      46.573  45.374  21.363  1.00  0.00    +0.000 C 
ATOM    114  H14 UNL A   1      46.922  45.255  22.368  1.00  0.00    +0.000 H 
ATOM    115  H15 UNL A   1      46.763  46.366  21.012  1.00  0.00    +0.000 H 
ATOM    110  H10 UNL A   1      45.015  43.900  18.171  1.00  0.00    +0.000 H 
ATOM    111  H11 UNL A   1      45.350  42.972  19.626  1.00  0.00    +0.000 H 
ATOM     16  O1  UNL A   1      46.775  44.353  19.125  1.00  0.00    +0.000 O 
ATOM    112  H12 UNL A   1      48.351  44.679  20.394  1.00  0.00    +0.000 H 
ATOM    113  H13 UNL A   1      47.226  43.406  20.874  1.00  0.00    +0.000 H 
ENDBRANCH   12   13
ENDBRANCH    6    7
ENDBRANCH    3    4
ENDBRANCH    2    3
ENDBRANCH   26    2
ENDBRANCH   28   26
ENDBRANCH   29   28
ENDBRANCH   30   29
ENDBRANCH   31   30
ENDBRANCH   32   31
ENDBRANCH   33   32
ENDBRANCH   34   33
ENDBRANCH   35   34
ENDBRANCH   36   35
ENDBRANCH   38   36
ENDBRANCH   42   41
BRANCH   46   47
ATOM     47  C34 UNL A   1      41.683  32.616  36.676  1.00  0.00    +0.000 C 
ATOM     48  C35 UNL A   1      42.612  32.229  37.662  1.00  0.00    +0.000 C 
ATOM     49  F1  UNL A   1      43.792  31.695  37.316  1.00  0.00    +0.000 F 
ATOM     50  C36 UNL A   1      42.320  32.325  39.026  1.00  0.00    +0.000 C 
ATOM     51  F2  UNL A   1      43.198  31.868  39.930  1.00  0.00    +0.000 F 
ATOM     52  C37 UNL A   1      41.107  32.840  39.450  1.00  0.00    +0.000 C 
ATOM     53  F3  UNL A   1      40.813  32.900  40.755  1.00  0.00    +0.000 F 
ATOM     54  C38 UNL A   1      40.182  33.252  38.511  1.00  0.00    +0.000 C 
ATOM     55  F4  UNL A   1      38.993  33.731  38.905  1.00  0.00    +0.000 F 
ATOM     56  C39 UNL A   1      40.453  33.115  37.151  1.00  0.00    +0.000 C 
ATOM     57  F5  UNL A   1      39.446  33.397  36.312  1.00  0.00    +0.000 F 
ENDBRANCH   46   47
BRANCH   63   64
ATOM     65  C46 UNL A   1      39.746  29.472  30.271  1.00  0.00    +0.000 C 
ATOM     66  F6  UNL A   1      40.288  30.698  30.233  1.00  0.00    +0.000 F 
ATOM     67  C47 UNL A   1      39.844  28.677  29.132  1.00  0.00    +0.000 C 
ATOM     68  F7  UNL A   1      40.403  29.167  28.015  1.00  0.00    +0.000 F 
ATOM     69  C48 UNL A   1      39.395  27.366  29.160  1.00  0.00    +0.000 C 
ATOM     70  F8  UNL A   1      39.529  26.585  28.078  1.00  0.00    +0.000 F 
ATOM     71  C49 UNL A   1      38.835  26.855  30.320  1.00  0.00    +0.000 C 
ATOM     72  F9  UNL A   1      38.448  25.572  30.366  1.00  0.00    +0.000 F 
ATOM     73  C50 UNL A   1      38.701  27.660  31.448  1.00  0.00    +0.000 C 
ATOM     74  F10 UNL A   1      38.180  27.126  32.564  1.00  0.00    +0.000 F 
ATOM     64  C45 UNL A   1      39.149  28.988  31.447  1.00  0.00    +0.000 C 
ENDBRANCH   63   64
BRANCH   78   79
ATOM     79  C54 UNL A   1      35.325  34.014  31.058  1.00  0.00    +0.000 C 
ATOM     80  C55 UNL A   1      35.014  35.029  31.975  1.00  0.00    +0.000 C 
ATOM     81  F11 UNL A   1      35.792  35.231  33.048  1.00  0.00    +0.000 F 
ATOM     82  C56 UNL A   1      33.936  35.896  31.767  1.00  0.00    +0.000 C 
ATOM     83  F12 UNL A   1      33.706  36.893  32.632  1.00  0.00    +0.000 F 
ATOM     84  C57 UNL A   1      33.136  35.764  30.644  1.00  0.00    +0.000 C 
ATOM     85  F13 UNL A   1      32.138  36.629  30.418  1.00  0.00    +0.000 F 
ATOM     86  C58 UNL A   1      33.401  34.758  29.735  1.00  0.00    +0.000 C 
ATOM     87  F14 UNL A   1      32.655  34.640  28.627  1.00  0.00    +0.000 F 
ATOM     88  C59 UNL A   1      34.483  33.901  29.934  1.00  0.00    +0.000 C 
ATOM     89  F15 UNL A   1      34.745  33.019  28.960  1.00  0.00    +0.000 F 
ENDBRANCH   78   79
TORSDOF 20
ENDMDL
MODEL 6
REMARK VINA RESULT:      -7.7     19.062     25.029
ROOT
ATOM    136  H36 UNL A   1      11.980  -2.928  26.054  1.00  0.00    +0.000 H 
ATOM    137  H37 UNL A   1       9.401  -3.043  26.708  1.00  0.00    +0.000 H 
ATOM    138  H38 UNL A   1      10.942   0.428  28.027  1.00  0.00    +0.000 H 
ATOM    139  H39 UNL A   1       6.188   3.415  21.898  1.00  0.00    +0.000 H 
ATOM    140  H40 UNL A   1       7.615   1.807  20.529  1.00  0.00    +0.000 H 
ATOM    141  H41 UNL A   1       9.003   1.665  24.444  1.00  0.00    +0.000 H 
ATOM    142  H42 UNL A   1       9.195   4.250  26.466  1.00  0.00    +0.000 H 
ATOM    143  H43 UNL A   1      10.002   2.140  27.703  1.00  0.00    +0.000 H 
ATOM    144  H44 UNL A   1      14.156   1.235  23.695  1.00  0.00    +0.000 H 
ATOM    145  H45 UNL A   1      12.664   1.805  21.683  1.00  0.00    +0.000 H 
ATOM     42  C30 UNL A   1       9.970   0.896  21.959  1.00  0.00    +0.000 C 
ATOM     43  C31 UNL A   1      11.106   0.715  22.918  1.00  0.00    +0.000 C 
ATOM     44  N9  UNL A   1      11.122   0.083  24.052  1.00  0.00    +0.000 N 
ATOM     45  C32 UNL A   1      12.382   0.313  24.607  1.00  0.00    +0.000 C 
ATOM     46  C33 UNL A   1      12.689   0.050  25.908  1.00  0.00    +0.000 C 
ATOM     58  C40 UNL A   1      11.747  -0.828  26.535  1.00  0.00    +0.000 C 
ATOM     59  C41 UNL A   1      11.382  -2.148  26.368  1.00  0.00    +0.000 C 
ATOM     60  C42 UNL A   1      10.002  -2.204  26.720  1.00  0.00    +0.000 C 
ATOM     61  C43 UNL A   1       9.615  -0.913  27.081  1.00  0.00    +0.000 C 
ATOM     62  N10 UNL A   1      10.800  -0.283  27.361  1.00  0.00    +0.000 N 
ATOM     63  C44 UNL A   1       8.342  -0.237  27.020  1.00  0.00    +0.000 C 
ATOM     75  C51 UNL A   1       8.192   1.118  26.967  1.00  0.00    +0.000 C 
ATOM     76  N11 UNL A   1       7.089   1.688  26.351  1.00  0.00    +0.000 N 
ATOM     77  C52 UNL A   1       7.506   2.849  25.926  1.00  0.00    +0.000 C 
ATOM     78  C53 UNL A   1       6.999   3.520  24.705  1.00  0.00    +0.000 C 
ATOM     90  C60 UNL A   1       7.420   2.807  23.635  1.00  0.00    +0.000 C 
ATOM     91  C61 UNL A   1       6.975   2.852  22.258  1.00  0.00    +0.000 C 
ATOM     92  C62 UNL A   1       7.758   2.035  21.526  1.00  0.00    +0.000 C 
ATOM     93  C63 UNL A   1       8.845   1.522  22.363  1.00  0.00    +0.000 C 
ATOM     94  N12 UNL A   1       8.519   1.942  23.632  1.00  0.00    +0.000 N 
ATOM     95  C64 UNL A   1       8.746   3.323  26.518  1.00  0.00    +0.000 C 
ATOM     96  C65 UNL A   1       9.135   2.214  27.149  1.00  0.00    +0.000 C 
ATOM     97  C66 UNL A   1      13.154   1.002  23.603  1.00  0.00    +0.000 C 
ATOM     98  C67 UNL A   1      12.403   1.298  22.543  1.00  0.00    +0.000 C 
ENDROOT
BRANCH   42   41
ATOM     99  C68 UNL A   1      10.540   1.515  19.610  1.00  0.00    +0.000 C 
ATOM    100  C69 UNL A   1      10.661   1.159  18.270  1.00  0.00    +0.000 C 
ATOM     38  C26 UNL A   1      10.483  -0.173  17.855  1.00  0.00    +0.000 C 
ATOM     39  C27 UNL A   1      10.252  -1.146  18.828  1.00  0.00    +0.000 C 
ATOM    134  H34 UNL A   1      10.197  -2.140  18.554  1.00  0.00    +0.000 H 
ATOM     40  C28 UNL A   1      10.095  -0.790  20.169  1.00  0.00    +0.000 C 
ATOM    135  H35 UNL A   1       9.901  -1.516  20.875  1.00  0.00    +0.000 H 
ATOM     41  C29 UNL A   1      10.201   0.547  20.555  1.00  0.00    +0.000 C 
ATOM    146  H46 UNL A   1      10.699   2.491  19.903  1.00  0.00    +0.000 H 
ATOM    147  H47 UNL A   1      10.886   1.883  17.571  1.00  0.00    +0.000 H 
BRANCH   38   36
ATOM     36  C25 UNL A   1      10.558  -0.403  16.384  1.00  0.00    +0.000 C 
ATOM     37  O3  UNL A   1      11.659  -0.469  15.854  1.00  0.00    +0.000 O 
BRANCH   36   35
ATOM     35  N8  UNL A   1       9.472  -0.495  15.553  1.00  0.00    +0.000 N 
ATOM    133  H33 UNL A   1       9.672  -0.182  14.641  1.00  0.00    +0.000 H 
BRANCH   35   34
ATOM     34  C24 UNL A   1       8.104  -0.942  15.693  1.00  0.00    +0.000 C 
ATOM    131  H31 UNL A   1       7.878  -1.584  14.868  1.00  0.00    +0.000 H 
ATOM    132  H32 UNL A   1       8.046  -1.434  16.642  1.00  0.00    +0.000 H 
BRANCH   34   33
ATOM     33  C23 UNL A   1       7.059   0.174  15.726  1.00  0.00    +0.000 C 
ATOM    130  H30 UNL A   1       6.165  -0.276  16.104  1.00  0.00    +0.000 H 
ATOM    129  H29 UNL A   1       6.963   0.563  14.734  1.00  0.00    +0.000 H 
BRANCH   33   32
ATOM    128  H28 UNL A   1       8.117   1.921  16.161  1.00  0.00    +0.000 H 
ATOM    127  H27 UNL A   1       7.677   0.937  17.604  1.00  0.00    +0.000 H 
ATOM     32  C22 UNL A   1       7.368   1.346  16.665  1.00  0.00    +0.000 C 
BRANCH   32   31
ATOM    125  H25 UNL A   1       5.418   2.093  16.274  1.00  0.00    +0.000 H 
ATOM    126  H26 UNL A   1       5.975   2.210  17.974  1.00  0.00    +0.000 H 
ATOM     31  C21 UNL A   1       6.222   2.330  16.940  1.00  0.00    +0.000 C 
BRANCH   31   30
ATOM    123  H23 UNL A   1       6.262   4.107  15.775  1.00  0.00    +0.000 H 
ATOM    124  H24 UNL A   1       6.047   4.342  17.530  1.00  0.00    +0.000 H 
ATOM     30  C20 UNL A   1       6.565   3.813  16.759  1.00  0.00    +0.000 C 
BRANCH   30   29
ATOM    121  H21 UNL A   1       8.557   3.277  17.287  1.00  0.00    +0.000 H 
ATOM    122  H22 UNL A   1       8.424   4.443  15.964  1.00  0.00    +0.000 H 
ATOM     29  C19 UNL A   1       8.049   4.145  16.922  1.00  0.00    +0.000 C 
BRANCH   29   28
ATOM     28  N7  UNL A   1       8.272   5.239  17.845  1.00  0.00    +0.000 N 
ATOM    120  H20 UNL A   1       7.682   5.197  18.631  1.00  0.00    +0.000 H 
BRANCH   28   26
ATOM     26  C18 UNL A   1       9.103   6.304  17.874  1.00  0.00    +0.000 C 
ATOM     27  O2  UNL A   1       8.574   7.380  17.541  1.00  0.00    +0.000 O 
BRANCH   26    2
ATOM      2  C1  UNL A   1      10.584   6.342  18.334  1.00  0.00    +0.000 C 
ATOM    104  H4  UNL A   1      11.024   6.919  17.546  1.00  0.00    +0.000 H 
BRANCH    2    1
ATOM      1  N1  UNL A   1      10.702   7.032  19.633  1.00  0.00    +0.000 N 
ATOM    101  H1  UNL A   1      10.501   6.375  20.387  1.00  0.00    +0.000 H 
ATOM    102  H2  UNL A   1      10.038   7.805  19.670  1.00  0.00    +0.000 H 
ATOM    103  H3  UNL A   1      11.649   7.394  19.742  1.00  0.00    +0.000 H 
ENDBRANCH    2    1
BRANCH    2    3
ATOM    105  H5  UNL A   1      11.033   4.301  18.321  1.00  0.00    +0.000 H 
ATOM    106  H6  UNL A   1      12.403   5.519  18.663  1.00  0.00    +0.000 H 
ATOM      3  C2  UNL A   1      11.565   5.198  18.080  1.00  0.00    +0.000 C 
BRANCH    3    4
ATOM      4  C3  UNL A   1      12.233   4.928  16.756  1.00  0.00    +0.000 C 
ATOM      5  C4  UNL A   1      13.399   5.596  16.407  1.00  0.00    +0.000 C 
ATOM      6  N2  UNL A   1      13.687   5.347  15.091  1.00  0.00    +0.000 N 
ATOM    107  H7  UNL A   1      13.960   6.188  17.039  1.00  0.00    +0.000 H 
ATOM     20  C12 UNL A   1      12.806   4.407  14.597  1.00  0.00    +0.000 C 
ATOM     21  C13 UNL A   1      12.734   3.815  13.320  1.00  0.00    +0.000 C 
ATOM    116  H16 UNL A   1      13.389   4.093  12.573  1.00  0.00    +0.000 H 
ATOM     23  C15 UNL A   1      10.883   2.478  14.098  1.00  0.00    +0.000 C 
ATOM     24  C16 UNL A   1      10.958   3.079  15.361  1.00  0.00    +0.000 C 
ATOM     25  C17 UNL A   1      11.926   4.070  15.640  1.00  0.00    +0.000 C 
ATOM    119  H19 UNL A   1      10.295   2.795  16.099  1.00  0.00    +0.000 H 
ATOM    118  H18 UNL A   1      10.170   1.754  13.917  1.00  0.00    +0.000 H 
ATOM     22  C14 UNL A   1      11.758   2.847  13.089  1.00  0.00    +0.000 C 
ATOM    117  H17 UNL A   1      11.689   2.402  12.161  1.00  0.00    +0.000 H 
BRANCH    6    7
ATOM      7  C5  UNL A   1      14.675   6.038  14.351  1.00  0.00    +0.000 C 
ATOM      8  N3  UNL A   1      14.256   7.006  13.544  1.00  0.00    +0.000 N 
ATOM      9  C6  UNL A   1      15.261   7.677  13.007  1.00  0.00    +0.000 C 
ATOM     10 Cl1  UNL A   1      14.828   8.975  11.984  1.00  0.00    +0.000 Cl
ATOM     11  N4  UNL A   1      16.557   7.439  13.136  1.00  0.00    +0.000 N 
ATOM     12  C7  UNL A   1      16.853   6.374  13.866  1.00  0.00    +0.000 C 
ATOM     19  N6  UNL A   1      15.948   5.683  14.551  1.00  0.00    +0.000 N 
BRANCH   12   13
ATOM    108  H8  UNL A   1      19.987   6.560  13.085  1.00  0.00    +0.000 H 
ATOM    109  H9  UNL A   1      18.580   7.358  12.378  1.00  0.00    +0.000 H 
ATOM     13  N5  UNL A   1      18.144   5.902  13.776  1.00  0.00    +0.000 N 
ATOM     14  C8  UNL A   1      18.995   6.428  12.705  1.00  0.00    +0.000 C 
ATOM     15  C9  UNL A   1      19.051   5.485  11.500  1.00  0.00    +0.000 C 
ATOM     17  C10 UNL A   1      18.449   3.631  12.822  1.00  0.00    +0.000 C 
ATOM     18  C11 UNL A   1      18.343   4.486  14.099  1.00  0.00    +0.000 C 
ATOM    114  H14 UNL A   1      17.514   4.141  14.680  1.00  0.00    +0.000 H 
ATOM    115  H15 UNL A   1      19.256   4.388  14.647  1.00  0.00    +0.000 H 
ATOM    110  H10 UNL A   1      19.773   5.852  10.800  1.00  0.00    +0.000 H 
ATOM    111  H11 UNL A   1      18.080   5.448  11.051  1.00  0.00    +0.000 H 
ATOM     16  O1  UNL A   1      19.420   4.157  11.902  1.00  0.00    +0.000 O 
ATOM    112  H12 UNL A   1      18.735   2.636  13.094  1.00  0.00    +0.000 H 
ATOM    113  H13 UNL A   1      17.495   3.640  12.337  1.00  0.00    +0.000 H 
ENDBRANCH   12   13
ENDBRANCH    6    7
ENDBRANCH    3    4
ENDBRANCH    2    3
ENDBRANCH   26    2
ENDBRANCH   28   26
ENDBRANCH   29   28
ENDBRANCH   30   29
ENDBRANCH   31   30
ENDBRANCH   32   31
ENDBRANCH   33   32
ENDBRANCH   34   33
ENDBRANCH   35   34
ENDBRANCH   36   35
ENDBRANCH   38   36
ENDBRANCH   42   41
BRANCH   46   47
ATOM     47  C34 UNL A   1      13.740   0.780  26.697  1.00  0.00    +0.000 C 
ATOM     48  C35 UNL A   1      13.502   2.082  27.178  1.00  0.00    +0.000 C 
ATOM     49  F1  UNL A   1      12.277   2.624  27.103  1.00  0.00    +0.000 F 
ATOM     50  C36 UNL A   1      14.531   2.878  27.690  1.00  0.00    +0.000 C 
ATOM     51  F2  UNL A   1      14.277   4.141  28.060  1.00  0.00    +0.000 F 
ATOM     52  C37 UNL A   1      15.823   2.389  27.768  1.00  0.00    +0.000 C 
ATOM     53  F3  UNL A   1      16.817   3.163  28.225  1.00  0.00    +0.000 F 
ATOM     54  C38 UNL A   1      16.090   1.108  27.328  1.00  0.00    +0.000 C 
ATOM     55  F4  UNL A   1      17.341   0.628  27.374  1.00  0.00    +0.000 F 
ATOM     56  C39 UNL A   1      15.074   0.329  26.775  1.00  0.00    +0.000 C 
ATOM     57  F5  UNL A   1      15.447  -0.839  26.236  1.00  0.00    +0.000 F 
ENDBRANCH   46   47
BRANCH   63   64
ATOM     65  C46 UNL A   1       6.779  -1.389  25.357  1.00  0.00    +0.000 C 
ATOM     66  F6  UNL A   1       7.472  -0.898  24.320  1.00  0.00    +0.000 F 
ATOM     67  C47 UNL A   1       5.723  -2.257  25.088  1.00  0.00    +0.000 C 
ATOM     68  F7  UNL A   1       5.379  -2.525  23.819  1.00  0.00    +0.000 F 
ATOM     69  C48 UNL A   1       5.049  -2.873  26.130  1.00  0.00    +0.000 C 
ATOM     70  F8  UNL A   1       4.062  -3.744  25.872  1.00  0.00    +0.000 F 
ATOM     71  C49 UNL A   1       5.418  -2.611  27.440  1.00  0.00    +0.000 C 
ATOM     72  F9  UNL A   1       4.802  -3.245  28.448  1.00  0.00    +0.000 F 
ATOM     73  C50 UNL A   1       6.447  -1.714  27.712  1.00  0.00    +0.000 C 
ATOM     74  F10 UNL A   1       6.799  -1.504  28.990  1.00  0.00    +0.000 F 
ATOM     64  C45 UNL A   1       7.147  -1.079  26.677  1.00  0.00    +0.000 C 
ENDBRANCH   63   64
BRANCH   78   79
ATOM     79  C54 UNL A   1       6.455   4.897  24.717  1.00  0.00    +0.000 C 
ATOM     80  C55 UNL A   1       7.206   5.974  24.224  1.00  0.00    +0.000 C 
ATOM     81  F11 UNL A   1       8.501   5.810  23.918  1.00  0.00    +0.000 F 
ATOM     82  C56 UNL A   1       6.620   7.220  23.975  1.00  0.00    +0.000 C 
ATOM     83  F12 UNL A   1       7.354   8.208  23.446  1.00  0.00    +0.000 F 
ATOM     84  C57 UNL A   1       5.273   7.423  24.221  1.00  0.00    +0.000 C 
ATOM     85  F13 UNL A   1       4.701   8.599  23.930  1.00  0.00    +0.000 F 
ATOM     86  C58 UNL A   1       4.511   6.389  24.730  1.00  0.00    +0.000 C 
ATOM     87  F14 UNL A   1       3.198   6.562  24.942  1.00  0.00    +0.000 F 
ATOM     88  C59 UNL A   1       5.090   5.143  24.968  1.00  0.00    +0.000 C 
ATOM     89  F15 UNL A   1       4.270   4.158  25.360  1.00  0.00    +0.000 F 
ENDBRANCH   78   79
TORSDOF 20
ENDMDL
MODEL 7
REMARK VINA RESULT:      -7.7      1.413      2.701
ROOT
ATOM    136  H36 UNL A   1       1.827  14.959  38.016  1.00  0.00    +0.000 H 
ATOM    137  H37 UNL A   1       4.467  15.032  38.360  1.00  0.00    +0.000 H 
ATOM    138  H38 UNL A   1       2.715  17.407  41.089  1.00  0.00    +0.000 H 
ATOM    139  H39 UNL A   1       5.222  11.311  46.153  1.00  0.00    +0.000 H 
ATOM    140  H40 UNL A   1       3.806   9.923  44.552  1.00  0.00    +0.000 H 
ATOM    141  H41 UNL A   1       3.469  13.894  43.376  1.00  0.00    +0.000 H 
ATOM    142  H42 UNL A   1       3.330  16.459  45.428  1.00  0.00    +0.000 H 
ATOM    143  H43 UNL A   1       3.233  17.308  42.998  1.00  0.00    +0.000 H 
ATOM    144  H44 UNL A   1      -1.554  14.124  41.953  1.00  0.00    +0.000 H 
ATOM    145  H45 UNL A   1      -0.725  12.042  43.208  1.00  0.00    +0.000 H 
ATOM     42  C30 UNL A   1       2.071  11.548  42.888  1.00  0.00    +0.000 C 
ATOM     43  C31 UNL A   1       1.255  12.647  42.282  1.00  0.00    +0.000 C 
ATOM     44  N9  UNL A   1       1.628  13.581  41.462  1.00  0.00    +0.000 N 
ATOM     45  C32 UNL A   1       0.523  14.418  41.297  1.00  0.00    +0.000 C 
ATOM     46  C33 UNL A   1       0.595  15.656  40.734  1.00  0.00    +0.000 C 
ATOM     58  C40 UNL A   1       1.801  15.858  39.987  1.00  0.00    +0.000 C 
ATOM     59  C41 UNL A   1       2.338  15.318  38.837  1.00  0.00    +0.000 C 
ATOM     60  C42 UNL A   1       3.750  15.360  39.026  1.00  0.00    +0.000 C 
ATOM     61  C43 UNL A   1       3.982  15.927  40.280  1.00  0.00    +0.000 C 
ATOM     62  N10 UNL A   1       2.811  16.579  40.566  1.00  0.00    +0.000 N 
ATOM     63  C44 UNL A   1       5.063  15.768  41.223  1.00  0.00    +0.000 C 
ATOM     75  C51 UNL A   1       4.956  16.003  42.562  1.00  0.00    +0.000 C 
ATOM     76  N11 UNL A   1       5.758  15.327  43.469  1.00  0.00    +0.000 N 
ATOM     77  C52 UNL A   1       5.053  15.277  44.566  1.00  0.00    +0.000 C 
ATOM     78  C53 UNL A   1       5.120  14.170  45.549  1.00  0.00    +0.000 C 
ATOM     90  C60 UNL A   1       4.580  13.071  44.972  1.00  0.00    +0.000 C 
ATOM     91  C61 UNL A   1       4.659  11.682  45.372  1.00  0.00    +0.000 C 
ATOM     92  C62 UNL A   1       3.874  10.953  44.553  1.00  0.00    +0.000 C 
ATOM     93  C63 UNL A   1       3.134  11.850  43.663  1.00  0.00    +0.000 C 
ATOM     94  N12 UNL A   1       3.682  13.089  43.900  1.00  0.00    +0.000 N 
ATOM     95  C64 UNL A   1       3.933  16.202  44.631  1.00  0.00    +0.000 C 
ATOM     96  C65 UNL A   1       3.911  16.622  43.366  1.00  0.00    +0.000 C 
ATOM     97  C66 UNL A   1      -0.581  13.780  41.971  1.00  0.00    +0.000 C 
ATOM     98  C67 UNL A   1      -0.176  12.689  42.620  1.00  0.00    +0.000 C 
ENDROOT
BRANCH   42   41
ATOM     99  C68 UNL A   1       1.967   9.345  41.719  1.00  0.00    +0.000 C 
ATOM    100  C69 UNL A   1       1.396   8.083  41.585  1.00  0.00    +0.000 C 
ATOM     38  C26 UNL A   1       0.445   7.615  42.510  1.00  0.00    +0.000 C 
ATOM     39  C27 UNL A   1       0.138   8.416  43.609  1.00  0.00    +0.000 C 
ATOM    134  H34 UNL A   1      -0.497   8.060  44.341  1.00  0.00    +0.000 H 
ATOM     40  C28 UNL A   1       0.681   9.697  43.731  1.00  0.00    +0.000 C 
ATOM    135  H35 UNL A   1       0.427  10.289  44.536  1.00  0.00    +0.000 H 
ATOM     41  C29 UNL A   1       1.567  10.177  42.765  1.00  0.00    +0.000 C 
ATOM    146  H46 UNL A   1       2.683   9.664  41.048  1.00  0.00    +0.000 H 
ATOM    147  H47 UNL A   1       1.675   7.481  40.795  1.00  0.00    +0.000 H 
BRANCH   38   36
ATOM     36  C25 UNL A   1      -0.148   6.282  42.201  1.00  0.00    +0.000 C 
ATOM     37  O3  UNL A   1      -1.171   6.234  41.531  1.00  0.00    +0.000 O 
BRANCH   36   35
ATOM     35  N8  UNL A   1       0.340   5.087  42.660  1.00  0.00    +0.000 N 
ATOM    133  H33 UNL A   1       0.777   5.173  43.537  1.00  0.00    +0.000 H 
BRANCH   35   34
ATOM     34  C24 UNL A   1       0.367   3.728  42.164  1.00  0.00    +0.000 C 
ATOM    131  H31 UNL A   1       0.361   3.067  43.005  1.00  0.00    +0.000 H 
ATOM    132  H32 UNL A   1      -0.492   3.623  41.535  1.00  0.00    +0.000 H 
BRANCH   34   33
ATOM     33  C23 UNL A   1       1.576   3.380  41.296  1.00  0.00    +0.000 C 
ATOM    130  H30 UNL A   1       1.698   2.321  41.377  1.00  0.00    +0.000 H 
ATOM    129  H29 UNL A   1       2.412   3.943  41.657  1.00  0.00    +0.000 H 
BRANCH   33   32
ATOM    128  H28 UNL A   1       0.386   3.522  39.586  1.00  0.00    +0.000 H 
ATOM    127  H27 UNL A   1       2.086   3.015  39.272  1.00  0.00    +0.000 H 
ATOM     32  C22 UNL A   1       1.425   3.671  39.798  1.00  0.00    +0.000 C 
BRANCH   32   31
ATOM    125  H25 UNL A   1       1.629   5.137  38.273  1.00  0.00    +0.000 H 
ATOM    126  H26 UNL A   1       1.031   5.731  39.856  1.00  0.00    +0.000 H 
ATOM     31  C21 UNL A   1       1.727   5.104  39.339  1.00  0.00    +0.000 C 
BRANCH   31   30
ATOM    123  H23 UNL A   1       3.180   6.656  39.384  1.00  0.00    +0.000 H 
ATOM    124  H24 UNL A   1       3.224   5.519  40.758  1.00  0.00    +0.000 H 
ATOM     30  C20 UNL A   1       3.119   5.635  39.700  1.00  0.00    +0.000 C 
BRANCH   30   29
ATOM    121  H21 UNL A   1       4.401   3.938  39.577  1.00  0.00    +0.000 H 
ATOM    122  H22 UNL A   1       4.034   4.709  38.029  1.00  0.00    +0.000 H 
ATOM     29  C19 UNL A   1       4.277   4.866  39.060  1.00  0.00    +0.000 C 
BRANCH   29   28
ATOM     28  N7  UNL A   1       5.524   5.601  39.114  1.00  0.00    +0.000 N 
ATOM    120  H20 UNL A   1       5.909   5.629  40.019  1.00  0.00    +0.000 H 
BRANCH   28   26
ATOM     26  C18 UNL A   1       6.280   6.259  38.206  1.00  0.00    +0.000 C 
ATOM     27  O2  UNL A   1       6.982   5.524  37.490  1.00  0.00    +0.000 O 
BRANCH   26    2
ATOM      2  C1  UNL A   1       6.310   7.784  37.921  1.00  0.00    +0.000 C 
ATOM    104  H4  UNL A   1       5.596   8.136  38.637  1.00  0.00    +0.000 H 
BRANCH    2    1
ATOM      1  N1  UNL A   1       7.654   8.331  38.192  1.00  0.00    +0.000 N 
ATOM    101  H1  UNL A   1       7.841   9.105  37.555  1.00  0.00    +0.000 H 
ATOM    102  H2  UNL A   1       8.353   7.601  38.055  1.00  0.00    +0.000 H 
ATOM    103  H3  UNL A   1       7.698   8.666  39.155  1.00  0.00    +0.000 H 
ENDBRANCH    2    1
BRANCH    2    3
ATOM    105  H5  UNL A   1       5.918   8.005  35.881  1.00  0.00    +0.000 H 
ATOM    106  H6  UNL A   1       5.671   9.471  37.006  1.00  0.00    +0.000 H 
ATOM      3  C2  UNL A   1       5.529   8.434  36.780  1.00  0.00    +0.000 C 
BRANCH    3    4
ATOM      4  C3  UNL A   1       4.029   8.382  36.639  1.00  0.00    +0.000 C 
ATOM      5  C4  UNL A   1       3.257   9.504  36.907  1.00  0.00    +0.000 C 
ATOM      6  N2  UNL A   1       1.933   9.150  36.919  1.00  0.00    +0.000 N 
ATOM    107  H7  UNL A   1       3.623  10.455  37.072  1.00  0.00    +0.000 H 
ATOM     20  C12 UNL A   1       1.804   7.836  36.520  1.00  0.00    +0.000 C 
ATOM     21  C13 UNL A   1       0.647   7.052  36.344  1.00  0.00    +0.000 C 
ATOM    116  H16 UNL A   1      -0.288   7.438  36.549  1.00  0.00    +0.000 H 
ATOM     23  C15 UNL A   1       2.051   5.232  35.612  1.00  0.00    +0.000 C 
ATOM     24  C16 UNL A   1       3.196   6.017  35.799  1.00  0.00    +0.000 C 
ATOM     25  C17 UNL A   1       3.097   7.347  36.266  1.00  0.00    +0.000 C 
ATOM    119  H19 UNL A   1       4.125   5.619  35.593  1.00  0.00    +0.000 H 
ATOM    118  H18 UNL A   1       2.145   4.264  35.266  1.00  0.00    +0.000 H 
ATOM     22  C14 UNL A   1       0.793   5.743  35.886  1.00  0.00    +0.000 C 
ATOM    117  H17 UNL A   1      -0.042   5.152  35.751  1.00  0.00    +0.000 H 
BRANCH    6    7
ATOM      7  C5  UNL A   1       0.892   9.994  37.372  1.00  0.00    +0.000 C 
ATOM      8  N3  UNL A   1       0.272   9.636  38.492  1.00  0.00    +0.000 N 
ATOM      9  C6  UNL A   1      -0.585  10.556  38.902  1.00  0.00    +0.000 C 
ATOM     10 Cl1  UNL A   1      -1.404  10.212  40.361  1.00  0.00    +0.000 Cl
ATOM     11  N4  UNL A   1      -0.911  11.688  38.299  1.00  0.00    +0.000 N 
ATOM     12  C7  UNL A   1      -0.320  11.881  37.129  1.00  0.00    +0.000 C 
ATOM     19  N6  UNL A   1       0.641  11.094  36.658  1.00  0.00    +0.000 N 
BRANCH   12   13
ATOM    108  H8  UNL A   1      -1.537  14.815  36.516  1.00  0.00    +0.000 H 
ATOM    109  H9  UNL A   1      -1.554  13.853  37.996  1.00  0.00    +0.000 H 
ATOM     13  N5  UNL A   1      -0.849  12.867  36.325  1.00  0.00    +0.000 N 
ATOM     14  C8  UNL A   1      -1.738  13.855  36.942  1.00  0.00    +0.000 C 
ATOM     15  C9  UNL A   1      -3.215  13.516  36.720  1.00  0.00    +0.000 C 
ATOM     17  C10 UNL A   1      -2.713  12.215  34.822  1.00  0.00    +0.000 C 
ATOM     18  C11 UNL A   1      -1.200  12.472  34.958  1.00  0.00    +0.000 C 
ATOM    114  H14 UNL A   1      -0.672  11.576  34.707  1.00  0.00    +0.000 H 
ATOM    115  H15 UNL A   1      -0.932  13.268  34.295  1.00  0.00    +0.000 H 
ATOM    110  H10 UNL A   1      -3.818  14.323  37.082  1.00  0.00    +0.000 H 
ATOM    111  H11 UNL A   1      -3.440  12.613  37.248  1.00  0.00    +0.000 H 
ATOM     16  O1  UNL A   1      -3.491  13.313  35.326  1.00  0.00    +0.000 O 
ATOM    112  H12 UNL A   1      -2.948  12.071  33.788  1.00  0.00    +0.000 H 
ATOM    113  H13 UNL A   1      -2.954  11.347  35.398  1.00  0.00    +0.000 H 
ENDBRANCH   12   13
ENDBRANCH    6    7
ENDBRANCH    3    4
ENDBRANCH    2    3
ENDBRANCH   26    2
ENDBRANCH   28   26
ENDBRANCH   29   28
ENDBRANCH   30   29
ENDBRANCH   31   30
ENDBRANCH   32   31
ENDBRANCH   33   32
ENDBRANCH   34   33
ENDBRANCH   35   34
ENDBRANCH   36   35
ENDBRANCH   38   36
ENDBRANCH   42   41
BRANCH   46   47
ATOM     47  C34 UNL A   1      -0.341  16.790  41.051  1.00  0.00    +0.000 C 
ATOM     48  C35 UNL A   1      -0.223  17.503  42.260  1.00  0.00    +0.000 C 
ATOM     49  F1  UNL A   1       0.832  17.310  43.065  1.00  0.00    +0.000 F 
ATOM     50  C36 UNL A   1      -1.218  18.383  42.696  1.00  0.00    +0.000 C 
ATOM     51  F2  UNL A   1      -1.105  18.978  43.891  1.00  0.00    +0.000 F 
ATOM     52  C37 UNL A   1      -2.345  18.605  41.925  1.00  0.00    +0.000 C 
ATOM     53  F3  UNL A   1      -3.315  19.421  42.358  1.00  0.00    +0.000 F 
ATOM     54  C38 UNL A   1      -2.484  17.941  40.722  1.00  0.00    +0.000 C 
ATOM     55  F4  UNL A   1      -3.583  18.126  39.975  1.00  0.00    +0.000 F 
ATOM     56  C39 UNL A   1      -1.515  17.029  40.307  1.00  0.00    +0.000 C 
ATOM     57  F5  UNL A   1      -1.799  16.319  39.206  1.00  0.00    +0.000 F 
ENDBRANCH   46   47
BRANCH   63   64
ATOM     65  C46 UNL A   1       6.324  13.601  40.723  1.00  0.00    +0.000 C 
ATOM     66  F6  UNL A   1       5.298  12.865  41.175  1.00  0.00    +0.000 F 
ATOM     67  C47 UNL A   1       7.419  12.934  40.179  1.00  0.00    +0.000 C 
ATOM     68  F7  UNL A   1       7.460  11.593  40.183  1.00  0.00    +0.000 F 
ATOM     69  C48 UNL A   1       8.453  13.653  39.603  1.00  0.00    +0.000 C 
ATOM     70  F8  UNL A   1       9.488  13.012  39.039  1.00  0.00    +0.000 F 
ATOM     71  C49 UNL A   1       8.402  15.038  39.583  1.00  0.00    +0.000 C 
ATOM     72  F9  UNL A   1       9.375  15.735  38.980  1.00  0.00    +0.000 F 
ATOM     73  C50 UNL A   1       7.326  15.708  40.161  1.00  0.00    +0.000 C 
ATOM     74  F10 UNL A   1       7.292  17.048  40.099  1.00  0.00    +0.000 F 
ATOM     64  C45 UNL A   1       6.265  15.004  40.747  1.00  0.00    +0.000 C 
ENDBRANCH   63   64
BRANCH   78   79
ATOM     79  C54 UNL A   1       5.401  14.391  46.985  1.00  0.00    +0.000 C 
ATOM     80  C55 UNL A   1       6.640  14.894  47.410  1.00  0.00    +0.000 C 
ATOM     81  F11 UNL A   1       7.659  14.994  46.545  1.00  0.00    +0.000 F 
ATOM     82  C56 UNL A   1       6.830  15.363  48.714  1.00  0.00    +0.000 C 
ATOM     83  F12 UNL A   1       8.008  15.893  49.067  1.00  0.00    +0.000 F 
ATOM     84  C57 UNL A   1       5.790  15.332  49.629  1.00  0.00    +0.000 C 
ATOM     85  F13 UNL A   1       5.957  15.833  50.861  1.00  0.00    +0.000 F 
ATOM     86  C58 UNL A   1       4.565  14.821  49.249  1.00  0.00    +0.000 C 
ATOM     87  F14 UNL A   1       3.540  14.815  50.114  1.00  0.00    +0.000 F 
ATOM     88  C59 UNL A   1       4.370  14.364  47.946  1.00  0.00    +0.000 C 
ATOM     89  F15 UNL A   1       3.128  13.981  47.617  1.00  0.00    +0.000 F 
ENDBRANCH   78   79
TORSDOF 20
ENDMDL
MODEL 8
REMARK VINA RESULT:      -7.6     40.262     45.411
ROOT
ATOM    136  H36 UNL A   1      43.891  29.312  33.656  1.00  0.00    +0.000 H 
ATOM    137  H37 UNL A   1      42.076  28.146  32.095  1.00  0.00    +0.000 H 
ATOM    138  H38 UNL A   1      40.203  30.059  35.094  1.00  0.00    +0.000 H 
ATOM    139  H39 UNL A   1      38.003  35.072  28.840  1.00  0.00    +0.000 H 
ATOM    140  H40 UNL A   1      40.534  35.233  28.589  1.00  0.00    +0.000 H 
ATOM    141  H41 UNL A   1      39.768  32.846  31.904  1.00  0.00    +0.000 H 
ATOM    142  H42 UNL A   1      37.323  33.331  34.047  1.00  0.00    +0.000 H 
ATOM    143  H43 UNL A   1      38.650  31.232  34.731  1.00  0.00    +0.000 H 
ATOM    144  H44 UNL A   1      43.579  34.342  35.152  1.00  0.00    +0.000 H 
ATOM    145  H45 UNL A   1      43.165  35.719  33.024  1.00  0.00    +0.000 H 
ATOM     42  C30 UNL A   1      41.959  34.226  30.908  1.00  0.00    +0.000 C 
ATOM     43  C31 UNL A   1      42.362  33.739  32.265  1.00  0.00    +0.000 C 
ATOM     44  N9  UNL A   1      42.284  32.540  32.756  1.00  0.00    +0.000 N 
ATOM     45  C32 UNL A   1      42.674  32.642  34.093  1.00  0.00    +0.000 C 
ATOM     46  C33 UNL A   1      42.464  31.660  35.014  1.00  0.00    +0.000 C 
ATOM     58  C40 UNL A   1      42.173  30.391  34.416  1.00  0.00    +0.000 C 
ATOM     59  C41 UNL A   1      42.876  29.494  33.639  1.00  0.00    +0.000 C 
ATOM     60  C42 UNL A   1      41.900  28.873  32.807  1.00  0.00    +0.000 C 
ATOM     61  C43 UNL A   1      40.663  29.430  33.133  1.00  0.00    +0.000 C 
ATOM     62  N10 UNL A   1      40.868  29.977  34.373  1.00  0.00    +0.000 N 
ATOM     63  C44 UNL A   1      39.460  29.623  32.359  1.00  0.00    +0.000 C 
ATOM     75  C51 UNL A   1      38.511  30.564  32.635  1.00  0.00    +0.000 C 
ATOM     76  N11 UNL A   1      37.727  31.099  31.625  1.00  0.00    +0.000 N 
ATOM     77  C52 UNL A   1      37.419  32.297  32.040  1.00  0.00    +0.000 C 
ATOM     78  C53 UNL A   1      37.205  33.459  31.144  1.00  0.00    +0.000 C 
ATOM     90  C60 UNL A   1      38.400  33.788  30.601  1.00  0.00    +0.000 C 
ATOM     91  C61 UNL A   1      38.698  34.635  29.465  1.00  0.00    +0.000 C 
ATOM     92  C62 UNL A   1      40.037  34.757  29.359  1.00  0.00    +0.000 C 
ATOM     93  C63 UNL A   1      40.677  34.108  30.506  1.00  0.00    +0.000 C 
ATOM     94  N12 UNL A   1      39.645  33.464  31.148  1.00  0.00    +0.000 N 
ATOM     95  C64 UNL A   1      37.622  32.538  33.459  1.00  0.00    +0.000 C 
ATOM     96  C65 UNL A   1      38.306  31.439  33.781  1.00  0.00    +0.000 C 
ATOM     97  C66 UNL A   1      43.148  33.990  34.282  1.00  0.00    +0.000 C 
ATOM     98  C67 UNL A   1      42.954  34.722  33.185  1.00  0.00    +0.000 C 
ENDROOT
BRANCH   42   41
ATOM     99  C68 UNL A   1      43.287  36.295  30.479  1.00  0.00    +0.000 C 
ATOM    100  C69 UNL A   1      44.160  37.015  29.668  1.00  0.00    +0.000 C 
ATOM     38  C26 UNL A   1      44.735  36.432  28.524  1.00  0.00    +0.000 C 
ATOM     39  C27 UNL A   1      44.469  35.089  28.258  1.00  0.00    +0.000 C 
ATOM    134  H34 UNL A   1      44.942  34.620  27.470  1.00  0.00    +0.000 H 
ATOM     40  C28 UNL A   1      43.568  34.372  29.048  1.00  0.00    +0.000 C 
ATOM    135  H35 UNL A   1      43.360  33.386  28.825  1.00  0.00    +0.000 H 
ATOM     41  C29 UNL A   1      42.947  34.987  30.136  1.00  0.00    +0.000 C 
ATOM    146  H46 UNL A   1      42.894  36.727  31.328  1.00  0.00    +0.000 H 
ATOM    147  H47 UNL A   1      44.389  37.992  29.910  1.00  0.00    +0.000 H 
BRANCH   38   36
ATOM     36  C25 UNL A   1      45.584  37.339  27.700  1.00  0.00    +0.000 C 
ATOM     37  O3  UNL A   1      45.056  38.289  27.137  1.00  0.00    +0.000 O 
BRANCH   36   35
ATOM     35  N8  UNL A   1      46.924  37.163  27.475  1.00  0.00    +0.000 N 
ATOM    133  H33 UNL A   1      47.253  37.711  26.727  1.00  0.00    +0.000 H 
BRANCH   35   34
ATOM     34  C24 UNL A   1      47.971  36.364  28.072  1.00  0.00    +0.000 C 
ATOM    131  H31 UNL A   1      47.909  35.376  27.666  1.00  0.00    +0.000 H 
ATOM    132  H32 UNL A   1      48.892  36.860  27.846  1.00  0.00    +0.000 H 
BRANCH   34   33
ATOM     33  C23 UNL A   1      47.910  36.254  29.596  1.00  0.00    +0.000 C 
ATOM    130  H30 UNL A   1      47.013  36.758  29.889  1.00  0.00    +0.000 H 
ATOM    129  H29 UNL A   1      48.802  36.690  29.994  1.00  0.00    +0.000 H 
BRANCH   33   32
ATOM    128  H28 UNL A   1      48.731  34.636  30.632  1.00  0.00    +0.000 H 
ATOM    127  H27 UNL A   1      47.562  34.179  29.338  1.00  0.00    +0.000 H 
ATOM     32  C22 UNL A   1      47.792  34.831  30.155  1.00  0.00    +0.000 C 
BRANCH   32   31
ATOM    125  H25 UNL A   1      47.007  35.190  32.097  1.00  0.00    +0.000 H 
ATOM    126  H26 UNL A   1      45.799  34.886  30.808  1.00  0.00    +0.000 H 
ATOM     31  C21 UNL A   1      46.734  34.603  31.244  1.00  0.00    +0.000 C 
BRANCH   31   30
ATOM    123  H23 UNL A   1      46.270  33.160  32.735  1.00  0.00    +0.000 H 
ATOM    124  H24 UNL A   1      45.822  32.715  31.068  1.00  0.00    +0.000 H 
ATOM     30  C20 UNL A   1      46.561  33.151  31.705  1.00  0.00    +0.000 C 
BRANCH   30   29
ATOM    121  H21 UNL A   1      47.826  31.843  30.598  1.00  0.00    +0.000 H 
ATOM    122  H22 UNL A   1      48.667  32.925  31.716  1.00  0.00    +0.000 H 
ATOM     29  C19 UNL A   1      47.818  32.289  31.570  1.00  0.00    +0.000 C 
BRANCH   29   28
ATOM     28  N7  UNL A   1      47.876  31.239  32.566  1.00  0.00    +0.000 N 
ATOM    120  H20 UNL A   1      48.534  31.424  33.274  1.00  0.00    +0.000 H 
BRANCH   28   26
ATOM     26  C18 UNL A   1      47.234  30.063  32.746  1.00  0.00    +0.000 C 
ATOM     27  O2  UNL A   1      46.995  29.782  33.935  1.00  0.00    +0.000 O 
BRANCH   26    2
ATOM      2  C1  UNL A   1      46.715  29.086  31.658  1.00  0.00    +0.000 C 
ATOM    104  H4  UNL A   1      46.556  29.761  30.842  1.00  0.00    +0.000 H 
BRANCH    2    1
ATOM      1  N1  UNL A   1      47.749  28.085  31.329  1.00  0.00    +0.000 N 
ATOM    101  H1  UNL A   1      48.144  27.708  32.191  1.00  0.00    +0.000 H 
ATOM    102  H2  UNL A   1      48.488  28.526  30.781  1.00  0.00    +0.000 H 
ATOM    103  H3  UNL A   1      47.331  27.329  30.788  1.00  0.00    +0.000 H 
ENDBRANCH    2    1
BRANCH    2    3
ATOM    105  H5  UNL A   1      44.685  29.384  32.051  1.00  0.00    +0.000 H 
ATOM    106  H6  UNL A   1      45.348  27.642  32.025  1.00  0.00    +0.000 H 
ATOM      3  C2  UNL A   1      45.264  28.614  31.586  1.00  0.00    +0.000 C 
BRANCH    3    4
ATOM      4  C3  UNL A   1      44.541  28.281  30.306  1.00  0.00    +0.000 C 
ATOM      5  C4  UNL A   1      44.134  26.979  30.045  1.00  0.00    +0.000 C 
ATOM      6  N2  UNL A   1      43.702  26.892  28.748  1.00  0.00    +0.000 N 
ATOM    107  H7  UNL A   1      44.155  26.201  30.722  1.00  0.00    +0.000 H 
ATOM     20  C12 UNL A   1      43.681  28.151  28.183  1.00  0.00    +0.000 C 
ATOM     21  C13 UNL A   1      43.278  28.560  26.897  1.00  0.00    +0.000 C 
ATOM    116  H16 UNL A   1      42.961  27.869  26.199  1.00  0.00    +0.000 H 
ATOM     23  C15 UNL A   1      43.742  30.841  27.530  1.00  0.00    +0.000 C 
ATOM     24  C16 UNL A   1      44.149  30.422  28.804  1.00  0.00    +0.000 C 
ATOM     25  C17 UNL A   1      44.132  29.054  29.160  1.00  0.00    +0.000 C 
ATOM    119  H19 UNL A   1      44.467  31.122  29.492  1.00  0.00    +0.000 H 
ATOM    118  H18 UNL A   1      43.759  31.845  27.293  1.00  0.00    +0.000 H 
ATOM     22  C14 UNL A   1      43.317  29.918  26.588  1.00  0.00    +0.000 C 
ATOM    117  H17 UNL A   1      43.026  30.239  25.651  1.00  0.00    +0.000 H 
BRANCH    6    7
ATOM      7  C5  UNL A   1      43.425  25.672  28.086  1.00  0.00    +0.000 C 
ATOM      8  N3  UNL A   1      42.235  25.125  28.307  1.00  0.00    +0.000 N 
ATOM      9  C6  UNL A   1      42.023  24.069  27.539  1.00  0.00    +0.000 C 
ATOM     10 Cl1  UNL A   1      40.500  23.315  27.715  1.00  0.00    +0.000 Cl
ATOM     11  N4  UNL A   1      42.861  23.505  26.684  1.00  0.00    +0.000 N 
ATOM     12  C7  UNL A   1      44.062  24.064  26.637  1.00  0.00    +0.000 C 
ATOM     19  N6  UNL A   1      44.367  25.192  27.269  1.00  0.00    +0.000 N 
BRANCH   12   13
ATOM    108  H8  UNL A   1      46.457  23.619  24.509  1.00  0.00    +0.000 H 
ATOM    109  H9  UNL A   1      45.054  24.688  24.449  1.00  0.00    +0.000 H 
ATOM     13  N5  UNL A   1      45.056  23.342  26.014  1.00  0.00    +0.000 N 
ATOM     14  C8  UNL A   1      45.397  23.692  24.632  1.00  0.00    +0.000 C 
ATOM     15  C9  UNL A   1      44.718  22.764  23.620  1.00  0.00    +0.000 C 
ATOM     17  C10 UNL A   1      44.468  21.062  25.229  1.00  0.00    +0.000 C 
ATOM     18  C11 UNL A   1      45.120  21.913  26.334  1.00  0.00    +0.000 C 
ATOM    114  H14 UNL A   1      44.605  21.739  27.256  1.00  0.00    +0.000 H 
ATOM    115  H15 UNL A   1      46.148  21.630  26.416  1.00  0.00    +0.000 H 
ATOM    110  H10 UNL A   1      45.089  22.983  22.641  1.00  0.00    +0.000 H 
ATOM    111  H11 UNL A   1      43.661  22.927  23.665  1.00  0.00    +0.000 H 
ATOM     16  O1  UNL A   1      44.983  21.387  23.927  1.00  0.00    +0.000 O 
ATOM    112  H12 UNL A   1      44.661  20.029  25.428  1.00  0.00    +0.000 H 
ATOM    113  H13 UNL A   1      43.418  21.266  25.230  1.00  0.00    +0.000 H 
ENDBRANCH   12   13
ENDBRANCH    6    7
ENDBRANCH    3    4
ENDBRANCH    2    3
ENDBRANCH   26    2
ENDBRANCH   28   26
ENDBRANCH   29   28
ENDBRANCH   30   29
ENDBRANCH   31   30
ENDBRANCH   32   31
ENDBRANCH   33   32
ENDBRANCH   34   33
ENDBRANCH   35   34
ENDBRANCH   36   35
ENDBRANCH   38   36
ENDBRANCH   42   41
BRANCH   46   47
ATOM     47  C34 UNL A   1      42.297  31.900  36.489  1.00  0.00    +0.000 C 
ATOM     48  C35 UNL A   1      41.139  32.530  36.987  1.00  0.00    +0.000 C 
ATOM     49  F1  UNL A   1      40.090  32.761  36.186  1.00  0.00    +0.000 F 
ATOM     50  C36 UNL A   1      41.062  32.991  38.305  1.00  0.00    +0.000 C 
ATOM     51  F2  UNL A   1      39.975  33.659  38.715  1.00  0.00    +0.000 F 
ATOM     52  C37 UNL A   1      42.122  32.809  39.176  1.00  0.00    +0.000 C 
ATOM     53  F3  UNL A   1      42.063  33.282  40.427  1.00  0.00    +0.000 F 
ATOM     54  C38 UNL A   1      43.265  32.175  38.728  1.00  0.00    +0.000 C 
ATOM     55  F4  UNL A   1      44.310  32.013  39.552  1.00  0.00    +0.000 F 
ATOM     56  C39 UNL A   1      43.361  31.755  37.403  1.00  0.00    +0.000 C 
ATOM     57  F5  UNL A   1      44.555  31.287  37.012  1.00  0.00    +0.000 F 
ENDBRANCH   46   47
BRANCH   63   64
ATOM     65  C46 UNL A   1      39.915  29.575  29.844  1.00  0.00    +0.000 C 
ATOM     66  F6  UNL A   1      40.429  30.813  29.883  1.00  0.00    +0.000 F 
ATOM     67  C47 UNL A   1      39.945  28.891  28.631  1.00  0.00    +0.000 C 
ATOM     68  F7  UNL A   1      40.412  29.496  27.529  1.00  0.00    +0.000 F 
ATOM     69  C48 UNL A   1      39.526  27.572  28.568  1.00  0.00    +0.000 C 
ATOM     70  F8  UNL A   1      39.596  26.897  27.411  1.00  0.00    +0.000 F 
ATOM     71  C49 UNL A   1      39.062  26.941  29.711  1.00  0.00    +0.000 C 
ATOM     72  F9  UNL A   1      38.704  25.649  29.665  1.00  0.00    +0.000 F 
ATOM     73  C50 UNL A   1      38.995  27.635  30.917  1.00  0.00    +0.000 C 
ATOM     74  F10 UNL A   1      38.568  26.987  32.012  1.00  0.00    +0.000 F 
ATOM     64  C45 UNL A   1      39.415  28.969  31.009  1.00  0.00    +0.000 C 
ENDBRANCH   63   64
BRANCH   78   79
ATOM     79  C54 UNL A   1      35.969  34.273  31.172  1.00  0.00    +0.000 C 
ATOM     80  C55 UNL A   1      35.017  34.176  30.146  1.00  0.00    +0.000 C 
ATOM     81  F11 UNL A   1      35.299  33.495  29.026  1.00  0.00    +0.000 F 
ATOM     82  C56 UNL A   1      33.736  34.720  30.284  1.00  0.00    +0.000 C 
ATOM     83  F12 UNL A   1      32.832  34.554  29.309  1.00  0.00    +0.000 F 
ATOM     84  C57 UNL A   1      33.377  35.383  31.446  1.00  0.00    +0.000 C 
ATOM     85  F13 UNL A   1      32.133  35.855  31.600  1.00  0.00    +0.000 F 
ATOM     86  C58 UNL A   1      34.300  35.517  32.465  1.00  0.00    +0.000 C 
ATOM     87  F14 UNL A   1      33.956  36.128  33.609  1.00  0.00    +0.000 F 
ATOM     88  C59 UNL A   1      35.573  34.965  32.334  1.00  0.00    +0.000 C 
ATOM     89  F15 UNL A   1      36.380  35.040  33.402  1.00  0.00    +0.000 F 
ENDBRANCH   78   79
TORSDOF 20
ENDMDL
MODEL 9
REMARK VINA RESULT:      -7.5     18.786     24.694
ROOT
ATOM    136  H36 UNL A   1      12.667  -3.096  25.613  1.00  0.00    +0.000 H 
ATOM    137  H37 UNL A   1      10.093  -3.359  26.244  1.00  0.00    +0.000 H 
ATOM    138  H38 UNL A   1      11.526  -0.000  27.924  1.00  0.00    +0.000 H 
ATOM    139  H39 UNL A   1       6.675   3.464  22.132  1.00  0.00    +0.000 H 
ATOM    140  H40 UNL A   1       8.150   2.054  20.605  1.00  0.00    +0.000 H 
ATOM    141  H41 UNL A   1       9.545   1.546  24.486  1.00  0.00    +0.000 H 
ATOM    142  H42 UNL A   1       9.658   3.908  26.769  1.00  0.00    +0.000 H 
ATOM    143  H43 UNL A   1      10.532   1.706  27.780  1.00  0.00    +0.000 H 
ATOM    144  H44 UNL A   1      14.709   1.359  23.709  1.00  0.00    +0.000 H 
ATOM    145  H45 UNL A   1      13.198   2.090  21.765  1.00  0.00    +0.000 H 
ATOM     42  C30 UNL A   1      10.534   1.073  21.937  1.00  0.00    +0.000 C 
ATOM     43  C31 UNL A   1      11.676   0.827  22.874  1.00  0.00    +0.000 C 
ATOM     44  N9  UNL A   1      11.713   0.080  23.935  1.00  0.00    +0.000 N 
ATOM     45  C32 UNL A   1      12.965   0.291  24.515  1.00  0.00    +0.000 C 
ATOM     46  C33 UNL A   1      13.282  -0.098  25.782  1.00  0.00    +0.000 C 
ATOM     58  C40 UNL A   1      12.368  -1.066  26.310  1.00  0.00    +0.000 C 
ATOM     59  C41 UNL A   1      12.045  -2.372  26.005  1.00  0.00    +0.000 C 
ATOM     60  C42 UNL A   1      10.668  -2.508  26.345  1.00  0.00    +0.000 C 
ATOM     61  C43 UNL A   1      10.240  -1.275  26.840  1.00  0.00    +0.000 C 
ATOM     62  N10 UNL A   1      11.405  -0.641  27.187  1.00  0.00    +0.000 N 
ATOM     63  C44 UNL A   1       8.947  -0.636  26.846  1.00  0.00    +0.000 C 
ATOM     75  C51 UNL A   1       8.754   0.711  26.936  1.00  0.00    +0.000 C 
ATOM     76  N11 UNL A   1       7.633   1.308  26.380  1.00  0.00    +0.000 N 
ATOM     77  C52 UNL A   1       8.013   2.520  26.081  1.00  0.00    +0.000 C 
ATOM     78  C53 UNL A   1       7.484   3.299  24.936  1.00  0.00    +0.000 C 
ATOM     90  C60 UNL A   1       7.927   2.716  23.799  1.00  0.00    +0.000 C 
ATOM     91  C61 UNL A   1       7.479   2.891  22.433  1.00  0.00    +0.000 C 
ATOM     92  C62 UNL A   1       8.287   2.181  21.620  1.00  0.00    +0.000 C 
ATOM     93  C63 UNL A   1       9.390   1.617  22.402  1.00  0.00    +0.000 C 
ATOM     94  N12 UNL A   1       9.052   1.891  23.707  1.00  0.00    +0.000 N 
ATOM     95  C64 UNL A   1       9.238   2.967  26.723  1.00  0.00    +0.000 C 
ATOM     96  C65 UNL A   1       9.662   1.810  27.235  1.00  0.00    +0.000 C 
ATOM     97  C66 UNL A   1      13.715   1.105  23.591  1.00  0.00    +0.000 C 
ATOM     98  C67 UNL A   1      12.954   1.488  22.566  1.00  0.00    +0.000 C 
ENDROOT
BRANCH   42   41
ATOM     99  C68 UNL A   1      10.709   1.945  19.606  1.00  0.00    +0.000 C 
ATOM    100  C69 UNL A   1      10.854   1.706  18.243  1.00  0.00    +0.000 C 
ATOM     38  C26 UNL A   1      11.102   0.411  17.755  1.00  0.00    +0.000 C 
ATOM     39  C27 UNL A   1      11.272  -0.624  18.676  1.00  0.00    +0.000 C 
ATOM    134  H34 UNL A   1      11.533  -1.566  18.345  1.00  0.00    +0.000 H 
ATOM     40  C28 UNL A   1      11.095  -0.397  20.042  1.00  0.00    +0.000 C 
ATOM    135  H35 UNL A   1      11.200  -1.175  20.711  1.00  0.00    +0.000 H 
ATOM     41  C29 UNL A   1      10.775   0.881  20.505  1.00  0.00    +0.000 C 
ATOM    146  H46 UNL A   1      10.554   2.905  19.950  1.00  0.00    +0.000 H 
ATOM    147  H47 UNL A   1      10.778   2.493  17.579  1.00  0.00    +0.000 H 
BRANCH   38   36
ATOM     36  C25 UNL A   1      11.151   0.281  16.270  1.00  0.00    +0.000 C 
ATOM     37  O3  UNL A   1      11.645  -0.727  15.784  1.00  0.00    +0.000 O 
BRANCH   36   35
ATOM     35  N8  UNL A   1      10.727   1.241  15.390  1.00  0.00    +0.000 N 
ATOM    133  H33 UNL A   1      10.016   1.807  15.767  1.00  0.00    +0.000 H 
BRANCH   35   34
ATOM     34  C24 UNL A   1      11.074   1.623  14.039  1.00  0.00    +0.000 C 
ATOM    131  H31 UNL A   1      11.454   2.623  14.063  1.00  0.00    +0.000 H 
ATOM    132  H32 UNL A   1      11.791   0.905  13.700  1.00  0.00    +0.000 H 
BRANCH   34   33
ATOM     33  C23 UNL A   1       9.920   1.579  13.037  1.00  0.00    +0.000 C 
ATOM    130  H30 UNL A   1      10.365   1.359  12.090  1.00  0.00    +0.000 H 
ATOM    129  H29 UNL A   1       9.418   2.523  13.072  1.00  0.00    +0.000 H 
BRANCH   33   32
ATOM    128  H28 UNL A   1       8.104   0.666  12.557  1.00  0.00    +0.000 H 
ATOM    127  H27 UNL A   1       8.562   0.547  14.295  1.00  0.00    +0.000 H 
ATOM     32  C22 UNL A   1       8.876   0.481  13.275  1.00  0.00    +0.000 C 
BRANCH   32   31
ATOM    125  H25 UNL A   1      10.395  -0.979  12.999  1.00  0.00    +0.000 H 
ATOM    126  H26 UNL A   1       8.900  -1.548  13.808  1.00  0.00    +0.000 H 
ATOM     31  C21 UNL A   1       9.325  -0.965  13.019  1.00  0.00    +0.000 C 
BRANCH   31   30
ATOM    123  H23 UNL A   1       7.779  -1.367  11.615  1.00  0.00    +0.000 H 
ATOM    124  H24 UNL A   1       9.414  -1.178  10.927  1.00  0.00    +0.000 H 
ATOM     30  C20 UNL A   1       8.821  -1.593  11.714  1.00  0.00    +0.000 C 
BRANCH   30   29
ATOM    121  H21 UNL A   1       9.202  -3.381  10.621  1.00  0.00    +0.000 H 
ATOM    122  H22 UNL A   1       9.793  -3.385  12.287  1.00  0.00    +0.000 H 
ATOM     29  C19 UNL A   1       8.990  -3.111  11.634  1.00  0.00    +0.000 C 
BRANCH   29   28
ATOM     28  N7  UNL A   1       7.805  -3.822  12.069  1.00  0.00    +0.000 N 
ATOM    120  H20 UNL A   1       7.356  -4.297  11.333  1.00  0.00    +0.000 H 
BRANCH   28   26
ATOM     26  C18 UNL A   1       7.173  -3.982  13.253  1.00  0.00    +0.000 C 
ATOM     27  O2  UNL A   1       5.940  -3.826  13.204  1.00  0.00    +0.000 O 
BRANCH   26    2
ATOM      2  C1  UNL A   1       7.793  -4.398  14.613  1.00  0.00    +0.000 C 
ATOM    104  H4  UNL A   1       7.021  -4.091  15.288  1.00  0.00    +0.000 H 
BRANCH    2    1
ATOM      1  N1  UNL A   1       7.995  -5.859  14.661  1.00  0.00    +0.000 N 
ATOM    101  H1  UNL A   1       7.288  -6.320  14.088  1.00  0.00    +0.000 H 
ATOM    102  H2  UNL A   1       7.915  -6.183  15.625  1.00  0.00    +0.000 H 
ATOM    103  H3  UNL A   1       8.923  -6.087  14.303  1.00  0.00    +0.000 H 
ENDBRANCH    2    1
BRANCH    2    3
ATOM    105  H5  UNL A   1       8.942  -2.660  14.768  1.00  0.00    +0.000 H 
ATOM    106  H6  UNL A   1       9.618  -4.249  15.472  1.00  0.00    +0.000 H 
ATOM      3  C2  UNL A   1       8.820  -3.545  15.357  1.00  0.00    +0.000 C 
BRANCH    3    4
ATOM      4  C3  UNL A   1       8.660  -3.068  16.777  1.00  0.00    +0.000 C 
ATOM      5  C4  UNL A   1       9.039  -3.878  17.840  1.00  0.00    +0.000 C 
ATOM      6  N2  UNL A   1       8.601  -3.322  19.012  1.00  0.00    +0.000 N 
ATOM    107  H7  UNL A   1       9.567  -4.761  17.758  1.00  0.00    +0.000 H 
ATOM     20  C12 UNL A   1       8.059  -2.078  18.758  1.00  0.00    +0.000 C 
ATOM     21  C13 UNL A   1       7.519  -1.127  19.645  1.00  0.00    +0.000 C 
ATOM    116  H16 UNL A   1       7.459  -1.324  20.657  1.00  0.00    +0.000 H 
ATOM     23  C15 UNL A   1       7.154   0.344  17.769  1.00  0.00    +0.000 C 
ATOM     24  C16 UNL A   1       7.685  -0.613  16.894  1.00  0.00    +0.000 C 
ATOM     25  C17 UNL A   1       8.148  -1.859  17.373  1.00  0.00    +0.000 C 
ATOM    119  H19 UNL A   1       7.737  -0.406  15.884  1.00  0.00    +0.000 H 
ATOM    118  H18 UNL A   1       6.825   1.250  17.398  1.00  0.00    +0.000 H 
ATOM     22  C14 UNL A   1       7.069   0.086  19.127  1.00  0.00    +0.000 C 
ATOM    117  H17 UNL A   1       6.670   0.797  19.761  1.00  0.00    +0.000 H 
BRANCH    6    7
ATOM      7  C5  UNL A   1       8.621  -3.987  20.261  1.00  0.00    +0.000 C 
ATOM      8  N3  UNL A   1       9.752  -3.926  20.955  1.00  0.00    +0.000 N 
ATOM      9  C6  UNL A   1       9.625  -4.457  22.160  1.00  0.00    +0.000 C 
ATOM     10 Cl1  UNL A   1      11.014  -4.390  23.153  1.00  0.00    +0.000 Cl
ATOM     11  N4  UNL A   1       8.567  -5.066  22.672  1.00  0.00    +0.000 N 
ATOM     12  C7  UNL A   1       7.538  -5.175  21.844  1.00  0.00    +0.000 C 
ATOM     19  N6  UNL A   1       7.495  -4.589  20.652  1.00  0.00    +0.000 N 
BRANCH   12   13
ATOM    108  H8  UNL A   1       5.936  -7.095  23.896  1.00  0.00    +0.000 H 
ATOM    109  H9  UNL A   1       7.629  -6.595  23.877  1.00  0.00    +0.000 H 
ATOM     13  N5  UNL A   1       6.545  -6.059  22.204  1.00  0.00    +0.000 N 
ATOM     14  C8  UNL A   1       6.820  -6.992  23.301  1.00  0.00    +0.000 C 
ATOM     15  C9  UNL A   1       7.235  -8.374  22.789  1.00  0.00    +0.000 C 
ATOM     17  C10 UNL A   1       6.180  -8.011  20.716  1.00  0.00    +0.000 C 
ATOM     18  C11 UNL A   1       5.724  -6.595  21.115  1.00  0.00    +0.000 C 
ATOM    114  H14 UNL A   1       5.809  -5.950  20.265  1.00  0.00    +0.000 H 
ATOM    115  H15 UNL A   1       4.710  -6.648  21.449  1.00  0.00    +0.000 H 
ATOM    110  H10 UNL A   1       7.308  -9.047  23.618  1.00  0.00    +0.000 H 
ATOM    111  H11 UNL A   1       8.180  -8.284  22.296  1.00  0.00    +0.000 H 
ATOM     16  O1  UNL A   1       6.275  -8.885  21.852  1.00  0.00    +0.000 O 
ATOM    112  H12 UNL A   1       5.474  -8.420  20.024  1.00  0.00    +0.000 H 
ATOM    113  H13 UNL A   1       7.152  -7.934  20.275  1.00  0.00    +0.000 H 
ENDBRANCH   12   13
ENDBRANCH    6    7
ENDBRANCH    3    4
ENDBRANCH    2    3
ENDBRANCH   26    2
ENDBRANCH   28   26
ENDBRANCH   29   28
ENDBRANCH   30   29
ENDBRANCH   31   30
ENDBRANCH   32   31
ENDBRANCH   33   32
ENDBRANCH   34   33
ENDBRANCH   35   34
ENDBRANCH   36   35
ENDBRANCH   38   36
ENDBRANCH   42   41
BRANCH   46   47
ATOM     47  C34 UNL A   1      14.310   0.578  26.646  1.00  0.00    +0.000 C 
ATOM     48  C35 UNL A   1      14.029   1.811  27.266  1.00  0.00    +0.000 C 
ATOM     49  F1  UNL A   1      12.786   2.316  27.249  1.00  0.00    +0.000 F 
ATOM     50  C36 UNL A   1      15.033   2.582  27.861  1.00  0.00    +0.000 C 
ATOM     51  F2  UNL A   1      14.737   3.788  28.365  1.00  0.00    +0.000 F 
ATOM     52  C37 UNL A   1      16.341   2.132  27.887  1.00  0.00    +0.000 C 
ATOM     53  F3  UNL A   1      17.309   2.884  28.425  1.00  0.00    +0.000 F 
ATOM     54  C38 UNL A   1      16.650   0.915  27.310  1.00  0.00    +0.000 C 
ATOM     55  F4  UNL A   1      17.916   0.476  27.304  1.00  0.00    +0.000 F 
ATOM     56  C39 UNL A   1      15.659   0.167  26.676  1.00  0.00    +0.000 C 
ATOM     57  F5  UNL A   1      16.069  -0.923  26.013  1.00  0.00    +0.000 F 
ENDBRANCH   46   47
BRANCH   63   64
ATOM     65  C46 UNL A   1       6.798  -1.943  27.304  1.00  0.00    +0.000 C 
ATOM     66  F6  UNL A   1       6.887  -1.688  28.617  1.00  0.00    +0.000 F 
ATOM     67  C47 UNL A   1       5.677  -2.632  26.845  1.00  0.00    +0.000 C 
ATOM     68  F7  UNL A   1       4.761  -3.083  27.715  1.00  0.00    +0.000 F 
ATOM     69  C48 UNL A   1       5.489  -2.823  25.485  1.00  0.00    +0.000 C 
ATOM     70  F8  UNL A   1       4.390  -3.447  25.039  1.00  0.00    +0.000 F 
ATOM     71  C49 UNL A   1       6.426  -2.340  24.586  1.00  0.00    +0.000 C 
ATOM     72  F9  UNL A   1       6.221  -2.478  23.268  1.00  0.00    +0.000 F 
ATOM     73  C50 UNL A   1       7.566  -1.685  25.045  1.00  0.00    +0.000 C 
ATOM     74  F10 UNL A   1       8.439  -1.204  24.146  1.00  0.00    +0.000 F 
ATOM     64  C45 UNL A   1       7.779  -1.476  26.414  1.00  0.00    +0.000 C 
ENDBRANCH   63   64
BRANCH   78   79
ATOM     79  C54 UNL A   1       6.897   4.649  25.091  1.00  0.00    +0.000 C 
ATOM     80  C55 UNL A   1       5.827   4.875  25.969  1.00  0.00    +0.000 C 
ATOM     81  F11 UNL A   1       5.188   3.841  26.534  1.00  0.00    +0.000 F 
ATOM     82  C56 UNL A   1       5.441   6.170  26.333  1.00  0.00    +0.000 C 
ATOM     83  F12 UNL A   1       4.455   6.346  27.222  1.00  0.00    +0.000 F 
ATOM     84  C57 UNL A   1       6.108   7.270  25.820  1.00  0.00    +0.000 C 
ATOM     85  F13 UNL A   1       5.774   8.507  26.211  1.00  0.00    +0.000 F 
ATOM     86  C58 UNL A   1       7.150   7.081  24.933  1.00  0.00    +0.000 C 
ATOM     87  F14 UNL A   1       7.825   8.137  24.455  1.00  0.00    +0.000 F 
ATOM     88  C59 UNL A   1       7.544   5.792  24.579  1.00  0.00    +0.000 C 
ATOM     89  F15 UNL A   1       8.629   5.681  23.800  1.00  0.00    +0.000 F 
ENDBRANCH   78   79
TORSDOF 20
ENDMDL
MODEL 10
REMARK VINA RESULT:      -7.5     59.415     65.431
ROOT
ATOM    136  H36 UNL A   1      57.388  18.473  -1.475  1.00  0.00    +0.000 H 
ATOM    137  H37 UNL A   1      55.548  16.669  -0.804  1.00  0.00    +0.000 H 
ATOM    138  H38 UNL A   1      59.182  14.958  -0.667  1.00  0.00    +0.000 H 
ATOM    139  H39 UNL A   1      57.607  15.212   7.490  1.00  0.00    +0.000 H 
ATOM    140  H40 UNL A   1      57.368  17.697   6.975  1.00  0.00    +0.000 H 
ATOM    141  H41 UNL A   1      58.484  15.804   3.447  1.00  0.00    +0.000 H 
ATOM    142  H42 UNL A   1      60.591  13.288   3.248  1.00  0.00    +0.000 H 
ATOM    143  H43 UNL A   1      59.727  13.863   0.890  1.00  0.00    +0.000 H 
ATOM    144  H44 UNL A   1      61.726  19.334   1.366  1.00  0.00    +0.000 H 
ATOM    145  H45 UNL A   1      60.964  19.647   3.799  1.00  0.00    +0.000 H 
ATOM     42  C30 UNL A   1      58.453  18.416   4.382  1.00  0.00    +0.000 C 
ATOM     43  C31 UNL A   1      59.177  18.456   3.071  1.00  0.00    +0.000 C 
ATOM     44  N9  UNL A   1      58.809  17.976   1.923  1.00  0.00    +0.000 N 
ATOM     45  C32 UNL A   1      59.888  18.169   1.058  1.00  0.00    +0.000 C 
ATOM     46  C33 UNL A   1      59.998  17.558  -0.155  1.00  0.00    +0.000 C 
ATOM     58  C40 UNL A   1      58.753  17.024  -0.622  1.00  0.00    +0.000 C 
ATOM     59  C41 UNL A   1      57.546  17.563  -1.017  1.00  0.00    +0.000 C 
ATOM     60  C42 UNL A   1      56.566  16.593  -0.657  1.00  0.00    +0.000 C 
ATOM     61  C43 UNL A   1      57.240  15.523  -0.067  1.00  0.00    +0.000 C 
ATOM     62  N10 UNL A   1      58.534  15.677  -0.491  1.00  0.00    +0.000 N 
ATOM     63  C44 UNL A   1      56.830  14.554   0.920  1.00  0.00    +0.000 C 
ATOM     75  C51 UNL A   1      57.688  13.870   1.730  1.00  0.00    +0.000 C 
ATOM     76  N11 UNL A   1      57.286  13.428   2.981  1.00  0.00    +0.000 N 
ATOM     77  C52 UNL A   1      58.378  13.403   3.694  1.00  0.00    +0.000 C 
ATOM     78  C53 UNL A   1      58.425  13.657   5.154  1.00  0.00    +0.000 C 
ATOM     90  C60 UNL A   1      58.143  14.965   5.355  1.00  0.00    +0.000 C 
ATOM     91  C61 UNL A   1      57.777  15.656   6.574  1.00  0.00    +0.000 C 
ATOM     92  C62 UNL A   1      57.694  16.976   6.312  1.00  0.00    +0.000 C 
ATOM     93  C63 UNL A   1      58.140  17.229   4.939  1.00  0.00    +0.000 C 
ATOM     94  N12 UNL A   1      58.293  15.973   4.398  1.00  0.00    +0.000 N 
ATOM     95  C64 UNL A   1      59.619  13.444   2.938  1.00  0.00    +0.000 C 
ATOM     96  C65 UNL A   1      59.139  13.741   1.729  1.00  0.00    +0.000 C 
ATOM     97  C66 UNL A   1      60.855  18.961   1.776  1.00  0.00    +0.000 C 
ATOM     98  C67 UNL A   1      60.475  19.148   3.040  1.00  0.00    +0.000 C 
ENDROOT
BRANCH   42   41
ATOM     99  C68 UNL A   1      59.095  20.029   6.175  1.00  0.00    +0.000 C 
ATOM    100  C69 UNL A   1      58.837  21.195   6.889  1.00  0.00    +0.000 C 
ATOM     38  C26 UNL A   1      57.783  22.052   6.524  1.00  0.00    +0.000 C 
ATOM     39  C27 UNL A   1      57.043  21.744   5.382  1.00  0.00    +0.000 C 
ATOM    134  H34 UNL A   1      56.318  22.399   5.050  1.00  0.00    +0.000 H 
ATOM     40  C28 UNL A   1      57.275  20.559   4.681  1.00  0.00    +0.000 C 
ATOM    135  H35 UNL A   1      56.705  20.331   3.852  1.00  0.00    +0.000 H 
ATOM     41  C29 UNL A   1      58.276  19.681   5.101  1.00  0.00    +0.000 C 
ATOM    146  H46 UNL A   1      59.888  19.424   6.439  1.00  0.00    +0.000 H 
ATOM    147  H47 UNL A   1      59.428  21.435   7.700  1.00  0.00    +0.000 H 
BRANCH   38   36
ATOM     36  C25 UNL A   1      57.565  23.221   7.423  1.00  0.00    +0.000 C 
ATOM     37  O3  UNL A   1      58.199  24.247   7.218  1.00  0.00    +0.000 O 
BRANCH   36   35
ATOM     35  N8  UNL A   1      56.734  23.222   8.512  1.00  0.00    +0.000 N 
ATOM    133  H33 UNL A   1      56.353  24.112   8.691  1.00  0.00    +0.000 H 
BRANCH   35   34
ATOM     34  C24 UNL A   1      56.282  22.230   9.463  1.00  0.00    +0.000 C 
ATOM    131  H31 UNL A   1      57.140  21.705   9.829  1.00  0.00    +0.000 H 
ATOM    132  H32 UNL A   1      55.754  22.764  10.224  1.00  0.00    +0.000 H 
BRANCH   34   33
ATOM     33  C23 UNL A   1      55.300  21.200   8.904  1.00  0.00    +0.000 C 
ATOM    130  H30 UNL A   1      54.959  21.598   7.972  1.00  0.00    +0.000 H 
ATOM    129  H29 UNL A   1      54.523  21.061   9.627  1.00  0.00    +0.000 H 
BRANCH   33   32
ATOM    128  H28 UNL A   1      56.003  19.334   9.525  1.00  0.00    +0.000 H 
ATOM    127  H27 UNL A   1      56.809  19.982   8.049  1.00  0.00    +0.000 H 
ATOM     32  C22 UNL A   1      55.894  19.824   8.579  1.00  0.00    +0.000 C 
BRANCH   32   31
ATOM    125  H25 UNL A   1      55.669  18.150   7.290  1.00  0.00    +0.000 H 
ATOM    126  H26 UNL A   1      54.304  18.465   8.409  1.00  0.00    +0.000 H 
ATOM     31  C21 UNL A   1      55.025  18.879   7.736  1.00  0.00    +0.000 C 
BRANCH   31   30
ATOM    123  H23 UNL A   1      53.417  20.097   7.063  1.00  0.00    +0.000 H 
ATOM    124  H24 UNL A   1      54.901  20.168   6.077  1.00  0.00    +0.000 H 
ATOM     30  C20 UNL A   1      54.218  19.546   6.616  1.00  0.00    +0.000 C 
BRANCH   30   29
ATOM    121  H21 UNL A   1      52.780  19.038   5.129  1.00  0.00    +0.000 H 
ATOM    122  H22 UNL A   1      54.383  18.332   4.888  1.00  0.00    +0.000 H 
ATOM     29  C19 UNL A   1      53.620  18.572   5.599  1.00  0.00    +0.000 C 
BRANCH   29   28
ATOM     28  N7  UNL A   1      53.184  17.334   6.213  1.00  0.00    +0.000 N 
ATOM    120  H20 UNL A   1      53.935  16.765   6.495  1.00  0.00    +0.000 H 
BRANCH   28   26
ATOM     26  C18 UNL A   1      51.981  16.780   6.485  1.00  0.00    +0.000 C 
ATOM     27  O2  UNL A   1      51.803  15.658   5.978  1.00  0.00    +0.000 O 
BRANCH   26    2
ATOM      2  C1  UNL A   1      50.859  17.345   7.396  1.00  0.00    +0.000 C 
ATOM    104  H4  UNL A   1      51.201  18.349   7.538  1.00  0.00    +0.000 H 
BRANCH    2    1
ATOM      1  N1  UNL A   1      49.562  17.317   6.691  1.00  0.00    +0.000 N 
ATOM    101  H1  UNL A   1      49.081  18.206   6.829  1.00  0.00    +0.000 H 
ATOM    102  H2  UNL A   1      48.988  16.559   7.064  1.00  0.00    +0.000 H 
ATOM    103  H3  UNL A   1      49.718  17.165   5.695  1.00  0.00    +0.000 H 
ENDBRANCH    2    1
BRANCH    2    3
ATOM    105  H5  UNL A   1      51.090  16.092   9.052  1.00  0.00    +0.000 H 
ATOM    106  H6  UNL A   1      49.831  17.465   9.134  1.00  0.00    +0.000 H 
ATOM      3  C2  UNL A   1      50.817  17.116   8.906  1.00  0.00    +0.000 C 
BRANCH    3    4
ATOM      4  C3  UNL A   1      51.629  17.898   9.907  1.00  0.00    +0.000 C 
ATOM      5  C4  UNL A   1      51.146  19.091  10.428  1.00  0.00    +0.000 C 
ATOM      6  N2  UNL A   1      52.142  19.711  11.135  1.00  0.00    +0.000 N 
ATOM    107  H7  UNL A   1      50.188  19.453  10.301  1.00  0.00    +0.000 H 
ATOM     20  C12 UNL A   1      53.239  18.879  11.213  1.00  0.00    +0.000 C 
ATOM     21  C13 UNL A   1      54.474  19.067  11.864  1.00  0.00    +0.000 C 
ATOM    116  H16 UNL A   1      54.680  19.948  12.362  1.00  0.00    +0.000 H 
ATOM     23  C15 UNL A   1      55.129  16.856  11.155  1.00  0.00    +0.000 C 
ATOM     24  C16 UNL A   1      53.901  16.683  10.504  1.00  0.00    +0.000 C 
ATOM     25  C17 UNL A   1      52.922  17.702  10.514  1.00  0.00    +0.000 C 
ATOM    119  H19 UNL A   1      53.708  15.799  10.007  1.00  0.00    +0.000 H 
ATOM    118  H18 UNL A   1      55.828  16.097  11.138  1.00  0.00    +0.000 H 
ATOM     22  C14 UNL A   1      55.412  18.036  11.823  1.00  0.00    +0.000 C 
ATOM    117  H17 UNL A   1      56.323  18.154  12.293  1.00  0.00    +0.000 H 
BRANCH    6    7
ATOM      7  C5  UNL A   1      52.064  21.041  11.613  1.00  0.00    +0.000 C 
ATOM      8  N3  UNL A   1      52.301  22.010  10.736  1.00  0.00    +0.000 N 
ATOM      9  C6  UNL A   1      52.068  23.209  11.244  1.00  0.00    +0.000 C 
ATOM     10 Cl1  UNL A   1      52.301  24.526  10.180  1.00  0.00    +0.000 Cl
ATOM     11  N4  UNL A   1      51.717  23.511  12.484  1.00  0.00    +0.000 N 
ATOM     12  C7  UNL A   1      51.629  22.472  13.302  1.00  0.00    +0.000 C 
ATOM     19  N6  UNL A   1      51.726  21.212  12.894  1.00  0.00    +0.000 N 
BRANCH   12   13
ATOM    108  H8  UNL A   1      51.491  24.417  15.884  1.00  0.00    +0.000 H 
ATOM    109  H9  UNL A   1      52.153  24.697  14.271  1.00  0.00    +0.000 H 
ATOM     13  N5  UNL A   1      51.578  22.751  14.650  1.00  0.00    +0.000 N 
ATOM     14  C8  UNL A   1      52.121  24.033  15.109  1.00  0.00    +0.000 C 
ATOM     15  C9  UNL A   1      53.544  23.891  15.656  1.00  0.00    +0.000 C 
ATOM     17  C10 UNL A   1      53.231  21.600  16.100  1.00  0.00    +0.000 C 
ATOM     18  C11 UNL A   1      51.790  21.618  15.556  1.00  0.00    +0.000 C 
ATOM    114  H14 UNL A   1      51.608  20.707  15.024  1.00  0.00    +0.000 H 
ATOM    115  H15 UNL A   1      51.118  21.715  16.383  1.00  0.00    +0.000 H 
ATOM    110  H10 UNL A   1      53.849  24.823  16.085  1.00  0.00    +0.000 H 
ATOM    111  H11 UNL A   1      54.193  23.620  14.849  1.00  0.00    +0.000 H 
ATOM     16  O1  UNL A   1      53.610  22.867  16.660  1.00  0.00    +0.000 O 
ATOM    112  H12 UNL A   1      53.304  20.850  16.861  1.00  0.00    +0.000 H 
ATOM    113  H13 UNL A   1      53.890  21.388  15.285  1.00  0.00    +0.000 H 
ENDBRANCH   12   13
ENDBRANCH    6    7
ENDBRANCH    3    4
ENDBRANCH    2    3
ENDBRANCH   26    2
ENDBRANCH   28   26
ENDBRANCH   29   28
ENDBRANCH   30   29
ENDBRANCH   31   30
ENDBRANCH   32   31
ENDBRANCH   33   32
ENDBRANCH   34   33
ENDBRANCH   35   34
ENDBRANCH   36   35
ENDBRANCH   38   36
ENDBRANCH   42   41
BRANCH   46   47
ATOM     47  C34 UNL A   1      61.302  17.239  -0.831  1.00  0.00    +0.000 C 
ATOM     48  C35 UNL A   1      61.619  17.800  -2.083  1.00  0.00    +0.000 C 
ATOM     49  F1  UNL A   1      60.853  18.767  -2.611  1.00  0.00    +0.000 F 
ATOM     50  C36 UNL A   1      62.693  17.335  -2.848  1.00  0.00    +0.000 C 
ATOM     51  F2  UNL A   1      62.910  17.840  -4.071  1.00  0.00    +0.000 F 
ATOM     52  C37 UNL A   1      63.505  16.320  -2.374  1.00  0.00    +0.000 C 
ATOM     53  F3  UNL A   1      64.513  15.850  -3.120  1.00  0.00    +0.000 F 
ATOM     54  C38 UNL A   1      63.239  15.762  -1.139  1.00  0.00    +0.000 C 
ATOM     55  F4  UNL A   1      64.001  14.760  -0.676  1.00  0.00    +0.000 F 
ATOM     56  C39 UNL A   1      62.142  16.192  -0.395  1.00  0.00    +0.000 C 
ATOM     57  F5  UNL A   1      61.867  15.498   0.718  1.00  0.00    +0.000 F 
ENDBRANCH   46   47
BRANCH   63   64
ATOM     65  C46 UNL A   1      54.779  15.499   2.119  1.00  0.00    +0.000 C 
ATOM     66  F6  UNL A   1      55.515  16.473   2.673  1.00  0.00    +0.000 F 
ATOM     67  C47 UNL A   1      53.405  15.505   2.348  1.00  0.00    +0.000 C 
ATOM     68  F7  UNL A   1      52.863  16.424   3.162  1.00  0.00    +0.000 F 
ATOM     69  C48 UNL A   1      52.591  14.584   1.709  1.00  0.00    +0.000 C 
ATOM     70  F8  UNL A   1      51.263  14.616   1.894  1.00  0.00    +0.000 F 
ATOM     71  C49 UNL A   1      53.150  13.648   0.853  1.00  0.00    +0.000 C 
ATOM     72  F9  UNL A   1      52.359  12.789   0.194  1.00  0.00    +0.000 F 
ATOM     73  C50 UNL A   1      54.527  13.616   0.653  1.00  0.00    +0.000 C 
ATOM     74  F10 UNL A   1      55.034  12.715  -0.204  1.00  0.00    +0.000 F 
ATOM     64  C45 UNL A   1      55.373  14.538   1.284  1.00  0.00    +0.000 C 
ENDBRANCH   63   64
BRANCH   78   79
ATOM     79  C54 UNL A   1      59.029  12.704   6.112  1.00  0.00    +0.000 C 
ATOM     80  C55 UNL A   1      60.273  12.965   6.704  1.00  0.00    +0.000 C 
ATOM     81  F11 UNL A   1      61.028  13.982   6.266  1.00  0.00    +0.000 F 
ATOM     82  C56 UNL A   1      60.730  12.227   7.802  1.00  0.00    +0.000 C 
ATOM     83  F12 UNL A   1      61.895  12.546   8.380  1.00  0.00    +0.000 F 
ATOM     84  C57 UNL A   1      59.959  11.204   8.328  1.00  0.00    +0.000 C 
ATOM     85  F13 UNL A   1      60.372  10.534   9.412  1.00  0.00    +0.000 F 
ATOM     86  C58 UNL A   1      58.740  10.905   7.751  1.00  0.00    +0.000 C 
ATOM     87  F14 UNL A   1      57.969   9.938   8.271  1.00  0.00    +0.000 F 
ATOM     88  C59 UNL A   1      58.278  11.647   6.665  1.00  0.00    +0.000 C 
ATOM     89  F15 UNL A   1      57.042  11.373   6.225  1.00  0.00    +0.000 F 
ENDBRANCH   78   79
TORSDOF 20
ENDMDL
