MODEL 1
REMARK VINA RESULT:      -9.4      0.000      0.000
ROOT
ATOM    129  H34 UNL A   1      11.644  51.080   5.310  1.00  0.00    +0.000 H 
ATOM    130  H35 UNL A   1      14.519  52.235   2.538  1.00  0.00    +0.000 H 
ATOM    131  H36 UNL A   1      15.473  57.073   3.502  1.00  0.00    +0.000 H 
ATOM    132  H37 UNL A   1      17.143  56.989   1.564  1.00  0.00    +0.000 H 
ATOM    133  H38 UNL A   1      15.315  47.181   0.273  1.00  0.00    +0.000 H 
ATOM    134  H39 UNL A   1      13.459  47.299   2.035  1.00  0.00    +0.000 H 
ATOM     37  C29 UNL A   1      13.173  49.876   3.232  1.00  0.00    +0.000 C 
ATOM     38  C30 UNL A   1      14.109  49.468   2.133  1.00  0.00    +0.000 C 
ATOM     39  N3  UNL A   1      14.984  50.197   1.485  1.00  0.00    +0.000 N 
ATOM     40  C31 UNL A   1      15.607  49.342   0.588  1.00  0.00    +0.000 C 
ATOM     41  C32 UNL A   1      16.572  49.632  -0.318  1.00  0.00    +0.000 C 
ATOM     53  C39 UNL A   1      17.128  50.946  -0.522  1.00  0.00    +0.000 C 
ATOM     54  C40 UNL A   1      18.061  51.351  -1.462  1.00  0.00    +0.000 C 
ATOM     55  C41 UNL A   1      18.342  52.704  -1.248  1.00  0.00    +0.000 C 
ATOM     56  C42 UNL A   1      17.552  53.154  -0.203  1.00  0.00    +0.000 C 
ATOM     57  N4  UNL A   1      16.810  52.066   0.231  1.00  0.00    +0.000 N 
ATOM     58  C43 UNL A   1      17.485  54.476   0.364  1.00  0.00    +0.000 C 
ATOM     70  C50 UNL A   1      16.639  54.857   1.352  1.00  0.00    +0.000 C 
ATOM     71  N5  UNL A   1      15.698  54.100   2.033  1.00  0.00    +0.000 N 
ATOM     72  C51 UNL A   1      15.160  54.907   2.914  1.00  0.00    +0.000 C 
ATOM     73  C52 UNL A   1      14.080  54.624   3.920  1.00  0.00    +0.000 C 
ATOM     85  C59 UNL A   1      13.560  53.386   3.986  1.00  0.00    +0.000 C 
ATOM     86  C60 UNL A   1      12.518  52.964   4.913  1.00  0.00    +0.000 C 
ATOM     87  C61 UNL A   1      12.304  51.650   4.756  1.00  0.00    +0.000 C 
ATOM     88  C62 UNL A   1      13.155  51.149   3.673  1.00  0.00    +0.000 C 
ATOM     89  N6  UNL A   1      13.860  52.253   3.270  1.00  0.00    +0.000 N 
ATOM     90  C63 UNL A   1      15.707  56.269   2.898  1.00  0.00    +0.000 C 
ATOM     91  C64 UNL A   1      16.578  56.196   1.903  1.00  0.00    +0.000 C 
ATOM     92  C65 UNL A   1      15.025  48.030   0.783  1.00  0.00    +0.000 C 
ATOM     93  C66 UNL A   1      14.070  48.061   1.704  1.00  0.00    +0.000 C 
ATOM    125  H30 UNL A   1      18.476  50.756  -2.196  1.00  0.00    +0.000 H 
ATOM    126  H31 UNL A   1      19.022  53.271  -1.777  1.00  0.00    +0.000 H 
ATOM    127  H32 UNL A   1      16.153  52.086   0.965  1.00  0.00    +0.000 H 
ATOM    128  H33 UNL A   1      12.026  53.576   5.583  1.00  0.00    +0.000 H 
ENDROOT
BRANCH   37   36
ATOM     33  C25 UNL A   1      10.579  46.920   4.931  1.00  0.00    +0.000 C 
ATOM     34  C26 UNL A   1      11.911  47.016   5.342  1.00  0.00    +0.000 C 
ATOM     35  C27 UNL A   1      12.717  48.039   4.854  1.00  0.00    +0.000 C 
ATOM     36  C28 UNL A   1      12.239  48.906   3.856  1.00  0.00    +0.000 C 
ATOM    135  H40 UNL A   1      10.566  49.381   2.652  1.00  0.00    +0.000 H 
ATOM    136  H41 UNL A   1       9.111  47.696   3.624  1.00  0.00    +0.000 H 
ATOM    123  H28 UNL A   1      12.296  46.328   6.008  1.00  0.00    +0.000 H 
ATOM    124  H29 UNL A   1      13.671  48.162   5.226  1.00  0.00    +0.000 H 
ATOM     94  C67 UNL A   1      10.922  48.763   3.397  1.00  0.00    +0.000 C 
ATOM     95  C68 UNL A   1      10.087  47.782   3.946  1.00  0.00    +0.000 C 
BRANCH   33    2
ATOM      1  O1  UNL A   1       8.685  45.540   4.873  1.00  0.00    +0.000 O 
ATOM      2  C1  UNL A   1       9.680  45.885   5.495  1.00  0.00    +0.000 C 
BRANCH    2    3
ATOM      3  N1  UNL A   1       9.961  45.329   6.721  1.00  0.00    +0.000 N 
ATOM     96  H1  UNL A   1      10.318  44.412   6.699  1.00  0.00    +0.000 H 
BRANCH    3    4
ATOM     97  H2  UNL A   1      10.504  46.709   8.153  1.00  0.00    +0.000 H 
ATOM     98  H3  UNL A   1       9.979  45.131   8.761  1.00  0.00    +0.000 H 
ATOM      4  C2  UNL A   1       9.804  45.907   8.045  1.00  0.00    +0.000 C 
BRANCH    4    5
ATOM     99  H4  UNL A   1       8.010  45.976   9.159  1.00  0.00    +0.000 H 
ATOM    100  H5  UNL A   1       7.846  46.230   7.395  1.00  0.00    +0.000 H 
ATOM      5  C3  UNL A   1       8.403  46.447   8.282  1.00  0.00    +0.000 C 
BRANCH    5    6
ATOM    102  H7  UNL A   1       7.316  48.149   8.812  1.00  0.00    +0.000 H 
ATOM    101  H6  UNL A   1       9.073  48.245   9.177  1.00  0.00    +0.000 H 
ATOM      6  C4  UNL A   1       8.314  47.961   8.478  1.00  0.00    +0.000 C 
BRANCH    6    7
ATOM    103  H8  UNL A   1       7.598  49.383   7.081  1.00  0.00    +0.000 H 
ATOM      7  C5  UNL A   1       8.494  48.815   7.219  1.00  0.00    +0.000 C 
ATOM    104  H9  UNL A   1       8.706  48.119   6.435  1.00  0.00    +0.000 H 
BRANCH    7    8
ATOM    105  H10 UNL A   1       9.527  50.480   6.402  1.00  0.00    +0.000 H 
ATOM    106  H11 UNL A   1      10.552  49.196   7.127  1.00  0.00    +0.000 H 
ATOM      8  C6  UNL A   1       9.673  49.799   7.214  1.00  0.00    +0.000 C 
BRANCH    8    9
ATOM      9  C7  UNL A   1       9.858  50.621   8.488  1.00  0.00    +0.000 C 
ATOM    107  H12 UNL A   1       9.097  50.346   9.187  1.00  0.00    +0.000 H 
ATOM    108  H13 UNL A   1       9.793  51.654   8.212  1.00  0.00    +0.000 H 
BRANCH    9   10
ATOM     10  N2  UNL A   1      11.148  50.420   9.107  1.00  0.00    +0.000 N 
ATOM    109  H14 UNL A   1      11.627  51.237   9.375  1.00  0.00    +0.000 H 
BRANCH   10   11
ATOM     11  C8  UNL A   1      11.789  49.245   9.368  1.00  0.00    +0.000 C 
ATOM     12  O2  UNL A   1      11.343  48.547  10.281  1.00  0.00    +0.000 O 
BRANCH   11   13
ATOM     13  C9  UNL A   1      13.037  48.859   8.542  1.00  0.00    +0.000 C 
ATOM     14  C10 UNL A   1      13.440  49.954   7.562  1.00  0.00    +0.000 C 
ATOM    110  H15 UNL A   1      12.759  47.983   7.993  1.00  0.00    +0.000 H 
ATOM    111  H16 UNL A   1      12.881  50.846   7.754  1.00  0.00    +0.000 H 
ATOM     15  C11 UNL A   1      14.932  50.205   7.785  1.00  0.00    +0.000 C 
ATOM    112  H17 UNL A   1      13.242  49.663   6.552  1.00  0.00    +0.000 H 
ATOM    118  H23 UNL A   1      16.191  49.146   9.058  1.00  0.00    +0.000 H 
ATOM     24  C18 UNL A   1      15.199  49.533   9.161  1.00  0.00    +0.000 C 
ATOM     32  O4  UNL A   1      14.157  48.561   9.375  1.00  0.00    +0.000 O 
BRANCH   15   16
ATOM    113  H18 UNL A   1      14.265  52.069   7.997  1.00  0.00    +0.000 H 
ATOM     16  O3  UNL A   1      15.127  51.631   7.907  1.00  0.00    +0.000 O 
ENDBRANCH   15   16
BRANCH   15   17
ATOM     17  C12 UNL A   1      15.706  49.800   6.513  1.00  0.00    +0.000 C 
ATOM     18  C13 UNL A   1      16.146  50.884   5.700  1.00  0.00    +0.000 C 
ATOM     19  C14 UNL A   1      16.898  50.707   4.537  1.00  0.00    +0.000 C 
ATOM    114  H19 UNL A   1      15.897  51.845   5.983  1.00  0.00    +0.000 H 
ATOM     21  C16 UNL A   1      16.816  48.342   4.890  1.00  0.00    +0.000 C 
ATOM     22  C17 UNL A   1      16.020  48.512   6.040  1.00  0.00    +0.000 C 
ATOM     23 Cl1  UNL A   1      15.430  47.032   6.704  1.00  0.00    +0.000 Cl
ATOM    115  H20 UNL A   1      17.185  51.523   3.975  1.00  0.00    +0.000 H 
ATOM     20  C15 UNL A   1      17.258  49.431   4.144  1.00  0.00    +0.000 C 
ATOM    117  H22 UNL A   1      17.076  47.389   4.593  1.00  0.00    +0.000 H 
ATOM    116  H21 UNL A   1      17.846  49.286   3.308  1.00  0.00    +0.000 H 
ENDBRANCH   15   17
BRANCH   24   25
ATOM    122  H27 UNL A   1      17.539  51.744  12.558  1.00  0.00    +0.000 H 
ATOM    121  H26 UNL A   1      15.516  52.324  13.762  1.00  0.00    +0.000 H 
ATOM    119  H24 UNL A   1      13.218  50.572  10.720  1.00  0.00    +0.000 H 
ATOM    120  H25 UNL A   1      13.356  51.759  12.819  1.00  0.00    +0.000 H 
ATOM     25  C19 UNL A   1      15.301  50.397  10.418  1.00  0.00    +0.000 C 
ATOM     26  C20 UNL A   1      14.146  50.797  11.113  1.00  0.00    +0.000 C 
ATOM     27  C21 UNL A   1      14.222  51.493  12.323  1.00  0.00    +0.000 C 
ATOM     28  C22 UNL A   1      15.458  51.826  12.860  1.00  0.00    +0.000 C 
ATOM     29  C23 UNL A   1      16.618  51.481  12.173  1.00  0.00    +0.000 C 
ATOM     30  C24 UNL A   1      16.545  50.779  10.962  1.00  0.00    +0.000 C 
ATOM     31 Cl2  UNL A   1      18.056  50.439  10.188  1.00  0.00    +0.000 Cl
ENDBRANCH   24   25
ENDBRANCH   11   13
ENDBRANCH   10   11
ENDBRANCH    9   10
ENDBRANCH    8    9
ENDBRANCH    7    8
ENDBRANCH    6    7
ENDBRANCH    5    6
ENDBRANCH    4    5
ENDBRANCH    3    4
ENDBRANCH    2    3
ENDBRANCH   33    2
ENDBRANCH   37   36
BRANCH   41   42
ATOM     42  C33 UNL A   1      17.109  48.515  -1.163  1.00  0.00    +0.000 C 
ATOM     43  C34 UNL A   1      18.172  47.711  -0.731  1.00  0.00    +0.000 C 
ATOM     44  F1  UNL A   1      18.806  47.990   0.418  1.00  0.00    +0.000 F 
ATOM     45  C35 UNL A   1      18.596  46.619  -1.484  1.00  0.00    +0.000 C 
ATOM     46  F2  UNL A   1      19.627  45.873  -1.061  1.00  0.00    +0.000 F 
ATOM     47  C36 UNL A   1      17.952  46.298  -2.671  1.00  0.00    +0.000 C 
ATOM     48  F3  UNL A   1      18.348  45.234  -3.384  1.00  0.00    +0.000 F 
ATOM     49  C37 UNL A   1      16.897  47.078  -3.116  1.00  0.00    +0.000 C 
ATOM     50  F4  UNL A   1      16.265  46.762  -4.256  1.00  0.00    +0.000 F 
ATOM     51  C38 UNL A   1      16.485  48.183  -2.376  1.00  0.00    +0.000 C 
ATOM     52  F5  UNL A   1      15.457  48.917  -2.830  1.00  0.00    +0.000 F 
ENDBRANCH   41   42
BRANCH   58   59
ATOM     65  F8  UNL A   1      20.935  58.426  -1.727  1.00  0.00    +0.000 F 
ATOM     66  C48 UNL A   1      18.970  57.130  -1.919  1.00  0.00    +0.000 C 
ATOM     67  F9  UNL A   1      18.679  57.721  -3.087  1.00  0.00    +0.000 F 
ATOM     68  C49 UNL A   1      18.110  56.169  -1.395  1.00  0.00    +0.000 C 
ATOM     69  F10 UNL A   1      16.994  55.860  -2.072  1.00  0.00    +0.000 F 
ATOM     59  C44 UNL A   1      18.403  55.526  -0.184  1.00  0.00    +0.000 C 
ATOM     60  C45 UNL A   1      19.585  55.881   0.484  1.00  0.00    +0.000 C 
ATOM     61  F6  UNL A   1      19.896  55.308   1.656  1.00  0.00    +0.000 F 
ATOM     62  C46 UNL A   1      20.426  56.863  -0.029  1.00  0.00    +0.000 C 
ATOM     63  F7  UNL A   1      21.524  57.224   0.650  1.00  0.00    +0.000 F 
ATOM     64  C47 UNL A   1      20.122  57.482  -1.233  1.00  0.00    +0.000 C 
ENDBRANCH   58   59
BRANCH   73   74
ATOM     74  C53 UNL A   1      13.600  55.680   4.847  1.00  0.00    +0.000 C 
ATOM     75  C54 UNL A   1      14.113  55.790   6.146  1.00  0.00    +0.000 C 
ATOM     76  F11 UNL A   1      15.041  54.922   6.575  1.00  0.00    +0.000 F 
ATOM     77  C55 UNL A   1      13.646  56.769   7.021  1.00  0.00    +0.000 C 
ATOM     78  F12 UNL A   1      14.120  56.823   8.274  1.00  0.00    +0.000 F 
ATOM     79  C56 UNL A   1      12.682  57.674   6.605  1.00  0.00    +0.000 C 
ATOM     80  F13 UNL A   1      12.236  58.616   7.446  1.00  0.00    +0.000 F 
ATOM     81  C57 UNL A   1      12.174  57.596   5.317  1.00  0.00    +0.000 C 
ATOM     82  F14 UNL A   1      11.254  58.478   4.905  1.00  0.00    +0.000 F 
ATOM     83  C58 UNL A   1      12.617  56.599   4.452  1.00  0.00    +0.000 C 
ATOM     84  F15 UNL A   1      12.098  56.538   3.216  1.00  0.00    +0.000 F 
ENDBRANCH   73   74
TORSDOF 18
ENDMDL
MODEL 2
REMARK VINA RESULT:      -8.9      2.937      7.995
ROOT
ATOM    129  H34 UNL A   1      12.327  52.854   6.659  1.00  0.00    +0.000 H 
ATOM    130  H35 UNL A   1      14.691  51.723   3.431  1.00  0.00    +0.000 H 
ATOM    131  H36 UNL A   1      13.596  46.896   2.567  1.00  0.00    +0.000 H 
ATOM    132  H37 UNL A   1      15.296  46.994   0.656  1.00  0.00    +0.000 H 
ATOM    133  H38 UNL A   1      16.844  56.782   2.389  1.00  0.00    +0.000 H 
ATOM    134  H39 UNL A   1      15.343  56.649   4.462  1.00  0.00    +0.000 H 
ATOM     37  C29 UNL A   1      14.187  54.071   4.879  1.00  0.00    +0.000 C 
ATOM     38  C30 UNL A   1      15.154  54.486   3.810  1.00  0.00    +0.000 C 
ATOM     39  N3  UNL A   1      15.678  53.764   2.850  1.00  0.00    +0.000 N 
ATOM     40  C31 UNL A   1      16.487  54.624   2.121  1.00  0.00    +0.000 C 
ATOM     41  C32 UNL A   1      17.256  54.342   1.042  1.00  0.00    +0.000 C 
ATOM     53  C39 UNL A   1      17.381  53.034   0.452  1.00  0.00    +0.000 C 
ATOM     54  C40 UNL A   1      18.188  52.637  -0.601  1.00  0.00    +0.000 C 
ATOM     55  C41 UNL A   1      17.935  51.287  -0.864  1.00  0.00    +0.000 C 
ATOM     56  C42 UNL A   1      17.003  50.831   0.052  1.00  0.00    +0.000 C 
ATOM     57  N4  UNL A   1      16.674  51.912   0.856  1.00  0.00    +0.000 N 
ATOM     58  C43 UNL A   1      16.447  49.509   0.182  1.00  0.00    +0.000 C 
ATOM     70  C50 UNL A   1      15.578  49.121   1.148  1.00  0.00    +0.000 C 
ATOM     71  N5  UNL A   1      15.030  49.869   2.178  1.00  0.00    +0.000 N 
ATOM     72  C51 UNL A   1      14.226  49.059   2.820  1.00  0.00    +0.000 C 
ATOM     73  C52 UNL A   1      13.373  49.332   4.026  1.00  0.00    +0.000 C 
ATOM     85  C59 UNL A   1      13.380  50.565   4.563  1.00  0.00    +0.000 C 
ATOM     86  C60 UNL A   1      12.600  50.979   5.723  1.00  0.00    +0.000 C 
ATOM     87  C61 UNL A   1      12.787  52.290   5.926  1.00  0.00    +0.000 C 
ATOM     88  C62 UNL A   1      13.749  52.798   4.944  1.00  0.00    +0.000 C 
ATOM     89  N6  UNL A   1      14.053  51.700   4.181  1.00  0.00    +0.000 N 
ATOM     90  C63 UNL A   1      14.165  47.701   2.263  1.00  0.00    +0.000 C 
ATOM     91  C64 UNL A   1      15.036  47.783   1.268  1.00  0.00    +0.000 C 
ATOM     92  C65 UNL A   1      16.374  55.931   2.736  1.00  0.00    +0.000 C 
ATOM     93  C66 UNL A   1      15.587  55.892   3.805  1.00  0.00    +0.000 C 
ATOM    125  H30 UNL A   1      18.863  53.235  -1.105  1.00  0.00    +0.000 H 
ATOM    126  H31 UNL A   1      18.368  50.726  -1.614  1.00  0.00    +0.000 H 
ATOM    127  H32 UNL A   1      16.034  51.887   1.604  1.00  0.00    +0.000 H 
ATOM    128  H33 UNL A   1      12.000  50.363   6.293  1.00  0.00    +0.000 H 
ENDROOT
BRANCH   37   36
ATOM     33  C25 UNL A   1      12.833  57.005   7.691  1.00  0.00    +0.000 C 
ATOM     34  C26 UNL A   1      12.162  56.821   6.480  1.00  0.00    +0.000 C 
ATOM     35  C27 UNL A   1      12.553  55.802   5.617  1.00  0.00    +0.000 C 
ATOM     36  C28 UNL A   1      13.695  55.032   5.897  1.00  0.00    +0.000 C 
ATOM    135  H40 UNL A   1      15.256  54.720   7.291  1.00  0.00    +0.000 H 
ATOM    136  H41 UNL A   1      14.475  56.391   8.872  1.00  0.00    +0.000 H 
ATOM    123  H28 UNL A   1      11.377  57.440   6.224  1.00  0.00    +0.000 H 
ATOM    124  H29 UNL A   1      12.001  55.610   4.767  1.00  0.00    +0.000 H 
ATOM     94  C67 UNL A   1      14.406  55.266   7.083  1.00  0.00    +0.000 C 
ATOM     95  C68 UNL A   1      13.965  56.239   7.988  1.00  0.00    +0.000 C 
BRANCH   33    2
ATOM      1  O1  UNL A   1      12.898  59.145   8.646  1.00  0.00    +0.000 O 
ATOM      2  C1  UNL A   1      12.386  58.034   8.660  1.00  0.00    +0.000 C 
BRANCH    2    3
ATOM      3  N1  UNL A   1      11.409  57.731   9.579  1.00  0.00    +0.000 N 
ATOM     96  H1  UNL A   1      11.302  58.378  10.313  1.00  0.00    +0.000 H 
BRANCH    3    4
ATOM     97  H2  UNL A   1      10.500  56.132   8.649  1.00  0.00    +0.000 H 
ATOM     98  H3  UNL A   1       9.543  56.946   9.895  1.00  0.00    +0.000 H 
ATOM      4  C2  UNL A   1      10.512  56.589   9.616  1.00  0.00    +0.000 C 
BRANCH    4    5
ATOM     99  H4  UNL A   1      10.051  55.167  11.110  1.00  0.00    +0.000 H 
ATOM    100  H5  UNL A   1      11.594  56.050  11.319  1.00  0.00    +0.000 H 
ATOM      5  C3  UNL A   1      10.934  55.549  10.642  1.00  0.00    +0.000 C 
BRANCH    5    6
ATOM    102  H7  UNL A   1      11.097  53.510  10.227  1.00  0.00    +0.000 H 
ATOM    101  H6  UNL A   1      11.945  54.578   9.056  1.00  0.00    +0.000 H 
ATOM      6  C4  UNL A   1      11.722  54.365  10.080  1.00  0.00    +0.000 C 
BRANCH    6    7
ATOM    103  H8  UNL A   1      13.822  54.566  10.281  1.00  0.00    +0.000 H 
ATOM      7  C5  UNL A   1      13.041  54.037  10.788  1.00  0.00    +0.000 C 
ATOM    104  H9  UNL A   1      13.124  52.971  10.747  1.00  0.00    +0.000 H 
BRANCH    7    8
ATOM    105  H10 UNL A   1      12.135  54.532  12.642  1.00  0.00    +0.000 H 
ATOM    106  H11 UNL A   1      13.743  55.268  12.330  1.00  0.00    +0.000 H 
ATOM      8  C6  UNL A   1      13.131  54.392  12.278  1.00  0.00    +0.000 C 
BRANCH    8    9
ATOM      9  C7  UNL A   1      13.814  53.357  13.170  1.00  0.00    +0.000 C 
ATOM    107  H12 UNL A   1      14.188  53.852  14.042  1.00  0.00    +0.000 H 
ATOM    108  H13 UNL A   1      14.600  52.911  12.596  1.00  0.00    +0.000 H 
BRANCH    9   10
ATOM     10  N2  UNL A   1      12.926  52.297  13.586  1.00  0.00    +0.000 N 
ATOM    109  H14 UNL A   1      11.987  52.556  13.730  1.00  0.00    +0.000 H 
BRANCH   10   11
ATOM     11  C8  UNL A   1      13.218  50.983  13.804  1.00  0.00    +0.000 C 
ATOM     12  O2  UNL A   1      14.013  50.721  14.709  1.00  0.00    +0.000 O 
BRANCH   11   13
ATOM     13  C9  UNL A   1      12.571  49.902  12.908  1.00  0.00    +0.000 C 
ATOM     14  C10 UNL A   1      11.929  50.496  11.661  1.00  0.00    +0.000 C 
ATOM    110  H15 UNL A   1      11.812  49.446  13.510  1.00  0.00    +0.000 H 
ATOM    111  H16 UNL A   1      12.195  51.527  11.563  1.00  0.00    +0.000 H 
ATOM     15  C11 UNL A   1      12.467  49.695  10.474  1.00  0.00    +0.000 C 
ATOM    112  H17 UNL A   1      10.861  50.444  11.712  1.00  0.00    +0.000 H 
ATOM    118  H23 UNL A   1      13.702  48.024  10.564  1.00  0.00    +0.000 H 
ATOM     24  C18 UNL A   1      13.700  48.964  11.075  1.00  0.00    +0.000 C 
ATOM     32  O4  UNL A   1      13.516  48.910  12.503  1.00  0.00    +0.000 O 
BRANCH   15   16
ATOM    113  H18 UNL A   1      13.795  50.964   9.707  1.00  0.00    +0.000 H 
ATOM     16  O3  UNL A   1      12.913  50.635   9.473  1.00  0.00    +0.000 O 
ENDBRANCH   15   16
BRANCH   15   17
ATOM     17  C12 UNL A   1      11.302  48.927   9.816  1.00  0.00    +0.000 C 
ATOM     18  C13 UNL A   1      11.361  47.508   9.945  1.00  0.00    +0.000 C 
ATOM     19  C14 UNL A   1      10.371  46.657   9.451  1.00  0.00    +0.000 C 
ATOM    114  H19 UNL A   1      12.174  47.091  10.425  1.00  0.00    +0.000 H 
ATOM     21  C16 UNL A   1       9.186  48.570   8.637  1.00  0.00    +0.000 C 
ATOM     22  C17 UNL A   1      10.204  49.431   9.095  1.00  0.00    +0.000 C 
ATOM     23 Cl1  UNL A   1       9.998  51.073   8.605  1.00  0.00    +0.000 Cl
ATOM    115  H20 UNL A   1      10.463  45.635   9.560  1.00  0.00    +0.000 H 
ATOM     20  C15 UNL A   1       9.265  47.192   8.818  1.00  0.00    +0.000 C 
ATOM    117  H22 UNL A   1       8.365  48.970   8.157  1.00  0.00    +0.000 H 
ATOM    116  H21 UNL A   1       8.506  46.578   8.481  1.00  0.00    +0.000 H 
ENDBRANCH   15   17
BRANCH   24   25
ATOM    122  H27 UNL A   1      17.974  48.771   9.178  1.00  0.00    +0.000 H 
ATOM    121  H26 UNL A   1      18.745  50.731  10.380  1.00  0.00    +0.000 H 
ATOM    119  H24 UNL A   1      14.920  51.205  12.037  1.00  0.00    +0.000 H 
ATOM    120  H25 UNL A   1      17.200  51.960  11.786  1.00  0.00    +0.000 H 
ATOM     25  C19 UNL A   1      15.105  49.501  10.802  1.00  0.00    +0.000 C 
ATOM     26  C20 UNL A   1      15.568  50.665  11.442  1.00  0.00    +0.000 C 
ATOM     27  C21 UNL A   1      16.884  51.110  11.291  1.00  0.00    +0.000 C 
ATOM     28  C22 UNL A   1      17.768  50.413  10.479  1.00  0.00    +0.000 C 
ATOM     29  C23 UNL A   1      17.327  49.282   9.799  1.00  0.00    +0.000 C 
ATOM     30  C24 UNL A   1      16.009  48.830   9.952  1.00  0.00    +0.000 C 
ATOM     31 Cl2  UNL A   1      15.572  47.432   9.028  1.00  0.00    +0.000 Cl
ENDBRANCH   24   25
ENDBRANCH   11   13
ENDBRANCH   10   11
ENDBRANCH    9   10
ENDBRANCH    8    9
ENDBRANCH    7    8
ENDBRANCH    6    7
ENDBRANCH    5    6
ENDBRANCH    4    5
ENDBRANCH    3    4
ENDBRANCH    2    3
ENDBRANCH   33    2
ENDBRANCH   37   36
BRANCH   41   42
ATOM     42  C33 UNL A   1      18.026  55.464   0.409  1.00  0.00    +0.000 C 
ATOM     43  C34 UNL A   1      19.265  55.882   0.913  1.00  0.00    +0.000 C 
ATOM     44  F1  UNL A   1      19.748  55.349   2.046  1.00  0.00    +0.000 F 
ATOM     45  C35 UNL A   1      20.012  56.859   0.258  1.00  0.00    +0.000 C 
ATOM     46  F2  UNL A   1      21.186  57.257   0.767  1.00  0.00    +0.000 F 
ATOM     47  C36 UNL A   1      19.544  57.419  -0.922  1.00  0.00    +0.000 C 
ATOM     48  F3  UNL A   1      20.274  58.345  -1.562  1.00  0.00    +0.000 F 
ATOM     49  C37 UNL A   1      18.322  57.019  -1.439  1.00  0.00    +0.000 C 
ATOM     50  F4  UNL A   1      17.875  57.550  -2.586  1.00  0.00    +0.000 F 
ATOM     51  C38 UNL A   1      17.564  56.058  -0.776  1.00  0.00    +0.000 C 
ATOM     52  F5  UNL A   1      16.387  55.687  -1.303  1.00  0.00    +0.000 F 
ENDBRANCH   41   42
BRANCH   58   59
ATOM     65  F8  UNL A   1      18.051  45.587  -3.550  1.00  0.00    +0.000 F 
ATOM     66  C48 UNL A   1      18.449  46.778  -1.550  1.00  0.00    +0.000 C 
ATOM     67  F9  UNL A   1      19.588  46.099  -1.357  1.00  0.00    +0.000 F 
ATOM     68  C49 UNL A   1      18.044  47.733  -0.621  1.00  0.00    +0.000 C 
ATOM     69  F10 UNL A   1      18.806  47.946   0.463  1.00  0.00    +0.000 F 
ATOM     59  C44 UNL A   1      16.865  48.467  -0.810  1.00  0.00    +0.000 C 
ATOM     60  C45 UNL A   1      16.105  48.210  -1.962  1.00  0.00    +0.000 C 
ATOM     61  F6  UNL A   1      14.959  48.874  -2.176  1.00  0.00    +0.000 F 
ATOM     62  C46 UNL A   1      16.498  47.235  -2.873  1.00  0.00    +0.000 C 
ATOM     63  F7  UNL A   1      15.732  46.971  -3.941  1.00  0.00    +0.000 F 
ATOM     64  C47 UNL A   1      17.672  46.525  -2.670  1.00  0.00    +0.000 C 
ENDBRANCH   58   59
BRANCH   73   74
ATOM     74  C53 UNL A   1      12.515  48.273   4.615  1.00  0.00    +0.000 C 
ATOM     75  C54 UNL A   1      12.971  47.478   5.673  1.00  0.00    +0.000 C 
ATOM     76  F11 UNL A   1      14.208  47.654   6.159  1.00  0.00    +0.000 F 
ATOM     77  C55 UNL A   1      12.171  46.470   6.210  1.00  0.00    +0.000 C 
ATOM     78  F12 UNL A   1      12.649  45.692   7.191  1.00  0.00    +0.000 F 
ATOM     79  C56 UNL A   1      10.891  46.261   5.721  1.00  0.00    +0.000 C 
ATOM     80  F13 UNL A   1      10.122  45.294   6.240  1.00  0.00    +0.000 F 
ATOM     81  C57 UNL A   1      10.411  47.050   4.686  1.00  0.00    +0.000 C 
ATOM     82  F14 UNL A   1       9.169  46.863   4.221  1.00  0.00    +0.000 F 
ATOM     83  C58 UNL A   1      11.220  48.036   4.129  1.00  0.00    +0.000 C 
ATOM     84  F15 UNL A   1      10.736  48.775   3.119  1.00  0.00    +0.000 F 
ENDBRANCH   73   74
TORSDOF 18
ENDMDL
MODEL 3
REMARK VINA RESULT:      -8.3     45.038     50.818
ROOT
ATOM    129  H34 UNL A   1       9.698   2.717  23.498  1.00  0.00    +0.000 H 
ATOM    130  H35 UNL A   1       9.593   5.584  20.489  1.00  0.00    +0.000 H 
ATOM    131  H36 UNL A   1       6.730   9.313  22.262  1.00  0.00    +0.000 H 
ATOM    132  H37 UNL A   1       7.145  10.507  20.036  1.00  0.00    +0.000 H 
ATOM    133  H38 UNL A   1      13.214   3.060  17.050  1.00  0.00    +0.000 H 
ATOM    134  H39 UNL A   1      12.613   1.730  19.156  1.00  0.00    +0.000 H 
ATOM     37  C29 UNL A   1      10.848   3.115  20.924  1.00  0.00    +0.000 C 
ATOM     38  C30 UNL A   1      11.353   3.565  19.584  1.00  0.00    +0.000 C 
ATOM     39  N3  UNL A   1      11.091   4.675  18.938  1.00  0.00    +0.000 N 
ATOM     40  C31 UNL A   1      11.823   4.614  17.761  1.00  0.00    +0.000 C 
ATOM     41  C32 UNL A   1      11.870   5.518  16.753  1.00  0.00    +0.000 C 
ATOM     53  C39 UNL A   1      11.118   6.747  16.727  1.00  0.00    +0.000 C 
ATOM     54  C40 UNL A   1      11.048   7.694  15.719  1.00  0.00    +0.000 C 
ATOM     55  C41 UNL A   1      10.238   8.746  16.159  1.00  0.00    +0.000 C 
ATOM     56  C42 UNL A   1       9.768   8.435  17.424  1.00  0.00    +0.000 C 
ATOM     57  N4  UNL A   1      10.313   7.205  17.759  1.00  0.00    +0.000 N 
ATOM     58  C43 UNL A   1       8.893   9.206  18.268  1.00  0.00    +0.000 C 
ATOM     70  C50 UNL A   1       8.425   8.807  19.476  1.00  0.00    +0.000 C 
ATOM     71  N5  UNL A   1       8.680   7.630  20.162  1.00  0.00    +0.000 N 
ATOM     72  C51 UNL A   1       8.029   7.727  21.295  1.00  0.00    +0.000 C 
ATOM     73  C52 UNL A   1       7.942   6.741  22.424  1.00  0.00    +0.000 C 
ATOM     85  C59 UNL A   1       8.614   5.580  22.328  1.00  0.00    +0.000 C 
ATOM     86  C60 UNL A   1       8.631   4.535  23.344  1.00  0.00    +0.000 C 
ATOM     87  C61 UNL A   1       9.466   3.563  22.953  1.00  0.00    +0.000 C 
ATOM     88  C62 UNL A   1       9.999   3.890  21.627  1.00  0.00    +0.000 C 
ATOM     89  N6  UNL A   1       9.431   5.102  21.332  1.00  0.00    +0.000 N 
ATOM     90  C63 UNL A   1       7.292   8.987  21.460  1.00  0.00    +0.000 C 
ATOM     91  C64 UNL A   1       7.537   9.593  20.307  1.00  0.00    +0.000 C 
ATOM     92  C65 UNL A   1      12.557   3.365  17.785  1.00  0.00    +0.000 C 
ATOM     93  C66 UNL A   1      12.274   2.664  18.876  1.00  0.00    +0.000 C 
ATOM    125  H30 UNL A   1      11.514   7.633  14.799  1.00  0.00    +0.000 H 
ATOM    126  H31 UNL A   1      10.028   9.608  15.631  1.00  0.00    +0.000 H 
ATOM    127  H32 UNL A   1      10.150   6.726  18.604  1.00  0.00    +0.000 H 
ATOM    128  H33 UNL A   1       8.090   4.544  24.223  1.00  0.00    +0.000 H 
ENDROOT
BRANCH   37   36
ATOM     33  C25 UNL A   1      11.879  -0.610  22.770  1.00  0.00    +0.000 C 
ATOM     34  C26 UNL A   1      10.627  -0.436  22.176  1.00  0.00    +0.000 C 
ATOM     35  C27 UNL A   1      10.338   0.744  21.498  1.00  0.00    +0.000 C 
ATOM     36  C28 UNL A   1      11.252   1.811  21.508  1.00  0.00    +0.000 C 
ATOM    135  H40 UNL A   1      13.152   2.439  22.194  1.00  0.00    +0.000 H 
ATOM    136  H41 UNL A   1      13.717   0.320  23.239  1.00  0.00    +0.000 H 
ATOM    123  H28 UNL A   1       9.915  -1.181  22.241  1.00  0.00    +0.000 H 
ATOM    124  H29 UNL A   1       9.448   0.835  20.984  1.00  0.00    +0.000 H 
ATOM     94  C67 UNL A   1      12.481   1.656  22.164  1.00  0.00    +0.000 C 
ATOM     95  C68 UNL A   1      12.802   0.440  22.779  1.00  0.00    +0.000 C 
BRANCH   33    2
ATOM      1  O1  UNL A   1      13.393  -2.092  23.773  1.00  0.00    +0.000 O 
ATOM      2  C1  UNL A   1      12.236  -1.888  23.433  1.00  0.00    +0.000 C 
BRANCH    2    3
ATOM      3  N1  UNL A   1      11.269  -2.841  23.648  1.00  0.00    +0.000 N 
ATOM     96  H1  UNL A   1      10.500  -2.551  24.190  1.00  0.00    +0.000 H 
BRANCH    3    4
ATOM     97  H2  UNL A   1      12.223  -4.602  23.160  1.00  0.00    +0.000 H 
ATOM     98  H3  UNL A   1      10.775  -4.221  22.216  1.00  0.00    +0.000 H 
ATOM      4  C2  UNL A   1      11.225  -4.218  23.187  1.00  0.00    +0.000 C 
BRANCH    4    5
ATOM     99  H4  UNL A   1      10.264  -4.611  25.028  1.00  0.00    +0.000 H 
ATOM    100  H5  UNL A   1      10.909  -6.038  24.162  1.00  0.00    +0.000 H 
ATOM      5  C3  UNL A   1      10.384  -5.109  24.088  1.00  0.00    +0.000 C 
BRANCH    5    6
ATOM    102  H7  UNL A   1       8.666  -4.575  23.029  1.00  0.00    +0.000 H 
ATOM    101  H6  UNL A   1       9.085  -6.320  22.937  1.00  0.00    +0.000 H 
ATOM      6  C4  UNL A   1       8.993  -5.449  23.551  1.00  0.00    +0.000 C 
BRANCH    6    7
ATOM    103  H8  UNL A   1       7.966  -6.767  24.853  1.00  0.00    +0.000 H 
ATOM      7  C5  UNL A   1       7.914  -5.728  24.603  1.00  0.00    +0.000 C 
ATOM    104  H9  UNL A   1       6.995  -5.422  24.150  1.00  0.00    +0.000 H 
BRANCH    7    8
ATOM    105  H10 UNL A   1       9.017  -4.978  26.254  1.00  0.00    +0.000 H 
ATOM    106  H11 UNL A   1       7.297  -5.383  26.575  1.00  0.00    +0.000 H 
ATOM      8  C6  UNL A   1       8.004  -4.931  25.912  1.00  0.00    +0.000 C 
BRANCH    8    9
ATOM      9  C7  UNL A   1       7.608  -3.459  25.824  1.00  0.00    +0.000 C 
ATOM    107  H12 UNL A   1       6.716  -3.311  26.396  1.00  0.00    +0.000 H 
ATOM    108  H13 UNL A   1       7.461  -3.229  24.789  1.00  0.00    +0.000 H 
BRANCH    9   10
ATOM     10  N2  UNL A   1       8.630  -2.568  26.324  1.00  0.00    +0.000 N 
ATOM    109  H14 UNL A   1       9.546  -2.750  26.013  1.00  0.00    +0.000 H 
BRANCH   10   11
ATOM     11  C8  UNL A   1       8.491  -1.508  27.170  1.00  0.00    +0.000 C 
ATOM     12  O2  UNL A   1       7.350  -1.219  27.535  1.00  0.00    +0.000 O 
BRANCH   11   13
ATOM     13  C9  UNL A   1       9.744  -0.714  27.606  1.00  0.00    +0.000 C 
ATOM     14  C10 UNL A   1      10.683  -0.435  26.439  1.00  0.00    +0.000 C 
ATOM    110  H15 UNL A   1      10.245  -1.337  28.318  1.00  0.00    +0.000 H 
ATOM    111  H16 UNL A   1      10.213  -0.696  25.515  1.00  0.00    +0.000 H 
ATOM     15  C11 UNL A   1      10.982   1.065  26.476  1.00  0.00    +0.000 C 
ATOM    112  H17 UNL A   1      11.580  -1.012  26.517  1.00  0.00    +0.000 H 
ATOM    118  H23 UNL A   1      10.361   2.418  27.928  1.00  0.00    +0.000 H 
ATOM     24  C18 UNL A   1       9.871   1.622  27.409  1.00  0.00    +0.000 C 
ATOM     32  O4  UNL A   1       9.401   0.528  28.220  1.00  0.00    +0.000 O 
BRANCH   15   16
ATOM    113  H18 UNL A   1      10.130   1.049  24.677  1.00  0.00    +0.000 H 
ATOM     16  O3  UNL A   1      10.791   1.586  25.143  1.00  0.00    +0.000 O 
ENDBRANCH   15   16
BRANCH   15   17
ATOM     17  C12 UNL A   1      12.482   1.271  26.778  1.00  0.00    +0.000 C 
ATOM     18  C13 UNL A   1      13.333   0.198  26.383  1.00  0.00    +0.000 C 
ATOM     19  C14 UNL A   1      14.720   0.230  26.536  1.00  0.00    +0.000 C 
ATOM    114  H19 UNL A   1      12.904  -0.643  25.964  1.00  0.00    +0.000 H 
ATOM     21  C16 UNL A   1      14.522   2.405  27.515  1.00  0.00    +0.000 C 
ATOM     22  C17 UNL A   1      13.119   2.359  27.402  1.00  0.00    +0.000 C 
ATOM     23 Cl1  UNL A   1      12.316   3.682  28.167  1.00  0.00    +0.000 Cl
ATOM    115  H20 UNL A   1      15.294  -0.576  26.244  1.00  0.00    +0.000 H 
ATOM     20  C15 UNL A   1      15.320   1.350  27.081  1.00  0.00    +0.000 C 
ATOM    117  H22 UNL A   1      14.968   3.237  27.929  1.00  0.00    +0.000 H 
ATOM    116  H21 UNL A   1      16.348   1.405  27.166  1.00  0.00    +0.000 H 
ENDBRANCH   15   17
BRANCH   24   25
ATOM    122  H27 UNL A   1       6.858   5.172  26.937  1.00  0.00    +0.000 H 
ATOM    121  H26 UNL A   1       5.392   3.914  25.472  1.00  0.00    +0.000 H 
ATOM    119  H24 UNL A   1       8.065   0.682  25.595  1.00  0.00    +0.000 H 
ATOM    120  H25 UNL A   1       6.019   1.677  24.782  1.00  0.00    +0.000 H 
ATOM     25  C19 UNL A   1       8.651   2.314  26.801  1.00  0.00    +0.000 C 
ATOM     26  C20 UNL A   1       7.807   1.632  25.906  1.00  0.00    +0.000 C 
ATOM     27  C21 UNL A   1       6.627   2.208  25.425  1.00  0.00    +0.000 C 
ATOM     28  C22 UNL A   1       6.271   3.493  25.812  1.00  0.00    +0.000 C 
ATOM     29  C23 UNL A   1       7.108   4.209  26.663  1.00  0.00    +0.000 C 
ATOM     30  C24 UNL A   1       8.289   3.632  27.150  1.00  0.00    +0.000 C 
ATOM     31 Cl2  UNL A   1       9.261   4.636  28.173  1.00  0.00    +0.000 Cl
ENDBRANCH   24   25
ENDBRANCH   11   13
ENDBRANCH   10   11
ENDBRANCH    9   10
ENDBRANCH    8    9
ENDBRANCH    7    8
ENDBRANCH    6    7
ENDBRANCH    5    6
ENDBRANCH    4    5
ENDBRANCH    3    4
ENDBRANCH    2    3
ENDBRANCH   33    2
ENDBRANCH   37   36
BRANCH   41   42
ATOM     42  C33 UNL A   1      12.769   5.232  15.587  1.00  0.00    +0.000 C 
ATOM     43  C34 UNL A   1      14.141   5.521  15.626  1.00  0.00    +0.000 C 
ATOM     44  F1  UNL A   1      14.666   6.158  16.684  1.00  0.00    +0.000 F 
ATOM     45  C35 UNL A   1      14.978   5.162  14.573  1.00  0.00    +0.000 C 
ATOM     46  F2  UNL A   1      16.284   5.463  14.624  1.00  0.00    +0.000 F 
ATOM     47  C36 UNL A   1      14.466   4.491  13.472  1.00  0.00    +0.000 C 
ATOM     48  F3  UNL A   1      15.278   4.128  12.468  1.00  0.00    +0.000 F 
ATOM     49  C37 UNL A   1      13.113   4.194  13.413  1.00  0.00    +0.000 C 
ATOM     50  F4  UNL A   1      12.619   3.534  12.356  1.00  0.00    +0.000 F 
ATOM     51  C38 UNL A   1      12.270   4.570  14.454  1.00  0.00    +0.000 C 
ATOM     52  F5  UNL A   1      10.966   4.265  14.371  1.00  0.00    +0.000 F 
ENDBRANCH   41   42
BRANCH   58   59
ATOM     65  F8  UNL A   1       7.181  14.252  16.399  1.00  0.00    +0.000 F 
ATOM     66  C48 UNL A   1       6.853  11.917  16.550  1.00  0.00    +0.000 C 
ATOM     67  F9  UNL A   1       5.734  12.014  15.819  1.00  0.00    +0.000 F 
ATOM     68  C49 UNL A   1       7.266  10.676  17.025  1.00  0.00    +0.000 C 
ATOM     69  F10 UNL A   1       6.521   9.595  16.747  1.00  0.00    +0.000 F 
ATOM     59  C44 UNL A   1       8.442  10.548  17.777  1.00  0.00    +0.000 C 
ATOM     60  C45 UNL A   1       9.188  11.708  18.038  1.00  0.00    +0.000 C 
ATOM     61  F6  UNL A   1      10.310  11.638  18.771  1.00  0.00    +0.000 F 
ATOM     62  C46 UNL A   1       8.757  12.951  17.585  1.00  0.00    +0.000 C 
ATOM     63  F7  UNL A   1       9.458  14.052  17.888  1.00  0.00    +0.000 F 
ATOM     64  C47 UNL A   1       7.594  13.054  16.836  1.00  0.00    +0.000 C 
ENDBRANCH   58   59
BRANCH   73   74
ATOM     74  C53 UNL A   1       7.147   7.038  23.643  1.00  0.00    +0.000 C 
ATOM     75  C54 UNL A   1       7.687   7.792  24.692  1.00  0.00    +0.000 C 
ATOM     76  F11 UNL A   1       8.948   8.242  24.614  1.00  0.00    +0.000 F 
ATOM     77  C55 UNL A   1       6.946   8.052  25.844  1.00  0.00    +0.000 C 
ATOM     78  F12 UNL A   1       7.502   8.735  26.854  1.00  0.00    +0.000 F 
ATOM     79  C56 UNL A   1       5.643   7.590  25.954  1.00  0.00    +0.000 C 
ATOM     80  F13 UNL A   1       4.931   7.844  27.060  1.00  0.00    +0.000 F 
ATOM     81  C57 UNL A   1       5.082   6.859  24.919  1.00  0.00    +0.000 C 
ATOM     82  F14 UNL A   1       3.818   6.425  25.013  1.00  0.00    +0.000 F 
ATOM     83  C58 UNL A   1       5.831   6.572  23.781  1.00  0.00    +0.000 C 
ATOM     84  F15 UNL A   1       5.268   5.850  22.801  1.00  0.00    +0.000 F 
ENDBRANCH   73   74
TORSDOF 18
ENDMDL
MODEL 4
REMARK VINA RESULT:      -8.2     51.999     57.506
ROOT
ATOM    129  H34 UNL A   1       5.290  11.256  39.286  1.00  0.00    +0.000 H 
ATOM    130  H35 UNL A   1       2.890   8.449  37.378  1.00  0.00    +0.000 H 
ATOM    131  H36 UNL A   1       5.456   4.133  37.536  1.00  0.00    +0.000 H 
ATOM    132  H37 UNL A   1       3.489   3.075  36.284  1.00  0.00    +0.000 H 
ATOM    133  H38 UNL A   1      -1.537  11.783  36.611  1.00  0.00    +0.000 H 
ATOM    134  H39 UNL A   1       0.515  12.926  37.633  1.00  0.00    +0.000 H 
ATOM     37  C29 UNL A   1       2.703  11.152  38.101  1.00  0.00    +0.000 C 
ATOM     38  C30 UNL A   1       1.381  10.838  37.465  1.00  0.00    +0.000 C 
ATOM     39  N3  UNL A   1       0.950   9.698  36.984  1.00  0.00    +0.000 N 
ATOM     40  C31 UNL A   1      -0.340   9.936  36.532  1.00  0.00    +0.000 C 
ATOM     41  C32 UNL A   1      -1.194   9.070  35.935  1.00  0.00    +0.000 C 
ATOM     53  C39 UNL A   1      -0.884   7.694  35.641  1.00  0.00    +0.000 C 
ATOM     54  C40 UNL A   1      -1.660   6.758  34.977  1.00  0.00    +0.000 C 
ATOM     55  C41 UNL A   1      -0.973   5.540  34.975  1.00  0.00    +0.000 C 
ATOM     56  C42 UNL A   1       0.249   5.726  35.598  1.00  0.00    +0.000 C 
ATOM     57  N4  UNL A   1       0.293   7.053  35.998  1.00  0.00    +0.000 N 
ATOM     58  C43 UNL A   1       1.298   4.765  35.818  1.00  0.00    +0.000 C 
ATOM     70  C50 UNL A   1       2.498   5.038  36.386  1.00  0.00    +0.000 C 
ATOM     71  N5  UNL A   1       2.973   6.242  36.882  1.00  0.00    +0.000 N 
ATOM     72  C51 UNL A   1       4.167   5.988  37.356  1.00  0.00    +0.000 C 
ATOM     73  C52 UNL A   1       5.145   6.924  38.008  1.00  0.00    +0.000 C 
ATOM     85  C59 UNL A   1       4.802   8.214  38.170  1.00  0.00    +0.000 C 
ATOM     86  C60 UNL A   1       5.641   9.232  38.791  1.00  0.00    +0.000 C 
ATOM     87  C61 UNL A   1       4.952  10.379  38.860  1.00  0.00    +0.000 C 
ATOM     88  C62 UNL A   1       3.641  10.193  38.232  1.00  0.00    +0.000 C 
ATOM     89  N6  UNL A   1       3.645   8.877  37.844  1.00  0.00    +0.000 N 
ATOM     90  C63 UNL A   1       4.584   4.587  37.222  1.00  0.00    +0.000 C 
ATOM     91  C64 UNL A   1       3.546   4.059  36.591  1.00  0.00    +0.000 C 
ATOM     92  C65 UNL A   1      -0.634  11.327  36.811  1.00  0.00    +0.000 C 
ATOM     93  C66 UNL A   1       0.410  11.938  37.357  1.00  0.00    +0.000 C 
ATOM    125  H30 UNL A   1      -2.586   6.931  34.555  1.00  0.00    +0.000 H 
ATOM    126  H31 UNL A   1      -1.319   4.653  34.577  1.00  0.00    +0.000 H 
ATOM    127  H32 UNL A   1       1.048   7.478  36.467  1.00  0.00    +0.000 H 
ATOM    128  H33 UNL A   1       6.607   9.092  39.126  1.00  0.00    +0.000 H 
ENDROOT
BRANCH   37   36
ATOM     33  C25 UNL A   1       3.424  15.133  39.508  1.00  0.00    +0.000 C 
ATOM     34  C26 UNL A   1       2.787  14.196  40.325  1.00  0.00    +0.000 C 
ATOM     35  C27 UNL A   1       2.643  12.881  39.894  1.00  0.00    +0.000 C 
ATOM     36  C28 UNL A   1       3.025  12.515  38.593  1.00  0.00    +0.000 C 
ATOM    135  H40 UNL A   1       3.869  13.223  36.786  1.00  0.00    +0.000 H 
ATOM    136  H41 UNL A   1       4.266  15.478  37.601  1.00  0.00    +0.000 H 
ATOM    123  H28 UNL A   1       2.423  14.479  41.249  1.00  0.00    +0.000 H 
ATOM    124  H29 UNL A   1       2.255  12.172  40.534  1.00  0.00    +0.000 H 
ATOM     94  C67 UNL A   1       3.602  13.476  37.751  1.00  0.00    +0.000 C 
ATOM     95  C68 UNL A   1       3.818  14.779  38.214  1.00  0.00    +0.000 C 
BRANCH   33    2
ATOM      1  O1  UNL A   1       2.801  17.375  39.792  1.00  0.00    +0.000 O 
ATOM      2  C1  UNL A   1       3.656  16.520  39.977  1.00  0.00    +0.000 C 
BRANCH    2    3
ATOM      3  N1  UNL A   1       4.836  16.842  40.605  1.00  0.00    +0.000 N 
ATOM     96  H1  UNL A   1       4.744  17.288  41.477  1.00  0.00    +0.000 H 
BRANCH    3    4
ATOM     97  H2  UNL A   1       6.743  17.533  40.238  1.00  0.00    +0.000 H 
ATOM     98  H3  UNL A   1       6.157  16.268  39.148  1.00  0.00    +0.000 H 
ATOM      4  C2  UNL A   1       6.200  16.615  40.160  1.00  0.00    +0.000 C 
BRANCH    4    5
ATOM     99  H4  UNL A   1       6.521  15.586  41.977  1.00  0.00    +0.000 H 
ATOM    100  H5  UNL A   1       7.957  15.786  40.927  1.00  0.00    +0.000 H 
ATOM      5  C3  UNL A   1       6.913  15.554  40.983  1.00  0.00    +0.000 C 
BRANCH    5    6
ATOM    102  H7  UNL A   1       6.141  14.193  39.601  1.00  0.00    +0.000 H 
ATOM    101  H6  UNL A   1       7.751  13.748  40.264  1.00  0.00    +0.000 H 
ATOM      6  C4  UNL A   1       6.769  14.123  40.463  1.00  0.00    +0.000 C 
BRANCH    6    7
ATOM    103  H8  UNL A   1       6.763  12.346  41.617  1.00  0.00    +0.000 H 
ATOM      7  C5  UNL A   1       6.070  13.133  41.401  1.00  0.00    +0.000 C 
ATOM    104  H9  UNL A   1       5.191  12.822  40.876  1.00  0.00    +0.000 H 
BRANCH    7    8
ATOM    105  H10 UNL A   1       4.835  14.440  42.527  1.00  0.00    +0.000 H 
ATOM    106  H11 UNL A   1       6.435  14.055  43.246  1.00  0.00    +0.000 H 
ATOM      8  C6  UNL A   1       5.566  13.689  42.740  1.00  0.00    +0.000 C 
BRANCH    8    9
ATOM      9  C7  UNL A   1       4.932  12.673  43.687  1.00  0.00    +0.000 C 
ATOM    107  H12 UNL A   1       5.055  13.020  44.692  1.00  0.00    +0.000 H 
ATOM    108  H13 UNL A   1       5.424  11.736  43.526  1.00  0.00    +0.000 H 
BRANCH    9   10
ATOM     10  N2  UNL A   1       3.524  12.470  43.438  1.00  0.00    +0.000 N 
ATOM    109  H14 UNL A   1       3.085  13.154  42.882  1.00  0.00    +0.000 H 
BRANCH   10   11
ATOM     11  C8  UNL A   1       2.723  11.455  43.871  1.00  0.00    +0.000 C 
ATOM     12  O2  UNL A   1       1.883  11.724  44.731  1.00  0.00    +0.000 O 
BRANCH   11   13
ATOM     13  C9  UNL A   1       2.917  10.034  43.294  1.00  0.00    +0.000 C 
ATOM     14  C10 UNL A   1       2.091   8.993  44.037  1.00  0.00    +0.000 C 
ATOM    110  H15 UNL A   1       3.957   9.812  43.420  1.00  0.00    +0.000 H 
ATOM    111  H16 UNL A   1       1.408   9.472  44.707  1.00  0.00    +0.000 H 
ATOM     15  C11 UNL A   1       1.325   8.208  42.971  1.00  0.00    +0.000 C 
ATOM    112  H17 UNL A   1       2.714   8.348  44.621  1.00  0.00    +0.000 H 
ATOM    118  H23 UNL A   1       1.505   8.417  40.909  1.00  0.00    +0.000 H 
ATOM     24  C18 UNL A   1       1.441   9.117  41.715  1.00  0.00    +0.000 C 
ATOM     32  O4  UNL A   1       2.585   9.972  41.906  1.00  0.00    +0.000 O 
BRANCH   15   16
ATOM    113  H18 UNL A   1      -0.238   8.837  44.031  1.00  0.00    +0.000 H 
ATOM     16  O3  UNL A   1      -0.057   8.138  43.382  1.00  0.00    +0.000 O 
ENDBRANCH   15   16
BRANCH   15   17
ATOM     17  C12 UNL A   1       1.819   6.746  42.970  1.00  0.00    +0.000 C 
ATOM     18  C13 UNL A   1       1.931   6.143  44.257  1.00  0.00    +0.000 C 
ATOM     19  C14 UNL A   1       2.320   4.816  44.445  1.00  0.00    +0.000 C 
ATOM    114  H19 UNL A   1       1.716   6.715  45.089  1.00  0.00    +0.000 H 
ATOM     21  C16 UNL A   1       2.538   4.585  42.073  1.00  0.00    +0.000 C 
ATOM     22  C17 UNL A   1       2.190   5.937  41.880  1.00  0.00    +0.000 C 
ATOM     23 Cl1  UNL A   1       2.357   6.472  40.248  1.00  0.00    +0.000 Cl
ATOM    115  H20 UNL A   1       2.396   4.427  45.397  1.00  0.00    +0.000 H 
ATOM     20  C15 UNL A   1       2.599   4.025  43.345  1.00  0.00    +0.000 C 
ATOM    117  H22 UNL A   1       2.755   3.998  41.253  1.00  0.00    +0.000 H 
ATOM    116  H21 UNL A   1       2.850   3.030  43.466  1.00  0.00    +0.000 H 
ENDBRANCH   15   17
BRANCH   24   25
ATOM    122  H27 UNL A   1      -2.397  10.103  39.226  1.00  0.00    +0.000 H 
ATOM    121  H26 UNL A   1      -2.536  12.368  40.080  1.00  0.00    +0.000 H 
ATOM    119  H24 UNL A   1       0.775  11.627  42.548  1.00  0.00    +0.000 H 
ATOM    120  H25 UNL A   1      -0.961  13.112  41.765  1.00  0.00    +0.000 H 
ATOM     25  C19 UNL A   1       0.260   9.997  41.307  1.00  0.00    +0.000 C 
ATOM     26  C20 UNL A   1       0.118  11.298  41.823  1.00  0.00    +0.000 C 
ATOM     27  C21 UNL A   1      -0.892  12.157  41.379  1.00  0.00    +0.000 C 
ATOM     28  C22 UNL A   1      -1.801  11.729  40.421  1.00  0.00    +0.000 C 
ATOM     29  C23 UNL A   1      -1.712  10.433  39.923  1.00  0.00    +0.000 C 
ATOM     30  C24 UNL A   1      -0.698   9.571  40.363  1.00  0.00    +0.000 C 
ATOM     31 Cl2  UNL A   1      -0.714   7.973  39.694  1.00  0.00    +0.000 Cl
ENDBRANCH   24   25
ENDBRANCH   11   13
ENDBRANCH   10   11
ENDBRANCH    9   10
ENDBRANCH    8    9
ENDBRANCH    7    8
ENDBRANCH    6    7
ENDBRANCH    5    6
ENDBRANCH    4    5
ENDBRANCH    3    4
ENDBRANCH    2    3
ENDBRANCH   33    2
ENDBRANCH   37   36
BRANCH   41   42
ATOM     42  C33 UNL A   1      -2.559   9.567  35.560  1.00  0.00    +0.000 C 
ATOM     43  C34 UNL A   1      -2.820  10.118  34.298  1.00  0.00    +0.000 C 
ATOM     44  F1  UNL A   1      -1.820  10.307  33.424  1.00  0.00    +0.000 F 
ATOM     45  C35 UNL A   1      -4.112  10.487  33.931  1.00  0.00    +0.000 C 
ATOM     46  F2  UNL A   1      -4.336  11.029  32.725  1.00  0.00    +0.000 F 
ATOM     47  C36 UNL A   1      -5.169  10.292  34.809  1.00  0.00    +0.000 C 
ATOM     48  F3  UNL A   1      -6.415  10.629  34.446  1.00  0.00    +0.000 F 
ATOM     49  C37 UNL A   1      -4.933   9.747  36.061  1.00  0.00    +0.000 C 
ATOM     50  F4  UNL A   1      -5.955   9.546  36.906  1.00  0.00    +0.000 F 
ATOM     51  C38 UNL A   1      -3.640   9.398  36.439  1.00  0.00    +0.000 C 
ATOM     52  F5  UNL A   1      -3.444   8.867  37.656  1.00  0.00    +0.000 F 
ENDBRANCH   41   42
BRANCH   58   59
ATOM     65  F8  UNL A   1       0.415  -0.548  34.123  1.00  0.00    +0.000 F 
ATOM     66  C48 UNL A   1       1.159   1.644  33.650  1.00  0.00    +0.000 C 
ATOM     67  F9  UNL A   1       1.465   1.283  32.396  1.00  0.00    +0.000 F 
ATOM     68  C49 UNL A   1       1.393   2.949  34.074  1.00  0.00    +0.000 C 
ATOM     69  F10 UNL A   1       1.935   3.822  33.211  1.00  0.00    +0.000 F 
ATOM     59  C44 UNL A   1       1.064   3.353  35.375  1.00  0.00    +0.000 C 
ATOM     60  C45 UNL A   1       0.496   2.403  36.238  1.00  0.00    +0.000 C 
ATOM     61  F6  UNL A   1       0.184   2.737  37.499  1.00  0.00    +0.000 F 
ATOM     62  C46 UNL A   1       0.291   1.091  35.820  1.00  0.00    +0.000 C 
ATOM     63  F7  UNL A   1      -0.207   0.188  36.675  1.00  0.00    +0.000 F 
ATOM     64  C47 UNL A   1       0.616   0.714  34.525  1.00  0.00    +0.000 C 
ENDBRANCH   58   59
BRANCH   73   74
ATOM     74  C53 UNL A   1       6.464   6.442  38.490  1.00  0.00    +0.000 C 
ATOM     75  C54 UNL A   1       6.573   5.686  39.664  1.00  0.00    +0.000 C 
ATOM     76  F11 UNL A   1       5.477   5.403  40.383  1.00  0.00    +0.000 F 
ATOM     77  C55 UNL A   1       7.815   5.252  40.126  1.00  0.00    +0.000 C 
ATOM     78  F12 UNL A   1       7.897   4.571  41.277  1.00  0.00    +0.000 F 
ATOM     79  C56 UNL A   1       8.965   5.538  39.406  1.00  0.00    +0.000 C 
ATOM     80  F13 UNL A   1      10.157   5.118  39.849  1.00  0.00    +0.000 F 
ATOM     81  C57 UNL A   1       8.878   6.268  38.230  1.00  0.00    +0.000 C 
ATOM     82  F14 UNL A   1       9.985   6.533  37.523  1.00  0.00    +0.000 F 
ATOM     83  C58 UNL A   1       7.642   6.728  37.785  1.00  0.00    +0.000 C 
ATOM     84  F15 UNL A   1       7.589   7.445  36.652  1.00  0.00    +0.000 F 
ENDBRANCH   73   74
TORSDOF 18
ENDMDL
MODEL 5
REMARK VINA RESULT:      -8.2      1.687      2.346
ROOT
ATOM    129  H34 UNL A   1      11.280  52.014   3.691  1.00  0.00    +0.000 H 
ATOM    130  H35 UNL A   1      14.494  52.772   1.165  1.00  0.00    +0.000 H 
ATOM    131  H36 UNL A   1      15.415  57.695   1.576  1.00  0.00    +0.000 H 
ATOM    132  H37 UNL A   1      17.307  57.343  -0.112  1.00  0.00    +0.000 H 
ATOM    133  H38 UNL A   1      15.464  47.455  -0.279  1.00  0.00    +0.000 H 
ATOM    134  H39 UNL A   1      13.409  47.816   1.207  1.00  0.00    +0.000 H 
ATOM     37  C29 UNL A   1      13.028  50.533   2.001  1.00  0.00    +0.000 C 
ATOM     38  C30 UNL A   1      14.084  49.976   1.090  1.00  0.00    +0.000 C 
ATOM     39  N3  UNL A   1      15.045  50.609   0.463  1.00  0.00    +0.000 N 
ATOM     40  C31 UNL A   1      15.757  49.637  -0.226  1.00  0.00    +0.000 C 
ATOM     41  C32 UNL A   1      16.831  49.799  -1.036  1.00  0.00    +0.000 C 
ATOM     53  C39 UNL A   1      17.432  51.071  -1.345  1.00  0.00    +0.000 C 
ATOM     54  C40 UNL A   1      18.480  51.342  -2.209  1.00  0.00    +0.000 C 
ATOM     55  C41 UNL A   1      18.759  52.711  -2.147  1.00  0.00    +0.000 C 
ATOM     56  C42 UNL A   1      17.857  53.301  -1.278  1.00  0.00    +0.000 C 
ATOM     57  N4  UNL A   1      17.046  52.284  -0.796  1.00  0.00    +0.000 N 
ATOM     58  C43 UNL A   1      17.745  54.688  -0.908  1.00  0.00    +0.000 C 
ATOM     70  C50 UNL A   1      16.793  55.203  -0.093  1.00  0.00    +0.000 C 
ATOM     71  N5  UNL A   1      15.761  54.548   0.562  1.00  0.00    +0.000 N 
ATOM     72  C51 UNL A   1      15.135  55.469   1.253  1.00  0.00    +0.000 C 
ATOM     73  C52 UNL A   1      13.935  55.329   2.146  1.00  0.00    +0.000 C 
ATOM     85  C59 UNL A   1      13.387  54.112   2.314  1.00  0.00    +0.000 C 
ATOM     86  C60 UNL A   1      12.231  53.823   3.154  1.00  0.00    +0.000 C 
ATOM     87  C61 UNL A   1      12.014  52.501   3.151  1.00  0.00    +0.000 C 
ATOM     88  C62 UNL A   1      12.980  51.854   2.259  1.00  0.00    +0.000 C 
ATOM     89  N6  UNL A   1      13.751  52.891   1.801  1.00  0.00    +0.000 N 
ATOM     90  C63 UNL A   1      15.706  56.815   1.120  1.00  0.00    +0.000 C 
ATOM     91  C64 UNL A   1      16.691  56.604   0.260  1.00  0.00    +0.000 C 
ATOM     92  C65 UNL A   1      15.130  48.366   0.072  1.00  0.00    +0.000 C 
ATOM     93  C66 UNL A   1      14.070  48.525   0.855  1.00  0.00    +0.000 C 
ATOM    125  H30 UNL A   1      18.971  50.651  -2.799  1.00  0.00    +0.000 H 
ATOM    126  H31 UNL A   1      19.510  53.198  -2.660  1.00  0.00    +0.000 H 
ATOM    127  H32 UNL A   1      16.305  52.406  -0.159  1.00  0.00    +0.000 H 
ATOM    128  H33 UNL A   1      11.673  54.522   3.668  1.00  0.00    +0.000 H 
ENDROOT
BRANCH   37   36
ATOM     33  C25 UNL A   1      10.217  47.851   3.804  1.00  0.00    +0.000 C 
ATOM     34  C26 UNL A   1      11.347  48.274   4.509  1.00  0.00    +0.000 C 
ATOM     35  C27 UNL A   1      12.202  49.218   3.949  1.00  0.00    +0.000 C 
ATOM     36  C28 UNL A   1      12.006  49.660   2.630  1.00  0.00    +0.000 C 
ATOM    135  H40 UNL A   1      10.765  49.483   0.925  1.00  0.00    +0.000 H 
ATOM    136  H41 UNL A   1       9.184  47.959   1.964  1.00  0.00    +0.000 H 
ATOM    123  H28 UNL A   1      11.547  47.886   5.444  1.00  0.00    +0.000 H 
ATOM    124  H29 UNL A   1      12.984  49.595   4.506  1.00  0.00    +0.000 H 
ATOM     94  C67 UNL A   1      10.908  49.180   1.901  1.00  0.00    +0.000 C 
ATOM     95  C68 UNL A   1      10.005  48.290   2.494  1.00  0.00    +0.000 C 
BRANCH   33    2
ATOM      1  O1  UNL A   1       8.608  46.150   3.694  1.00  0.00    +0.000 O 
ATOM      2  C1  UNL A   1       9.251  46.904   4.411  1.00  0.00    +0.000 C 
BRANCH    2    3
ATOM      3  N1  UNL A   1       9.073  46.887   5.774  1.00  0.00    +0.000 N 
ATOM     96  H1  UNL A   1       9.664  47.484   6.287  1.00  0.00    +0.000 H 
BRANCH    3    4
ATOM     97  H2  UNL A   1       7.870  45.230   6.014  1.00  0.00    +0.000 H 
ATOM     98  H3  UNL A   1       7.277  46.727   6.748  1.00  0.00    +0.000 H 
ATOM      4  C2  UNL A   1       8.132  46.111   6.563  1.00  0.00    +0.000 C 
BRANCH    4    5
ATOM     99  H4  UNL A   1       8.463  44.664   8.067  1.00  0.00    +0.000 H 
ATOM    100  H5  UNL A   1       8.267  46.351   8.633  1.00  0.00    +0.000 H 
ATOM      5  C3  UNL A   1       8.703  45.695   7.909  1.00  0.00    +0.000 C 
BRANCH    5    6
ATOM    102  H7  UNL A   1      10.624  44.878   7.901  1.00  0.00    +0.000 H 
ATOM    101  H6  UNL A   1      10.537  46.580   7.331  1.00  0.00    +0.000 H 
ATOM      6  C4  UNL A   1      10.217  45.855   8.050  1.00  0.00    +0.000 C 
BRANCH    6    7
ATOM    103  H8  UNL A   1      10.128  45.813  10.166  1.00  0.00    +0.000 H 
ATOM      7  C5  UNL A   1      10.722  46.306   9.425  1.00  0.00    +0.000 C 
ATOM    104  H9  UNL A   1      10.636  47.372   9.421  1.00  0.00    +0.000 H 
BRANCH    7    8
ATOM    105  H10 UNL A   1      12.521  45.225   9.109  1.00  0.00    +0.000 H 
ATOM    106  H11 UNL A   1      12.224  45.786  10.789  1.00  0.00    +0.000 H 
ATOM      8  C6  UNL A   1      12.196  46.021   9.746  1.00  0.00    +0.000 C 
BRANCH    8    9
ATOM      9  C7  UNL A   1      13.157  47.193   9.559  1.00  0.00    +0.000 C 
ATOM    107  H12 UNL A   1      13.604  47.422  10.503  1.00  0.00    +0.000 H 
ATOM    108  H13 UNL A   1      12.587  48.015   9.177  1.00  0.00    +0.000 H 
BRANCH    9   10
ATOM     10  N2  UNL A   1      14.207  46.915   8.606  1.00  0.00    +0.000 N 
ATOM    109  H14 UNL A   1      15.069  46.633   8.989  1.00  0.00    +0.000 H 
BRANCH   10   11
ATOM     11  C8  UNL A   1      14.160  46.992   7.246  1.00  0.00    +0.000 C 
ATOM     12  O2  UNL A   1      13.267  46.364   6.673  1.00  0.00    +0.000 O 
BRANCH   11   13
ATOM     13  C9  UNL A   1      15.223  47.826   6.494  1.00  0.00    +0.000 C 
ATOM     14  C10 UNL A   1      14.602  48.965   5.695  1.00  0.00    +0.000 C 
ATOM    110  H15 UNL A   1      15.699  47.144   5.821  1.00  0.00    +0.000 H 
ATOM    111  H16 UNL A   1      13.567  49.069   5.942  1.00  0.00    +0.000 H 
ATOM     15  C11 UNL A   1      15.369  50.231   6.080  1.00  0.00    +0.000 C 
ATOM    112  H17 UNL A   1      14.663  48.779   4.643  1.00  0.00    +0.000 H 
ATOM    118  H23 UNL A   1      17.033  50.343   7.324  1.00  0.00    +0.000 H 
ATOM     24  C18 UNL A   1      16.106  49.812   7.382  1.00  0.00    +0.000 C 
ATOM     32  O4  UNL A   1      16.197  48.374   7.383  1.00  0.00    +0.000 O 
BRANCH   15   16
ATOM    113  H18 UNL A   1      13.973  51.053   7.237  1.00  0.00    +0.000 H 
ATOM     16  O3  UNL A   1      14.400  51.256   6.390  1.00  0.00    +0.000 O 
ENDBRANCH   15   16
BRANCH   15   17
ATOM     17  C12 UNL A   1      16.128  50.755   4.843  1.00  0.00    +0.000 C 
ATOM     18  C13 UNL A   1      15.994  52.152   4.596  1.00  0.00    +0.000 C 
ATOM     19  C14 UNL A   1      16.646  52.806   3.549  1.00  0.00    +0.000 C 
ATOM    114  H19 UNL A   1      15.385  52.706   5.219  1.00  0.00    +0.000 H 
ATOM     21  C16 UNL A   1      17.608  50.715   2.893  1.00  0.00    +0.000 C 
ATOM     22  C17 UNL A   1      16.918  50.043   3.921  1.00  0.00    +0.000 C 
ATOM     23 Cl1  UNL A   1      17.073  48.325   3.855  1.00  0.00    +0.000 Cl
ATOM    115  H20 UNL A   1      16.509  53.818   3.404  1.00  0.00    +0.000 H 
ATOM     20  C15 UNL A   1      17.479  52.089   2.709  1.00  0.00    +0.000 C 
ATOM    117  H22 UNL A   1      18.222  50.178   2.262  1.00  0.00    +0.000 H 
ATOM    116  H21 UNL A   1      17.998  52.565   1.955  1.00  0.00    +0.000 H 
ENDBRANCH   15   17
BRANCH   24   25
ATOM    122  H27 UNL A   1      16.412  50.607  11.984  1.00  0.00    +0.000 H 
ATOM    121  H26 UNL A   1      14.041  51.065  12.202  1.00  0.00    +0.000 H 
ATOM    119  H24 UNL A   1      13.583  50.594   8.058  1.00  0.00    +0.000 H 
ATOM    120  H25 UNL A   1      12.638  51.086  10.226  1.00  0.00    +0.000 H 
ATOM     25  C19 UNL A   1      15.552  50.248   8.739  1.00  0.00    +0.000 C 
ATOM     26  C20 UNL A   1      14.192  50.572   8.891  1.00  0.00    +0.000 C 
ATOM     27  C21 UNL A   1      13.643  50.867  10.143  1.00  0.00    +0.000 C 
ATOM     28  C22 UNL A   1      14.447  50.865  11.275  1.00  0.00    +0.000 C 
ATOM     29  C23 UNL A   1      15.806  50.590  11.150  1.00  0.00    +0.000 C 
ATOM     30  C24 UNL A   1      16.357  50.290   9.896  1.00  0.00    +0.000 C 
ATOM     31 Cl2  UNL A   1      18.065  50.000   9.867  1.00  0.00    +0.000 Cl
ENDBRANCH   24   25
ENDBRANCH   11   13
ENDBRANCH   10   11
ENDBRANCH    9   10
ENDBRANCH    8    9
ENDBRANCH    7    8
ENDBRANCH    6    7
ENDBRANCH    5    6
ENDBRANCH    4    5
ENDBRANCH    3    4
ENDBRANCH    2    3
ENDBRANCH   33    2
ENDBRANCH   37   36
BRANCH   41   42
ATOM     42  C33 UNL A   1      17.445  48.575  -1.649  1.00  0.00    +0.000 C 
ATOM     43  C34 UNL A   1      18.332  47.760  -0.933  1.00  0.00    +0.000 C 
ATOM     44  F1  UNL A   1      18.733  48.116   0.297  1.00  0.00    +0.000 F 
ATOM     45  C35 UNL A   1      18.820  46.577  -1.483  1.00  0.00    +0.000 C 
ATOM     46  F2  UNL A   1      19.681  45.820  -0.788  1.00  0.00    +0.000 F 
ATOM     47  C36 UNL A   1      18.413  46.176  -2.748  1.00  0.00    +0.000 C 
ATOM     48  F3  UNL A   1      18.868  45.026  -3.267  1.00  0.00    +0.000 F 
ATOM     49  C37 UNL A   1      17.535  46.967  -3.473  1.00  0.00    +0.000 C 
ATOM     50  F4  UNL A   1      17.131  46.575  -4.690  1.00  0.00    +0.000 F 
ATOM     51  C38 UNL A   1      17.063  48.160  -2.934  1.00  0.00    +0.000 C 
ATOM     52  F5  UNL A   1      16.210  48.902  -3.658  1.00  0.00    +0.000 F 
ENDBRANCH   41   42
BRANCH   58   59
ATOM     65  F8  UNL A   1      21.500  58.309  -3.072  1.00  0.00    +0.000 F 
ATOM     66  C48 UNL A   1      19.524  57.036  -3.314  1.00  0.00    +0.000 C 
ATOM     67  F9  UNL A   1      19.367  57.495  -4.563  1.00  0.00    +0.000 F 
ATOM     68  C49 UNL A   1      18.590  56.157  -2.774  1.00  0.00    +0.000 C 
ATOM     69  F10 UNL A   1      17.536  55.794  -3.521  1.00  0.00    +0.000 F 
ATOM     59  C44 UNL A   1      18.743  55.651  -1.476  1.00  0.00    +0.000 C 
ATOM     60  C45 UNL A   1      19.865  56.059  -0.737  1.00  0.00    +0.000 C 
ATOM     61  F6  UNL A   1      20.044  55.617   0.517  1.00  0.00    +0.000 F 
ATOM     62  C46 UNL A   1      20.782  56.960  -1.269  1.00  0.00    +0.000 C 
ATOM     63  F7  UNL A   1      21.818  57.374  -0.528  1.00  0.00    +0.000 F 
ATOM     64  C47 UNL A   1      20.615  57.443  -2.559  1.00  0.00    +0.000 C 
ENDBRANCH   58   59
BRANCH   73   74
ATOM     74  C53 UNL A   1      13.366  56.503   2.855  1.00  0.00    +0.000 C 
ATOM     75  C54 UNL A   1      12.351  57.275   2.276  1.00  0.00    +0.000 C 
ATOM     76  F11 UNL A   1      11.892  56.970   1.054  1.00  0.00    +0.000 F 
ATOM     77  C55 UNL A   1      11.833  58.389   2.935  1.00  0.00    +0.000 C 
ATOM     78  F12 UNL A   1      10.896  59.139   2.339  1.00  0.00    +0.000 F 
ATOM     79  C56 UNL A   1      12.297  58.731   4.196  1.00  0.00    +0.000 C 
ATOM     80  F13 UNL A   1      11.795  59.800   4.830  1.00  0.00    +0.000 F 
ATOM     81  C57 UNL A   1      13.287  57.968   4.797  1.00  0.00    +0.000 C 
ATOM     82  F14 UNL A   1      13.726  58.285   6.022  1.00  0.00    +0.000 F 
ATOM     83  C58 UNL A   1      13.827  56.874   4.127  1.00  0.00    +0.000 C 
ATOM     84  F15 UNL A   1      14.794  56.163   4.725  1.00  0.00    +0.000 F 
ENDBRANCH   73   74
TORSDOF 18
ENDMDL
MODEL 6
REMARK VINA RESULT:      -8.1     47.384     52.361
ROOT
ATOM    129  H34 UNL A   1      55.742  19.823   8.222  1.00  0.00    +0.000 H 
ATOM    130  H35 UNL A   1      55.139  21.103  12.131  1.00  0.00    +0.000 H 
ATOM    131  H36 UNL A   1      50.394  22.746  12.310  1.00  0.00    +0.000 H 
ATOM    132  H37 UNL A   1      50.819  23.290  14.775  1.00  0.00    +0.000 H 
ATOM    133  H38 UNL A   1      60.096  19.453  14.134  1.00  0.00    +0.000 H 
ATOM    134  H39 UNL A   1      59.787  19.134  11.611  1.00  0.00    +0.000 H 
ATOM     37  C29 UNL A   1      57.200  19.892  10.666  1.00  0.00    +0.000 C 
ATOM     38  C30 UNL A   1      57.742  20.001  12.062  1.00  0.00    +0.000 C 
ATOM     39  N3  UNL A   1      57.156  20.470  13.136  1.00  0.00    +0.000 N 
ATOM     40  C31 UNL A   1      58.074  20.326  14.167  1.00  0.00    +0.000 C 
ATOM     41  C32 UNL A   1      57.941  20.684  15.466  1.00  0.00    +0.000 C 
ATOM     53  C39 UNL A   1      56.772  21.319  16.020  1.00  0.00    +0.000 C 
ATOM     54  C40 UNL A   1      56.570  21.780  17.310  1.00  0.00    +0.000 C 
ATOM     55  C41 UNL A   1      55.264  22.271  17.402  1.00  0.00    +0.000 C 
ATOM     56  C42 UNL A   1      54.666  22.157  16.159  1.00  0.00    +0.000 C 
ATOM     57  N4  UNL A   1      55.603  21.575  15.319  1.00  0.00    +0.000 N 
ATOM     58  C43 UNL A   1      53.335  22.544  15.766  1.00  0.00    +0.000 C 
ATOM     70  C50 UNL A   1      52.838  22.455  14.509  1.00  0.00    +0.000 C 
ATOM     71  N5  UNL A   1      53.452  21.978  13.361  1.00  0.00    +0.000 N 
ATOM     72  C51 UNL A   1      52.554  22.067  12.411  1.00  0.00    +0.000 C 
ATOM     73  C52 UNL A   1      52.673  21.696  10.960  1.00  0.00    +0.000 C 
ATOM     85  C59 UNL A   1      53.832  21.184  10.511  1.00  0.00    +0.000 C 
ATOM     86  C60 UNL A   1      54.089  20.771   9.137  1.00  0.00    +0.000 C 
ATOM     87  C61 UNL A   1      55.314  20.232   9.069  1.00  0.00    +0.000 C 
ATOM     88  C62 UNL A   1      55.953  20.315  10.385  1.00  0.00    +0.000 C 
ATOM     89  N6  UNL A   1      55.000  20.903  11.177  1.00  0.00    +0.000 N 
ATOM     90  C63 UNL A   1      51.261  22.603  12.852  1.00  0.00    +0.000 C 
ATOM     91  C64 UNL A   1      51.499  22.859  14.130  1.00  0.00    +0.000 C 
ATOM     92  C65 UNL A   1      59.255  19.710  13.596  1.00  0.00    +0.000 C 
ATOM     93  C66 UNL A   1      59.112  19.519  12.290  1.00  0.00    +0.000 C 
ATOM    125  H30 UNL A   1      57.266  21.764  18.073  1.00  0.00    +0.000 H 
ATOM    126  H31 UNL A   1      54.821  22.653  18.253  1.00  0.00    +0.000 H 
ATOM    127  H32 UNL A   1      55.460  21.373  14.366  1.00  0.00    +0.000 H 
ATOM    128  H33 UNL A   1      53.434  20.875   8.347  1.00  0.00    +0.000 H 
ENDROOT
BRANCH   37   36
ATOM     33  C25 UNL A   1      59.380  18.293   7.344  1.00  0.00    +0.000 C 
ATOM     34  C26 UNL A   1      59.048  19.649   7.387  1.00  0.00    +0.000 C 
ATOM     35  C27 UNL A   1      58.423  20.176   8.514  1.00  0.00    +0.000 C 
ATOM     36  C28 UNL A   1      58.014  19.331   9.559  1.00  0.00    +0.000 C 
ATOM    135  H40 UNL A   1      57.978  17.325  10.233  1.00  0.00    +0.000 H 
ATOM    136  H41 UNL A   1      59.213  16.436   8.339  1.00  0.00    +0.000 H 
ATOM    123  H28 UNL A   1      59.265  20.261   6.584  1.00  0.00    +0.000 H 
ATOM    124  H29 UNL A   1      58.260  21.192   8.582  1.00  0.00    +0.000 H 
ATOM     94  C67 UNL A   1      58.291  17.958   9.480  1.00  0.00    +0.000 C 
ATOM     95  C68 UNL A   1      58.989  17.443   8.382  1.00  0.00    +0.000 C 
BRANCH   33    2
ATOM      1  O1  UNL A   1      61.287  18.023   6.007  1.00  0.00    +0.000 O 
ATOM      2  C1  UNL A   1      60.114  17.726   6.187  1.00  0.00    +0.000 C 
BRANCH    2    3
ATOM      3  N1  UNL A   1      59.469  16.881   5.314  1.00  0.00    +0.000 N 
ATOM     96  H1  UNL A   1      58.504  17.038   5.208  1.00  0.00    +0.000 H 
BRANCH    3    4
ATOM     97  H2  UNL A   1      60.912  15.443   5.000  1.00  0.00    +0.000 H 
ATOM     98  H3  UNL A   1      60.209  16.163   3.544  1.00  0.00    +0.000 H 
ATOM      4  C2  UNL A   1      60.017  15.789   4.528  1.00  0.00    +0.000 C 
BRANCH    4    5
ATOM     99  H4  UNL A   1      58.336  14.693   5.192  1.00  0.00    +0.000 H 
ATOM    100  H5  UNL A   1      59.648  13.735   4.440  1.00  0.00    +0.000 H 
ATOM      5  C3  UNL A   1      59.050  14.622   4.399  1.00  0.00    +0.000 C 
BRANCH    5    6
ATOM    102  H7  UNL A   1      57.856  15.527   2.945  1.00  0.00    +0.000 H 
ATOM    101  H6  UNL A   1      58.977  14.273   2.312  1.00  0.00    +0.000 H 
ATOM      6  C4  UNL A   1      58.285  14.556   3.077  1.00  0.00    +0.000 C 
BRANCH    6    7
ATOM    103  H8  UNL A   1      57.033  13.110   3.989  1.00  0.00    +0.000 H 
ATOM      7  C5  UNL A   1      57.107  13.576   3.028  1.00  0.00    +0.000 C 
ATOM    104  H9  UNL A   1      57.330  12.908   2.223  1.00  0.00    +0.000 H 
BRANCH    7    8
ATOM    105  H10 UNL A   1      55.019  13.744   3.370  1.00  0.00    +0.000 H 
ATOM    106  H11 UNL A   1      55.555  13.926   1.666  1.00  0.00    +0.000 H 
ATOM      8  C6  UNL A   1      55.731  14.168   2.693  1.00  0.00    +0.000 C 
BRANCH    8    9
ATOM      9  C7  UNL A   1      55.619  15.688   2.786  1.00  0.00    +0.000 C 
ATOM    107  H12 UNL A   1      54.969  16.031   2.008  1.00  0.00    +0.000 H 
ATOM    108  H13 UNL A   1      56.607  16.088   2.686  1.00  0.00    +0.000 H 
BRANCH    9   10
ATOM     10  N2  UNL A   1      55.096  16.138   4.055  1.00  0.00    +0.000 N 
ATOM    109  H14 UNL A   1      55.054  15.459   4.767  1.00  0.00    +0.000 H 
BRANCH   10   11
ATOM     11  C8  UNL A   1      54.653  17.382   4.397  1.00  0.00    +0.000 C 
ATOM     12  O2  UNL A   1      55.503  18.258   4.573  1.00  0.00    +0.000 O 
BRANCH   11   13
ATOM     13  C9  UNL A   1      53.137  17.628   4.570  1.00  0.00    +0.000 C 
ATOM     14  C10 UNL A   1      52.337  16.332   4.548  1.00  0.00    +0.000 C 
ATOM    110  H15 UNL A   1      52.847  18.233   3.735  1.00  0.00    +0.000 H 
ATOM    111  H16 UNL A   1      52.996  15.490   4.586  1.00  0.00    +0.000 H 
ATOM     15  C11 UNL A   1      51.440  16.358   5.787  1.00  0.00    +0.000 C 
ATOM    112  H17 UNL A   1      51.759  16.248   3.652  1.00  0.00    +0.000 H 
ATOM    118  H23 UNL A   1      51.237  17.926   7.138  1.00  0.00    +0.000 H 
ATOM     24  C18 UNL A   1      52.079  17.473   6.660  1.00  0.00    +0.000 C 
ATOM     32  O4  UNL A   1      52.845  18.322   5.783  1.00  0.00    +0.000 O 
BRANCH   15   16
ATOM    113  H18 UNL A   1      50.934  15.032   7.183  1.00  0.00    +0.000 H 
ATOM     16  O3  UNL A   1      51.578  15.088   6.459  1.00  0.00    +0.000 O 
ENDBRANCH   15   16
BRANCH   15   17
ATOM     17  C12 UNL A   1      49.964  16.417   5.337  1.00  0.00    +0.000 C 
ATOM     18  C13 UNL A   1      49.392  15.165   4.968  1.00  0.00    +0.000 C 
ATOM     19  C14 UNL A   1      48.060  15.022   4.579  1.00  0.00    +0.000 C 
ATOM    114  H19 UNL A   1      49.992  14.325   4.988  1.00  0.00    +0.000 H 
ATOM     21  C16 UNL A   1      47.760  17.377   4.876  1.00  0.00    +0.000 C 
ATOM     22  C17 UNL A   1      49.116  17.534   5.227  1.00  0.00    +0.000 C 
ATOM     23 Cl1  UNL A   1      49.604  19.181   5.399  1.00  0.00    +0.000 Cl
ATOM    115  H20 UNL A   1      47.693  14.095   4.310  1.00  0.00    +0.000 H 
ATOM     20  C15 UNL A   1      47.232  16.129   4.559  1.00  0.00    +0.000 C 
ATOM    117  H22 UNL A   1      47.146  18.206   4.853  1.00  0.00    +0.000 H 
ATOM    116  H21 UNL A   1      46.234  16.033   4.311  1.00  0.00    +0.000 H 
ENDBRANCH   15   17
BRANCH   24   25
ATOM    122  H27 UNL A   1      52.899  16.499  11.164  1.00  0.00    +0.000 H 
ATOM    121  H26 UNL A   1      55.302  16.422  10.852  1.00  0.00    +0.000 H 
ATOM    119  H24 UNL A   1      54.777  17.086   6.743  1.00  0.00    +0.000 H 
ATOM    120  H25 UNL A   1      56.232  16.687   8.630  1.00  0.00    +0.000 H 
ATOM     25  C19 UNL A   1      52.973  17.091   7.840  1.00  0.00    +0.000 C 
ATOM     26  C20 UNL A   1      54.366  16.984   7.684  1.00  0.00    +0.000 C 
ATOM     27  C21 UNL A   1      55.210  16.744   8.773  1.00  0.00    +0.000 C 
ATOM     28  C22 UNL A   1      54.679  16.583  10.045  1.00  0.00    +0.000 C 
ATOM     29  C23 UNL A   1      53.300  16.639  10.224  1.00  0.00    +0.000 C 
ATOM     30  C24 UNL A   1      52.452  16.884   9.135  1.00  0.00    +0.000 C 
ATOM     31 Cl2  UNL A   1      50.755  16.898   9.481  1.00  0.00    +0.000 Cl
ENDBRANCH   24   25
ENDBRANCH   11   13
ENDBRANCH   10   11
ENDBRANCH    9   10
ENDBRANCH    8    9
ENDBRANCH    7    8
ENDBRANCH    6    7
ENDBRANCH    5    6
ENDBRANCH    4    5
ENDBRANCH    3    4
ENDBRANCH    2    3
ENDBRANCH   33    2
ENDBRANCH   37   36
BRANCH   41   42
ATOM     42  C33 UNL A   1      59.079  20.396  16.400  1.00  0.00    +0.000 C 
ATOM     43  C34 UNL A   1      60.099  21.330  16.628  1.00  0.00    +0.000 C 
ATOM     44  F1  UNL A   1      60.132  22.476  15.930  1.00  0.00    +0.000 F 
ATOM     45  C35 UNL A   1      61.096  21.087  17.569  1.00  0.00    +0.000 C 
ATOM     46  F2  UNL A   1      62.072  21.986  17.758  1.00  0.00    +0.000 F 
ATOM     47  C36 UNL A   1      61.081  19.916  18.314  1.00  0.00    +0.000 C 
ATOM     48  F3  UNL A   1      62.031  19.693  19.234  1.00  0.00    +0.000 F 
ATOM     49  C37 UNL A   1      60.081  18.979  18.107  1.00  0.00    +0.000 C 
ATOM     50  F4  UNL A   1      60.057  17.854  18.835  1.00  0.00    +0.000 F 
ATOM     51  C38 UNL A   1      59.095  19.211  17.152  1.00  0.00    +0.000 C 
ATOM     52  F5  UNL A   1      58.137  18.287  16.977  1.00  0.00    +0.000 F 
ENDBRANCH   41   42
BRANCH   58   59
ATOM     65  F8  UNL A   1      49.921  24.681  19.724  1.00  0.00    +0.000 F 
ATOM     66  C48 UNL A   1      51.447  25.018  17.952  1.00  0.00    +0.000 C 
ATOM     67  F9  UNL A   1      51.331  26.346  18.087  1.00  0.00    +0.000 F 
ATOM     68  C49 UNL A   1      52.275  24.490  16.965  1.00  0.00    +0.000 C 
ATOM     69  F10 UNL A   1      52.937  25.333  16.157  1.00  0.00    +0.000 F 
ATOM     59  C44 UNL A   1      52.425  23.105  16.816  1.00  0.00    +0.000 C 
ATOM     60  C45 UNL A   1      51.715  22.266  17.689  1.00  0.00    +0.000 C 
ATOM     61  F6  UNL A   1      51.811  20.933  17.572  1.00  0.00    +0.000 F 
ATOM     62  C46 UNL A   1      50.866  22.796  18.656  1.00  0.00    +0.000 C 
ATOM     63  F7  UNL A   1      50.159  21.977  19.446  1.00  0.00    +0.000 F 
ATOM     64  C47 UNL A   1      50.738  24.171  18.791  1.00  0.00    +0.000 C 
ENDBRANCH   58   59
BRANCH   73   74
ATOM     74  C53 UNL A   1      51.528  21.867  10.029  1.00  0.00    +0.000 C 
ATOM     75  C54 UNL A   1      51.248  23.111   9.449  1.00  0.00    +0.000 C 
ATOM     76  F11 UNL A   1      52.008  24.175   9.746  1.00  0.00    +0.000 F 
ATOM     77  C55 UNL A   1      50.161  23.274   8.592  1.00  0.00    +0.000 C 
ATOM     78  F12 UNL A   1      49.887  24.484   8.087  1.00  0.00    +0.000 F 
ATOM     79  C56 UNL A   1      49.355  22.191   8.274  1.00  0.00    +0.000 C 
ATOM     80  F13 UNL A   1      48.312  22.349   7.447  1.00  0.00    +0.000 F 
ATOM     81  C57 UNL A   1      49.626  20.946   8.822  1.00  0.00    +0.000 C 
ATOM     82  F14 UNL A   1      48.859  19.894   8.506  1.00  0.00    +0.000 F 
ATOM     83  C58 UNL A   1      50.692  20.789   9.702  1.00  0.00    +0.000 C 
ATOM     84  F15 UNL A   1      50.923  19.577  10.229  1.00  0.00    +0.000 F 
ENDBRANCH   73   74
TORSDOF 18
ENDMDL
MODEL 7
REMARK VINA RESULT:      -7.9     24.620     30.634
ROOT
ATOM    129  H34 UNL A   1      15.690  24.145   4.026  1.00  0.00    +0.000 H 
ATOM    130  H35 UNL A   1      17.700  20.728   5.277  1.00  0.00    +0.000 H 
ATOM    131  H36 UNL A   1      22.094  20.764   2.841  1.00  0.00    +0.000 H 
ATOM    132  H37 UNL A   1      22.628  18.572   4.049  1.00  0.00    +0.000 H 
ATOM    133  H38 UNL A   1      13.946  19.120   9.101  1.00  0.00    +0.000 H 
ATOM    134  H39 UNL A   1      13.276  21.173   7.722  1.00  0.00    +0.000 H 
ATOM     37  C29 UNL A   1      15.277  22.010   5.864  1.00  0.00    +0.000 C 
ATOM     38  C30 UNL A   1      15.307  20.822   6.780  1.00  0.00    +0.000 C 
ATOM     39  N3  UNL A   1      16.244  19.916   6.919  1.00  0.00    +0.000 N 
ATOM     40  C31 UNL A   1      15.795  19.051   7.907  1.00  0.00    +0.000 C 
ATOM     41  C32 UNL A   1      16.404  17.942   8.393  1.00  0.00    +0.000 C 
ATOM     53  C39 UNL A   1      17.674  17.443   7.930  1.00  0.00    +0.000 C 
ATOM     54  C40 UNL A   1      18.339  16.290   8.314  1.00  0.00    +0.000 C 
ATOM     55  C41 UNL A   1      19.564  16.244   7.640  1.00  0.00    +0.000 C 
ATOM     56  C42 UNL A   1      19.644  17.345   6.804  1.00  0.00    +0.000 C 
ATOM     57  N4  UNL A   1      18.476  18.070   6.989  1.00  0.00    +0.000 N 
ATOM     58  C43 UNL A   1      20.709  17.712   5.907  1.00  0.00    +0.000 C 
ATOM     70  C50 UNL A   1      20.689  18.779   5.072  1.00  0.00    +0.000 C 
ATOM     71  N5  UNL A   1      19.699  19.734   4.901  1.00  0.00    +0.000 N 
ATOM     72  C51 UNL A   1      20.161  20.574   4.009  1.00  0.00    +0.000 C 
ATOM     73  C52 UNL A   1      19.509  21.801   3.438  1.00  0.00    +0.000 C 
ATOM     85  C59 UNL A   1      18.284  22.148   3.870  1.00  0.00    +0.000 C 
ATOM     86  C60 UNL A   1      17.534  23.313   3.415  1.00  0.00    +0.000 C 
ATOM     87  C61 UNL A   1      16.395  23.396   4.116  1.00  0.00    +0.000 C 
ATOM     88  C62 UNL A   1      16.307  22.254   5.030  1.00  0.00    +0.000 C 
ATOM     89  N6  UNL A   1      17.470  21.563   4.808  1.00  0.00    +0.000 N 
ATOM     90  C63 UNL A   1      21.507  20.252   3.517  1.00  0.00    +0.000 C 
ATOM     91  C64 UNL A   1      21.767  19.128   4.169  1.00  0.00    +0.000 C 
ATOM     92  C65 UNL A   1      14.508  19.547   8.349  1.00  0.00    +0.000 C 
ATOM     93  C66 UNL A   1      14.145  20.621   7.659  1.00  0.00    +0.000 C 
ATOM    125  H30 UNL A   1      17.989  15.584   8.982  1.00  0.00    +0.000 H 
ATOM    126  H31 UNL A   1      20.286  15.514   7.749  1.00  0.00    +0.000 H 
ATOM    127  H32 UNL A   1      18.250  18.906   6.521  1.00  0.00    +0.000 H 
ATOM    128  H33 UNL A   1      17.833  23.968   2.675  1.00  0.00    +0.000 H 
ENDROOT
BRANCH   37   36
ATOM     33  C25 UNL A   1      11.857  24.588   5.952  1.00  0.00    +0.000 C 
ATOM     34  C26 UNL A   1      12.830  24.666   6.951  1.00  0.00    +0.000 C 
ATOM     35  C27 UNL A   1      13.982  23.891   6.862  1.00  0.00    +0.000 C 
ATOM     36  C28 UNL A   1      14.120  22.940   5.836  1.00  0.00    +0.000 C 
ATOM    135  H40 UNL A   1      13.191  22.110   4.126  1.00  0.00    +0.000 H 
ATOM    136  H41 UNL A   1      11.256  23.578   4.195  1.00  0.00    +0.000 H 
ATOM    123  H28 UNL A   1      12.694  25.298   7.756  1.00  0.00    +0.000 H 
ATOM    124  H29 UNL A   1      14.738  24.015   7.551  1.00  0.00    +0.000 H 
ATOM     94  C67 UNL A   1      13.109  22.818   4.873  1.00  0.00    +0.000 C 
ATOM     95  C68 UNL A   1      11.987  23.653   4.920  1.00  0.00    +0.000 C 
BRANCH   33    2
ATOM      1  O1  UNL A   1      10.153  25.756   7.061  1.00  0.00    +0.000 O 
ATOM      2  C1  UNL A   1      10.658  25.460   5.987  1.00  0.00    +0.000 C 
BRANCH    2    3
ATOM      3  N1  UNL A   1      10.111  25.920   4.812  1.00  0.00    +0.000 N 
ATOM     96  H1  UNL A   1       9.624  25.250   4.280  1.00  0.00    +0.000 H 
BRANCH    3    4
ATOM     97  H2  UNL A   1      10.651  27.905   4.937  1.00  0.00    +0.000 H 
ATOM     98  H3  UNL A   1       9.144  27.568   4.074  1.00  0.00    +0.000 H 
ATOM      4  C2  UNL A   1      10.153  27.257   4.247  1.00  0.00    +0.000 C 
BRANCH    4    5
ATOM     99  H4  UNL A   1      11.928  27.444   3.115  1.00  0.00    +0.000 H 
ATOM    100  H5  UNL A   1      10.446  28.110   2.363  1.00  0.00    +0.000 H 
ATOM      5  C3  UNL A   1      10.886  27.306   2.916  1.00  0.00    +0.000 C 
BRANCH    5    6
ATOM    102  H7  UNL A   1      10.367  25.295   2.697  1.00  0.00    +0.000 H 
ATOM    101  H6  UNL A   1      10.071  26.303   1.239  1.00  0.00    +0.000 H 
ATOM      6  C4  UNL A   1      10.732  26.059   2.044  1.00  0.00    +0.000 C 
BRANCH    6    7
ATOM    103  H8  UNL A   1      12.115  24.481   1.754  1.00  0.00    +0.000 H 
ATOM      7  C5  UNL A   1      12.022  25.498   1.436  1.00  0.00    +0.000 C 
ATOM    104  H9  UNL A   1      12.800  26.147   1.781  1.00  0.00    +0.000 H 
BRANCH    7    8
ATOM    105  H10 UNL A   1      11.184  25.834  -0.484  1.00  0.00    +0.000 H 
ATOM    106  H11 UNL A   1      12.409  24.525  -0.378  1.00  0.00    +0.000 H 
ATOM      8  C6  UNL A   1      12.129  25.518  -0.095  1.00  0.00    +0.000 C 
BRANCH    8    9
ATOM      9  C7  UNL A   1      13.205  26.433  -0.676  1.00  0.00    +0.000 C 
ATOM    107  H12 UNL A   1      13.289  26.237  -1.725  1.00  0.00    +0.000 H 
ATOM    108  H13 UNL A   1      14.117  26.224  -0.156  1.00  0.00    +0.000 H 
BRANCH    9   10
ATOM     10  N2  UNL A   1      12.913  27.835  -0.491  1.00  0.00    +0.000 N 
ATOM    109  H14 UNL A   1      12.785  28.127   0.441  1.00  0.00    +0.000 H 
BRANCH   10   11
ATOM     11  C8  UNL A   1      12.794  28.809  -1.438  1.00  0.00    +0.000 C 
ATOM     12  O2  UNL A   1      13.649  28.846  -2.324  1.00  0.00    +0.000 O 
BRANCH   11   13
ATOM     13  C9  UNL A   1      11.629  29.821  -1.344  1.00  0.00    +0.000 C 
ATOM     14  C10 UNL A   1      10.850  29.684  -0.043  1.00  0.00    +0.000 C 
ATOM    110  H15 UNL A   1      10.982  29.591  -2.166  1.00  0.00    +0.000 H 
ATOM    111  H16 UNL A   1      11.363  29.028   0.628  1.00  0.00    +0.000 H 
ATOM     15  C11 UNL A   1      10.761  31.089   0.557  1.00  0.00    +0.000 C 
ATOM    112  H17 UNL A   1       9.878  29.273  -0.214  1.00  0.00    +0.000 H 
ATOM    118  H23 UNL A   1      11.428  32.855  -0.317  1.00  0.00    +0.000 H 
ATOM     24  C18 UNL A   1      11.848  31.875  -0.228  1.00  0.00    +0.000 C 
ATOM     32  O4  UNL A   1      12.084  31.170  -1.462  1.00  0.00    +0.000 O 
BRANCH   15   16
ATOM    113  H18 UNL A   1      11.023  30.091   2.259  1.00  0.00    +0.000 H 
ATOM     16  O3  UNL A   1      11.145  31.002   1.946  1.00  0.00    +0.000 O 
ENDBRANCH   15   16
BRANCH   15   17
ATOM     17  C12 UNL A   1       9.283  31.535   0.575  1.00  0.00    +0.000 C 
ATOM     18  C13 UNL A   1       9.026  32.805  -0.020  1.00  0.00    +0.000 C 
ATOM     19  C14 UNL A   1       7.745  33.347  -0.133  1.00  0.00    +0.000 C 
ATOM    114  H19 UNL A   1       9.824  33.349  -0.383  1.00  0.00    +0.000 H 
ATOM     21  C16 UNL A   1       6.868  31.403   0.954  1.00  0.00    +0.000 C 
ATOM     22  C17 UNL A   1       8.164  30.871   1.110  1.00  0.00    +0.000 C 
ATOM     23 Cl1  UNL A   1       8.216  29.436   2.068  1.00  0.00    +0.000 Cl
ATOM    115  H20 UNL A   1       7.609  34.275  -0.562  1.00  0.00    +0.000 H 
ATOM     20  C15 UNL A   1       6.657  32.630   0.332  1.00  0.00    +0.000 C 
ATOM    117  H22 UNL A   1       6.059  30.871   1.309  1.00  0.00    +0.000 H 
ATOM    116  H21 UNL A   1       5.700  33.000   0.221  1.00  0.00    +0.000 H 
ENDBRANCH   15   17
BRANCH   24   25
ATOM    122  H27 UNL A   1      14.817  34.342   2.418  1.00  0.00    +0.000 H 
ATOM    121  H26 UNL A   1      16.718  32.966   1.810  1.00  0.00    +0.000 H 
ATOM    119  H24 UNL A   1      14.192  30.501  -0.459  1.00  0.00    +0.000 H 
ATOM    120  H25 UNL A   1      16.391  31.028   0.393  1.00  0.00    +0.000 H 
ATOM     25  C19 UNL A   1      13.204  32.146   0.425  1.00  0.00    +0.000 C 
ATOM     26  C20 UNL A   1      14.317  31.336   0.136  1.00  0.00    +0.000 C 
ATOM     27  C21 UNL A   1      15.589  31.632   0.635  1.00  0.00    +0.000 C 
ATOM     28  C22 UNL A   1      15.777  32.736   1.455  1.00  0.00    +0.000 C 
ATOM     29  C23 UNL A   1      14.686  33.532   1.793  1.00  0.00    +0.000 C 
ATOM     30  C24 UNL A   1      13.411  33.240   1.290  1.00  0.00    +0.000 C 
ATOM     31 Cl2  UNL A   1      12.131  34.284   1.811  1.00  0.00    +0.000 Cl
ENDBRANCH   24   25
ENDBRANCH   11   13
ENDBRANCH   10   11
ENDBRANCH    9   10
ENDBRANCH    8    9
ENDBRANCH    7    8
ENDBRANCH    6    7
ENDBRANCH    5    6
ENDBRANCH    4    5
ENDBRANCH    3    4
ENDBRANCH    2    3
ENDBRANCH   33    2
ENDBRANCH   37   36
BRANCH   41   42
ATOM     42  C33 UNL A   1      15.720  17.182   9.491  1.00  0.00    +0.000 C 
ATOM     43  C34 UNL A   1      15.780  17.605  10.826  1.00  0.00    +0.000 C 
ATOM     44  F1  UNL A   1      16.543  18.655  11.168  1.00  0.00    +0.000 F 
ATOM     45  C35 UNL A   1      15.063  16.945  11.820  1.00  0.00    +0.000 C 
ATOM     46  F2  UNL A   1      15.148  17.355  13.093  1.00  0.00    +0.000 F 
ATOM     47  C36 UNL A   1      14.256  15.863  11.495  1.00  0.00    +0.000 C 
ATOM     48  F3  UNL A   1      13.549  15.241  12.449  1.00  0.00    +0.000 F 
ATOM     49  C37 UNL A   1      14.180  15.429  10.180  1.00  0.00    +0.000 C 
ATOM     50  F4  UNL A   1      13.391  14.393   9.862  1.00  0.00    +0.000 F 
ATOM     51  C38 UNL A   1      14.913  16.075   9.189  1.00  0.00    +0.000 C 
ATOM     52  F5  UNL A   1      14.816  15.635   7.925  1.00  0.00    +0.000 F 
ENDBRANCH   41   42
BRANCH   58   59
ATOM     65  F8  UNL A   1      25.304  14.433   5.769  1.00  0.00    +0.000 F 
ATOM     66  C48 UNL A   1      23.153  14.962   4.947  1.00  0.00    +0.000 C 
ATOM     67  F9  UNL A   1      23.217  13.937   4.085  1.00  0.00    +0.000 F 
ATOM     68  C49 UNL A   1      22.028  15.781   4.969  1.00  0.00    +0.000 C 
ATOM     69  F10 UNL A   1      21.027  15.530   4.111  1.00  0.00    +0.000 F 
ATOM     59  C44 UNL A   1      21.932  16.848   5.873  1.00  0.00    +0.000 C 
ATOM     60  C45 UNL A   1      23.004  17.066   6.753  1.00  0.00    +0.000 C 
ATOM     61  F6  UNL A   1      22.966  18.087   7.622  1.00  0.00    +0.000 F 
ATOM     62  C46 UNL A   1      24.139  16.263   6.708  1.00  0.00    +0.000 C 
ATOM     63  F7  UNL A   1      25.172  16.520   7.522  1.00  0.00    +0.000 F 
ATOM     64  C47 UNL A   1      24.211  15.208   5.810  1.00  0.00    +0.000 C 
ENDBRANCH   58   59
BRANCH   73   74
ATOM     74  C53 UNL A   1      20.203  22.638   2.426  1.00  0.00    +0.000 C 
ATOM     75  C54 UNL A   1      21.092  23.649   2.812  1.00  0.00    +0.000 C 
ATOM     76  F11 UNL A   1      21.315  23.886   4.113  1.00  0.00    +0.000 F 
ATOM     77  C55 UNL A   1      21.727  24.448   1.861  1.00  0.00    +0.000 C 
ATOM     78  F12 UNL A   1      22.536  25.439   2.257  1.00  0.00    +0.000 F 
ATOM     79  C56 UNL A   1      21.508  24.229   0.509  1.00  0.00    +0.000 C 
ATOM     80  F13 UNL A   1      22.121  24.995  -0.403  1.00  0.00    +0.000 F 
ATOM     81  C57 UNL A   1      20.646  23.221   0.105  1.00  0.00    +0.000 C 
ATOM     82  F14 UNL A   1      20.445  22.995  -1.200  1.00  0.00    +0.000 F 
ATOM     83  C58 UNL A   1      19.989  22.443   1.054  1.00  0.00    +0.000 C 
ATOM     84  F15 UNL A   1      19.150  21.484   0.635  1.00  0.00    +0.000 F 
ENDBRANCH   73   74
TORSDOF 18
ENDMDL
MODEL 8
REMARK VINA RESULT:      -7.8      4.048      9.660
ROOT
ATOM    129  H34 UNL A   1      17.338  51.086  -1.705  1.00  0.00    +0.000 H 
ATOM    130  H35 UNL A   1      16.107  52.507   2.003  1.00  0.00    +0.000 H 
ATOM    131  H36 UNL A   1      15.624  57.479   1.463  1.00  0.00    +0.000 H 
ATOM    132  H37 UNL A   1      14.926  57.541   3.925  1.00  0.00    +0.000 H 
ATOM    133  H38 UNL A   1      15.532  47.514   4.462  1.00  0.00    +0.000 H 
ATOM    134  H39 UNL A   1      16.477  47.447   2.081  1.00  0.00    +0.000 H 
ATOM     37  C29 UNL A   1      16.644  50.013   0.839  1.00  0.00    +0.000 C 
ATOM     38  C30 UNL A   1      16.200  49.691   2.236  1.00  0.00    +0.000 C 
ATOM     39  N3  UNL A   1      15.805  50.508   3.182  1.00  0.00    +0.000 N 
ATOM     40  C31 UNL A   1      15.485  49.708   4.270  1.00  0.00    +0.000 C 
ATOM     41  C32 UNL A   1      15.046  50.090   5.493  1.00  0.00    +0.000 C 
ATOM     53  C39 UNL A   1      14.844  51.459   5.893  1.00  0.00    +0.000 C 
ATOM     54  C40 UNL A   1      14.466  51.948   7.133  1.00  0.00    +0.000 C 
ATOM     55  C41 UNL A   1      14.342  53.338   7.038  1.00  0.00    +0.000 C 
ATOM     56  C42 UNL A   1      14.684  53.720   5.752  1.00  0.00    +0.000 C 
ATOM     57  N4  UNL A   1      14.993  52.558   5.061  1.00  0.00    +0.000 N 
ATOM     58  C43 UNL A   1      14.719  55.046   5.191  1.00  0.00    +0.000 C 
ATOM     70  C50 UNL A   1      15.124  55.349   3.934  1.00  0.00    +0.000 C 
ATOM     71  N5  UNL A   1      15.561  54.498   2.931  1.00  0.00    +0.000 N 
ATOM     72  C51 UNL A   1      15.804  55.261   1.894  1.00  0.00    +0.000 C 
ATOM     73  C52 UNL A   1      16.305  54.874   0.532  1.00  0.00    +0.000 C 
ATOM     85  C59 UNL A   1      16.545  53.577   0.270  1.00  0.00    +0.000 C 
ATOM     86  C60 UNL A   1      17.023  53.054  -1.004  1.00  0.00    +0.000 C 
ATOM     87  C61 UNL A   1      17.069  51.717  -0.933  1.00  0.00    +0.000 C 
ATOM     88  C62 UNL A   1      16.680  51.291   0.414  1.00  0.00    +0.000 C 
ATOM     89  N6  UNL A   1      16.394  52.465   1.062  1.00  0.00    +0.000 N 
ATOM     90  C63 UNL A   1      15.539  56.687   2.120  1.00  0.00    +0.000 C 
ATOM     91  C64 UNL A   1      15.162  56.691   3.390  1.00  0.00    +0.000 C 
ATOM     92  C65 UNL A   1      15.714  48.336   3.866  1.00  0.00    +0.000 C 
ATOM     93  C66 UNL A   1      16.189  48.273   2.628  1.00  0.00    +0.000 C 
ATOM    125  H30 UNL A   1      14.306  51.383   7.982  1.00  0.00    +0.000 H 
ATOM    126  H31 UNL A   1      14.044  53.971   7.797  1.00  0.00    +0.000 H 
ATOM    127  H32 UNL A   1      15.277  52.519   4.119  1.00  0.00    +0.000 H 
ATOM    128  H33 UNL A   1      17.281  53.621  -1.826  1.00  0.00    +0.000 H 
ENDROOT
BRANCH   37   36
ATOM     33  C25 UNL A   1      17.945  47.094  -2.012  1.00  0.00    +0.000 C 
ATOM     34  C26 UNL A   1      18.869  47.743  -1.191  1.00  0.00    +0.000 C 
ATOM     35  C27 UNL A   1      18.427  48.619  -0.204  1.00  0.00    +0.000 C 
ATOM     36  C28 UNL A   1      17.064  48.949  -0.106  1.00  0.00    +0.000 C 
ATOM    135  H40 UNL A   1      15.148  48.594  -0.929  1.00  0.00    +0.000 H 
ATOM    136  H41 UNL A   1      15.905  46.943  -2.542  1.00  0.00    +0.000 H 
ATOM    123  H28 UNL A   1      19.880  47.574  -1.315  1.00  0.00    +0.000 H 
ATOM    124  H29 UNL A   1      19.102  49.027   0.459  1.00  0.00    +0.000 H 
ATOM     94  C67 UNL A   1      16.148  48.345  -0.979  1.00  0.00    +0.000 C 
ATOM     95  C68 UNL A   1      16.585  47.405  -1.919  1.00  0.00    +0.000 C 
BRANCH   33    2
ATOM      1  O1  UNL A   1      19.044  45.128  -2.666  1.00  0.00    +0.000 O 
ATOM      2  C1  UNL A   1      18.388  46.099  -3.019  1.00  0.00    +0.000 C 
BRANCH    2    3
ATOM      3  N1  UNL A   1      18.073  46.279  -4.345  1.00  0.00    +0.000 N 
ATOM     96  H1  UNL A   1      18.763  46.720  -4.889  1.00  0.00    +0.000 H 
BRANCH    3    4
ATOM     97  H2  UNL A   1      16.064  45.815  -4.345  1.00  0.00    +0.000 H 
ATOM     98  H3  UNL A   1      17.049  44.982  -5.557  1.00  0.00    +0.000 H 
ATOM      4  C2  UNL A   1      16.860  45.907  -5.054  1.00  0.00    +0.000 C 
BRANCH    4    5
ATOM     99  H4  UNL A   1      15.941  46.420  -6.887  1.00  0.00    +0.000 H 
ATOM    100  H5  UNL A   1      17.371  47.395  -6.428  1.00  0.00    +0.000 H 
ATOM      5  C3  UNL A   1      16.462  46.932  -6.105  1.00  0.00    +0.000 C 
BRANCH    5    6
ATOM    102  H7  UNL A   1      14.763  48.127  -6.305  1.00  0.00    +0.000 H 
ATOM    101  H6  UNL A   1      15.260  47.820  -4.606  1.00  0.00    +0.000 H 
ATOM      6  C4  UNL A   1      15.565  48.064  -5.601  1.00  0.00    +0.000 C 
BRANCH    6    7
ATOM    103  H8  UNL A   1      16.690  49.614  -6.507  1.00  0.00    +0.000 H 
ATOM      7  C5  UNL A   1      16.196  49.460  -5.570  1.00  0.00    +0.000 C 
ATOM    104  H9  UNL A   1      16.845  49.456  -4.719  1.00  0.00    +0.000 H 
BRANCH    7    8
ATOM    105  H10 UNL A   1      14.274  50.351  -5.694  1.00  0.00    +0.000 H 
ATOM    106  H11 UNL A   1      15.671  51.463  -5.883  1.00  0.00    +0.000 H 
ATOM      8  C6  UNL A   1      15.243  50.642  -5.347  1.00  0.00    +0.000 C 
BRANCH    8    9
ATOM      9  C7  UNL A   1      15.100  51.119  -3.903  1.00  0.00    +0.000 C 
ATOM    107  H12 UNL A   1      15.015  52.186  -3.903  1.00  0.00    +0.000 H 
ATOM    108  H13 UNL A   1      15.967  50.787  -3.370  1.00  0.00    +0.000 H 
BRANCH    9   10
ATOM     10  N2  UNL A   1      13.945  50.564  -3.237  1.00  0.00    +0.000 N 
ATOM    109  H14 UNL A   1      13.991  49.603  -3.028  1.00  0.00    +0.000 H 
BRANCH   10   11
ATOM     11  C8  UNL A   1      12.797  51.197  -2.860  1.00  0.00    +0.000 C 
ATOM     12  O2  UNL A   1      11.729  50.647  -3.138  1.00  0.00    +0.000 O 
BRANCH   11   13
ATOM     13  C9  UNL A   1      12.883  52.561  -2.138  1.00  0.00    +0.000 C 
ATOM     14  C10 UNL A   1      11.508  53.128  -1.813  1.00  0.00    +0.000 C 
ATOM    110  H15 UNL A   1      13.380  53.217  -2.823  1.00  0.00    +0.000 H 
ATOM    111  H16 UNL A   1      10.752  52.394  -1.998  1.00  0.00    +0.000 H 
ATOM     15  C11 UNL A   1      11.533  53.501  -0.330  1.00  0.00    +0.000 C 
ATOM    112  H17 UNL A   1      11.284  53.978  -2.423  1.00  0.00    +0.000 H 
ATOM    118  H23 UNL A   1      13.175  53.403   0.945  1.00  0.00    +0.000 H 
ATOM     24  C18 UNL A   1      12.782  52.743   0.200  1.00  0.00    +0.000 C 
ATOM     32  O4  UNL A   1      13.637  52.477  -0.928  1.00  0.00    +0.000 O 
BRANCH   15   16
ATOM    113  H18 UNL A   1       9.581  53.505   0.059  1.00  0.00    +0.000 H 
ATOM     16  O3  UNL A   1      10.347  52.953   0.284  1.00  0.00    +0.000 O 
ENDBRANCH   15   16
BRANCH   15   17
ATOM     17  C12 UNL A   1      11.388  55.031  -0.193  1.00  0.00    +0.000 C 
ATOM     18  C13 UNL A   1      12.115  55.616   0.885  1.00  0.00    +0.000 C 
ATOM     19  C14 UNL A   1      12.137  56.989   1.132  1.00  0.00    +0.000 C 
ATOM    114  H19 UNL A   1      12.650  54.994   1.512  1.00  0.00    +0.000 H 
ATOM     21  C16 UNL A   1      10.687  57.311  -0.744  1.00  0.00    +0.000 C 
ATOM     22  C17 UNL A   1      10.626  55.922  -0.972  1.00  0.00    +0.000 C 
ATOM     23 Cl1  UNL A   1       9.493  55.466  -2.191  1.00  0.00    +0.000 Cl
ATOM    115  H20 UNL A   1      12.670  57.365   1.932  1.00  0.00    +0.000 H 
ATOM     20  C15 UNL A   1      11.440  57.844   0.297  1.00  0.00    +0.000 C 
ATOM    117  H22 UNL A   1      10.160  57.947  -1.363  1.00  0.00    +0.000 H 
ATOM    116  H21 UNL A   1      11.478  58.865   0.445  1.00  0.00    +0.000 H 
ENDBRANCH   15   17
BRANCH   24   25
ATOM    122  H27 UNL A   1      12.007  50.216   4.063  1.00  0.00    +0.000 H 
ATOM    121  H26 UNL A   1      12.453  48.112   2.942  1.00  0.00    +0.000 H 
ATOM    119  H24 UNL A   1      12.989  50.169  -0.676  1.00  0.00    +0.000 H 
ATOM    120  H25 UNL A   1      12.915  48.096   0.563  1.00  0.00    +0.000 H 
ATOM     25  C19 UNL A   1      12.602  51.434   0.971  1.00  0.00    +0.000 C 
ATOM     26  C20 UNL A   1      12.801  50.193   0.339  1.00  0.00    +0.000 C 
ATOM     27  C21 UNL A   1      12.749  48.991   1.051  1.00  0.00    +0.000 C 
ATOM     28  C22 UNL A   1      12.475  48.998   2.412  1.00  0.00    +0.000 C 
ATOM     29  C23 UNL A   1      12.231  50.207   3.056  1.00  0.00    +0.000 C 
ATOM     30  C24 UNL A   1      12.287  51.414   2.345  1.00  0.00    +0.000 C 
ATOM     31 Cl2  UNL A   1      11.932  52.847   3.251  1.00  0.00    +0.000 Cl
ENDBRANCH   24   25
ENDBRANCH   11   13
ENDBRANCH   10   11
ENDBRANCH    9   10
ENDBRANCH    8    9
ENDBRANCH    7    8
ENDBRANCH    6    7
ENDBRANCH    5    6
ENDBRANCH    4    5
ENDBRANCH    3    4
ENDBRANCH    2    3
ENDBRANCH   33    2
ENDBRANCH   37   36
BRANCH   41   42
ATOM     42  C33 UNL A   1      14.740  49.022   6.501  1.00  0.00    +0.000 C 
ATOM     43  C34 UNL A   1      15.673  48.642   7.476  1.00  0.00    +0.000 C 
ATOM     44  F1  UNL A   1      16.910  49.161   7.465  1.00  0.00    +0.000 F 
ATOM     45  C35 UNL A   1      15.340  47.718   8.463  1.00  0.00    +0.000 C 
ATOM     46  F2  UNL A   1      16.253  47.355   9.376  1.00  0.00    +0.000 F 
ATOM     47  C36 UNL A   1      14.064  47.173   8.507  1.00  0.00    +0.000 C 
ATOM     48  F3  UNL A   1      13.740  46.299   9.471  1.00  0.00    +0.000 F 
ATOM     49  C37 UNL A   1      13.126  47.536   7.554  1.00  0.00    +0.000 C 
ATOM     50  F4  UNL A   1      11.889  47.021   7.603  1.00  0.00    +0.000 F 
ATOM     51  C38 UNL A   1      13.462  48.444   6.554  1.00  0.00    +0.000 C 
ATOM     52  F5  UNL A   1      12.531  48.780   5.648  1.00  0.00    +0.000 F 
ENDBRANCH   41   42
BRANCH   58   59
ATOM     65  F8  UNL A   1      13.142  59.357   8.480  1.00  0.00    +0.000 F 
ATOM     66  C48 UNL A   1      14.859  58.037   7.536  1.00  0.00    +0.000 C 
ATOM     67  F9  UNL A   1      15.787  58.774   8.162  1.00  0.00    +0.000 F 
ATOM     68  C49 UNL A   1      15.248  56.986   6.711  1.00  0.00    +0.000 C 
ATOM     69  F10 UNL A   1      16.557  56.738   6.552  1.00  0.00    +0.000 F 
ATOM     59  C44 UNL A   1      14.294  56.191   6.060  1.00  0.00    +0.000 C 
ATOM     60  C45 UNL A   1      12.938  56.488   6.263  1.00  0.00    +0.000 C 
ATOM     61  F6  UNL A   1      11.989  55.768   5.645  1.00  0.00    +0.000 F 
ATOM     62  C46 UNL A   1      12.554  57.558   7.065  1.00  0.00    +0.000 C 
ATOM     63  F7  UNL A   1      11.254  57.856   7.204  1.00  0.00    +0.000 F 
ATOM     64  C47 UNL A   1      13.513  58.328   7.706  1.00  0.00    +0.000 C 
ENDBRANCH   58   59
BRANCH   73   74
ATOM     74  C53 UNL A   1      16.516  55.895  -0.526  1.00  0.00    +0.000 C 
ATOM     75  C54 UNL A   1      15.514  56.187  -1.460  1.00  0.00    +0.000 C 
ATOM     76  F11 UNL A   1      14.347  55.527  -1.418  1.00  0.00    +0.000 F 
ATOM     77  C55 UNL A   1      15.722  57.131  -2.465  1.00  0.00    +0.000 C 
ATOM     78  F12 UNL A   1      14.765  57.357  -3.374  1.00  0.00    +0.000 F 
ATOM     79  C56 UNL A   1      16.922  57.821  -2.535  1.00  0.00    +0.000 C 
ATOM     80  F13 UNL A   1      17.120  58.730  -3.499  1.00  0.00    +0.000 F 
ATOM     81  C57 UNL A   1      17.922  57.562  -1.608  1.00  0.00    +0.000 C 
ATOM     82  F14 UNL A   1      19.077  58.238  -1.662  1.00  0.00    +0.000 F 
ATOM     83  C58 UNL A   1      17.726  56.598  -0.623  1.00  0.00    +0.000 C 
ATOM     84  F15 UNL A   1      18.715  56.357   0.251  1.00  0.00    +0.000 F 
ENDBRANCH   73   74
TORSDOF 18
ENDMDL
MODEL 9
REMARK VINA RESULT:      -7.7     60.381     65.421
ROOT
ATOM    129  H34 UNL A   1      41.324  14.318  48.904  1.00  0.00    +0.000 H 
ATOM    130  H35 UNL A   1      44.303  16.671  47.209  1.00  0.00    +0.000 H 
ATOM    131  H36 UNL A   1      45.595  14.362  42.937  1.00  0.00    +0.000 H 
ATOM    132  H37 UNL A   1      47.282  16.254  42.584  1.00  0.00    +0.000 H 
ATOM    133  H38 UNL A   1      44.069  20.824  50.950  1.00  0.00    +0.000 H 
ATOM    134  H39 UNL A   1      42.555  18.820  51.460  1.00  0.00    +0.000 H 
ATOM     37  C29 UNL A   1      42.636  16.783  49.461  1.00  0.00    +0.000 C 
ATOM     38  C30 UNL A   1      43.432  18.053  49.516  1.00  0.00    +0.000 C 
ATOM     39  N3  UNL A   1      44.333  18.496  48.673  1.00  0.00    +0.000 N 
ATOM     40  C31 UNL A   1      44.750  19.724  49.168  1.00  0.00    +0.000 C 
ATOM     41  C32 UNL A   1      45.684  20.562  48.657  1.00  0.00    +0.000 C 
ATOM     53  C39 UNL A   1      46.449  20.298  47.466  1.00  0.00    +0.000 C 
ATOM     54  C40 UNL A   1      47.466  21.056  46.909  1.00  0.00    +0.000 C 
ATOM     55  C41 UNL A   1      47.877  20.437  45.724  1.00  0.00    +0.000 C 
ATOM     56  C42 UNL A   1      47.147  19.271  45.564  1.00  0.00    +0.000 C 
ATOM     57  N4  UNL A   1      46.278  19.196  46.642  1.00  0.00    +0.000 N 
ATOM     58  C43 UNL A   1      47.231  18.300  44.504  1.00  0.00    +0.000 C 
ATOM     70  C50 UNL A   1      46.522  17.146  44.447  1.00  0.00    +0.000 C 
ATOM     71  N5  UNL A   1      45.580  16.658  45.340  1.00  0.00    +0.000 N 
ATOM     72  C51 UNL A   1      45.155  15.528  44.830  1.00  0.00    +0.000 C 
ATOM     73  C52 UNL A   1      44.136  14.569  45.375  1.00  0.00    +0.000 C 
ATOM     85  C59 UNL A   1      43.527  14.857  46.539  1.00  0.00    +0.000 C 
ATOM     86  C60 UNL A   1      42.515  14.029  47.182  1.00  0.00    +0.000 C 
ATOM     87  C61 UNL A   1      42.070  14.660  48.277  1.00  0.00    +0.000 C 
ATOM     88  C62 UNL A   1      42.810  15.914  48.445  1.00  0.00    +0.000 C 
ATOM     89  N6  UNL A   1      43.660  15.942  47.370  1.00  0.00    +0.000 N 
ATOM     90  C63 UNL A   1      45.775  15.175  43.546  1.00  0.00    +0.000 C 
ATOM     91  C64 UNL A   1      46.627  16.176  43.377  1.00  0.00    +0.000 C 
ATOM     92  C65 UNL A   1      43.993  19.969  50.378  1.00  0.00    +0.000 C 
ATOM     93  C66 UNL A   1      43.188  18.950  50.655  1.00  0.00    +0.000 C 
ATOM    125  H30 UNL A   1      47.855  21.928  47.302  1.00  0.00    +0.000 H 
ATOM    126  H31 UNL A   1      48.600  20.790  45.077  1.00  0.00    +0.000 H 
ATOM    127  H32 UNL A   1      45.634  18.467  46.799  1.00  0.00    +0.000 H 
ATOM    128  H33 UNL A   1      42.192  13.107  46.847  1.00  0.00    +0.000 H 
ENDROOT
BRANCH   37   36
ATOM     33  C25 UNL A   1      39.789  15.587  52.429  1.00  0.00    +0.000 C 
ATOM     34  C26 UNL A   1      41.114  15.152  52.501  1.00  0.00    +0.000 C 
ATOM     35  C27 UNL A   1      42.051  15.622  51.587  1.00  0.00    +0.000 C 
ATOM     36  C28 UNL A   1      41.650  16.438  50.515  1.00  0.00    +0.000 C 
ATOM    135  H40 UNL A   1      39.995  17.401  49.615  1.00  0.00    +0.000 H 
ATOM    136  H41 UNL A   1      38.394  16.710  51.306  1.00  0.00    +0.000 H 
ATOM    123  H28 UNL A   1      41.398  14.481  53.233  1.00  0.00    +0.000 H 
ATOM    124  H29 UNL A   1      43.045  15.371  51.696  1.00  0.00    +0.000 H 
ATOM     94  C67 UNL A   1      40.305  16.818  50.408  1.00  0.00    +0.000 C 
ATOM     95  C68 UNL A   1      39.378  16.408  51.374  1.00  0.00    +0.000 C 
BRANCH   33    2
ATOM      1  O1  UNL A   1      37.930  15.945  53.812  1.00  0.00    +0.000 O 
ATOM      2  C1  UNL A   1      38.791  15.160  53.438  1.00  0.00    +0.000 C 
BRANCH    2    3
ATOM      3  N1  UNL A   1      38.845  13.889  53.960  1.00  0.00    +0.000 N 
ATOM     96  H1  UNL A   1      39.161  13.190  53.343  1.00  0.00    +0.000 H 
BRANCH    3    4
ATOM     97  H2  UNL A   1      38.470  12.364  55.296  1.00  0.00    +0.000 H 
ATOM     98  H3  UNL A   1      37.548  13.854  55.546  1.00  0.00    +0.000 H 
ATOM      4  C2  UNL A   1      38.500  13.434  55.296  1.00  0.00    +0.000 C 
BRANCH    4    5
ATOM     99  H4  UNL A   1      39.262  13.406  57.267  1.00  0.00    +0.000 H 
ATOM    100  H5  UNL A   1      39.413  14.960  56.391  1.00  0.00    +0.000 H 
ATOM      5  C3  UNL A   1      39.499  13.894  56.345  1.00  0.00    +0.000 C 
BRANCH    5    6
ATOM    102  H7  UNL A   1      41.175  14.153  55.127  1.00  0.00    +0.000 H 
ATOM    101  H6  UNL A   1      41.551  13.892  56.865  1.00  0.00    +0.000 H 
ATOM      6  C4  UNL A   1      40.964  13.602  56.019  1.00  0.00    +0.000 C 
BRANCH    6    7
ATOM    103  H8  UNL A   1      41.397  12.064  54.628  1.00  0.00    +0.000 H 
ATOM      7  C5  UNL A   1      41.304  12.144  55.691  1.00  0.00    +0.000 C 
ATOM    104  H9  UNL A   1      40.508  11.568  56.114  1.00  0.00    +0.000 H 
BRANCH    7    8
ATOM    105  H10 UNL A   1      42.303  10.860  57.053  1.00  0.00    +0.000 H 
ATOM    106  H11 UNL A   1      43.116  12.422  56.704  1.00  0.00    +0.000 H 
ATOM      8  C6  UNL A   1      42.588  11.578  56.313  1.00  0.00    +0.000 C 
BRANCH    8    9
ATOM      9  C7  UNL A   1      43.553  10.897  55.346  1.00  0.00    +0.000 C 
ATOM    107  H12 UNL A   1      43.829   9.946  55.752  1.00  0.00    +0.000 H 
ATOM    108  H13 UNL A   1      44.400  11.543  55.232  1.00  0.00    +0.000 H 
BRANCH    9   10
ATOM     10  N2  UNL A   1      42.986  10.692  54.034  1.00  0.00    +0.000 N 
ATOM    109  H14 UNL A   1      42.805  11.508  53.513  1.00  0.00    +0.000 H 
BRANCH   10   11
ATOM     11  C8  UNL A   1      42.670   9.516  53.420  1.00  0.00    +0.000 C 
ATOM     12  O2  UNL A   1      41.509   9.373  53.033  1.00  0.00    +0.000 O 
BRANCH   11   13
ATOM     13  C9  UNL A   1      43.753   8.424  53.265  1.00  0.00    +0.000 C 
ATOM     14  C10 UNL A   1      43.323   7.318  52.310  1.00  0.00    +0.000 C 
ATOM    110  H15 UNL A   1      43.887   8.010  54.243  1.00  0.00    +0.000 H 
ATOM    111  H16 UNL A   1      42.423   7.596  51.803  1.00  0.00    +0.000 H 
ATOM     15  C11 UNL A   1      44.464   7.145  51.307  1.00  0.00    +0.000 C 
ATOM    112  H17 UNL A   1      43.126   6.407  52.836  1.00  0.00    +0.000 H 
ATOM    118  H23 UNL A   1      46.304   8.115  51.343  1.00  0.00    +0.000 H 
ATOM     24  C18 UNL A   1      45.298   8.443  51.497  1.00  0.00    +0.000 C 
ATOM     32  O4  UNL A   1      44.992   8.964  52.805  1.00  0.00    +0.000 O 
BRANCH   15   16
ATOM    113  H18 UNL A   1      44.061   6.280  49.560  1.00  0.00    +0.000 H 
ATOM     16  O3  UNL A   1      43.891   7.137  49.982  1.00  0.00    +0.000 O 
ENDBRANCH   15   16
BRANCH   15   17
ATOM     17  C12 UNL A   1      45.084   5.743  51.487  1.00  0.00    +0.000 C 
ATOM     18  C13 UNL A   1      46.496   5.724  51.682  1.00  0.00    +0.000 C 
ATOM     19  C14 UNL A   1      47.218   4.551  51.906  1.00  0.00    +0.000 C 
ATOM    114  H19 UNL A   1      47.008   6.620  51.656  1.00  0.00    +0.000 H 
ATOM     21  C16 UNL A   1      45.179   3.310  51.737  1.00  0.00    +0.000 C 
ATOM     22  C17 UNL A   1      44.452   4.486  51.467  1.00  0.00    +0.000 C 
ATOM     23 Cl1  UNL A   1      42.804   4.202  51.038  1.00  0.00    +0.000 Cl
ATOM    115  H20 UNL A   1      48.241   4.587  52.031  1.00  0.00    +0.000 H 
ATOM     20  C15 UNL A   1      46.552   3.340  51.960  1.00  0.00    +0.000 C 
ATOM    117  H22 UNL A   1      44.683   2.406  51.769  1.00  0.00    +0.000 H 
ATOM    116  H21 UNL A   1      47.067   2.468  52.163  1.00  0.00    +0.000 H 
ENDBRANCH   15   17
BRANCH   24   25
ATOM    122  H27 UNL A   1      46.404  10.748  47.577  1.00  0.00    +0.000 H 
ATOM    121  H26 UNL A   1      44.991  12.641  48.128  1.00  0.00    +0.000 H 
ATOM    119  H24 UNL A   1      43.710  10.658  51.596  1.00  0.00    +0.000 H 
ATOM    120  H25 UNL A   1      43.623  12.573  50.127  1.00  0.00    +0.000 H 
ATOM     25  C19 UNL A   1      45.157   9.586  50.491  1.00  0.00    +0.000 C 
ATOM     26  C20 UNL A   1      44.305  10.675  50.754  1.00  0.00    +0.000 C 
ATOM     27  C21 UNL A   1      44.246  11.781  49.900  1.00  0.00    +0.000 C 
ATOM     28  C22 UNL A   1      45.021  11.817  48.749  1.00  0.00    +0.000 C 
ATOM     29  C23 UNL A   1      45.841  10.735  48.441  1.00  0.00    +0.000 C 
ATOM     30  C24 UNL A   1      45.906   9.627  49.297  1.00  0.00    +0.000 C 
ATOM     31 Cl2  UNL A   1      46.936   8.332  48.787  1.00  0.00    +0.000 Cl
ENDBRANCH   24   25
ENDBRANCH   11   13
ENDBRANCH   10   11
ENDBRANCH    9   10
ENDBRANCH    8    9
ENDBRANCH    7    8
ENDBRANCH    6    7
ENDBRANCH    5    6
ENDBRANCH    4    5
ENDBRANCH    3    4
ENDBRANCH    2    3
ENDBRANCH   33    2
ENDBRANCH   37   36
BRANCH   41   42
ATOM     42  C33 UNL A   1      45.938  21.857  49.371  1.00  0.00    +0.000 C 
ATOM     43  C34 UNL A   1      46.923  21.970  50.362  1.00  0.00    +0.000 C 
ATOM     44  F1  UNL A   1      47.598  20.884  50.769  1.00  0.00    +0.000 F 
ATOM     45  C35 UNL A   1      47.213  23.200  50.947  1.00  0.00    +0.000 C 
ATOM     46  F2  UNL A   1      48.146  23.282  51.906  1.00  0.00    +0.000 F 
ATOM     47  C36 UNL A   1      46.539  24.342  50.538  1.00  0.00    +0.000 C 
ATOM     48  F3  UNL A   1      46.834  25.529  51.088  1.00  0.00    +0.000 F 
ATOM     49  C37 UNL A   1      45.563  24.254  49.557  1.00  0.00    +0.000 C 
ATOM     50  F4  UNL A   1      44.921  25.359  49.151  1.00  0.00    +0.000 F 
ATOM     51  C38 UNL A   1      45.257  23.022  48.986  1.00  0.00    +0.000 C 
ATOM     52  F5  UNL A   1      44.311  22.969  48.036  1.00  0.00    +0.000 F 
ENDBRANCH   41   42
BRANCH   58   59
ATOM     65  F8  UNL A   1      50.806  19.290  40.247  1.00  0.00    +0.000 F 
ATOM     66  C48 UNL A   1      48.590  19.135  41.052  1.00  0.00    +0.000 C 
ATOM     67  F9  UNL A   1      48.114  19.447  39.839  1.00  0.00    +0.000 F 
ATOM     68  C49 UNL A   1      47.710  18.908  42.106  1.00  0.00    +0.000 C 
ATOM     69  F10 UNL A   1      46.391  19.018  41.883  1.00  0.00    +0.000 F 
ATOM     59  C44 UNL A   1      48.185  18.564  43.379  1.00  0.00    +0.000 C 
ATOM     60  C45 UNL A   1      49.573  18.458  43.560  1.00  0.00    +0.000 C 
ATOM     61  F6  UNL A   1      50.075  18.152  44.765  1.00  0.00    +0.000 F 
ATOM     62  C46 UNL A   1      50.450  18.715  42.511  1.00  0.00    +0.000 C 
ATOM     63  F7  UNL A   1      51.773  18.657  42.718  1.00  0.00    +0.000 F 
ATOM     64  C47 UNL A   1      49.959  19.046  41.257  1.00  0.00    +0.000 C 
ENDBRANCH   58   59
BRANCH   73   74
ATOM     74  C53 UNL A   1      43.780  13.329  44.639  1.00  0.00    +0.000 C 
ATOM     75  C54 UNL A   1      42.628  13.263  43.846  1.00  0.00    +0.000 C 
ATOM     76  F11 UNL A   1      41.816  14.327  43.755  1.00  0.00    +0.000 F 
ATOM     77  C55 UNL A   1      42.285  12.091  43.173  1.00  0.00    +0.000 C 
ATOM     78  F12 UNL A   1      41.153  12.040  42.458  1.00  0.00    +0.000 F 
ATOM     79  C56 UNL A   1      43.104  10.975  43.257  1.00  0.00    +0.000 C 
ATOM     80  F13 UNL A   1      42.775   9.850  42.608  1.00  0.00    +0.000 F 
ATOM     81  C57 UNL A   1      44.260  11.024  44.022  1.00  0.00    +0.000 C 
ATOM     82  F14 UNL A   1      45.062   9.953  44.092  1.00  0.00    +0.000 F 
ATOM     83  C58 UNL A   1      44.586  12.184  44.718  1.00  0.00    +0.000 C 
ATOM     84  F15 UNL A   1      45.703  12.198  45.462  1.00  0.00    +0.000 F 
ENDBRANCH   73   74
TORSDOF 18
ENDMDL
MODEL 10
REMARK VINA RESULT:      -7.6     44.984     48.010
ROOT
ATOM    129  H34 UNL A   1      25.374  41.610  47.466  1.00  0.00    +0.000 H 
ATOM    130  H35 UNL A   1      22.066  39.208  48.217  1.00  0.00    +0.000 H 
ATOM    131  H36 UNL A   1      18.740  42.164  50.551  1.00  0.00    +0.000 H 
ATOM    132  H37 UNL A   1      17.195  40.125  50.640  1.00  0.00    +0.000 H 
ATOM    133  H38 UNL A   1      23.917  34.675  45.509  1.00  0.00    +0.000 H 
ATOM    134  H39 UNL A   1      25.581  36.619  45.631  1.00  0.00    +0.000 H 
ATOM     37  C29 UNL A   1      24.542  38.941  46.928  1.00  0.00    +0.000 C 
ATOM     38  C30 UNL A   1      23.870  37.613  46.736  1.00  0.00    +0.000 C 
ATOM     39  N3  UNL A   1      22.678  37.231  47.124  1.00  0.00    +0.000 N 
ATOM     40  C31 UNL A   1      22.531  35.924  46.680  1.00  0.00    +0.000 C 
ATOM     41  C32 UNL A   1      21.476  35.092  46.853  1.00  0.00    +0.000 C 
ATOM     53  C39 UNL A   1      20.278  35.437  47.575  1.00  0.00    +0.000 C 
ATOM     54  C40 UNL A   1      19.184  34.637  47.861  1.00  0.00    +0.000 C 
ATOM     55  C41 UNL A   1      18.236  35.414  48.535  1.00  0.00    +0.000 C 
ATOM     56  C42 UNL A   1      18.757  36.685  48.709  1.00  0.00    +0.000 C 
ATOM     57  N4  UNL A   1      20.012  36.684  48.118  1.00  0.00    +0.000 N 
ATOM     58  C43 UNL A   1      18.153  37.819  49.358  1.00  0.00    +0.000 C 
ATOM     70  C50 UNL A   1      18.752  39.021  49.543  1.00  0.00    +0.000 C 
ATOM     71  N5  UNL A   1      20.017  39.432  49.154  1.00  0.00    +0.000 N 
ATOM     72  C51 UNL A   1      20.118  40.683  49.528  1.00  0.00    +0.000 C 
ATOM     73  C52 UNL A   1      21.275  41.628  49.368  1.00  0.00    +0.000 C 
ATOM     85  C59 UNL A   1      22.389  41.195  48.751  1.00  0.00    +0.000 C 
ATOM     86  C60 UNL A   1      23.582  41.999  48.516  1.00  0.00    +0.000 C 
ATOM     87  C61 UNL A   1      24.458  41.276  47.804  1.00  0.00    +0.000 C 
ATOM     88  C62 UNL A   1      23.910  39.935  47.584  1.00  0.00    +0.000 C 
ATOM     89  N6  UNL A   1      22.681  39.977  48.188  1.00  0.00    +0.000 N 
ATOM     90  C63 UNL A   1      18.920  41.213  50.192  1.00  0.00    +0.000 C 
ATOM     91  C64 UNL A   1      18.132  40.149  50.208  1.00  0.00    +0.000 C 
ATOM     92  C65 UNL A   1      23.750  35.579  45.977  1.00  0.00    +0.000 C 
ATOM     93  C66 UNL A   1      24.623  36.578  46.012  1.00  0.00    +0.000 C 
ATOM    125  H30 UNL A   1      19.085  33.638  47.619  1.00  0.00    +0.000 H 
ATOM    126  H31 UNL A   1      17.306  35.094  48.849  1.00  0.00    +0.000 H 
ATOM    127  H32 UNL A   1      20.623  37.456  48.089  1.00  0.00    +0.000 H 
ATOM    128  H33 UNL A   1      23.728  42.967  48.842  1.00  0.00    +0.000 H 
ENDROOT
BRANCH   37   36
ATOM     33  C25 UNL A   1      28.419  39.668  45.259  1.00  0.00    +0.000 C 
ATOM     34  C26 UNL A   1      27.412  40.630  45.158  1.00  0.00    +0.000 C 
ATOM     35  C27 UNL A   1      26.187  40.423  45.785  1.00  0.00    +0.000 C 
ATOM     36  C28 UNL A   1      25.911  39.199  46.419  1.00  0.00    +0.000 C 
ATOM    135  H40 UNL A   1      26.706  37.300  46.905  1.00  0.00    +0.000 H 
ATOM    136  H41 UNL A   1      28.898  37.729  45.950  1.00  0.00    +0.000 H 
ATOM    123  H28 UNL A   1      27.575  41.494  44.618  1.00  0.00    +0.000 H 
ATOM    124  H29 UNL A   1      25.478  41.172  45.785  1.00  0.00    +0.000 H 
ATOM     94  C67 UNL A   1      26.904  38.209  46.459  1.00  0.00    +0.000 C 
ATOM     95  C68 UNL A   1      28.162  38.450  45.896  1.00  0.00    +0.000 C 
BRANCH   33    2
ATOM      1  O1  UNL A   1      29.986  39.530  43.521  1.00  0.00    +0.000 O 
ATOM      2  C1  UNL A   1      29.757  39.901  44.664  1.00  0.00    +0.000 C 
BRANCH    2    3
ATOM      3  N1  UNL A   1      30.738  40.518  45.404  1.00  0.00    +0.000 N 
ATOM     96  H1  UNL A   1      31.657  40.217  45.225  1.00  0.00    +0.000 H 
BRANCH    3    4
ATOM     97  H2  UNL A   1      29.580  41.607  46.717  1.00  0.00    +0.000 H 
ATOM     98  H3  UNL A   1      30.936  42.474  45.981  1.00  0.00    +0.000 H 
ATOM      4  C2  UNL A   1      30.605  41.554  46.414  1.00  0.00    +0.000 C 
BRANCH    4    5
ATOM     99  H4  UNL A   1      32.039  42.164  47.841  1.00  0.00    +0.000 H 
ATOM    100  H5  UNL A   1      32.058  40.427  47.406  1.00  0.00    +0.000 H 
ATOM      5  C3  UNL A   1      31.462  41.285  47.641  1.00  0.00    +0.000 C 
BRANCH    5    6
ATOM    102  H7  UNL A   1      31.429  40.783  49.667  1.00  0.00    +0.000 H 
ATOM    101  H6  UNL A   1      30.004  41.727  49.111  1.00  0.00    +0.000 H 
ATOM      6  C4  UNL A   1      30.688  40.929  48.910  1.00  0.00    +0.000 C 
BRANCH    6    7
ATOM    103  H8  UNL A   1      30.418  38.895  49.440  1.00  0.00    +0.000 H 
ATOM      7  C5  UNL A   1      29.885  39.624  48.866  1.00  0.00    +0.000 C 
ATOM    104  H9  UNL A   1      29.787  39.390  47.826  1.00  0.00    +0.000 H 
BRANCH    7    8
ATOM    105  H10 UNL A   1      27.792  39.821  48.569  1.00  0.00    +0.000 H 
ATOM    106  H11 UNL A   1      28.435  40.482  50.110  1.00  0.00    +0.000 H 
ATOM      8  C6  UNL A   1      28.448  39.680  49.403  1.00  0.00    +0.000 C 
BRANCH    8    9
ATOM      9  C7  UNL A   1      27.974  38.446  50.168  1.00  0.00    +0.000 C 
ATOM    107  H12 UNL A   1      26.912  38.501  50.280  1.00  0.00    +0.000 H 
ATOM    108  H13 UNL A   1      28.477  38.444  51.114  1.00  0.00    +0.000 H 
BRANCH    9   10
ATOM     10  N2  UNL A   1      28.305  37.208  49.501  1.00  0.00    +0.000 N 
ATOM    109  H14 UNL A   1      27.965  37.112  48.582  1.00  0.00    +0.000 H 
BRANCH   10   11
ATOM     11  C8  UNL A   1      29.027  36.154  49.979  1.00  0.00    +0.000 C 
ATOM     12  O2  UNL A   1      29.872  36.391  50.843  1.00  0.00    +0.000 O 
BRANCH   11   13
ATOM     13  C9  UNL A   1      28.776  34.740  49.407  1.00  0.00    +0.000 C 
ATOM     14  C10 UNL A   1      27.583  34.704  48.460  1.00  0.00    +0.000 C 
ATOM    110  H15 UNL A   1      28.569  34.119  50.255  1.00  0.00    +0.000 H 
ATOM    111  H16 UNL A   1      27.253  35.698  48.244  1.00  0.00    +0.000 H 
ATOM     15  C11 UNL A   1      28.067  34.017  47.182  1.00  0.00    +0.000 C 
ATOM    112  H17 UNL A   1      26.758  34.180  48.895  1.00  0.00    +0.000 H 
ATOM    118  H23 UNL A   1      29.935  33.157  46.867  1.00  0.00    +0.000 H 
ATOM     24  C18 UNL A   1      29.614  34.073  47.318  1.00  0.00    +0.000 C 
ATOM     32  O4  UNL A   1      29.919  34.233  48.717  1.00  0.00    +0.000 O 
BRANCH   15   16
ATOM    113  H18 UNL A   1      26.720  34.671  45.870  1.00  0.00    +0.000 H 
ATOM     16  O3  UNL A   1      27.657  34.830  46.061  1.00  0.00    +0.000 O 
ENDBRANCH   15   16
BRANCH   15   17
ATOM     17  C12 UNL A   1      27.309  32.684  47.010  1.00  0.00    +0.000 C 
ATOM     18  C13 UNL A   1      26.213  32.722  46.099  1.00  0.00    +0.000 C 
ATOM     19  C14 UNL A   1      25.444  31.600  45.786  1.00  0.00    +0.000 C 
ATOM    114  H19 UNL A   1      25.978  33.621  45.650  1.00  0.00    +0.000 H 
ATOM     21  C16 UNL A   1      26.787  30.308  47.288  1.00  0.00    +0.000 C 
ATOM     22  C17 UNL A   1      27.539  31.447  47.640  1.00  0.00    +0.000 C 
ATOM     23 Cl1  UNL A   1      28.648  31.174  48.934  1.00  0.00    +0.000 Cl
ATOM    115  H20 UNL A   1      24.653  31.679  45.128  1.00  0.00    +0.000 H 
ATOM     20  C15 UNL A   1      25.749  30.381  46.364  1.00  0.00    +0.000 C 
ATOM    117  H22 UNL A   1      27.010  29.401  47.725  1.00  0.00    +0.000 H 
ATOM    116  H21 UNL A   1      25.213  29.535  46.113  1.00  0.00    +0.000 H 
ENDBRANCH   15   17
BRANCH   24   25
ATOM    122  H27 UNL A   1      31.865  35.704  43.553  1.00  0.00    +0.000 H 
ATOM    121  H26 UNL A   1      32.657  37.681  44.712  1.00  0.00    +0.000 H 
ATOM    119  H24 UNL A   1      30.540  36.503  48.138  1.00  0.00    +0.000 H 
ATOM    120  H25 UNL A   1      31.963  38.087  46.998  1.00  0.00    +0.000 H 
ATOM     25  C19 UNL A   1      30.404  35.127  46.541  1.00  0.00    +0.000 C 
ATOM     26  C20 UNL A   1      30.834  36.311  47.167  1.00  0.00    +0.000 C 
ATOM     27  C21 UNL A   1      31.650  37.235  46.507  1.00  0.00    +0.000 C 
ATOM     28  C22 UNL A   1      32.040  37.008  45.194  1.00  0.00    +0.000 C 
ATOM     29  C23 UNL A   1      31.595  35.867  44.534  1.00  0.00    +0.000 C 
ATOM     30  C24 UNL A   1      30.781  34.936  45.195  1.00  0.00    +0.000 C 
ATOM     31 Cl2  UNL A   1      30.265  33.575  44.257  1.00  0.00    +0.000 Cl
ENDBRANCH   24   25
ENDBRANCH   11   13
ENDBRANCH   10   11
ENDBRANCH    9   10
ENDBRANCH    8    9
ENDBRANCH    7    8
ENDBRANCH    6    7
ENDBRANCH    5    6
ENDBRANCH    4    5
ENDBRANCH    3    4
ENDBRANCH    2    3
ENDBRANCH   33    2
ENDBRANCH   37   36
BRANCH   41   42
ATOM     42  C33 UNL A   1      21.549  33.721  46.248  1.00  0.00    +0.000 C 
ATOM     43  C34 UNL A   1      22.066  32.630  46.959  1.00  0.00    +0.000 C 
ATOM     44  F1  UNL A   1      22.605  32.810  48.175  1.00  0.00    +0.000 F 
ATOM     45  C35 UNL A   1      22.039  31.346  46.420  1.00  0.00    +0.000 C 
ATOM     46  F2  UNL A   1      22.555  30.319  47.110  1.00  0.00    +0.000 F 
ATOM     47  C36 UNL A   1      21.477  31.126  45.170  1.00  0.00    +0.000 C 
ATOM     48  F3  UNL A   1      21.434  29.887  44.661  1.00  0.00    +0.000 F 
ATOM     49  C37 UNL A   1      20.959  32.191  44.450  1.00  0.00    +0.000 C 
ATOM     50  F4  UNL A   1      20.404  31.979  43.248  1.00  0.00    +0.000 F 
ATOM     51  C38 UNL A   1      21.004  33.478  44.978  1.00  0.00    +0.000 C 
ATOM     52  F5  UNL A   1      20.489  34.489  44.259  1.00  0.00    +0.000 F 
ENDBRANCH   41   42
BRANCH   58   59
ATOM     65  F8  UNL A   1      12.917  37.236  51.391  1.00  0.00    +0.000 F 
ATOM     66  C48 UNL A   1      15.240  37.435  51.773  1.00  0.00    +0.000 C 
ATOM     67  F9  UNL A   1      15.042  37.353  53.096  1.00  0.00    +0.000 F 
ATOM     68  C49 UNL A   1      16.529  37.597  51.272  1.00  0.00    +0.000 C 
ATOM     69  F10 UNL A   1      17.553  37.678  52.135  1.00  0.00    +0.000 F 
ATOM     59  C44 UNL A   1      16.761  37.668  49.892  1.00  0.00    +0.000 C 
ATOM     60  C45 UNL A   1      15.656  37.574  49.031  1.00  0.00    +0.000 C 
ATOM     61  F6  UNL A   1      15.827  37.657  47.703  1.00  0.00    +0.000 F 
ATOM     62  C46 UNL A   1      14.367  37.442  49.536  1.00  0.00    +0.000 C 
ATOM     63  F7  UNL A   1      13.322  37.404  48.698  1.00  0.00    +0.000 F 
ATOM     64  C47 UNL A   1      14.160  37.366  50.906  1.00  0.00    +0.000 C 
ENDBRANCH   58   59
BRANCH   73   74
ATOM     74  C53 UNL A   1      21.197  43.027  49.860  1.00  0.00    +0.000 C 
ATOM     75  C54 UNL A   1      20.755  44.063  49.027  1.00  0.00    +0.000 C 
ATOM     76  F11 UNL A   1      20.411  43.801  47.757  1.00  0.00    +0.000 F 
ATOM     77  C55 UNL A   1      20.702  45.379  49.485  1.00  0.00    +0.000 C 
ATOM     78  F12 UNL A   1      20.320  46.358  48.654  1.00  0.00    +0.000 F 
ATOM     79  C56 UNL A   1      21.059  45.677  50.790  1.00  0.00    +0.000 C 
ATOM     80  F13 UNL A   1      21.005  46.942  51.230  1.00  0.00    +0.000 F 
ATOM     81  C57 UNL A   1      21.481  44.664  51.639  1.00  0.00    +0.000 C 
ATOM     82  F14 UNL A   1      21.812  44.946  52.906  1.00  0.00    +0.000 F 
ATOM     83  C58 UNL A   1      21.564  43.355  51.173  1.00  0.00    +0.000 C 
ATOM     84  F15 UNL A   1      21.989  42.397  52.011  1.00  0.00    +0.000 F 
ENDBRANCH   73   74
TORSDOF 18
ENDMDL
