MODEL 1
REMARK VINA RESULT:      -9.4      0.000      0.000
ROOT
ATOM    148  H44 UNL A   1      16.749  23.615   1.832  1.00  0.00    +0.000 H 
ATOM    149  H45 UNL A   1      19.239  22.826   2.325  1.00  0.00    +0.000 H 
ATOM    150  H46 UNL A   1      18.257  21.819  -1.486  1.00  0.00    +0.000 H 
ATOM    151  H47 UNL A   1      24.242  26.781  -3.270  1.00  0.00    +0.000 H 
ATOM    152  H48 UNL A   1      22.676  28.310  -1.966  1.00  0.00    +0.000 H 
ATOM    153  H49 UNL A   1      20.801  24.613  -2.261  1.00  0.00    +0.000 H 
ATOM    154  H50 UNL A   1      20.915  22.597  -4.821  1.00  0.00    +0.000 H 
ATOM    155  H51 UNL A   1      19.471  21.701  -2.883  1.00  0.00    +0.000 H 
ATOM    156  H52 UNL A   1      15.643  26.331  -2.606  1.00  0.00    +0.000 H 
ATOM    157  H53 UNL A   1      17.629  27.857  -3.191  1.00  0.00    +0.000 H 
ATOM     37  C32 UNL A   1      20.003  27.230  -1.706  1.00  0.00    +0.000 C 
ATOM     38  C33 UNL A   1      18.705  26.495  -1.727  1.00  0.00    +0.000 C 
ATOM     39  N3  UNL A   1      18.349  25.485  -0.999  1.00  0.00    +0.000 N 
ATOM     40  C34 UNL A   1      17.064  25.148  -1.421  1.00  0.00    +0.000 C 
ATOM     41  C35 UNL A   1      16.556  23.901  -1.228  1.00  0.00    +0.000 C 
ATOM     53  C42 UNL A   1      17.285  23.183  -0.220  1.00  0.00    +0.000 C 
ATOM     54  C43 UNL A   1      17.445  23.288   1.145  1.00  0.00    +0.000 C 
ATOM     55  C44 UNL A   1      18.776  22.846   1.403  1.00  0.00    +0.000 C 
ATOM     56  C45 UNL A   1      19.348  22.447   0.194  1.00  0.00    +0.000 C 
ATOM     57  N4  UNL A   1      18.289  22.370  -0.671  1.00  0.00    +0.000 N 
ATOM     58  C46 UNL A   1      20.720  22.279  -0.228  1.00  0.00    +0.000 C 
ATOM     70  C53 UNL A   1      21.140  22.189  -1.524  1.00  0.00    +0.000 C 
ATOM     71  N5  UNL A   1      22.429  22.558  -1.868  1.00  0.00    +0.000 N 
ATOM     72  C54 UNL A   1      22.333  22.973  -3.100  1.00  0.00    +0.000 C 
ATOM     73  C55 UNL A   1      23.123  24.099  -3.651  1.00  0.00    +0.000 C 
ATOM     85  C62 UNL A   1      22.692  25.221  -3.023  1.00  0.00    +0.000 C 
ATOM     86  C63 UNL A   1      23.308  26.524  -2.913  1.00  0.00    +0.000 C 
ATOM     87  C64 UNL A   1      22.459  27.347  -2.267  1.00  0.00    +0.000 C 
ATOM     88  C65 UNL A   1      21.178  26.667  -2.056  1.00  0.00    +0.000 C 
ATOM     89  N6  UNL A   1      21.427  25.358  -2.413  1.00  0.00    +0.000 N 
ATOM     90  C66 UNL A   1      21.142  22.551  -3.814  1.00  0.00    +0.000 C 
ATOM     91  C67 UNL A   1      20.423  22.088  -2.790  1.00  0.00    +0.000 C 
ATOM     92  C68 UNL A   1      16.611  26.219  -2.267  1.00  0.00    +0.000 C 
ATOM     93  C69 UNL A   1      17.617  27.045  -2.555  1.00  0.00    +0.000 C 
ENDROOT
BRANCH   37   36
ATOM     33  C28 UNL A   1      19.721  31.380  -0.845  1.00  0.00    +0.000 C 
ATOM     34  C29 UNL A   1      19.996  30.931  -2.137  1.00  0.00    +0.000 C 
ATOM     35  C30 UNL A   1      20.056  29.572  -2.413  1.00  0.00    +0.000 C 
ATOM     36  C31 UNL A   1      19.880  28.647  -1.384  1.00  0.00    +0.000 C 
ATOM    146  H42 UNL A   1      20.157  31.614  -2.895  1.00  0.00    +0.000 H 
ATOM    147  H43 UNL A   1      20.230  29.247  -3.377  1.00  0.00    +0.000 H 
ATOM    158  H54 UNL A   1      19.670  28.391   0.700  1.00  0.00    +0.000 H 
ATOM    159  H55 UNL A   1      19.475  30.755   1.159  1.00  0.00    +0.000 H 
ATOM     94  C70 UNL A   1      19.718  29.076  -0.071  1.00  0.00    +0.000 C 
ATOM     95  C71 UNL A   1      19.622  30.434   0.190  1.00  0.00    +0.000 C 
BRANCH   33   31
ATOM     31  C27 UNL A   1      19.487  32.789  -0.444  1.00  0.00    +0.000 C 
ATOM     32  O2  UNL A   1      20.305  33.649  -0.782  1.00  0.00    +0.000 O 
BRANCH   31   30
ATOM    145  H41 UNL A   1      17.909  33.914  -0.125  1.00  0.00    +0.000 H 
ATOM     30  N2  UNL A   1      18.445  33.219   0.321  1.00  0.00    +0.000 N 
BRANCH   30   29
ATOM     29  C26 UNL A   1      17.948  32.889   1.637  1.00  0.00    +0.000 C 
ATOM    143  H39 UNL A   1      18.695  32.323   2.153  1.00  0.00    +0.000 H 
ATOM    144  H40 UNL A   1      17.728  33.808   2.139  1.00  0.00    +0.000 H 
BRANCH   29   28
ATOM     28  C25 UNL A   1      16.657  32.069   1.595  1.00  0.00    +0.000 C 
ATOM    141  H37 UNL A   1      16.607  31.564   0.653  1.00  0.00    +0.000 H 
ATOM    142  H38 UNL A   1      16.690  31.385   2.417  1.00  0.00    +0.000 H 
BRANCH   28   27
ATOM     27  C24 UNL A   1      15.391  32.922   1.761  1.00  0.00    +0.000 C 
ATOM    140  H36 UNL A   1      15.681  33.935   1.573  1.00  0.00    +0.000 H 
ATOM    139  H35 UNL A   1      15.014  32.768   2.750  1.00  0.00    +0.000 H 
BRANCH   27   26
ATOM    137  H33 UNL A   1      13.397  32.313   1.316  1.00  0.00    +0.000 H 
ATOM     26  C23 UNL A   1      14.267  32.600   0.764  1.00  0.00    +0.000 C 
ATOM    138  H34 UNL A   1      14.106  33.480   0.178  1.00  0.00    +0.000 H 
BRANCH   26   25
ATOM     25  C22 UNL A   1      14.617  31.478  -0.200  1.00  0.00    +0.000 C 
ATOM    135  H31 UNL A   1      15.636  31.583  -0.508  1.00  0.00    +0.000 H 
ATOM    136  H32 UNL A   1      14.475  30.540   0.294  1.00  0.00    +0.000 H 
BRANCH   25   24
ATOM    133  H29 UNL A   1      14.308  31.814  -2.264  1.00  0.00    +0.000 H 
ATOM    134  H30 UNL A   1      13.295  30.560  -1.556  1.00  0.00    +0.000 H 
ATOM     24  C21 UNL A   1      13.724  31.528  -1.414  1.00  0.00    +0.000 C 
BRANCH   24   23
ATOM    132  H28 UNL A   1      12.864  33.297  -0.727  1.00  0.00    +0.000 H 
ATOM     23  N1  UNL A   1      12.645  32.486  -1.239  1.00  0.00    +0.000 N 
BRANCH   23   21
ATOM     21  C20 UNL A   1      11.353  32.392  -1.706  1.00  0.00    +0.000 C 
ATOM     22  O1  UNL A   1      11.189  32.484  -2.907  1.00  0.00    +0.000 O 
BRANCH   21   18
ATOM     18  C17 UNL A   1      10.222  32.446  -0.671  1.00  0.00    +0.000 C 
BRANCH   18   17
ATOM     17  C16 UNL A   1       9.606  31.124  -0.126  1.00  0.00    +0.000 C 
ATOM    124  H20 UNL A   1       9.794  31.089   0.927  1.00  0.00    +0.000 H 
ATOM    125  H21 UNL A   1       8.571  31.166  -0.394  1.00  0.00    +0.000 H 
BRANCH   17   16
ATOM      4  C4  UNL A   1      12.175  26.806  -3.467  1.00  0.00    +0.000 C 
ATOM      5  C5  UNL A   1      13.088  26.829  -2.409  1.00  0.00    +0.000 C 
ATOM      6  C6  UNL A   1      12.860  27.592  -1.258  1.00  0.00    +0.000 C 
ATOM      7  C7  UNL A   1      11.686  28.361  -1.180  1.00  0.00    +0.000 C 
ATOM      8  C8  UNL A   1      10.704  28.311  -2.184  1.00  0.00    +0.000 C 
ATOM      9  C9  UNL A   1      10.964  27.511  -3.328  1.00  0.00    +0.000 C 
ATOM     10  C10 UNL A   1       9.615  29.181  -1.800  1.00  0.00    +0.000 C 
ATOM    112  H8  UNL A   1      13.953  26.271  -2.479  1.00  0.00    +0.000 H 
ATOM    113  H9  UNL A   1      13.540  27.589  -0.481  1.00  0.00    +0.000 H 
ATOM    114  H10 UNL A   1      10.252  27.445  -4.073  1.00  0.00    +0.000 H 
ATOM     16  C15 UNL A   1      10.104  29.879  -0.706  1.00  0.00    +0.000 C 
ATOM     96  N7  UNL A   1      11.250  29.260  -0.217  1.00  0.00    +0.000 N 
BRANCH    4    2
ATOM      2  C2  UNL A   1      12.519  26.022  -4.725  1.00  0.00    +0.000 C 
ATOM    108  H4  UNL A   1      11.783  25.250  -4.807  1.00  0.00    +0.000 H 
BRANCH    2    1
ATOM      1  C1  UNL A   1      12.442  26.917  -5.960  1.00  0.00    +0.000 C 
ATOM    106  H2  UNL A   1      11.422  27.011  -6.270  1.00  0.00    +0.000 H 
ATOM    107  H3  UNL A   1      13.016  26.484  -6.751  1.00  0.00    +0.000 H 
ATOM    105  H1  UNL A   1      12.832  27.886  -5.724  1.00  0.00    +0.000 H 
ENDBRANCH    2    1
BRANCH    2    3
ATOM      3  C3  UNL A   1      13.877  25.315  -4.647  1.00  0.00    +0.000 C 
ATOM    109  H5  UNL A   1      13.734  24.305  -4.321  1.00  0.00    +0.000 H 
ATOM    110  H6  UNL A   1      14.507  25.828  -3.953  1.00  0.00    +0.000 H 
ATOM    111  H7  UNL A   1      14.335  25.316  -5.615  1.00  0.00    +0.000 H 
ENDBRANCH    2    3
ENDBRANCH    4    2
BRANCH   10   11
ATOM     11  S1  UNL A   1       8.169  29.378  -2.836  1.00  0.00    +0.000 S 
ATOM     12  C11 UNL A   1       6.493  29.770  -2.076  1.00  0.00    +0.000 C 
ATOM     13  C12 UNL A   1       6.004  28.583  -1.239  1.00  0.00    +0.000 C 
ATOM     14  C13 UNL A   1       6.157  31.069  -1.302  1.00  0.00    +0.000 C 
ATOM     15  C14 UNL A   1       5.590  29.938  -3.331  1.00  0.00    +0.000 C 
ATOM    115  H11 UNL A   1       6.630  28.472  -0.378  1.00  0.00    +0.000 H 
ATOM    116  H12 UNL A   1       6.046  27.690  -1.827  1.00  0.00    +0.000 H 
ATOM    117  H13 UNL A   1       4.995  28.758  -0.928  1.00  0.00    +0.000 H 
ATOM    118  H14 UNL A   1       6.718  31.097  -0.391  1.00  0.00    +0.000 H 
ATOM    119  H15 UNL A   1       5.110  31.090  -1.078  1.00  0.00    +0.000 H 
ATOM    120  H16 UNL A   1       6.410  31.917  -1.903  1.00  0.00    +0.000 H 
ATOM    121  H17 UNL A   1       5.716  29.095  -3.976  1.00  0.00    +0.000 H 
ATOM    122  H18 UNL A   1       5.865  30.832  -3.852  1.00  0.00    +0.000 H 
ATOM    123  H19 UNL A   1       4.566  30.004  -3.026  1.00  0.00    +0.000 H 
ENDBRANCH   10   11
BRANCH   96   97
ATOM     97  C72 UNL A   1      11.814  29.358   1.163  1.00  0.00    +0.000 C 
ATOM    161  H57 UNL A   1      12.814  28.993   1.060  1.00  0.00    +0.000 H 
ATOM    160  H56 UNL A   1      11.707  30.376   1.474  1.00  0.00    +0.000 H 
BRANCH   97   98
ATOM     98  C73 UNL A   1      11.219  28.489   2.266  1.00  0.00    +0.000 C 
ATOM     99  C74 UNL A   1      11.403  27.090   2.282  1.00  0.00    +0.000 C 
ATOM    100  C75 UNL A   1      10.664  26.264   3.137  1.00  0.00    +0.000 C 
ATOM    162  H58 UNL A   1      12.100  26.667   1.649  1.00  0.00    +0.000 H 
ATOM    165  H61 UNL A   1      10.382  30.071   3.392  1.00  0.00    +0.000 H 
ATOM    103  C77 UNL A   1       9.754  28.221   4.205  1.00  0.00    +0.000 C 
ATOM    104  C78 UNL A   1      10.445  29.045   3.298  1.00  0.00    +0.000 C 
ATOM    163  H59 UNL A   1      10.748  25.238   3.069  1.00  0.00    +0.000 H 
ATOM    164  H60 UNL A   1       9.199  28.645   4.965  1.00  0.00    +0.000 H 
ATOM    101  C76 UNL A   1       9.816  26.836   4.077  1.00  0.00    +0.000 C 
ATOM    102 Cl1  UNL A   1       8.821  25.825   5.053  1.00  0.00    +0.000 Cl
ENDBRANCH   97   98
ENDBRANCH   96   97
ENDBRANCH   17   16
ENDBRANCH   18   17
BRANCH   18   19
ATOM     19  C18 UNL A   1       9.206  33.201  -1.576  1.00  0.00    +0.000 C 
ATOM    126  H22 UNL A   1       8.594  33.838  -0.972  1.00  0.00    +0.000 H 
ATOM    127  H23 UNL A   1       8.586  32.491  -2.086  1.00  0.00    +0.000 H 
ATOM    128  H24 UNL A   1       9.737  33.791  -2.293  1.00  0.00    +0.000 H 
ENDBRANCH   18   19
BRANCH   18   20
ATOM    129  H25 UNL A   1      11.861  32.897   0.674  1.00  0.00    +0.000 H 
ATOM    130  H26 UNL A   1      10.345  32.598   1.488  1.00  0.00    +0.000 H 
ATOM    131  H27 UNL A   1      10.607  34.113   0.661  1.00  0.00    +0.000 H 
ATOM     20  C19 UNL A   1      10.804  33.062   0.642  1.00  0.00    +0.000 C 
ENDBRANCH   18   20
ENDBRANCH   21   18
ENDBRANCH   23   21
ENDBRANCH   24   23
ENDBRANCH   25   24
ENDBRANCH   26   25
ENDBRANCH   27   26
ENDBRANCH   28   27
ENDBRANCH   29   28
ENDBRANCH   30   29
ENDBRANCH   31   30
ENDBRANCH   33   31
ENDBRANCH   37   36
BRANCH   41   42
ATOM     42  C36 UNL A   1      15.681  23.194  -2.234  1.00  0.00    +0.000 C 
ATOM     43  C37 UNL A   1      14.300  23.059  -1.991  1.00  0.00    +0.000 C 
ATOM     44  F1  UNL A   1      13.713  23.743  -0.996  1.00  0.00    +0.000 F 
ATOM     45  C38 UNL A   1      13.510  22.157  -2.710  1.00  0.00    +0.000 C 
ATOM     46  F2  UNL A   1      12.223  21.985  -2.376  1.00  0.00    +0.000 F 
ATOM     47  C39 UNL A   1      14.060  21.393  -3.724  1.00  0.00    +0.000 C 
ATOM     48  F3  UNL A   1      13.315  20.495  -4.381  1.00  0.00    +0.000 F 
ATOM     49  C40 UNL A   1      15.400  21.525  -4.018  1.00  0.00    +0.000 C 
ATOM     50  F4  UNL A   1      15.959  20.771  -4.974  1.00  0.00    +0.000 F 
ATOM     51  C41 UNL A   1      16.200  22.386  -3.269  1.00  0.00    +0.000 C 
ATOM     52  F5  UNL A   1      17.513  22.312  -3.518  1.00  0.00    +0.000 F 
ENDBRANCH   41   42
BRANCH   58   59
ATOM     65  F8  UNL A   1      24.895  23.094   3.499  1.00  0.00    +0.000 F 
ATOM     66  C51 UNL A   1      23.172  23.943   2.126  1.00  0.00    +0.000 C 
ATOM     67  F9  UNL A   1      23.514  25.198   2.449  1.00  0.00    +0.000 F 
ATOM     68  C52 UNL A   1      22.123  23.720   1.240  1.00  0.00    +0.000 C 
ATOM     69  F10 UNL A   1      21.471  24.779   0.736  1.00  0.00    +0.000 F 
ATOM     59  C47 UNL A   1      21.778  22.424   0.832  1.00  0.00    +0.000 C 
ATOM     60  C48 UNL A   1      22.528  21.357   1.354  1.00  0.00    +0.000 C 
ATOM     61  F6  UNL A   1      22.315  20.099   0.943  1.00  0.00    +0.000 F 
ATOM     62  C49 UNL A   1      23.553  21.581   2.275  1.00  0.00    +0.000 C 
ATOM     63  F7  UNL A   1      24.249  20.548   2.770  1.00  0.00    +0.000 F 
ATOM     64  C50 UNL A   1      23.880  22.875   2.651  1.00  0.00    +0.000 C 
ENDBRANCH   58   59
BRANCH   73   74
ATOM     74  C56 UNL A   1      23.883  23.980  -4.917  1.00  0.00    +0.000 C 
ATOM     75  C57 UNL A   1      23.439  24.625  -6.085  1.00  0.00    +0.000 C 
ATOM     76  F11 UNL A   1      22.202  25.141  -6.140  1.00  0.00    +0.000 F 
ATOM     77  C58 UNL A   1      24.284  24.824  -7.182  1.00  0.00    +0.000 C 
ATOM     78  F12 UNL A   1      23.848  25.511  -8.247  1.00  0.00    +0.000 F 
ATOM     79  C59 UNL A   1      25.593  24.374  -7.146  1.00  0.00    +0.000 C 
ATOM     80  F13 UNL A   1      26.425  24.627  -8.165  1.00  0.00    +0.000 F 
ATOM     81  C60 UNL A   1      26.050  23.699  -6.029  1.00  0.00    +0.000 C 
ATOM     82  F14 UNL A   1      27.324  23.290  -5.968  1.00  0.00    +0.000 F 
ATOM     83  C61 UNL A   1      25.208  23.505  -4.932  1.00  0.00    +0.000 C 
ATOM     84  F15 UNL A   1      25.746  22.933  -3.845  1.00  0.00    +0.000 F 
ENDBRANCH   73   74
TORSDOF 25
ENDMDL
MODEL 2
REMARK VINA RESULT:      -9.3      1.847      3.686
ROOT
ATOM    148  H44 UNL A   1      16.925  23.578   1.823  1.00  0.00    +0.000 H 
ATOM    149  H45 UNL A   1      19.430  22.809   2.265  1.00  0.00    +0.000 H 
ATOM    150  H46 UNL A   1      18.384  21.805  -1.530  1.00  0.00    +0.000 H 
ATOM    151  H47 UNL A   1      24.289  26.825  -3.412  1.00  0.00    +0.000 H 
ATOM    152  H48 UNL A   1      22.736  28.336  -2.073  1.00  0.00    +0.000 H 
ATOM    153  H49 UNL A   1      20.887  24.624  -2.345  1.00  0.00    +0.000 H 
ATOM    154  H50 UNL A   1      20.970  22.617  -4.913  1.00  0.00    +0.000 H 
ATOM    155  H51 UNL A   1      19.571  21.702  -2.950  1.00  0.00    +0.000 H 
ATOM    156  H52 UNL A   1      15.709  26.298  -2.584  1.00  0.00    +0.000 H 
ATOM    157  H53 UNL A   1      17.670  27.844  -3.202  1.00  0.00    +0.000 H 
ATOM     37  C32 UNL A   1      20.078  27.232  -1.765  1.00  0.00    +0.000 C 
ATOM     38  C33 UNL A   1      18.786  26.486  -1.764  1.00  0.00    +0.000 C 
ATOM     39  N3  UNL A   1      18.453  25.470  -1.033  1.00  0.00    +0.000 N 
ATOM     40  C34 UNL A   1      17.163  25.124  -1.430  1.00  0.00    +0.000 C 
ATOM     41  C35 UNL A   1      16.670  23.871  -1.232  1.00  0.00    +0.000 C 
ATOM     53  C42 UNL A   1      17.424  23.156  -0.241  1.00  0.00    +0.000 C 
ATOM     54  C43 UNL A   1      17.610  23.259   1.121  1.00  0.00    +0.000 C 
ATOM     55  C44 UNL A   1      18.950  22.827   1.352  1.00  0.00    +0.000 C 
ATOM     56  C45 UNL A   1      19.501  22.437   0.130  1.00  0.00    +0.000 C 
ATOM     57  N4  UNL A   1      18.427  22.354  -0.714  1.00  0.00    +0.000 N 
ATOM     58  C46 UNL A   1      20.867  22.283  -0.318  1.00  0.00    +0.000 C 
ATOM     70  C53 UNL A   1      21.261  22.201  -1.622  1.00  0.00    +0.000 C 
ATOM     71  N5  UNL A   1      22.541  22.582  -1.990  1.00  0.00    +0.000 N 
ATOM     72  C54 UNL A   1      22.418  23.000  -3.219  1.00  0.00    +0.000 C 
ATOM     73  C55 UNL A   1      23.186  24.135  -3.781  1.00  0.00    +0.000 C 
ATOM     85  C62 UNL A   1      22.758  25.251  -3.142  1.00  0.00    +0.000 C 
ATOM     86  C63 UNL A   1      23.365  26.559  -3.039  1.00  0.00    +0.000 C 
ATOM     87  C64 UNL A   1      22.521  27.373  -2.373  1.00  0.00    +0.000 C 
ATOM     88  C65 UNL A   1      21.251  26.680  -2.140  1.00  0.00    +0.000 C 
ATOM     89  N6  UNL A   1      21.504  25.375  -2.507  1.00  0.00    +0.000 N 
ATOM     90  C66 UNL A   1      21.216  22.571  -3.911  1.00  0.00    +0.000 C 
ATOM     91  C67 UNL A   1      20.522  22.097  -2.875  1.00  0.00    +0.000 C 
ATOM     92  C68 UNL A   1      16.684  26.193  -2.265  1.00  0.00    +0.000 C 
ATOM     93  C69 UNL A   1      17.677  27.029  -2.569  1.00  0.00    +0.000 C 
ENDROOT
BRANCH   37   36
ATOM     33  C28 UNL A   1      19.772  31.377  -0.889  1.00  0.00    +0.000 C 
ATOM     34  C29 UNL A   1      19.963  30.931  -2.197  1.00  0.00    +0.000 C 
ATOM     35  C30 UNL A   1      20.032  29.573  -2.476  1.00  0.00    +0.000 C 
ATOM     36  C31 UNL A   1      19.948  28.647  -1.436  1.00  0.00    +0.000 C 
ATOM    146  H42 UNL A   1      20.056  31.616  -2.964  1.00  0.00    +0.000 H 
ATOM    147  H43 UNL A   1      20.143  29.250  -3.450  1.00  0.00    +0.000 H 
ATOM    158  H54 UNL A   1      19.892  28.391   0.657  1.00  0.00    +0.000 H 
ATOM    159  H55 UNL A   1      19.681  30.752   1.128  1.00  0.00    +0.000 H 
ATOM     94  C70 UNL A   1      19.871  29.075  -0.115  1.00  0.00    +0.000 C 
ATOM     95  C71 UNL A   1      19.765  30.431   0.151  1.00  0.00    +0.000 C 
BRANCH   33   31
ATOM     31  C27 UNL A   1      19.538  32.782  -0.473  1.00  0.00    +0.000 C 
ATOM     32  O2  UNL A   1      20.312  33.657  -0.867  1.00  0.00    +0.000 O 
BRANCH   31   30
ATOM    145  H41 UNL A   1      18.105  34.018   0.054  1.00  0.00    +0.000 H 
ATOM     30  N2  UNL A   1      18.543  33.192   0.363  1.00  0.00    +0.000 N 
BRANCH   30   29
ATOM     29  C26 UNL A   1      17.985  32.693   1.598  1.00  0.00    +0.000 C 
ATOM    143  H39 UNL A   1      18.687  32.018   2.044  1.00  0.00    +0.000 H 
ATOM    144  H40 UNL A   1      17.789  33.536   2.228  1.00  0.00    +0.000 H 
BRANCH   29   28
ATOM     28  C25 UNL A   1      16.661  31.954   1.395  1.00  0.00    +0.000 C 
ATOM    141  H37 UNL A   1      16.677  31.489   0.432  1.00  0.00    +0.000 H 
ATOM    142  H38 UNL A   1      16.572  31.240   2.187  1.00  0.00    +0.000 H 
BRANCH   28   27
ATOM     27  C24 UNL A   1      15.434  32.875   1.473  1.00  0.00    +0.000 C 
ATOM    140  H36 UNL A   1      15.717  33.795   1.005  1.00  0.00    +0.000 H 
ATOM    139  H35 UNL A   1      15.169  32.990   2.502  1.00  0.00    +0.000 H 
BRANCH   27   26
ATOM    137  H33 UNL A   1      14.325  32.584  -0.324  1.00  0.00    +0.000 H 
ATOM     26  C23 UNL A   1      14.201  32.362   0.715  1.00  0.00    +0.000 C 
ATOM    138  H34 UNL A   1      14.132  31.311   0.901  1.00  0.00    +0.000 H 
BRANCH   26   25
ATOM     25  C22 UNL A   1      12.898  32.985   1.187  1.00  0.00    +0.000 C 
ATOM    135  H31 UNL A   1      12.395  32.300   1.838  1.00  0.00    +0.000 H 
ATOM    136  H32 UNL A   1      13.117  33.895   1.707  1.00  0.00    +0.000 H 
BRANCH   25   24
ATOM    133  H29 UNL A   1      11.207  33.931   0.342  1.00  0.00    +0.000 H 
ATOM    134  H30 UNL A   1      12.593  33.786  -0.735  1.00  0.00    +0.000 H 
ATOM     24  C21 UNL A   1      12.006  33.299   0.013  1.00  0.00    +0.000 C 
BRANCH   24   23
ATOM    132  H28 UNL A   1      11.878  31.756  -1.380  1.00  0.00    +0.000 H 
ATOM     23  N1  UNL A   1      11.443  32.090  -0.563  1.00  0.00    +0.000 N 
BRANCH   23   21
ATOM     21  C20 UNL A   1      10.374  31.355  -0.100  1.00  0.00    +0.000 C 
ATOM     22  O1  UNL A   1       9.529  31.950   0.539  1.00  0.00    +0.000 O 
BRANCH   21   18
ATOM     18  C17 UNL A   1      10.471  29.827  -0.198  1.00  0.00    +0.000 C 
BRANCH   18   17
ATOM     17  C16 UNL A   1      10.028  29.104  -1.503  1.00  0.00    +0.000 C 
ATOM    124  H20 UNL A   1      10.904  28.688  -1.957  1.00  0.00    +0.000 H 
ATOM    125  H21 UNL A   1       9.300  28.384  -1.192  1.00  0.00    +0.000 H 
BRANCH   17   16
ATOM      4  C4  UNL A   1       7.535  33.492  -4.812  1.00  0.00    +0.000 C 
ATOM      5  C5  UNL A   1       8.695  33.289  -5.565  1.00  0.00    +0.000 C 
ATOM      6  C6  UNL A   1       9.577  32.238  -5.288  1.00  0.00    +0.000 C 
ATOM      7  C7  UNL A   1       9.286  31.379  -4.215  1.00  0.00    +0.000 C 
ATOM      8  C8  UNL A   1       8.095  31.496  -3.478  1.00  0.00    +0.000 C 
ATOM      9  C9  UNL A   1       7.217  32.565  -3.802  1.00  0.00    +0.000 C 
ATOM     10  C10 UNL A   1       8.076  30.457  -2.473  1.00  0.00    +0.000 C 
ATOM    112  H8  UNL A   1       8.907  33.931  -6.344  1.00  0.00    +0.000 H 
ATOM    113  H9  UNL A   1      10.424  32.097  -5.861  1.00  0.00    +0.000 H 
ATOM    114  H10 UNL A   1       6.328  32.664  -3.285  1.00  0.00    +0.000 H 
ATOM     16  C15 UNL A   1       9.355  29.921  -2.510  1.00  0.00    +0.000 C 
ATOM     96  N7  UNL A   1      10.010  30.328  -3.669  1.00  0.00    +0.000 N 
BRANCH    4    2
ATOM      2  C2  UNL A   1       6.660  34.699  -5.111  1.00  0.00    +0.000 C 
ATOM    108  H4  UNL A   1       6.724  34.862  -6.166  1.00  0.00    +0.000 H 
BRANCH    2    1
ATOM      1  C1  UNL A   1       5.205  34.421  -4.737  1.00  0.00    +0.000 C 
ATOM    106  H2  UNL A   1       4.834  33.607  -5.325  1.00  0.00    +0.000 H 
ATOM    107  H3  UNL A   1       4.615  35.294  -4.925  1.00  0.00    +0.000 H 
ATOM    105  H1  UNL A   1       5.145  34.166  -3.699  1.00  0.00    +0.000 H 
ENDBRANCH    2    1
BRANCH    2    3
ATOM      3  C3  UNL A   1       7.157  35.989  -4.447  1.00  0.00    +0.000 C 
ATOM    109  H5  UNL A   1       8.069  35.791  -3.923  1.00  0.00    +0.000 H 
ATOM    110  H6  UNL A   1       6.419  36.342  -3.758  1.00  0.00    +0.000 H 
ATOM    111  H7  UNL A   1       7.330  36.732  -5.197  1.00  0.00    +0.000 H 
ENDBRANCH    2    3
ENDBRANCH    4    2
BRANCH   10   11
ATOM     11  S1  UNL A   1       6.706  30.285  -1.335  1.00  0.00    +0.000 S 
ATOM     12  C11 UNL A   1       5.595  31.752  -0.945  1.00  0.00    +0.000 C 
ATOM     13  C12 UNL A   1       6.384  32.821  -0.181  1.00  0.00    +0.000 C 
ATOM     14  C13 UNL A   1       4.692  32.474  -1.976  1.00  0.00    +0.000 C 
ATOM     15  C14 UNL A   1       4.524  31.121  -0.013  1.00  0.00    +0.000 C 
ATOM    115  H11 UNL A   1       7.120  33.252  -0.827  1.00  0.00    +0.000 H 
ATOM    116  H12 UNL A   1       6.868  32.373   0.662  1.00  0.00    +0.000 H 
ATOM    117  H13 UNL A   1       5.715  33.584   0.158  1.00  0.00    +0.000 H 
ATOM    118  H14 UNL A   1       5.303  32.969  -2.702  1.00  0.00    +0.000 H 
ATOM    119  H15 UNL A   1       4.082  33.195  -1.472  1.00  0.00    +0.000 H 
ATOM    120  H16 UNL A   1       4.066  31.757  -2.465  1.00  0.00    +0.000 H 
ATOM    121  H17 UNL A   1       5.008  30.576   0.770  1.00  0.00    +0.000 H 
ATOM    122  H18 UNL A   1       3.904  30.457  -0.579  1.00  0.00    +0.000 H 
ATOM    123  H19 UNL A   1       3.920  31.895   0.413  1.00  0.00    +0.000 H 
ENDBRANCH   10   11
BRANCH   96   97
ATOM     97  C72 UNL A   1      11.156  29.651  -4.347  1.00  0.00    +0.000 C 
ATOM    161  H57 UNL A   1      10.939  28.609  -4.241  1.00  0.00    +0.000 H 
ATOM    160  H56 UNL A   1      11.198  30.030  -5.346  1.00  0.00    +0.000 H 
BRANCH   97   98
ATOM     98  C73 UNL A   1      12.554  29.796  -3.754  1.00  0.00    +0.000 C 
ATOM     99  C74 UNL A   1      13.363  28.671  -3.492  1.00  0.00    +0.000 C 
ATOM    100  C75 UNL A   1      14.532  28.772  -2.727  1.00  0.00    +0.000 C 
ATOM    162  H58 UNL A   1      13.088  27.753  -3.874  1.00  0.00    +0.000 H 
ATOM    165  H61 UNL A   1      12.576  31.910  -3.708  1.00  0.00    +0.000 H 
ATOM    103  C77 UNL A   1      14.292  31.168  -2.718  1.00  0.00    +0.000 C 
ATOM    104  C78 UNL A   1      13.082  31.056  -3.426  1.00  0.00    +0.000 C 
ATOM    163  H59 UNL A   1      15.060  27.924  -2.471  1.00  0.00    +0.000 H 
ATOM    164  H60 UNL A   1      14.673  32.101  -2.494  1.00  0.00    +0.000 H 
ATOM    101  C76 UNL A   1      14.975  30.022  -2.317  1.00  0.00    +0.000 C 
ATOM    102 Cl1  UNL A   1      16.346  30.142  -1.282  1.00  0.00    +0.000 Cl
ENDBRANCH   97   98
ENDBRANCH   96   97
ENDBRANCH   17   16
ENDBRANCH   18   17
BRANCH   18   19
ATOM     19  C18 UNL A   1       9.484  29.525   0.967  1.00  0.00    +0.000 C 
ATOM    126  H22 UNL A   1       8.907  30.401   1.182  1.00  0.00    +0.000 H 
ATOM    127  H23 UNL A   1      10.037  29.240   1.838  1.00  0.00    +0.000 H 
ATOM    128  H24 UNL A   1       8.830  28.728   0.683  1.00  0.00    +0.000 H 
ENDBRANCH   18   19
BRANCH   18   20
ATOM    129  H25 UNL A   1      12.578  30.329  -0.114  1.00  0.00    +0.000 H 
ATOM    130  H26 UNL A   1      12.237  28.873  -1.017  1.00  0.00    +0.000 H 
ATOM    131  H27 UNL A   1      12.172  28.854   0.729  1.00  0.00    +0.000 H 
ATOM     20  C19 UNL A   1      11.984  29.440  -0.146  1.00  0.00    +0.000 C 
ENDBRANCH   18   20
ENDBRANCH   21   18
ENDBRANCH   23   21
ENDBRANCH   24   23
ENDBRANCH   25   24
ENDBRANCH   26   25
ENDBRANCH   27   26
ENDBRANCH   28   27
ENDBRANCH   29   28
ENDBRANCH   30   29
ENDBRANCH   31   30
ENDBRANCH   33   31
ENDBRANCH   37   36
BRANCH   41   42
ATOM     42  C36 UNL A   1      15.781  23.160  -2.223  1.00  0.00    +0.000 C 
ATOM     43  C37 UNL A   1      14.400  23.046  -1.972  1.00  0.00    +0.000 C 
ATOM     44  F1  UNL A   1      13.826  23.751  -0.985  1.00  0.00    +0.000 F 
ATOM     45  C38 UNL A   1      13.596  22.142  -2.674  1.00  0.00    +0.000 C 
ATOM     46  F2  UNL A   1      12.309  21.990  -2.332  1.00  0.00    +0.000 F 
ATOM     47  C39 UNL A   1      14.132  21.356  -3.679  1.00  0.00    +0.000 C 
ATOM     48  F3  UNL A   1      13.374  20.457  -4.319  1.00  0.00    +0.000 F 
ATOM     49  C40 UNL A   1      15.472  21.468  -3.981  1.00  0.00    +0.000 C 
ATOM     50  F4  UNL A   1      16.017  20.693  -4.928  1.00  0.00    +0.000 F 
ATOM     51  C41 UNL A   1      16.286  22.331  -3.249  1.00  0.00    +0.000 C 
ATOM     52  F5  UNL A   1      17.597  22.238  -3.502  1.00  0.00    +0.000 F 
ENDBRANCH   41   42
BRANCH   58   59
ATOM     65  F8  UNL A   1      24.686  22.597   3.840  1.00  0.00    +0.000 F 
ATOM     66  C51 UNL A   1      23.392  21.322   2.332  1.00  0.00    +0.000 C 
ATOM     67  F9  UNL A   1      23.839  20.187   2.885  1.00  0.00    +0.000 F 
ATOM     68  C52 UNL A   1      22.480  21.266   1.283  1.00  0.00    +0.000 C 
ATOM     69  F10 UNL A   1      22.079  20.064   0.844  1.00  0.00    +0.000 F 
ATOM     59  C47 UNL A   1      21.943  22.434   0.721  1.00  0.00    +0.000 C 
ATOM     60  C48 UNL A   1      22.363  23.664   1.254  1.00  0.00    +0.000 C 
ATOM     61  F6  UNL A   1      21.828  24.817   0.829  1.00  0.00    +0.000 F 
ATOM     62  C49 UNL A   1      23.309  23.718   2.280  1.00  0.00    +0.000 C 
ATOM     63  F7  UNL A   1      23.705  24.903   2.766  1.00  0.00    +0.000 F 
ATOM     64  C50 UNL A   1      23.814  22.547   2.824  1.00  0.00    +0.000 C 
ENDBRANCH   58   59
BRANCH   73   74
ATOM     74  C56 UNL A   1      23.923  24.027  -5.062  1.00  0.00    +0.000 C 
ATOM     75  C57 UNL A   1      23.414  24.613  -6.235  1.00  0.00    +0.000 C 
ATOM     76  F11 UNL A   1      22.148  25.054  -6.272  1.00  0.00    +0.000 F 
ATOM     77  C58 UNL A   1      24.221  24.832  -7.357  1.00  0.00    +0.000 C 
ATOM     78  F12 UNL A   1      23.720  25.463  -8.428  1.00  0.00    +0.000 F 
ATOM     79  C59 UNL A   1      25.555  24.460  -7.342  1.00  0.00    +0.000 C 
ATOM     80  F13 UNL A   1      26.347  24.735  -8.387  1.00  0.00    +0.000 F 
ATOM     81  C60 UNL A   1      26.076  23.843  -6.219  1.00  0.00    +0.000 C 
ATOM     82  F14 UNL A   1      27.374  23.511  -6.179  1.00  0.00    +0.000 F 
ATOM     83  C61 UNL A   1      25.273  23.630  -5.097  1.00  0.00    +0.000 C 
ATOM     84  F15 UNL A   1      25.869  23.120  -4.010  1.00  0.00    +0.000 F 
ENDBRANCH   73   74
TORSDOF 25
ENDMDL
MODEL 3
REMARK VINA RESULT:      -9.2      7.499     12.228
ROOT
ATOM    148  H44 UNL A   1      18.873  14.249   7.665  1.00  0.00    +0.000 H 
ATOM    149  H45 UNL A   1      20.388  15.187   9.637  1.00  0.00    +0.000 H 
ATOM    150  H46 UNL A   1      22.762  13.358   6.894  1.00  0.00    +0.000 H 
ATOM    151  H47 UNL A   1      25.845  20.679   6.167  1.00  0.00    +0.000 H 
ATOM    152  H48 UNL A   1      23.399  21.090   5.588  1.00  0.00    +0.000 H 
ATOM    153  H49 UNL A   1      23.826  17.008   6.240  1.00  0.00    +0.000 H 
ATOM    154  H50 UNL A   1      26.409  15.190   5.432  1.00  0.00    +0.000 H 
ATOM    155  H51 UNL A   1      24.520  13.836   6.547  1.00  0.00    +0.000 H 
ATOM    156  H52 UNL A   1      20.193  15.208   2.601  1.00  0.00    +0.000 H 
ATOM    157  H53 UNL A   1      21.257  17.544   2.424  1.00  0.00    +0.000 H 
ATOM     37  C32 UNL A   1      21.960  18.654   4.975  1.00  0.00    +0.000 C 
ATOM     38  C33 UNL A   1      21.442  17.288   4.673  1.00  0.00    +0.000 C 
ATOM     39  N3  UNL A   1      21.103  16.361   5.511  1.00  0.00    +0.000 N 
ATOM     40  C34 UNL A   1      20.716  15.271   4.734  1.00  0.00    +0.000 C 
ATOM     41  C35 UNL A   1      20.738  14.003   5.226  1.00  0.00    +0.000 C 
ATOM     53  C42 UNL A   1      20.774  13.993   6.662  1.00  0.00    +0.000 C 
ATOM     54  C43 UNL A   1      19.901  14.331   7.673  1.00  0.00    +0.000 C 
ATOM     55  C44 UNL A   1      20.723  14.817   8.734  1.00  0.00    +0.000 C 
ATOM     56  C45 UNL A   1      22.057  14.707   8.339  1.00  0.00    +0.000 C 
ATOM     57  N4  UNL A   1      22.017  13.907   7.230  1.00  0.00    +0.000 N 
ATOM     58  C46 UNL A   1      23.266  15.354   8.798  1.00  0.00    +0.000 C 
ATOM     70  C53 UNL A   1      24.448  15.386   8.116  1.00  0.00    +0.000 C 
ATOM     71  N5  UNL A   1      25.349  16.416   8.328  1.00  0.00    +0.000 N 
ATOM     72  C54 UNL A   1      25.975  16.543   7.191  1.00  0.00    +0.000 C 
ATOM     73  C55 UNL A   1      26.420  17.844   6.639  1.00  0.00    +0.000 C 
ATOM     85  C62 UNL A   1      25.298  18.541   6.333  1.00  0.00    +0.000 C 
ATOM     86  C63 UNL A   1      25.115  19.953   6.085  1.00  0.00    +0.000 C 
ATOM     87  C64 UNL A   1      23.832  20.165   5.731  1.00  0.00    +0.000 C 
ATOM     88  C65 UNL A   1      23.146  18.879   5.578  1.00  0.00    +0.000 C 
ATOM     89  N6  UNL A   1      24.040  17.956   6.079  1.00  0.00    +0.000 N 
ATOM     90  C66 UNL A   1      25.879  15.408   6.291  1.00  0.00    +0.000 C 
ATOM     91  C67 UNL A   1      24.905  14.727   6.898  1.00  0.00    +0.000 C 
ATOM     92  C68 UNL A   1      20.608  15.743   3.380  1.00  0.00    +0.000 C 
ATOM     93  C69 UNL A   1      21.121  16.969   3.270  1.00  0.00    +0.000 C 
ENDROOT
BRANCH   37   36
ATOM     33  C28 UNL A   1      19.625  21.869   3.473  1.00  0.00    +0.000 C 
ATOM     34  C29 UNL A   1      20.978  21.754   3.155  1.00  0.00    +0.000 C 
ATOM     35  C30 UNL A   1      21.724  20.683   3.626  1.00  0.00    +0.000 C 
ATOM     36  C31 UNL A   1      21.127  19.735   4.458  1.00  0.00    +0.000 C 
ATOM    146  H42 UNL A   1      21.429  22.471   2.564  1.00  0.00    +0.000 H 
ATOM    147  H43 UNL A   1      22.718  20.588   3.362  1.00  0.00    +0.000 H 
ATOM    158  H54 UNL A   1      19.397  19.236   5.556  1.00  0.00    +0.000 H 
ATOM    159  H55 UNL A   1      18.078  21.051   4.659  1.00  0.00    +0.000 H 
ATOM     94  C70 UNL A   1      19.811  19.893   4.877  1.00  0.00    +0.000 C 
ATOM     95  C71 UNL A   1      19.063  20.945   4.371  1.00  0.00    +0.000 C 
BRANCH   33   31
ATOM     31  C27 UNL A   1      18.683  22.875   2.923  1.00  0.00    +0.000 C 
ATOM     32  O2  UNL A   1      17.971  23.514   3.702  1.00  0.00    +0.000 O 
BRANCH   31   30
ATOM    145  H41 UNL A   1      17.619  23.525   1.405  1.00  0.00    +0.000 H 
ATOM     30  N2  UNL A   1      18.499  23.129   1.597  1.00  0.00    +0.000 N 
BRANCH   30   29
ATOM     29  C26 UNL A   1      19.302  22.950   0.409  1.00  0.00    +0.000 C 
ATOM    143  H39 UNL A   1      20.294  22.677   0.704  1.00  0.00    +0.000 H 
ATOM    144  H40 UNL A   1      18.838  22.188  -0.181  1.00  0.00    +0.000 H 
BRANCH   29   28
ATOM     28  C25 UNL A   1      19.380  24.213  -0.450  1.00  0.00    +0.000 C 
ATOM    141  H37 UNL A   1      18.828  24.989   0.037  1.00  0.00    +0.000 H 
ATOM    142  H38 UNL A   1      20.415  24.461  -0.557  1.00  0.00    +0.000 H 
BRANCH   28   27
ATOM     27  C24 UNL A   1      18.809  24.022  -1.863  1.00  0.00    +0.000 C 
ATOM    140  H36 UNL A   1      18.648  22.971  -1.984  1.00  0.00    +0.000 H 
ATOM    139  H35 UNL A   1      19.511  24.423  -2.563  1.00  0.00    +0.000 H 
BRANCH   27   26
ATOM    137  H33 UNL A   1      17.452  25.643  -1.598  1.00  0.00    +0.000 H 
ATOM     26  C23 UNL A   1      17.451  24.700  -2.102  1.00  0.00    +0.000 C 
ATOM    138  H34 UNL A   1      17.335  24.805  -3.160  1.00  0.00    +0.000 H 
BRANCH   26   25
ATOM     25  C22 UNL A   1      16.271  23.886  -1.600  1.00  0.00    +0.000 C 
ATOM    135  H31 UNL A   1      16.519  23.452  -0.654  1.00  0.00    +0.000 H 
ATOM    136  H32 UNL A   1      15.423  24.531  -1.499  1.00  0.00    +0.000 H 
BRANCH   25   24
ATOM    133  H29 UNL A   1      14.920  22.909  -2.899  1.00  0.00    +0.000 H 
ATOM    134  H30 UNL A   1      16.606  22.854  -3.404  1.00  0.00    +0.000 H 
ATOM     24  C21 UNL A   1      15.933  22.788  -2.576  1.00  0.00    +0.000 C 
BRANCH   24   23
ATOM    132  H28 UNL A   1      17.004  21.149  -1.866  1.00  0.00    +0.000 H 
ATOM     23  N1  UNL A   1      16.082  21.476  -1.970  1.00  0.00    +0.000 N 
BRANCH   23   21
ATOM     21  C20 UNL A   1      15.085  20.637  -1.523  1.00  0.00    +0.000 C 
ATOM     22  O1  UNL A   1      13.946  20.906  -1.851  1.00  0.00    +0.000 O 
BRANCH   21   18
ATOM     18  C17 UNL A   1      15.457  19.607  -0.449  1.00  0.00    +0.000 C 
BRANCH   18   17
ATOM     17  C16 UNL A   1      14.573  19.459   0.823  1.00  0.00    +0.000 C 
ATOM    124  H20 UNL A   1      13.573  19.732   0.556  1.00  0.00    +0.000 H 
ATOM    125  H21 UNL A   1      14.692  18.441   1.131  1.00  0.00    +0.000 H 
BRANCH   17   16
ATOM      4  C4  UNL A   1      14.855  22.586   5.977  1.00  0.00    +0.000 C 
ATOM      5  C5  UNL A   1      15.522  21.430   6.391  1.00  0.00    +0.000 C 
ATOM      6  C6  UNL A   1      15.858  20.413   5.491  1.00  0.00    +0.000 C 
ATOM      7  C7  UNL A   1      15.499  20.561   4.140  1.00  0.00    +0.000 C 
ATOM      8  C8  UNL A   1      14.896  21.737   3.663  1.00  0.00    +0.000 C 
ATOM      9  C9  UNL A   1      14.587  22.755   4.605  1.00  0.00    +0.000 C 
ATOM     10  C10 UNL A   1      14.682  21.595   2.240  1.00  0.00    +0.000 C 
ATOM    112  H8  UNL A   1      15.772  21.323   7.387  1.00  0.00    +0.000 H 
ATOM    113  H9  UNL A   1      16.361  19.570   5.812  1.00  0.00    +0.000 H 
ATOM    114  H10 UNL A   1      14.157  23.634   4.278  1.00  0.00    +0.000 H 
ATOM     16  C15 UNL A   1      14.954  20.260   1.985  1.00  0.00    +0.000 C 
ATOM     96  N7  UNL A   1      15.626  19.693   3.065  1.00  0.00    +0.000 N 
BRANCH    4    2
ATOM      2  C2  UNL A   1      14.445  23.618   7.017  1.00  0.00    +0.000 C 
ATOM    108  H4  UNL A   1      15.234  24.339   7.051  1.00  0.00    +0.000 H 
BRANCH    2    1
ATOM      1  C1  UNL A   1      13.149  24.316   6.607  1.00  0.00    +0.000 C 
ATOM    106  H2  UNL A   1      13.368  25.089   5.900  1.00  0.00    +0.000 H 
ATOM    107  H3  UNL A   1      12.686  24.745   7.471  1.00  0.00    +0.000 H 
ATOM    105  H1  UNL A   1      12.485  23.604   6.162  1.00  0.00    +0.000 H 
ENDBRANCH    2    1
BRANCH    2    3
ATOM      3  C3  UNL A   1      14.329  23.040   8.432  1.00  0.00    +0.000 C 
ATOM    109  H5  UNL A   1      15.195  22.448   8.647  1.00  0.00    +0.000 H 
ATOM    110  H6  UNL A   1      13.454  22.429   8.498  1.00  0.00    +0.000 H 
ATOM    111  H7  UNL A   1      14.260  23.841   9.139  1.00  0.00    +0.000 H 
ENDBRANCH    2    3
ENDBRANCH    4    2
BRANCH   10   11
ATOM     11  S1  UNL A   1      13.930  22.900   1.275  1.00  0.00    +0.000 S 
ATOM     12  C11 UNL A   1      12.181  23.484   1.653  1.00  0.00    +0.000 C 
ATOM     13  C12 UNL A   1      11.176  22.371   1.340  1.00  0.00    +0.000 C 
ATOM     14  C13 UNL A   1      11.744  24.164   2.974  1.00  0.00    +0.000 C 
ATOM     15  C14 UNL A   1      11.998  24.658   0.649  1.00  0.00    +0.000 C 
ATOM    115  H11 UNL A   1      11.307  21.567   2.034  1.00  0.00    +0.000 H 
ATOM    116  H12 UNL A   1      11.337  22.014   0.345  1.00  0.00    +0.000 H 
ATOM    117  H13 UNL A   1      10.181  22.755   1.423  1.00  0.00    +0.000 H 
ATOM    118  H14 UNL A   1      11.818  23.462   3.778  1.00  0.00    +0.000 H 
ATOM    119  H15 UNL A   1      10.731  24.499   2.885  1.00  0.00    +0.000 H 
ATOM    120  H16 UNL A   1      12.380  25.001   3.172  1.00  0.00    +0.000 H 
ATOM    121  H17 UNL A   1      12.267  24.332  -0.333  1.00  0.00    +0.000 H 
ATOM    122  H18 UNL A   1      12.623  25.477   0.939  1.00  0.00    +0.000 H 
ATOM    123  H19 UNL A   1      10.975  24.973   0.652  1.00  0.00    +0.000 H 
ENDBRANCH   10   11
BRANCH   96   97
ATOM     97  C72 UNL A   1      16.508  18.489   3.052  1.00  0.00    +0.000 C 
ATOM    161  H57 UNL A   1      16.200  17.953   2.178  1.00  0.00    +0.000 H 
ATOM    160  H56 UNL A   1      17.518  18.839   3.065  1.00  0.00    +0.000 H 
BRANCH   97   98
ATOM     98  C73 UNL A   1      16.375  17.465   4.175  1.00  0.00    +0.000 C 
ATOM     99  C74 UNL A   1      15.135  16.869   4.486  1.00  0.00    +0.000 C 
ATOM    100  C75 UNL A   1      14.953  16.127   5.660  1.00  0.00    +0.000 C 
ATOM    162  H58 UNL A   1      14.344  16.982   3.833  1.00  0.00    +0.000 H 
ATOM    165  H61 UNL A   1      18.425  17.410   4.692  1.00  0.00    +0.000 H 
ATOM    103  C77 UNL A   1      17.315  16.288   6.101  1.00  0.00    +0.000 C 
ATOM    104  C78 UNL A   1      17.480  17.091   4.959  1.00  0.00    +0.000 C 
ATOM    163  H59 UNL A   1      14.017  15.777   5.913  1.00  0.00    +0.000 H 
ATOM    164  H60 UNL A   1      18.138  16.012   6.660  1.00  0.00    +0.000 H 
ATOM    101  C76 UNL A   1      16.043  15.865   6.480  1.00  0.00    +0.000 C 
ATOM    102 Cl1  UNL A   1      15.805  15.052   7.978  1.00  0.00    +0.000 Cl
ENDBRANCH   97   98
ENDBRANCH   96   97
ENDBRANCH   17   16
ENDBRANCH   18   17
BRANCH   18   19
ATOM     19  C18 UNL A   1      16.839  20.230  -0.096  1.00  0.00    +0.000 C 
ATOM    126  H22 UNL A   1      16.937  20.300   0.968  1.00  0.00    +0.000 H 
ATOM    127  H23 UNL A   1      16.910  21.208  -0.525  1.00  0.00    +0.000 H 
ATOM    128  H24 UNL A   1      17.620  19.612  -0.486  1.00  0.00    +0.000 H 
ENDBRANCH   18   19
BRANCH   18   20
ATOM    129  H25 UNL A   1      15.754  18.177  -2.051  1.00  0.00    +0.000 H 
ATOM    130  H26 UNL A   1      14.270  17.938  -1.160  1.00  0.00    +0.000 H 
ATOM    131  H27 UNL A   1      15.797  17.466  -0.456  1.00  0.00    +0.000 H 
ATOM     20  C19 UNL A   1      15.308  18.185  -1.078  1.00  0.00    +0.000 C 
ENDBRANCH   18   20
ENDBRANCH   21   18
ENDBRANCH   23   21
ENDBRANCH   24   23
ENDBRANCH   25   24
ENDBRANCH   26   25
ENDBRANCH   27   26
ENDBRANCH   28   27
ENDBRANCH   29   28
ENDBRANCH   30   29
ENDBRANCH   31   30
ENDBRANCH   33   31
ENDBRANCH   37   36
BRANCH   41   42
ATOM     42  C36 UNL A   1      21.146  12.800   4.411  1.00  0.00    +0.000 C 
ATOM     43  C37 UNL A   1      20.279  11.695   4.307  1.00  0.00    +0.000 C 
ATOM     44  F1  UNL A   1      19.008  11.784   4.729  1.00  0.00    +0.000 F 
ATOM     45  C38 UNL A   1      20.722  10.452   3.845  1.00  0.00    +0.000 C 
ATOM     46  F2  UNL A   1      19.891   9.401   3.860  1.00  0.00    +0.000 F 
ATOM     47  C39 UNL A   1      22.030  10.281   3.430  1.00  0.00    +0.000 C 
ATOM     48  F3  UNL A   1      22.468   9.080   3.032  1.00  0.00    +0.000 F 
ATOM     49  C40 UNL A   1      22.899  11.349   3.479  1.00  0.00    +0.000 C 
ATOM     50  F4  UNL A   1      24.179  11.196   3.113  1.00  0.00    +0.000 F 
ATOM     51  C41 UNL A   1      22.474  12.576   3.987  1.00  0.00    +0.000 C 
ATOM     52  F5  UNL A   1      23.435  13.493   4.155  1.00  0.00    +0.000 F 
ENDBRANCH   41   42
BRANCH   58   59
ATOM     65  F8  UNL A   1      22.581  18.344  13.548  1.00  0.00    +0.000 F 
ATOM     66  C51 UNL A   1      23.267  16.375  12.442  1.00  0.00    +0.000 C 
ATOM     67  F9  UNL A   1      23.524  15.787  13.618  1.00  0.00    +0.000 F 
ATOM     68  C52 UNL A   1      23.464  15.669  11.260  1.00  0.00    +0.000 C 
ATOM     69  F10 UNL A   1      23.921  14.410  11.332  1.00  0.00    +0.000 F 
ATOM     59  C47 UNL A   1      23.147  16.230  10.014  1.00  0.00    +0.000 C 
ATOM     60  C48 UNL A   1      22.625  17.535  10.004  1.00  0.00    +0.000 C 
ATOM     61  F6  UNL A   1      22.216  18.103   8.861  1.00  0.00    +0.000 F 
ATOM     62  C49 UNL A   1      22.466  18.255  11.189  1.00  0.00    +0.000 C 
ATOM     63  F7  UNL A   1      21.978  19.504  11.156  1.00  0.00    +0.000 F 
ATOM     64  C50 UNL A   1      22.777  17.670  12.407  1.00  0.00    +0.000 C 
ENDBRANCH   58   59
BRANCH   73   74
ATOM     74  C56 UNL A   1      27.806  18.062   6.162  1.00  0.00    +0.000 C 
ATOM     75  C57 UNL A   1      28.872  18.162   7.073  1.00  0.00    +0.000 C 
ATOM     76  F11 UNL A   1      28.626  18.314   8.383  1.00  0.00    +0.000 F 
ATOM     77  C58 UNL A   1      30.202  18.021   6.666  1.00  0.00    +0.000 C 
ATOM     78  F12 UNL A   1      31.187  18.045   7.575  1.00  0.00    +0.000 F 
ATOM     79  C59 UNL A   1      30.505  17.789   5.334  1.00  0.00    +0.000 C 
ATOM     80  F13 UNL A   1      31.772  17.581   4.953  1.00  0.00    +0.000 F 
ATOM     81  C60 UNL A   1      29.482  17.728   4.405  1.00  0.00    +0.000 C 
ATOM     82  F14 UNL A   1      29.759  17.468   3.120  1.00  0.00    +0.000 F 
ATOM     83  C61 UNL A   1      28.153  17.862   4.813  1.00  0.00    +0.000 C 
ATOM     84  F15 UNL A   1      27.209  17.691   3.876  1.00  0.00    +0.000 F 
ENDBRANCH   73   74
TORSDOF 25
ENDMDL
MODEL 4
REMARK VINA RESULT:      -8.9      7.716     12.748
ROOT
ATOM    148  H44 UNL A   1      18.985  14.188   7.768  1.00  0.00    +0.000 H 
ATOM    149  H45 UNL A   1      20.455  15.229   9.722  1.00  0.00    +0.000 H 
ATOM    150  H46 UNL A   1      22.896  13.312   7.101  1.00  0.00    +0.000 H 
ATOM    151  H47 UNL A   1      25.907  20.631   6.106  1.00  0.00    +0.000 H 
ATOM    152  H48 UNL A   1      23.467  20.987   5.469  1.00  0.00    +0.000 H 
ATOM    153  H49 UNL A   1      23.929  16.943   6.306  1.00  0.00    +0.000 H 
ATOM    154  H50 UNL A   1      26.546  15.123   5.620  1.00  0.00    +0.000 H 
ATOM    155  H51 UNL A   1      24.654  13.796   6.762  1.00  0.00    +0.000 H 
ATOM    156  H52 UNL A   1      20.379  14.942   2.690  1.00  0.00    +0.000 H 
ATOM    157  H53 UNL A   1      21.419  17.281   2.428  1.00  0.00    +0.000 H 
ATOM     37  C32 UNL A   1      22.066  18.510   4.939  1.00  0.00    +0.000 C 
ATOM     38  C33 UNL A   1      21.569  17.126   4.689  1.00  0.00    +0.000 C 
ATOM     39  N3  UNL A   1      21.227  16.232   5.561  1.00  0.00    +0.000 N 
ATOM     40  C34 UNL A   1      20.865  15.104   4.826  1.00  0.00    +0.000 C 
ATOM     41  C35 UNL A   1      20.893  13.859   5.374  1.00  0.00    +0.000 C 
ATOM     53  C42 UNL A   1      20.905  13.912   6.809  1.00  0.00    +0.000 C 
ATOM     54  C43 UNL A   1      20.012  14.283   7.790  1.00  0.00    +0.000 C 
ATOM     55  C44 UNL A   1      20.809  14.824   8.841  1.00  0.00    +0.000 C 
ATOM     56  C45 UNL A   1      22.151  14.713   8.474  1.00  0.00    +0.000 C 
ATOM     57  N4  UNL A   1      22.139  13.865   7.400  1.00  0.00    +0.000 N 
ATOM     58  C46 UNL A   1      23.345  15.395   8.924  1.00  0.00    +0.000 C 
ATOM     70  C53 UNL A   1      24.537  15.412   8.261  1.00  0.00    +0.000 C 
ATOM     71  N5  UNL A   1      25.423  16.461   8.443  1.00  0.00    +0.000 N 
ATOM     72  C54 UNL A   1      26.067  16.545   7.312  1.00  0.00    +0.000 C 
ATOM     73  C55 UNL A   1      26.506  17.826   6.711  1.00  0.00    +0.000 C 
ATOM     85  C62 UNL A   1      25.382  18.496   6.356  1.00  0.00    +0.000 C 
ATOM     86  C63 UNL A   1      25.187  19.894   6.044  1.00  0.00    +0.000 C 
ATOM     87  C64 UNL A   1      23.908  20.074   5.659  1.00  0.00    +0.000 C 
ATOM     88  C65 UNL A   1      23.239  18.775   5.552  1.00  0.00    +0.000 C 
ATOM     89  N6  UNL A   1      24.135  17.885   6.108  1.00  0.00    +0.000 N 
ATOM     90  C66 UNL A   1      25.999  15.371   6.460  1.00  0.00    +0.000 C 
ATOM     91  C67 UNL A   1      25.023  14.706   7.080  1.00  0.00    +0.000 C 
ATOM     92  C68 UNL A   1      20.775  15.516   3.451  1.00  0.00    +0.000 C 
ATOM     93  C69 UNL A   1      21.275  16.742   3.296  1.00  0.00    +0.000 C 
ENDROOT
BRANCH   37   36
ATOM     33  C28 UNL A   1      19.724  21.621   3.245  1.00  0.00    +0.000 C 
ATOM     34  C29 UNL A   1      21.036  21.400   2.826  1.00  0.00    +0.000 C 
ATOM     35  C30 UNL A   1      21.782  20.361   3.365  1.00  0.00    +0.000 C 
ATOM     36  C31 UNL A   1      21.230  19.556   4.362  1.00  0.00    +0.000 C 
ATOM    146  H42 UNL A   1      21.456  22.014   2.110  1.00  0.00    +0.000 H 
ATOM    147  H43 UNL A   1      22.742  20.185   3.029  1.00  0.00    +0.000 H 
ATOM    158  H54 UNL A   1      19.593  19.287   5.664  1.00  0.00    +0.000 H 
ATOM    159  H55 UNL A   1      18.265  21.038   4.659  1.00  0.00    +0.000 H 
ATOM     94  C70 UNL A   1      19.966  19.832   4.872  1.00  0.00    +0.000 C 
ATOM     95  C71 UNL A   1      19.214  20.847   4.302  1.00  0.00    +0.000 C 
BRANCH   33   31
ATOM     31  C27 UNL A   1      18.773  22.596   2.655  1.00  0.00    +0.000 C 
ATOM     32  O2  UNL A   1      18.552  23.651   3.254  1.00  0.00    +0.000 O 
BRANCH   31   30
ATOM    145  H41 UNL A   1      17.421  23.119   1.330  1.00  0.00    +0.000 H 
ATOM     30  N2  UNL A   1      18.073  22.403   1.502  1.00  0.00    +0.000 N 
BRANCH   30   29
ATOM     29  C26 UNL A   1      18.070  21.387   0.475  1.00  0.00    +0.000 C 
ATOM    143  H39 UNL A   1      18.657  20.557   0.812  1.00  0.00    +0.000 H 
ATOM    144  H40 UNL A   1      17.052  21.108   0.300  1.00  0.00    +0.000 H 
BRANCH   29   28
ATOM     28  C25 UNL A   1      18.645  21.883  -0.853  1.00  0.00    +0.000 C 
ATOM    141  H37 UNL A   1      19.189  22.786  -0.670  1.00  0.00    +0.000 H 
ATOM    142  H38 UNL A   1      19.272  21.106  -1.237  1.00  0.00    +0.000 H 
BRANCH   28   27
ATOM     27  C24 UNL A   1      17.569  22.166  -1.912  1.00  0.00    +0.000 C 
ATOM    140  H36 UNL A   1      16.731  21.548  -1.664  1.00  0.00    +0.000 H 
ATOM    139  H35 UNL A   1      17.983  21.948  -2.874  1.00  0.00    +0.000 H 
BRANCH   27   26
ATOM    137  H33 UNL A   1      17.759  24.230  -1.413  1.00  0.00    +0.000 H 
ATOM     26  C23 UNL A   1      17.053  23.613  -1.928  1.00  0.00    +0.000 C 
ATOM    138  H34 UNL A   1      16.941  23.894  -2.954  1.00  0.00    +0.000 H 
BRANCH   26   25
ATOM     25  C22 UNL A   1      15.695  23.779  -1.267  1.00  0.00    +0.000 C 
ATOM    135  H31 UNL A   1      15.452  22.885  -0.732  1.00  0.00    +0.000 H 
ATOM    136  H32 UNL A   1      15.736  24.611  -0.596  1.00  0.00    +0.000 H 
BRANCH   25   24
ATOM    133  H29 UNL A   1      13.802  24.529  -1.835  1.00  0.00    +0.000 H 
ATOM    134  H30 UNL A   1      15.052  24.658  -3.068  1.00  0.00    +0.000 H 
ATOM     24  C21 UNL A   1      14.632  24.042  -2.303  1.00  0.00    +0.000 C 
BRANCH   24   23
ATOM    132  H28 UNL A   1      14.682  22.490  -3.692  1.00  0.00    +0.000 H 
ATOM     23  N1  UNL A   1      14.171  22.807  -2.914  1.00  0.00    +0.000 N 
BRANCH   23   21
ATOM     21  C20 UNL A   1      13.102  22.026  -2.530  1.00  0.00    +0.000 C 
ATOM     22  O1  UNL A   1      12.391  22.457  -1.644  1.00  0.00    +0.000 O 
BRANCH   21   18
ATOM     18  C17 UNL A   1      13.055  20.586  -3.057  1.00  0.00    +0.000 C 
BRANCH   18   17
ATOM     17  C16 UNL A   1      12.834  19.405  -2.066  1.00  0.00    +0.000 C 
ATOM    124  H20 UNL A   1      12.127  19.727  -1.331  1.00  0.00    +0.000 H 
ATOM    125  H21 UNL A   1      12.507  18.587  -2.673  1.00  0.00    +0.000 H 
BRANCH   17   16
ATOM      4  C4  UNL A   1      16.793  16.898   1.736  1.00  0.00    +0.000 C 
ATOM      5  C5  UNL A   1      16.850  15.949   0.710  1.00  0.00    +0.000 C 
ATOM      6  C6  UNL A   1      16.198  16.147  -0.512  1.00  0.00    +0.000 C 
ATOM      7  C7  UNL A   1      15.458  17.327  -0.698  1.00  0.00    +0.000 C 
ATOM      8  C8  UNL A   1      15.433  18.343   0.273  1.00  0.00    +0.000 C 
ATOM      9  C9  UNL A   1      16.123  18.111   1.494  1.00  0.00    +0.000 C 
ATOM     10  C10 UNL A   1      14.619  19.429  -0.224  1.00  0.00    +0.000 C 
ATOM    112  H8  UNL A   1      17.386  15.080   0.859  1.00  0.00    +0.000 H 
ATOM    113  H9  UNL A   1      16.260  15.441  -1.262  1.00  0.00    +0.000 H 
ATOM    114  H10 UNL A   1      16.133  18.848   2.217  1.00  0.00    +0.000 H 
ATOM     16  C15 UNL A   1      14.014  18.912  -1.359  1.00  0.00    +0.000 C 
ATOM     96  N7  UNL A   1      14.656  17.741  -1.752  1.00  0.00    +0.000 N 
BRANCH    4    2
ATOM      2  C2  UNL A   1      17.454  16.587   3.070  1.00  0.00    +0.000 C 
ATOM    108  H4  UNL A   1      18.510  16.606   2.892  1.00  0.00    +0.000 H 
BRANCH    2    1
ATOM      1  C1  UNL A   1      17.105  17.651   4.109  1.00  0.00    +0.000 C 
ATOM    106  H2  UNL A   1      17.196  17.234   5.091  1.00  0.00    +0.000 H 
ATOM    107  H3  UNL A   1      16.101  17.984   3.955  1.00  0.00    +0.000 H 
ATOM    105  H1  UNL A   1      17.776  18.480   4.011  1.00  0.00    +0.000 H 
ENDBRANCH    2    1
BRANCH    2    3
ATOM      3  C3  UNL A   1      17.132  15.184   3.595  1.00  0.00    +0.000 C 
ATOM    109  H5  UNL A   1      18.042  14.636   3.728  1.00  0.00    +0.000 H 
ATOM    110  H6  UNL A   1      16.508  14.674   2.892  1.00  0.00    +0.000 H 
ATOM    111  H7  UNL A   1      16.623  15.263   4.534  1.00  0.00    +0.000 H 
ENDBRANCH    2    3
ENDBRANCH    4    2
BRANCH   10   11
ATOM     11  S1  UNL A   1      14.352  20.912   0.742  1.00  0.00    +0.000 S 
ATOM     12  C11 UNL A   1      13.330  20.856   2.320  1.00  0.00    +0.000 C 
ATOM     13  C12 UNL A   1      11.867  20.542   1.989  1.00  0.00    +0.000 C 
ATOM     14  C13 UNL A   1      13.713  20.057   3.591  1.00  0.00    +0.000 C 
ATOM     15  C14 UNL A   1      13.451  22.314   2.847  1.00  0.00    +0.000 C 
ATOM    115  H11 UNL A   1      11.791  19.538   1.627  1.00  0.00    +0.000 H 
ATOM    116  H12 UNL A   1      11.518  21.219   1.239  1.00  0.00    +0.000 H 
ATOM    117  H13 UNL A   1      11.271  20.650   2.871  1.00  0.00    +0.000 H 
ATOM    118  H14 UNL A   1      13.674  19.009   3.379  1.00  0.00    +0.000 H 
ATOM    119  H15 UNL A   1      13.025  20.288   4.378  1.00  0.00    +0.000 H 
ATOM    120  H16 UNL A   1      14.704  20.324   3.895  1.00  0.00    +0.000 H 
ATOM    121  H17 UNL A   1      13.209  22.998   2.062  1.00  0.00    +0.000 H 
ATOM    122  H18 UNL A   1      14.452  22.491   3.181  1.00  0.00    +0.000 H 
ATOM    123  H19 UNL A   1      12.773  22.455   3.664  1.00  0.00    +0.000 H 
ENDBRANCH   10   11
BRANCH   96   97
ATOM     97  C72 UNL A   1      14.674  17.132  -3.115  1.00  0.00    +0.000 C 
ATOM    161  H57 UNL A   1      13.887  17.638  -3.634  1.00  0.00    +0.000 H 
ATOM    160  H56 UNL A   1      15.662  17.262  -3.505  1.00  0.00    +0.000 H 
BRANCH   97   98
ATOM     98  C73 UNL A   1      14.324  15.655  -3.268  1.00  0.00    +0.000 C 
ATOM     99  C74 UNL A   1      13.113  15.130  -2.770  1.00  0.00    +0.000 C 
ATOM    100  C75 UNL A   1      12.895  13.749  -2.683  1.00  0.00    +0.000 C 
ATOM    162  H58 UNL A   1      12.371  15.778  -2.463  1.00  0.00    +0.000 H 
ATOM    165  H61 UNL A   1      16.043  15.115  -4.375  1.00  0.00    +0.000 H 
ATOM    103  C77 UNL A   1      14.956  13.372  -3.870  1.00  0.00    +0.000 C 
ATOM    104  C78 UNL A   1      15.204  14.755  -3.893  1.00  0.00    +0.000 C 
ATOM    163  H59 UNL A   1      12.042  13.385  -2.232  1.00  0.00    +0.000 H 
ATOM    164  H60 UNL A   1      15.606  12.724  -4.344  1.00  0.00    +0.000 H 
ATOM    101  C76 UNL A   1      13.836  12.873  -3.209  1.00  0.00    +0.000 C 
ATOM    102 Cl1  UNL A   1      13.628  11.177  -3.003  1.00  0.00    +0.000 Cl
ENDBRANCH   97   98
ENDBRANCH   96   97
ENDBRANCH   17   16
ENDBRANCH   18   17
BRANCH   18   19
ATOM     19  C18 UNL A   1      14.504  20.571  -3.625  1.00  0.00    +0.000 C 
ATOM    126  H22 UNL A   1      14.999  19.673  -3.316  1.00  0.00    +0.000 H 
ATOM    127  H23 UNL A   1      15.041  21.419  -3.254  1.00  0.00    +0.000 H 
ATOM    128  H24 UNL A   1      14.469  20.609  -4.693  1.00  0.00    +0.000 H 
ENDBRANCH   18   19
BRANCH   18   20
ATOM    129  H25 UNL A   1      12.032  19.862  -4.825  1.00  0.00    +0.000 H 
ATOM    130  H26 UNL A   1      11.467  21.421  -4.274  1.00  0.00    +0.000 H 
ATOM    131  H27 UNL A   1      11.007  19.972  -3.414  1.00  0.00    +0.000 H 
ATOM     20  C19 UNL A   1      11.790  20.449  -3.964  1.00  0.00    +0.000 C 
ENDBRANCH   18   20
ENDBRANCH   21   18
ENDBRANCH   23   21
ENDBRANCH   24   23
ENDBRANCH   25   24
ENDBRANCH   26   25
ENDBRANCH   27   26
ENDBRANCH   28   27
ENDBRANCH   29   28
ENDBRANCH   30   29
ENDBRANCH   31   30
ENDBRANCH   33   31
ENDBRANCH   37   36
BRANCH   41   42
ATOM     42  C36 UNL A   1      21.329  12.627   4.619  1.00  0.00    +0.000 C 
ATOM     43  C37 UNL A   1      20.489  11.497   4.574  1.00  0.00    +0.000 C 
ATOM     44  F1  UNL A   1      19.218  11.575   4.998  1.00  0.00    +0.000 F 
ATOM     45  C38 UNL A   1      20.962  10.243   4.174  1.00  0.00    +0.000 C 
ATOM     46  F2  UNL A   1      20.158   9.173   4.246  1.00  0.00    +0.000 F 
ATOM     47  C39 UNL A   1      22.273  10.084   3.762  1.00  0.00    +0.000 C 
ATOM     48  F3  UNL A   1      22.739   8.875   3.423  1.00  0.00    +0.000 F 
ATOM     49  C40 UNL A   1      23.115  11.175   3.753  1.00  0.00    +0.000 C 
ATOM     50  F4  UNL A   1      24.397  11.036   3.389  1.00  0.00    +0.000 F 
ATOM     51  C41 UNL A   1      22.661  12.415   4.200  1.00  0.00    +0.000 C 
ATOM     52  F5  UNL A   1      23.599  13.363   4.317  1.00  0.00    +0.000 F 
ENDBRANCH   41   42
BRANCH   58   59
ATOM     65  F8  UNL A   1      22.545  18.580  13.527  1.00  0.00    +0.000 F 
ATOM     66  C51 UNL A   1      23.269  16.572  12.520  1.00  0.00    +0.000 C 
ATOM     67  F9  UNL A   1      23.511  16.038  13.725  1.00  0.00    +0.000 F 
ATOM     68  C52 UNL A   1      23.495  15.818  11.373  1.00  0.00    +0.000 C 
ATOM     69  F10 UNL A   1      23.963  14.567  11.508  1.00  0.00    +0.000 F 
ATOM     59  C47 UNL A   1      23.195  16.321  10.099  1.00  0.00    +0.000 C 
ATOM     60  C48 UNL A   1      22.661  17.619  10.023  1.00  0.00    +0.000 C 
ATOM     61  F6  UNL A   1      22.267  18.133   8.849  1.00  0.00    +0.000 F 
ATOM     62  C49 UNL A   1      22.473  18.388  11.172  1.00  0.00    +0.000 C 
ATOM     63  F7  UNL A   1      21.974  19.629  11.076  1.00  0.00    +0.000 F 
ATOM     64  C50 UNL A   1      22.768  17.860  12.420  1.00  0.00    +0.000 C 
ENDBRANCH   58   59
BRANCH   73   74
ATOM     74  C56 UNL A   1      27.897  18.041   6.247  1.00  0.00    +0.000 C 
ATOM     75  C57 UNL A   1      28.959  18.102   7.167  1.00  0.00    +0.000 C 
ATOM     76  F11 UNL A   1      28.708  18.222   8.479  1.00  0.00    +0.000 F 
ATOM     77  C58 UNL A   1      30.290  17.956   6.763  1.00  0.00    +0.000 C 
ATOM     78  F12 UNL A   1      31.270  17.943   7.677  1.00  0.00    +0.000 F 
ATOM     79  C59 UNL A   1      30.598  17.757   5.427  1.00  0.00    +0.000 C 
ATOM     80  F13 UNL A   1      31.864  17.544   5.047  1.00  0.00    +0.000 F 
ATOM     81  C60 UNL A   1      29.579  17.733   4.492  1.00  0.00    +0.000 C 
ATOM     82  F14 UNL A   1      29.861  17.506   3.201  1.00  0.00    +0.000 F 
ATOM     83  C61 UNL A   1      28.250  17.873   4.895  1.00  0.00    +0.000 C 
ATOM     84  F15 UNL A   1      27.309  17.739   3.949  1.00  0.00    +0.000 F 
ENDBRANCH   73   74
TORSDOF 25
ENDMDL
MODEL 5
REMARK VINA RESULT:      -8.9     33.021     37.985
ROOT
ATOM    148  H44 UNL A   1      12.247  -3.005  25.520  1.00  0.00    +0.000 H 
ATOM    149  H45 UNL A   1       9.698  -2.912  26.267  1.00  0.00    +0.000 H 
ATOM    150  H46 UNL A   1      11.536   0.536  27.382  1.00  0.00    +0.000 H 
ATOM    151  H47 UNL A   1       6.230   3.793  22.395  1.00  0.00    +0.000 H 
ATOM    152  H48 UNL A   1       7.470   2.189  20.853  1.00  0.00    +0.000 H 
ATOM    153  H49 UNL A   1       9.297   1.952  24.578  1.00  0.00    +0.000 H 
ATOM    154  H50 UNL A   1       9.755   4.422  26.657  1.00  0.00    +0.000 H 
ATOM    155  H51 UNL A   1      10.685   2.178  27.521  1.00  0.00    +0.000 H 
ATOM    156  H52 UNL A   1      14.420   1.103  22.931  1.00  0.00    +0.000 H 
ATOM    157  H53 UNL A   1      12.655   2.174  21.396  1.00  0.00    +0.000 H 
ATOM     37  C32 UNL A   1       9.986   1.280  21.958  1.00  0.00    +0.000 C 
ATOM     38  C33 UNL A   1      11.239   0.977  22.708  1.00  0.00    +0.000 C 
ATOM     39  N3  UNL A   1      11.395   0.165  23.704  1.00  0.00    +0.000 N 
ATOM     40  C34 UNL A   1      12.737   0.262  24.066  1.00  0.00    +0.000 C 
ATOM     41  C35 UNL A   1      13.163  -0.072  25.315  1.00  0.00    +0.000 C 
ATOM     53  C42 UNL A   1      12.205  -0.895  25.998  1.00  0.00    +0.000 C 
ATOM     54  C43 UNL A   1      11.728  -2.180  25.857  1.00  0.00    +0.000 C 
ATOM     55  C44 UNL A   1      10.366  -2.125  26.276  1.00  0.00    +0.000 C 
ATOM     56  C45 UNL A   1      10.090  -0.824  26.699  1.00  0.00    +0.000 C 
ATOM     57  N4  UNL A   1      11.321  -0.236  26.810  1.00  0.00    +0.000 N 
ATOM     58  C46 UNL A   1       8.853  -0.093  26.861  1.00  0.00    +0.000 C 
ATOM     70  C53 UNL A   1       8.751   1.263  26.979  1.00  0.00    +0.000 C 
ATOM     71  N5  UNL A   1       7.585   1.911  26.603  1.00  0.00    +0.000 N 
ATOM     72  C54 UNL A   1       7.977   3.094  26.220  1.00  0.00    +0.000 C 
ATOM     73  C55 UNL A   1       7.361   3.840  25.099  1.00  0.00    +0.000 C 
ATOM     85  C62 UNL A   1       7.650   3.153  23.967  1.00  0.00    +0.000 C 
ATOM     86  C63 UNL A   1       7.049   3.220  22.654  1.00  0.00    +0.000 C 
ATOM     87  C64 UNL A   1       7.735   2.409  21.825  1.00  0.00    +0.000 C 
ATOM     88  C65 UNL A   1       8.917   1.886  22.515  1.00  0.00    +0.000 C 
ATOM     89  N6  UNL A   1       8.737   2.264  23.830  1.00  0.00    +0.000 N 
ATOM     90  C66 UNL A   1       9.297   3.496  26.674  1.00  0.00    +0.000 C 
ATOM     91  C67 UNL A   1       9.744   2.321  27.120  1.00  0.00    +0.000 C 
ATOM     92  C68 UNL A   1      13.397   1.000  23.023  1.00  0.00    +0.000 C 
ATOM     93  C69 UNL A   1      12.502   1.536  22.192  1.00  0.00    +0.000 C 
ENDROOT
BRANCH   37   36
ATOM     33  C28 UNL A   1      10.121   0.462  17.792  1.00  0.00    +0.000 C 
ATOM     34  C29 UNL A   1      10.047   1.772  18.265  1.00  0.00    +0.000 C 
ATOM     35  C30 UNL A   1      10.034   2.029  19.629  1.00  0.00    +0.000 C 
ATOM     36  C31 UNL A   1      10.055   0.968  20.534  1.00  0.00    +0.000 C 
ATOM    146  H42 UNL A   1      10.001   2.557  17.595  1.00  0.00    +0.000 H 
ATOM    147  H43 UNL A   1      10.010   3.003  19.972  1.00  0.00    +0.000 H 
ATOM    158  H54 UNL A   1       9.947  -1.127  20.753  1.00  0.00    +0.000 H 
ATOM    159  H55 UNL A   1      10.063  -1.568  18.380  1.00  0.00    +0.000 H 
ATOM     94  C70 UNL A   1      10.014  -0.346  20.082  1.00  0.00    +0.000 C 
ATOM     95  C71 UNL A   1      10.065  -0.593  18.719  1.00  0.00    +0.000 C 
BRANCH   33   31
ATOM     31  C27 UNL A   1      10.287   0.055  16.374  1.00  0.00    +0.000 C 
ATOM     32  O2  UNL A   1      11.344  -0.479  16.027  1.00  0.00    +0.000 O 
BRANCH   31   30
ATOM    145  H41 UNL A   1       8.443   0.237  15.724  1.00  0.00    +0.000 H 
ATOM     30  N2  UNL A   1       9.369   0.264  15.390  1.00  0.00    +0.000 N 
BRANCH   30   29
ATOM     29  C26 UNL A   1       9.444   0.519  13.970  1.00  0.00    +0.000 C 
ATOM    143  H39 UNL A   1       9.621   1.563  13.818  1.00  0.00    +0.000 H 
ATOM    144  H40 UNL A   1      10.239  -0.080  13.577  1.00  0.00    +0.000 H 
BRANCH   29   28
ATOM     28  C25 UNL A   1       8.164   0.128  13.229  1.00  0.00    +0.000 C 
ATOM    141  H37 UNL A   1       7.632  -0.584  13.823  1.00  0.00    +0.000 H 
ATOM    142  H38 UNL A   1       7.601   1.025  13.074  1.00  0.00    +0.000 H 
BRANCH   28   27
ATOM     27  C24 UNL A   1       8.428  -0.488  11.847  1.00  0.00    +0.000 C 
ATOM    140  H36 UNL A   1       9.484  -0.426  11.684  1.00  0.00    +0.000 H 
ATOM    139  H35 UNL A   1       7.858   0.057  11.125  1.00  0.00    +0.000 H 
BRANCH   27   26
ATOM    137  H33 UNL A   1       7.132  -2.134  12.241  1.00  0.00    +0.000 H 
ATOM     26  C23 UNL A   1       8.056  -1.974  11.728  1.00  0.00    +0.000 C 
ATOM    138  H34 UNL A   1       7.985  -2.197  10.684  1.00  0.00    +0.000 H 
BRANCH   26   25
ATOM     25  C22 UNL A   1       9.101  -2.909  12.315  1.00  0.00    +0.000 C 
ATOM    135  H31 UNL A   1       9.563  -3.461  11.524  1.00  0.00    +0.000 H 
ATOM    136  H32 UNL A   1       9.832  -2.326  12.836  1.00  0.00    +0.000 H 
BRANCH   25   24
ATOM    133  H29 UNL A   1       7.807  -4.523  12.747  1.00  0.00    +0.000 H 
ATOM    134  H30 UNL A   1       9.239  -4.425  13.767  1.00  0.00    +0.000 H 
ATOM     24  C21 UNL A   1       8.463  -3.871  13.285  1.00  0.00    +0.000 C 
BRANCH   24   23
ATOM    132  H28 UNL A   1       8.026  -2.274  14.549  1.00  0.00    +0.000 H 
ATOM     23  N1  UNL A   1       7.701  -3.169  14.303  1.00  0.00    +0.000 N 
BRANCH   23   21
ATOM     21  C20 UNL A   1       6.576  -3.610  14.965  1.00  0.00    +0.000 C 
ATOM     22  O1  UNL A   1       5.794  -4.294  14.335  1.00  0.00    +0.000 O 
BRANCH   21   18
ATOM     18  C17 UNL A   1       6.275  -2.990  16.336  1.00  0.00    +0.000 C 
BRANCH   18   17
ATOM     17  C16 UNL A   1       5.542  -3.830  17.422  1.00  0.00    +0.000 C 
ATOM    124  H20 UNL A   1       4.573  -3.400  17.565  1.00  0.00    +0.000 H 
ATOM    125  H21 UNL A   1       5.536  -4.832  17.046  1.00  0.00    +0.000 H 
BRANCH   17   16
ATOM      4  C4  UNL A   1       9.297  -3.783  22.146  1.00  0.00    +0.000 C 
ATOM      5  C5  UNL A   1       8.583  -2.615  22.429  1.00  0.00    +0.000 C 
ATOM      6  C6  UNL A   1       7.459  -2.242  21.683  1.00  0.00    +0.000 C 
ATOM      7  C7  UNL A   1       7.055  -3.062  20.616  1.00  0.00    +0.000 C 
ATOM      8  C8  UNL A   1       7.694  -4.283  20.341  1.00  0.00    +0.000 C 
ATOM      9  C9  UNL A   1       8.820  -4.636  21.133  1.00  0.00    +0.000 C 
ATOM     10  C10 UNL A   1       7.032  -4.902  19.215  1.00  0.00    +0.000 C 
ATOM    112  H8  UNL A   1       8.893  -2.012  23.206  1.00  0.00    +0.000 H 
ATOM    113  H9  UNL A   1       6.937  -1.381  21.912  1.00  0.00    +0.000 H 
ATOM    114  H10 UNL A   1       9.298  -5.535  20.961  1.00  0.00    +0.000 H 
ATOM     16  C15 UNL A   1       6.185  -3.916  18.732  1.00  0.00    +0.000 C 
ATOM     96  N7  UNL A   1       6.051  -2.898  19.672  1.00  0.00    +0.000 N 
BRANCH    4    2
ATOM      2  C2  UNL A   1      10.557  -4.092  22.941  1.00  0.00    +0.000 C 
ATOM    108  H4  UNL A   1      10.848  -3.175  23.408  1.00  0.00    +0.000 H 
BRANCH    2    1
ATOM      1  C1  UNL A   1      10.276  -5.134  24.021  1.00  0.00    +0.000 C 
ATOM    106  H2  UNL A   1       9.313  -5.571  23.855  1.00  0.00    +0.000 H 
ATOM    107  H3  UNL A   1      10.294  -4.665  24.983  1.00  0.00    +0.000 H 
ATOM    105  H1  UNL A   1      11.024  -5.899  23.983  1.00  0.00    +0.000 H 
ENDBRANCH    2    1
BRANCH    2    3
ATOM      3  C3  UNL A   1      11.738  -4.521  22.063  1.00  0.00    +0.000 C 
ATOM    109  H5  UNL A   1      11.370  -4.967  21.162  1.00  0.00    +0.000 H 
ATOM    110  H6  UNL A   1      12.338  -5.230  22.593  1.00  0.00    +0.000 H 
ATOM    111  H7  UNL A   1      12.331  -3.663  21.819  1.00  0.00    +0.000 H 
ENDBRANCH    2    3
ENDBRANCH    4    2
BRANCH   10   11
ATOM     11  S1  UNL A   1       7.568  -6.482  18.571  1.00  0.00    +0.000 S 
ATOM     12  C11 UNL A   1       9.232  -6.650  17.708  1.00  0.00    +0.000 C 
ATOM     13  C12 UNL A   1       9.224  -5.866  16.391  1.00  0.00    +0.000 C 
ATOM     14  C13 UNL A   1      10.605  -6.424  18.388  1.00  0.00    +0.000 C 
ATOM     15  C14 UNL A   1       9.302  -8.175  17.414  1.00  0.00    +0.000 C 
ATOM    115  H11 UNL A   1       9.175  -4.818  16.600  1.00  0.00    +0.000 H 
ATOM    116  H12 UNL A   1       8.373  -6.154  15.810  1.00  0.00    +0.000 H 
ATOM    117  H13 UNL A   1      10.117  -6.080  15.843  1.00  0.00    +0.000 H 
ATOM    118  H14 UNL A   1      10.706  -5.392  18.655  1.00  0.00    +0.000 H 
ATOM    119  H15 UNL A   1      11.388  -6.695  17.710  1.00  0.00    +0.000 H 
ATOM    120  H16 UNL A   1      10.671  -7.029  19.268  1.00  0.00    +0.000 H 
ATOM    121  H17 UNL A   1       8.401  -8.487  16.931  1.00  0.00    +0.000 H 
ATOM    122  H18 UNL A   1       9.420  -8.711  18.332  1.00  0.00    +0.000 H 
ATOM    123  H19 UNL A   1      10.137  -8.377  16.774  1.00  0.00    +0.000 H 
ENDBRANCH   10   11
BRANCH   96   97
ATOM     97  C72 UNL A   1       4.926  -1.924  19.797  1.00  0.00    +0.000 C 
ATOM    161  H57 UNL A   1       4.293  -2.151  18.965  1.00  0.00    +0.000 H 
ATOM    160  H56 UNL A   1       4.502  -2.058  20.770  1.00  0.00    +0.000 H 
BRANCH   97   98
ATOM     98  C73 UNL A   1       5.218  -0.435  19.639  1.00  0.00    +0.000 C 
ATOM     99  C74 UNL A   1       4.410   0.544  20.253  1.00  0.00    +0.000 C 
ATOM    100  C75 UNL A   1       4.516   1.899  19.916  1.00  0.00    +0.000 C 
ATOM    162  H58 UNL A   1       3.725   0.255  20.968  1.00  0.00    +0.000 H 
ATOM    165  H61 UNL A   1       6.977  -0.657  18.486  1.00  0.00    +0.000 H 
ATOM    103  C77 UNL A   1       6.446   1.389  18.569  1.00  0.00    +0.000 C 
ATOM    104  C78 UNL A   1       6.292   0.021  18.855  1.00  0.00    +0.000 C 
ATOM    163  H59 UNL A   1       3.855   2.586  20.309  1.00  0.00    +0.000 H 
ATOM    164  H60 UNL A   1       7.247   1.709  18.002  1.00  0.00    +0.000 H 
ATOM    101  C76 UNL A   1       5.519   2.311  19.048  1.00  0.00    +0.000 C 
ATOM    102 Cl1  UNL A   1       5.584   3.955  18.541  1.00  0.00    +0.000 Cl
ENDBRANCH   97   98
ENDBRANCH   96   97
ENDBRANCH   17   16
ENDBRANCH   18   17
BRANCH   18   19
ATOM     19  C18 UNL A   1       5.360  -1.850  15.804  1.00  0.00    +0.000 C 
ATOM    126  H22 UNL A   1       5.744  -0.904  16.125  1.00  0.00    +0.000 H 
ATOM    127  H23 UNL A   1       4.368  -1.980  16.187  1.00  0.00    +0.000 H 
ATOM    128  H24 UNL A   1       5.335  -1.881  14.735  1.00  0.00    +0.000 H 
ENDBRANCH   18   19
BRANCH   18   20
ATOM    129  H25 UNL A   1       8.395  -3.342  16.620  1.00  0.00    +0.000 H 
ATOM    130  H26 UNL A   1       7.547  -2.931  18.091  1.00  0.00    +0.000 H 
ATOM    131  H27 UNL A   1       7.910  -1.690  16.916  1.00  0.00    +0.000 H 
ATOM     20  C19 UNL A   1       7.639  -2.716  17.047  1.00  0.00    +0.000 C 
ENDBRANCH   18   20
ENDBRANCH   21   18
ENDBRANCH   23   21
ENDBRANCH   24   23
ENDBRANCH   25   24
ENDBRANCH   26   25
ENDBRANCH   27   26
ENDBRANCH   28   27
ENDBRANCH   29   28
ENDBRANCH   30   29
ENDBRANCH   31   30
ENDBRANCH   33   31
ENDBRANCH   37   36
BRANCH   41   42
ATOM     42  C36 UNL A   1      14.239   0.682  26.057  1.00  0.00    +0.000 C 
ATOM     43  C37 UNL A   1      15.521   0.116  26.201  1.00  0.00    +0.000 C 
ATOM     44  F1  UNL A   1      15.868  -0.974  25.500  1.00  0.00    +0.000 F 
ATOM     45  C38 UNL A   1      16.443   0.608  27.131  1.00  0.00    +0.000 C 
ATOM     46  F2  UNL A   1      17.611  -0.024  27.310  1.00  0.00    +0.000 F 
ATOM     47  C39 UNL A   1      16.135   1.706  27.914  1.00  0.00    +0.000 C 
ATOM     48  F3  UNL A   1      16.998   2.149  28.837  1.00  0.00    +0.000 F 
ATOM     49  C40 UNL A   1      14.905   2.312  27.773  1.00  0.00    +0.000 C 
ATOM     50  F4  UNL A   1      14.575   3.357  28.545  1.00  0.00    +0.000 F 
ATOM     51  C41 UNL A   1      13.965   1.793  26.884  1.00  0.00    +0.000 C 
ATOM     52  F5  UNL A   1      12.747   2.344  26.949  1.00  0.00    +0.000 F 
ENDBRANCH   41   42
BRANCH   58   59
ATOM     65  F8  UNL A   1       4.256  -3.343  26.333  1.00  0.00    +0.000 F 
ATOM     66  C51 UNL A   1       5.961  -2.398  27.664  1.00  0.00    +0.000 C 
ATOM     67  F9  UNL A   1       5.536  -3.093  28.728  1.00  0.00    +0.000 F 
ATOM     68  C52 UNL A   1       7.067  -1.563  27.783  1.00  0.00    +0.000 C 
ATOM     69  F10 UNL A   1       7.678  -1.471  28.974  1.00  0.00    +0.000 F 
ATOM     59  C47 UNL A   1       7.578  -0.868  26.677  1.00  0.00    +0.000 C 
ATOM     60  C48 UNL A   1       6.927  -1.043  25.444  1.00  0.00    +0.000 C 
ATOM     61  F6  UNL A   1       7.409  -0.482  24.326  1.00  0.00    +0.000 F 
ATOM     62  C49 UNL A   1       5.792  -1.848  25.336  1.00  0.00    +0.000 C 
ATOM     63  F7  UNL A   1       5.179  -1.992  24.153  1.00  0.00    +0.000 F 
ATOM     64  C50 UNL A   1       5.317  -2.533  26.445  1.00  0.00    +0.000 C 
ENDBRANCH   58   59
BRANCH   73   74
ATOM     74  C56 UNL A   1       6.919   5.248  25.241  1.00  0.00    +0.000 C 
ATOM     75  C57 UNL A   1       5.995   5.614  26.236  1.00  0.00    +0.000 C 
ATOM     76  F11 UNL A   1       5.311   4.670  26.899  1.00  0.00    +0.000 F 
ATOM     77  C58 UNL A   1       5.821   6.947  26.622  1.00  0.00    +0.000 C 
ATOM     78  F12 UNL A   1       4.987   7.249  27.627  1.00  0.00    +0.000 F 
ATOM     79  C59 UNL A   1       6.557   7.952  26.017  1.00  0.00    +0.000 C 
ATOM     80  F13 UNL A   1       6.446   9.220  26.436  1.00  0.00    +0.000 F 
ATOM     81  C60 UNL A   1       7.444   7.630  25.006  1.00  0.00    +0.000 C 
ATOM     82  F14 UNL A   1       8.188   8.590  24.438  1.00  0.00    +0.000 F 
ATOM     83  C61 UNL A   1       7.623   6.300  24.624  1.00  0.00    +0.000 C 
ATOM     84  F15 UNL A   1       8.571   6.050  23.709  1.00  0.00    +0.000 F 
ENDBRANCH   73   74
TORSDOF 25
ENDMDL
MODEL 6
REMARK VINA RESULT:      -8.8     41.056     47.285
ROOT
ATOM    148  H44 UNL A   1       7.392  13.481  41.774  1.00  0.00    +0.000 H 
ATOM    149  H45 UNL A   1       5.486  14.943  42.912  1.00  0.00    +0.000 H 
ATOM    150  H46 UNL A   1       5.216  15.319  38.876  1.00  0.00    +0.000 H 
ATOM    151  H47 UNL A   1      -1.936  11.990  40.054  1.00  0.00    +0.000 H 
ATOM    152  H48 UNL A   1      -0.379  10.219  41.017  1.00  0.00    +0.000 H 
ATOM    153  H49 UNL A   1       2.020  13.245  39.480  1.00  0.00    +0.000 H 
ATOM    154  H50 UNL A   1       1.430  14.990  36.790  1.00  0.00    +0.000 H 
ATOM    155  H51 UNL A   1       3.636  15.634  37.958  1.00  0.00    +0.000 H 
ATOM    156  H52 UNL A   1       6.196  10.195  37.765  1.00  0.00    +0.000 H 
ATOM    157  H53 UNL A   1       3.851   9.207  38.141  1.00  0.00    +0.000 H 
ATOM     37  C32 UNL A   1       2.374  10.569  40.191  1.00  0.00    +0.000 C 
ATOM     38  C33 UNL A   1       3.703  10.928  39.616  1.00  0.00    +0.000 C 
ATOM     39  N3  UNL A   1       4.509  11.866  39.998  1.00  0.00    +0.000 N 
ATOM     40  C34 UNL A   1       5.595  11.811  39.126  1.00  0.00    +0.000 C 
ATOM     41  C35 UNL A   1       6.397  12.891  38.920  1.00  0.00    +0.000 C 
ATOM     53  C42 UNL A   1       6.258  13.861  39.969  1.00  0.00    +0.000 C 
ATOM     54  C43 UNL A   1       6.584  13.921  41.307  1.00  0.00    +0.000 C 
ATOM     55  C44 UNL A   1       5.567  14.721  41.907  1.00  0.00    +0.000 C 
ATOM     56  C45 UNL A   1       4.699  15.152  40.903  1.00  0.00    +0.000 C 
ATOM     57  N4  UNL A   1       5.362  14.870  39.739  1.00  0.00    +0.000 N 
ATOM     58  C46 UNL A   1       3.338  15.641  40.934  1.00  0.00    +0.000 C 
ATOM     70  C53 UNL A   1       2.509  15.726  39.853  1.00  0.00    +0.000 C 
ATOM     71  N5  UNL A   1       1.135  15.685  40.022  1.00  0.00    +0.000 N 
ATOM     72  C54 UNL A   1       0.685  15.154  38.919  1.00  0.00    +0.000 C 
ATOM     73  C55 UNL A   1      -0.475  14.235  38.864  1.00  0.00    +0.000 C 
ATOM     85  C62 UNL A   1      -0.102  13.098  39.501  1.00  0.00    +0.000 C 
ATOM     86  C63 UNL A   1      -0.904  12.019  40.033  1.00  0.00    +0.000 C 
ATOM     87  C64 UNL A   1      -0.080  11.059  40.498  1.00  0.00    +0.000 C 
ATOM     88  C65 UNL A   1       1.305  11.391  40.154  1.00  0.00    +0.000 C 
ATOM     89  N6  UNL A   1       1.235  12.683  39.675  1.00  0.00    +0.000 N 
ATOM     90  C66 UNL A   1       1.599  15.180  37.791  1.00  0.00    +0.000 C 
ATOM     91  C67 UNL A   1       2.722  15.524  38.424  1.00  0.00    +0.000 C 
ATOM     92  C68 UNL A   1       5.466  10.590  38.378  1.00  0.00    +0.000 C 
ATOM     93  C69 UNL A   1       4.270  10.039  38.586  1.00  0.00    +0.000 C 
ENDROOT
BRANCH   37   36
ATOM     33  C28 UNL A   1       2.088   6.561  41.569  1.00  0.00    +0.000 C 
ATOM     34  C29 UNL A   1       2.257   6.845  40.213  1.00  0.00    +0.000 C 
ATOM     35  C30 UNL A   1       2.379   8.157  39.778  1.00  0.00    +0.000 C 
ATOM     36  C31 UNL A   1       2.293   9.203  40.697  1.00  0.00    +0.000 C 
ATOM    146  H42 UNL A   1       2.290   6.073  39.528  1.00  0.00    +0.000 H 
ATOM    147  H43 UNL A   1       2.534   8.358  38.777  1.00  0.00    +0.000 H 
ATOM    158  H54 UNL A   1       1.869   9.723  42.696  1.00  0.00    +0.000 H 
ATOM    159  H55 UNL A   1       1.749   7.435  43.463  1.00  0.00    +0.000 H 
ATOM     94  C70 UNL A   1       2.013   8.946  42.034  1.00  0.00    +0.000 C 
ATOM     95  C71 UNL A   1       1.930   7.631  42.466  1.00  0.00    +0.000 C 
BRANCH   33   31
ATOM     31  C27 UNL A   1       2.089   5.210  42.183  1.00  0.00    +0.000 C 
ATOM     32  O2  UNL A   1       1.628   5.072  43.319  1.00  0.00    +0.000 O 
BRANCH   31   30
ATOM    145  H41 UNL A   1       1.926   3.553  41.142  1.00  0.00    +0.000 H 
ATOM     30  N2  UNL A   1       2.608   4.091  41.606  1.00  0.00    +0.000 N 
BRANCH   30   29
ATOM     29  C26 UNL A   1       3.929   3.514  41.517  1.00  0.00    +0.000 C 
ATOM    143  H39 UNL A   1       4.541   3.938  42.287  1.00  0.00    +0.000 H 
ATOM    144  H40 UNL A   1       3.827   2.455  41.629  1.00  0.00    +0.000 H 
BRANCH   29   28
ATOM     28  C25 UNL A   1       4.600   3.770  40.166  1.00  0.00    +0.000 C 
ATOM    141  H37 UNL A   1       5.197   2.918  39.917  1.00  0.00    +0.000 H 
ATOM    142  H38 UNL A   1       3.820   3.938  39.453  1.00  0.00    +0.000 H 
BRANCH   28   27
ATOM     27  C24 UNL A   1       5.498   5.015  40.161  1.00  0.00    +0.000 C 
ATOM    140  H36 UNL A   1       6.351   4.775  40.762  1.00  0.00    +0.000 H 
ATOM    139  H35 UNL A   1       4.931   5.837  40.544  1.00  0.00    +0.000 H 
BRANCH   27   26
ATOM    137  H33 UNL A   1       7.106   5.366  38.807  1.00  0.00    +0.000 H 
ATOM     26  C23 UNL A   1       6.038   5.408  38.778  1.00  0.00    +0.000 C 
ATOM    138  H34 UNL A   1       5.623   4.721  38.071  1.00  0.00    +0.000 H 
BRANCH   26   25
ATOM     25  C22 UNL A   1       5.624   6.804  38.340  1.00  0.00    +0.000 C 
ATOM    135  H31 UNL A   1       4.744   7.094  38.876  1.00  0.00    +0.000 H 
ATOM    136  H32 UNL A   1       6.424   7.484  38.549  1.00  0.00    +0.000 H 
BRANCH   25   24
ATOM    133  H29 UNL A   1       5.098   7.832  36.571  1.00  0.00    +0.000 H 
ATOM    134  H30 UNL A   1       6.200   6.478  36.343  1.00  0.00    +0.000 H 
ATOM     24  C21 UNL A   1       5.335   6.830  36.861  1.00  0.00    +0.000 C 
BRANCH   24   23
ATOM    132  H28 UNL A   1       4.384   4.997  36.584  1.00  0.00    +0.000 H 
ATOM     23  N1  UNL A   1       4.217   5.965  36.525  1.00  0.00    +0.000 N 
BRANCH   23   21
ATOM     21  C20 UNL A   1       2.951   6.341  36.133  1.00  0.00    +0.000 C 
ATOM     22  O1  UNL A   1       2.731   7.532  36.036  1.00  0.00    +0.000 O 
BRANCH   21   18
ATOM     18  C17 UNL A   1       1.867   5.255  36.110  1.00  0.00    +0.000 C 
BRANCH   18   17
ATOM     17  C16 UNL A   1       0.377   5.651  35.898  1.00  0.00    +0.000 C 
ATOM    124  H20 UNL A   1       0.360   6.563  35.338  1.00  0.00    +0.000 H 
ATOM    125  H21 UNL A   1      -0.068   4.814  35.402  1.00  0.00    +0.000 H 
BRANCH   17   16
ATOM      4  C4  UNL A   1      -1.827   6.054  41.501  1.00  0.00    +0.000 C 
ATOM      5  C5  UNL A   1      -1.604   7.412  41.260  1.00  0.00    +0.000 C 
ATOM      6  C6  UNL A   1      -1.217   7.882  40.001  1.00  0.00    +0.000 C 
ATOM      7  C7  UNL A   1      -1.036   6.954  38.961  1.00  0.00    +0.000 C 
ATOM      8  C8  UNL A   1      -1.320   5.588  39.134  1.00  0.00    +0.000 C 
ATOM      9  C9  UNL A   1      -1.729   5.154  40.424  1.00  0.00    +0.000 C 
ATOM     10  C10 UNL A   1      -1.066   4.907  37.884  1.00  0.00    +0.000 C 
ATOM    112  H8  UNL A   1      -1.728   8.086  42.032  1.00  0.00    +0.000 H 
ATOM    113  H9  UNL A   1      -1.068   8.891  39.837  1.00  0.00    +0.000 H 
ATOM    114  H10 UNL A   1      -1.958   4.158  40.573  1.00  0.00    +0.000 H 
ATOM     16  C15 UNL A   1      -0.426   5.856  37.102  1.00  0.00    +0.000 C 
ATOM     96  N7  UNL A   1      -0.582   7.122  37.661  1.00  0.00    +0.000 N 
BRANCH    4    2
ATOM      2  C2  UNL A   1      -2.166   5.597  42.912  1.00  0.00    +0.000 C 
ATOM    108  H4  UNL A   1      -1.771   4.607  43.010  1.00  0.00    +0.000 H 
BRANCH    2    1
ATOM      1  C1  UNL A   1      -1.504   6.502  43.949  1.00  0.00    +0.000 C 
ATOM    106  H2  UNL A   1      -1.409   7.491  43.553  1.00  0.00    +0.000 H 
ATOM    107  H3  UNL A   1      -0.534   6.120  44.190  1.00  0.00    +0.000 H 
ATOM    105  H1  UNL A   1      -2.106   6.530  44.834  1.00  0.00    +0.000 H 
ENDBRANCH    2    1
BRANCH    2    3
ATOM      3  C3  UNL A   1      -3.674   5.485  43.168  1.00  0.00    +0.000 C 
ATOM    109  H5  UNL A   1      -4.101   4.786  42.479  1.00  0.00    +0.000 H 
ATOM    110  H6  UNL A   1      -4.130   6.443  43.033  1.00  0.00    +0.000 H 
ATOM    111  H7  UNL A   1      -3.841   5.147  44.169  1.00  0.00    +0.000 H 
ENDBRANCH    2    3
ENDBRANCH    4    2
BRANCH   10   11
ATOM     11  S1  UNL A   1      -1.318   3.144  37.715  1.00  0.00    +0.000 S 
ATOM     12  C11 UNL A   1      -1.921   2.415  36.089  1.00  0.00    +0.000 C 
ATOM     13  C12 UNL A   1      -3.357   2.871  35.807  1.00  0.00    +0.000 C 
ATOM     14  C13 UNL A   1      -1.136   2.465  34.754  1.00  0.00    +0.000 C 
ATOM     15  C14 UNL A   1      -1.900   0.888  36.380  1.00  0.00    +0.000 C 
ATOM    115  H11 UNL A   1      -3.364   3.923  35.608  1.00  0.00    +0.000 H 
ATOM    116  H12 UNL A   1      -3.970   2.665  36.659  1.00  0.00    +0.000 H 
ATOM    117  H13 UNL A   1      -3.739   2.344  34.958  1.00  0.00    +0.000 H 
ATOM    118  H14 UNL A   1      -1.065   3.479  34.419  1.00  0.00    +0.000 H 
ATOM    119  H15 UNL A   1      -1.646   1.880  34.018  1.00  0.00    +0.000 H 
ATOM    120  H16 UNL A   1      -0.153   2.069  34.905  1.00  0.00    +0.000 H 
ATOM    121  H17 UNL A   1      -2.419   0.692  37.295  1.00  0.00    +0.000 H 
ATOM    122  H18 UNL A   1      -0.887   0.554  36.465  1.00  0.00    +0.000 H 
ATOM    123  H19 UNL A   1      -2.381   0.365  35.579  1.00  0.00    +0.000 H 
ENDBRANCH   10   11
BRANCH   96   97
ATOM     97  C72 UNL A   1      -0.495   8.438  36.960  1.00  0.00    +0.000 C 
ATOM    161  H57 UNL A   1      -0.772   9.148  37.711  1.00  0.00    +0.000 H 
ATOM    160  H56 UNL A   1       0.497   8.520  36.569  1.00  0.00    +0.000 H 
BRANCH   97   98
ATOM     98  C73 UNL A   1      -1.454   8.726  35.810  1.00  0.00    +0.000 C 
ATOM     99  C74 UNL A   1      -1.069   9.523  34.712  1.00  0.00    +0.000 C 
ATOM    100  C75 UNL A   1      -2.007   9.996  33.786  1.00  0.00    +0.000 C 
ATOM    162  H58 UNL A   1      -0.073   9.763  34.588  1.00  0.00    +0.000 H 
ATOM    165  H61 UNL A   1      -3.053   7.545  36.531  1.00  0.00    +0.000 H 
ATOM    103  C77 UNL A   1      -3.697   8.644  34.841  1.00  0.00    +0.000 C 
ATOM    104  C78 UNL A   1      -2.768   8.227  35.810  1.00  0.00    +0.000 C 
ATOM    163  H59 UNL A   1      -1.719  10.651  33.043  1.00  0.00    +0.000 H 
ATOM    164  H60 UNL A   1      -4.655   8.259  34.847  1.00  0.00    +0.000 H 
ATOM    101  C76 UNL A   1      -3.328   9.575  33.874  1.00  0.00    +0.000 C 
ATOM    102 Cl1  UNL A   1      -4.506  10.240  32.810  1.00  0.00    +0.000 Cl
ENDBRANCH   97   98
ENDBRANCH   96   97
ENDBRANCH   17   16
ENDBRANCH   18   17
BRANCH   18   19
ATOM     19  C18 UNL A   1       2.107   4.753  37.563  1.00  0.00    +0.000 C 
ATOM    126  H22 UNL A   1       3.155   4.595  37.718  1.00  0.00    +0.000 H 
ATOM    127  H23 UNL A   1       1.583   3.832  37.714  1.00  0.00    +0.000 H 
ATOM    128  H24 UNL A   1       1.750   5.484  38.257  1.00  0.00    +0.000 H 
ENDBRANCH   18   19
BRANCH   18   20
ATOM    129  H25 UNL A   1       1.350   4.543  34.129  1.00  0.00    +0.000 H 
ATOM    130  H26 UNL A   1       2.092   3.328  35.142  1.00  0.00    +0.000 H 
ATOM    131  H27 UNL A   1       3.070   4.590  34.433  1.00  0.00    +0.000 H 
ATOM     20  C19 UNL A   1       2.115   4.358  34.855  1.00  0.00    +0.000 C 
ENDBRANCH   18   20
ENDBRANCH   21   18
ENDBRANCH   23   21
ENDBRANCH   24   23
ENDBRANCH   25   24
ENDBRANCH   26   25
ENDBRANCH   27   26
ENDBRANCH   28   27
ENDBRANCH   29   28
ENDBRANCH   30   29
ENDBRANCH   31   30
ENDBRANCH   33   31
ENDBRANCH   37   36
BRANCH   41   42
ATOM     42  C36 UNL A   1       6.981  13.250  37.575  1.00  0.00    +0.000 C 
ATOM     43  C37 UNL A   1       8.307  13.715  37.487  1.00  0.00    +0.000 C 
ATOM     44  F1  UNL A   1       9.131  13.630  38.543  1.00  0.00    +0.000 F 
ATOM     45  C38 UNL A   1       8.789  14.354  36.340  1.00  0.00    +0.000 C 
ATOM     46  F2  UNL A   1      10.024  14.874  36.336  1.00  0.00    +0.000 F 
ATOM     47  C39 UNL A   1       7.980  14.509  35.228  1.00  0.00    +0.000 C 
ATOM     48  F3  UNL A   1       8.425  15.162  34.147  1.00  0.00    +0.000 F 
ATOM     49  C40 UNL A   1       6.688  14.032  35.262  1.00  0.00    +0.000 C 
ATOM     50  F4  UNL A   1       5.877  14.201  34.208  1.00  0.00    +0.000 F 
ATOM     51  C41 UNL A   1       6.189  13.441  36.422  1.00  0.00    +0.000 C 
ATOM     52  F5  UNL A   1       4.878  13.170  36.411  1.00  0.00    +0.000 F 
ENDBRANCH   41   42
BRANCH   58   59
ATOM     65  F8  UNL A   1       0.707  16.331  45.891  1.00  0.00    +0.000 F 
ATOM     66  C51 UNL A   1       1.474  14.933  44.150  1.00  0.00    +0.000 C 
ATOM     67  F9  UNL A   1       0.886  13.874  44.722  1.00  0.00    +0.000 F 
ATOM     68  C52 UNL A   1       2.158  14.777  42.949  1.00  0.00    +0.000 C 
ATOM     69  F10 UNL A   1       2.219  13.556  42.398  1.00  0.00    +0.000 F 
ATOM     59  C47 UNL A   1       2.732  15.874  42.290  1.00  0.00    +0.000 C 
ATOM     60  C48 UNL A   1       2.594  17.137  42.890  1.00  0.00    +0.000 C 
ATOM     61  F6  UNL A   1       3.038  18.243  42.276  1.00  0.00    +0.000 F 
ATOM     62  C49 UNL A   1       1.942  17.284  44.115  1.00  0.00    +0.000 C 
ATOM     63  F7  UNL A   1       1.831  18.497  44.677  1.00  0.00    +0.000 F 
ATOM     64  C50 UNL A   1       1.374  16.183  44.738  1.00  0.00    +0.000 C 
ENDBRANCH   58   59
BRANCH   73   74
ATOM     74  C56 UNL A   1      -1.597  14.441  37.918  1.00  0.00    +0.000 C 
ATOM     75  C57 UNL A   1      -1.707  13.660  36.753  1.00  0.00    +0.000 C 
ATOM     76  F11 UNL A   1      -0.677  12.901  36.352  1.00  0.00    +0.000 F 
ATOM     77  C58 UNL A   1      -2.902  13.582  36.032  1.00  0.00    +0.000 C 
ATOM     78  F12 UNL A   1      -2.992  12.768  34.971  1.00  0.00    +0.000 F 
ATOM     79  C59 UNL A   1      -4.018  14.291  36.447  1.00  0.00    +0.000 C 
ATOM     80  F13 UNL A   1      -5.183  14.161  35.800  1.00  0.00    +0.000 F 
ATOM     81  C60 UNL A   1      -3.930  15.101  37.565  1.00  0.00    +0.000 C 
ATOM     82  F14 UNL A   1      -5.012  15.764  37.997  1.00  0.00    +0.000 F 
ATOM     83  C61 UNL A   1      -2.739  15.175  38.288  1.00  0.00    +0.000 C 
ATOM     84  F15 UNL A   1      -2.756  15.900  39.417  1.00  0.00    +0.000 F 
ENDBRANCH   73   74
TORSDOF 25
ENDMDL
MODEL 7
REMARK VINA RESULT:      -8.8      7.359     12.450
ROOT
ATOM    148  H44 UNL A   1      19.284  15.615   7.569  1.00  0.00    +0.000 H 
ATOM    149  H45 UNL A   1      20.836  16.431   9.566  1.00  0.00    +0.000 H 
ATOM    150  H46 UNL A   1      22.947  13.898   7.194  1.00  0.00    +0.000 H 
ATOM    151  H47 UNL A   1      27.504  20.349   6.078  1.00  0.00    +0.000 H 
ATOM    152  H48 UNL A   1      25.233  21.176   5.270  1.00  0.00    +0.000 H 
ATOM    153  H49 UNL A   1      24.774  17.178   6.310  1.00  0.00    +0.000 H 
ATOM    154  H50 UNL A   1      26.974  14.812   5.874  1.00  0.00    +0.000 H 
ATOM    155  H51 UNL A   1      24.784  13.980   6.948  1.00  0.00    +0.000 H 
ATOM    156  H52 UNL A   1      21.078  15.772   2.563  1.00  0.00    +0.000 H 
ATOM    157  H53 UNL A   1      22.607  17.820   2.267  1.00  0.00    +0.000 H 
ATOM     37  C32 UNL A   1      23.366  19.024   4.759  1.00  0.00    +0.000 C 
ATOM     38  C33 UNL A   1      22.598  17.764   4.538  1.00  0.00    +0.000 C 
ATOM     39  N3  UNL A   1      22.027  17.013   5.424  1.00  0.00    +0.000 N 
ATOM     40  C34 UNL A   1      21.472  15.947   4.717  1.00  0.00    +0.000 C 
ATOM     41  C35 UNL A   1      21.204  14.757   5.319  1.00  0.00    +0.000 C 
ATOM     53  C42 UNL A   1      21.150  14.887   6.748  1.00  0.00    +0.000 C 
ATOM     54  C43 UNL A   1      20.305  15.493   7.652  1.00  0.00    +0.000 C 
ATOM     55  C44 UNL A   1      21.142  15.911   8.729  1.00  0.00    +0.000 C 
ATOM     56  C45 UNL A   1      22.447  15.499   8.454  1.00  0.00    +0.000 C 
ATOM     57  N4  UNL A   1      22.311  14.614   7.419  1.00  0.00    +0.000 N 
ATOM     58  C46 UNL A   1      23.733  15.938   8.949  1.00  0.00    +0.000 C 
ATOM     70  C53 UNL A   1      24.935  15.666   8.364  1.00  0.00    +0.000 C 
ATOM     71  N5  UNL A   1      26.014  16.513   8.557  1.00  0.00    +0.000 N 
ATOM     72  C54 UNL A   1      26.721  16.396   7.468  1.00  0.00    +0.000 C 
ATOM     73  C55 UNL A   1      27.455  17.520   6.841  1.00  0.00    +0.000 C 
ATOM     85  C62 UNL A   1      26.521  18.390   6.386  1.00  0.00    +0.000 C 
ATOM     86  C63 UNL A   1      26.647  19.778   6.002  1.00  0.00    +0.000 C 
ATOM     87  C64 UNL A   1      25.458  20.202   5.528  1.00  0.00    +0.000 C 
ATOM     88  C65 UNL A   1      24.534  19.070   5.434  1.00  0.00    +0.000 C 
ATOM     89  N6  UNL A   1      25.187  18.044   6.084  1.00  0.00    +0.000 N 
ATOM     90  C66 UNL A   1      26.449  15.217   6.665  1.00  0.00    +0.000 C 
ATOM     91  C67 UNL A   1      25.321  14.808   7.250  1.00  0.00    +0.000 C 
ATOM     92  C68 UNL A   1      21.546  16.291   3.322  1.00  0.00    +0.000 C 
ATOM     93  C69 UNL A   1      22.305  17.373   3.147  1.00  0.00    +0.000 C 
ENDROOT
BRANCH   37   36
ATOM     33  C28 UNL A   1      21.835  22.466   2.797  1.00  0.00    +0.000 C 
ATOM     34  C29 UNL A   1      23.148  22.043   2.587  1.00  0.00    +0.000 C 
ATOM     35  C30 UNL A   1      23.628  20.899   3.210  1.00  0.00    +0.000 C 
ATOM     36  C31 UNL A   1      22.806  20.189   4.084  1.00  0.00    +0.000 C 
ATOM    146  H42 UNL A   1      23.768  22.585   1.964  1.00  0.00    +0.000 H 
ATOM    147  H43 UNL A   1      24.591  20.575   3.026  1.00  0.00    +0.000 H 
ATOM    158  H54 UNL A   1      20.958  20.177   5.102  1.00  0.00    +0.000 H 
ATOM    159  H55 UNL A   1      20.095  22.115   3.945  1.00  0.00    +0.000 H 
ATOM     94  C70 UNL A   1      21.534  20.658   4.394  1.00  0.00    +0.000 C 
ATOM     95  C71 UNL A   1      21.049  21.779   3.738  1.00  0.00    +0.000 C 
BRANCH   33   31
ATOM     31  C27 UNL A   1      21.154  23.578   2.089  1.00  0.00    +0.000 C 
ATOM     32  O2  UNL A   1      20.928  24.625   2.702  1.00  0.00    +0.000 O 
BRANCH   31   30
ATOM    145  H41 UNL A   1      20.056  24.236   0.600  1.00  0.00    +0.000 H 
ATOM     30  N2  UNL A   1      20.706  23.526   0.804  1.00  0.00    +0.000 N 
BRANCH   30   29
ATOM     29  C26 UNL A   1      20.968  22.667  -0.328  1.00  0.00    +0.000 C 
ATOM    143  H39 UNL A   1      21.719  21.956  -0.052  1.00  0.00    +0.000 H 
ATOM    144  H40 UNL A   1      20.047  22.190  -0.591  1.00  0.00    +0.000 H 
BRANCH   29   28
ATOM     28  C25 UNL A   1      21.454  23.436  -1.557  1.00  0.00    +0.000 C 
ATOM    141  H37 UNL A   1      21.967  24.315  -1.226  1.00  0.00    +0.000 H 
ATOM    142  H38 UNL A   1      22.094  22.780  -2.109  1.00  0.00    +0.000 H 
BRANCH   28   27
ATOM     27  C24 UNL A   1      20.316  23.860  -2.497  1.00  0.00    +0.000 C 
ATOM    140  H36 UNL A   1      19.569  23.097  -2.431  1.00  0.00    +0.000 H 
ATOM    139  H35 UNL A   1      20.720  23.970  -3.481  1.00  0.00    +0.000 H 
BRANCH   27   26
ATOM    137  H33 UNL A   1      20.223  25.669  -1.374  1.00  0.00    +0.000 H 
ATOM     26  C23 UNL A   1      19.626  25.178  -2.113  1.00  0.00    +0.000 C 
ATOM    138  H34 UNL A   1      19.530  25.755  -3.008  1.00  0.00    +0.000 H 
BRANCH   26   25
ATOM     25  C22 UNL A   1      18.227  24.987  -1.552  1.00  0.00    +0.000 C 
ATOM    135  H31 UNL A   1      18.128  23.987  -1.186  1.00  0.00    +0.000 H 
ATOM    136  H32 UNL A   1      18.074  25.688  -0.757  1.00  0.00    +0.000 H 
BRANCH   25   24
ATOM    133  H29 UNL A   1      16.469  25.928  -2.252  1.00  0.00    +0.000 H 
ATOM    134  H30 UNL A   1      17.685  25.615  -3.486  1.00  0.00    +0.000 H 
ATOM     24  C21 UNL A   1      17.192  25.230  -2.620  1.00  0.00    +0.000 C 
BRANCH   24   23
ATOM    132  H28 UNL A   1      16.960  23.445  -3.668  1.00  0.00    +0.000 H 
ATOM     23  N1  UNL A   1      16.513  24.000  -2.989  1.00  0.00    +0.000 N 
BRANCH   23   21
ATOM     21  C20 UNL A   1      15.318  23.518  -2.501  1.00  0.00    +0.000 C 
ATOM     22  O1  UNL A   1      14.747  24.195  -1.669  1.00  0.00    +0.000 O 
BRANCH   21   18
ATOM     18  C17 UNL A   1      14.949  22.069  -2.843  1.00  0.00    +0.000 C 
BRANCH   18   17
ATOM     17  C16 UNL A   1      14.356  21.140  -1.743  1.00  0.00    +0.000 C 
ATOM    124  H20 UNL A   1      14.007  21.764  -0.946  1.00  0.00    +0.000 H 
ATOM    125  H21 UNL A   1      13.592  20.575  -2.235  1.00  0.00    +0.000 H 
BRANCH   17   16
ATOM      4  C4  UNL A   1      17.260  17.135   1.711  1.00  0.00    +0.000 C 
ATOM      5  C5  UNL A   1      16.632  16.246   0.835  1.00  0.00    +0.000 C 
ATOM      6  C6  UNL A   1      15.925  16.694  -0.286  1.00  0.00    +0.000 C 
ATOM      7  C7  UNL A   1      15.839  18.078  -0.520  1.00  0.00    +0.000 C 
ATOM      8  C8  UNL A   1      16.517  19.006   0.289  1.00  0.00    +0.000 C 
ATOM      9  C9  UNL A   1      17.238  18.509   1.407  1.00  0.00    +0.000 C 
ATOM     10  C10 UNL A   1      16.258  20.333  -0.223  1.00  0.00    +0.000 C 
ATOM    112  H8  UNL A   1      16.690  15.232   1.020  1.00  0.00    +0.000 H 
ATOM    113  H9  UNL A   1      15.476  16.023  -0.930  1.00  0.00    +0.000 H 
ATOM    114  H10 UNL A   1      17.757  19.168   2.009  1.00  0.00    +0.000 H 
ATOM     16  C15 UNL A   1      15.258  20.147  -1.166  1.00  0.00    +0.000 C 
ATOM     96  N7  UNL A   1      15.146  18.796  -1.485  1.00  0.00    +0.000 N 
BRANCH    4    2
ATOM      2  C2  UNL A   1      17.943  16.589   2.956  1.00  0.00    +0.000 C 
ATOM    108  H4  UNL A   1      18.833  16.100   2.620  1.00  0.00    +0.000 H 
BRANCH    2    1
ATOM      1  C1  UNL A   1      18.325  17.722   3.906  1.00  0.00    +0.000 C 
ATOM    106  H2  UNL A   1      18.398  17.343   4.904  1.00  0.00    +0.000 H 
ATOM    107  H3  UNL A   1      17.579  18.487   3.869  1.00  0.00    +0.000 H 
ATOM    105  H1  UNL A   1      19.270  18.131   3.612  1.00  0.00    +0.000 H 
ENDBRANCH    2    1
BRANCH    2    3
ATOM      3  C3  UNL A   1      17.116  15.523   3.684  1.00  0.00    +0.000 C 
ATOM    109  H5  UNL A   1      17.678  14.613   3.740  1.00  0.00    +0.000 H 
ATOM    110  H6  UNL A   1      16.207  15.348   3.148  1.00  0.00    +0.000 H 
ATOM    111  H7  UNL A   1      16.888  15.862   4.673  1.00  0.00    +0.000 H 
ENDBRANCH    2    3
ENDBRANCH    4    2
BRANCH   10   11
ATOM     11  S1  UNL A   1      16.959  21.785   0.552  1.00  0.00    +0.000 S 
ATOM     12  C11 UNL A   1      16.669  22.129   2.379  1.00  0.00    +0.000 C 
ATOM     13  C12 UNL A   1      15.189  22.438   2.628  1.00  0.00    +0.000 C 
ATOM     14  C13 UNL A   1      17.168  21.229   3.537  1.00  0.00    +0.000 C 
ATOM     15  C14 UNL A   1      17.522  23.407   2.617  1.00  0.00    +0.000 C 
ATOM    115  H11 UNL A   1      14.607  21.555   2.463  1.00  0.00    +0.000 H 
ATOM    116  H12 UNL A   1      14.867  23.208   1.958  1.00  0.00    +0.000 H 
ATOM    117  H13 UNL A   1      15.058  22.768   3.637  1.00  0.00    +0.000 H 
ATOM    118  H14 UNL A   1      16.659  20.289   3.503  1.00  0.00    +0.000 H 
ATOM    119  H15 UNL A   1      16.971  21.709   4.473  1.00  0.00    +0.000 H 
ATOM    120  H16 UNL A   1      18.221  21.068   3.434  1.00  0.00    +0.000 H 
ATOM    121  H17 UNL A   1      17.281  24.140   1.876  1.00  0.00    +0.000 H 
ATOM    122  H18 UNL A   1      18.561  23.160   2.551  1.00  0.00    +0.000 H 
ATOM    123  H19 UNL A   1      17.311  23.801   3.589  1.00  0.00    +0.000 H 
ENDBRANCH   10   11
BRANCH   96   97
ATOM     97  C72 UNL A   1      14.582  18.204  -2.734  1.00  0.00    +0.000 C 
ATOM    161  H57 UNL A   1      13.577  18.570  -2.762  1.00  0.00    +0.000 H 
ATOM    160  H56 UNL A   1      15.220  18.502  -3.539  1.00  0.00    +0.000 H 
BRANCH   97   98
ATOM     98  C73 UNL A   1      14.422  16.690  -2.826  1.00  0.00    +0.000 C 
ATOM     99  C74 UNL A   1      13.339  16.025  -2.215  1.00  0.00    +0.000 C 
ATOM    100  C75 UNL A   1      13.318  14.630  -2.083  1.00  0.00    +0.000 C 
ATOM    162  H58 UNL A   1      12.545  16.577  -1.859  1.00  0.00    +0.000 H 
ATOM    165  H61 UNL A   1      16.102  16.348  -4.066  1.00  0.00    +0.000 H 
ATOM    103  C77 UNL A   1      15.305  14.493  -3.435  1.00  0.00    +0.000 C 
ATOM    104  C78 UNL A   1      15.361  15.896  -3.507  1.00  0.00    +0.000 C 
ATOM    163  H59 UNL A   1      12.561  14.171  -1.553  1.00  0.00    +0.000 H 
ATOM    164  H60 UNL A   1      15.995  13.923  -3.949  1.00  0.00    +0.000 H 
ATOM    101  C76 UNL A   1      14.322  13.871  -2.670  1.00  0.00    +0.000 C 
ATOM    102 Cl1  UNL A   1      14.362  12.169  -2.413  1.00  0.00    +0.000 Cl
ENDBRANCH   97   98
ENDBRANCH   96   97
ENDBRANCH   17   16
ENDBRANCH   18   17
BRANCH   18   19
ATOM     19  C18 UNL A   1      16.387  21.620  -3.232  1.00  0.00    +0.000 C 
ATOM    126  H22 UNL A   1      16.772  22.273  -3.988  1.00  0.00    +0.000 H 
ATOM    127  H23 UNL A   1      16.358  20.618  -3.609  1.00  0.00    +0.000 H 
ATOM    128  H24 UNL A   1      17.019  21.659  -2.371  1.00  0.00    +0.000 H 
ENDBRANCH   18   19
BRANCH   18   20
ATOM    129  H25 UNL A   1      13.921  21.353  -4.612  1.00  0.00    +0.000 H 
ATOM    130  H26 UNL A   1      13.729  23.067  -4.332  1.00  0.00    +0.000 H 
ATOM    131  H27 UNL A   1      12.848  21.918  -3.355  1.00  0.00    +0.000 H 
ATOM     20  C19 UNL A   1      13.768  22.105  -3.866  1.00  0.00    +0.000 C 
ENDBRANCH   18   20
ENDBRANCH   21   18
ENDBRANCH   23   21
ENDBRANCH   24   23
ENDBRANCH   25   24
ENDBRANCH   26   25
ENDBRANCH   27   26
ENDBRANCH   28   27
ENDBRANCH   29   28
ENDBRANCH   30   29
ENDBRANCH   31   30
ENDBRANCH   33   31
ENDBRANCH   37   36
BRANCH   41   42
ATOM     42  C36 UNL A   1      21.406  13.420   4.648  1.00  0.00    +0.000 C 
ATOM     43  C37 UNL A   1      22.696  13.022   4.250  1.00  0.00    +0.000 C 
ATOM     44  F1  UNL A   1      23.777  13.705   4.658  1.00  0.00    +0.000 F 
ATOM     45  C38 UNL A   1      22.898  11.965   3.356  1.00  0.00    +0.000 C 
ATOM     46  F2  UNL A   1      24.135  11.686   2.922  1.00  0.00    +0.000 F 
ATOM     47  C39 UNL A   1      21.825  11.243   2.866  1.00  0.00    +0.000 C 
ATOM     48  F3  UNL A   1      22.013  10.262   1.975  1.00  0.00    +0.000 F 
ATOM     49  C40 UNL A   1      20.548  11.577   3.264  1.00  0.00    +0.000 C 
ATOM     50  F4  UNL A   1      19.493  10.912   2.775  1.00  0.00    +0.000 F 
ATOM     51  C41 UNL A   1      20.340  12.662   4.114  1.00  0.00    +0.000 C 
ATOM     52  F5  UNL A   1      19.061  13.011   4.299  1.00  0.00    +0.000 F 
ENDBRANCH   41   42
BRANCH   58   59
ATOM     65  F8  UNL A   1      23.336  19.522  13.305  1.00  0.00    +0.000 F 
ATOM     66  C51 UNL A   1      23.459  17.321  12.462  1.00  0.00    +0.000 C 
ATOM     67  F9  UNL A   1      23.280  16.823  13.693  1.00  0.00    +0.000 F 
ATOM     68  C52 UNL A   1      23.596  16.455  11.381  1.00  0.00    +0.000 C 
ATOM     69  F10 UNL A   1      23.556  15.134  11.607  1.00  0.00    +0.000 F 
ATOM     59  C47 UNL A   1      23.722  16.940  10.071  1.00  0.00    +0.000 C 
ATOM     60  C48 UNL A   1      23.708  18.333   9.890  1.00  0.00    +0.000 C 
ATOM     61  F6  UNL A   1      23.734  18.867   8.661  1.00  0.00    +0.000 F 
ATOM     62  C49 UNL A   1      23.611  19.200  10.980  1.00  0.00    +0.000 C 
ATOM     63  F7  UNL A   1      23.612  20.526  10.786  1.00  0.00    +0.000 F 
ATOM     64  C50 UNL A   1      23.476  18.692  12.263  1.00  0.00    +0.000 C 
ENDBRANCH   58   59
BRANCH   73   74
ATOM     74  C56 UNL A   1      28.883  17.410   6.459  1.00  0.00    +0.000 C 
ATOM     75  C57 UNL A   1      29.251  17.128   5.131  1.00  0.00    +0.000 C 
ATOM     76  F11 UNL A   1      28.330  16.708   4.252  1.00  0.00    +0.000 F 
ATOM     77  C58 UNL A   1      30.550  17.355   4.666  1.00  0.00    +0.000 C 
ATOM     78  F12 UNL A   1      30.844  17.148   3.375  1.00  0.00    +0.000 F 
ATOM     79  C59 UNL A   1      31.521  17.858   5.517  1.00  0.00    +0.000 C 
ATOM     80  F13 UNL A   1      32.745  18.145   5.055  1.00  0.00    +0.000 F 
ATOM     81  C60 UNL A   1      31.202  18.106   6.840  1.00  0.00    +0.000 C 
ATOM     82  F14 UNL A   1      32.122  18.626   7.664  1.00  0.00    +0.000 F 
ATOM     83  C61 UNL A   1      29.904  17.886   7.303  1.00  0.00    +0.000 C 
ATOM     84  F15 UNL A   1      29.640  18.242   8.569  1.00  0.00    +0.000 F 
ENDBRANCH   73   74
TORSDOF 25
ENDMDL
MODEL 8
REMARK VINA RESULT:      -8.5      8.303     13.157
ROOT
ATOM    148  H44 UNL A   1      19.175  15.751   7.714  1.00  0.00    +0.000 H 
ATOM    149  H45 UNL A   1      20.757  16.586   9.679  1.00  0.00    +0.000 H 
ATOM    150  H46 UNL A   1      22.813  13.982   7.335  1.00  0.00    +0.000 H 
ATOM    151  H47 UNL A   1      27.435  20.354   6.047  1.00  0.00    +0.000 H 
ATOM    152  H48 UNL A   1      25.167  21.193   5.247  1.00  0.00    +0.000 H 
ATOM    153  H49 UNL A   1      24.670  17.222   6.369  1.00  0.00    +0.000 H 
ATOM    154  H50 UNL A   1      26.837  14.820   5.957  1.00  0.00    +0.000 H 
ATOM    155  H51 UNL A   1      24.647  14.037   7.069  1.00  0.00    +0.000 H 
ATOM    156  H52 UNL A   1      20.918  15.789   2.688  1.00  0.00    +0.000 H 
ATOM    157  H53 UNL A   1      22.469  17.812   2.337  1.00  0.00    +0.000 H 
ATOM     37  C32 UNL A   1      23.268  19.054   4.797  1.00  0.00    +0.000 C 
ATOM     38  C33 UNL A   1      22.483  17.800   4.608  1.00  0.00    +0.000 C 
ATOM     39  N3  UNL A   1      21.911  17.073   5.514  1.00  0.00    +0.000 N 
ATOM     40  C34 UNL A   1      21.337  16.001   4.834  1.00  0.00    +0.000 C 
ATOM     41  C35 UNL A   1      21.060  14.826   5.462  1.00  0.00    +0.000 C 
ATOM     53  C42 UNL A   1      21.023  14.984   6.889  1.00  0.00    +0.000 C 
ATOM     54  C43 UNL A   1      20.195  15.618   7.790  1.00  0.00    +0.000 C 
ATOM     55  C44 UNL A   1      21.048  16.047   8.849  1.00  0.00    +0.000 C 
ATOM     56  C45 UNL A   1      22.345  15.614   8.569  1.00  0.00    +0.000 C 
ATOM     57  N4  UNL A   1      22.188  14.710   7.553  1.00  0.00    +0.000 N 
ATOM     58  C46 UNL A   1      23.641  16.046   9.043  1.00  0.00    +0.000 C 
ATOM     70  C53 UNL A   1      24.834  15.747   8.451  1.00  0.00    +0.000 C 
ATOM     71  N5  UNL A   1      25.925  16.585   8.616  1.00  0.00    +0.000 N 
ATOM     72  C54 UNL A   1      26.619  16.438   7.522  1.00  0.00    +0.000 C 
ATOM     73  C55 UNL A   1      27.360  17.540   6.866  1.00  0.00    +0.000 C 
ATOM     85  C62 UNL A   1      26.432  18.414   6.404  1.00  0.00    +0.000 C 
ATOM     86  C63 UNL A   1      26.571  19.792   5.991  1.00  0.00    +0.000 C 
ATOM     87  C64 UNL A   1      25.382  20.221   5.521  1.00  0.00    +0.000 C 
ATOM     88  C65 UNL A   1      24.443  19.099   5.459  1.00  0.00    +0.000 C 
ATOM     89  N6  UNL A   1      25.091  18.077   6.122  1.00  0.00    +0.000 N 
ATOM     90  C66 UNL A   1      26.324  15.247   6.745  1.00  0.00    +0.000 C 
ATOM     91  C67 UNL A   1      25.198  14.864   7.349  1.00  0.00    +0.000 C 
ATOM     92  C68 UNL A   1      21.400  16.317   3.432  1.00  0.00    +0.000 C 
ATOM     93  C69 UNL A   1      22.170  17.386   3.228  1.00  0.00    +0.000 C 
ENDROOT
BRANCH   37   36
ATOM     33  C28 UNL A   1      21.757  22.479   2.790  1.00  0.00    +0.000 C 
ATOM     34  C29 UNL A   1      23.082  22.073   2.622  1.00  0.00    +0.000 C 
ATOM     35  C30 UNL A   1      23.556  20.935   3.259  1.00  0.00    +0.000 C 
ATOM     36  C31 UNL A   1      22.715  20.213   4.105  1.00  0.00    +0.000 C 
ATOM    146  H42 UNL A   1      23.714  22.624   2.019  1.00  0.00    +0.000 H 
ATOM    147  H43 UNL A   1      24.528  20.624   3.106  1.00  0.00    +0.000 H 
ATOM    158  H54 UNL A   1      20.835  20.175   5.062  1.00  0.00    +0.000 H 
ATOM    159  H55 UNL A   1      19.985  22.104   3.880  1.00  0.00    +0.000 H 
ATOM     94  C70 UNL A   1      21.427  20.665   4.374  1.00  0.00    +0.000 C 
ATOM     95  C71 UNL A   1      20.950  21.781   3.704  1.00  0.00    +0.000 C 
BRANCH   33   31
ATOM     31  C27 UNL A   1      21.085  23.583   2.061  1.00  0.00    +0.000 C 
ATOM     32  O2  UNL A   1      20.616  24.524   2.706  1.00  0.00    +0.000 O 
BRANCH   31   30
ATOM    145  H41 UNL A   1      20.097  24.141   0.457  1.00  0.00    +0.000 H 
ATOM     30  N2  UNL A   1      20.897  23.627   0.712  1.00  0.00    +0.000 N 
BRANCH   30   29
ATOM     29  C26 UNL A   1      21.605  23.092  -0.429  1.00  0.00    +0.000 C 
ATOM    143  H39 UNL A   1      22.645  23.322  -0.325  1.00  0.00    +0.000 H 
ATOM    144  H40 UNL A   1      21.431  22.037  -0.450  1.00  0.00    +0.000 H 
BRANCH   29   28
ATOM     28  C25 UNL A   1      21.109  23.666  -1.757  1.00  0.00    +0.000 C 
ATOM    141  H37 UNL A   1      20.541  24.550  -1.554  1.00  0.00    +0.000 H 
ATOM    142  H38 UNL A   1      21.972  23.870  -2.356  1.00  0.00    +0.000 H 
BRANCH   28   27
ATOM     27  C24 UNL A   1      20.226  22.689  -2.548  1.00  0.00    +0.000 C 
ATOM    140  H36 UNL A   1      20.375  21.724  -2.110  1.00  0.00    +0.000 H 
ATOM    139  H35 UNL A   1      20.518  22.734  -3.576  1.00  0.00    +0.000 H 
BRANCH   27   26
ATOM    137  H33 UNL A   1      18.577  24.037  -2.468  1.00  0.00    +0.000 H 
ATOM     26  C23 UNL A   1      18.720  22.977  -2.464  1.00  0.00    +0.000 C 
ATOM    138  H34 UNL A   1      18.262  22.504  -3.307  1.00  0.00    +0.000 H 
BRANCH   26   25
ATOM     25  C22 UNL A   1      18.062  22.407  -1.219  1.00  0.00    +0.000 C 
ATOM    135  H31 UNL A   1      18.817  22.171  -0.499  1.00  0.00    +0.000 H 
ATOM    136  H32 UNL A   1      17.386  23.134  -0.820  1.00  0.00    +0.000 H 
BRANCH   25   24
ATOM    133  H29 UNL A   1      16.349  21.433  -1.983  1.00  0.00    +0.000 H 
ATOM    134  H30 UNL A   1      17.867  20.580  -2.246  1.00  0.00    +0.000 H 
ATOM     24  C21 UNL A   1      17.290  21.156  -1.555  1.00  0.00    +0.000 C 
BRANCH   24   23
ATOM    132  H28 UNL A   1      17.769  19.725  -0.120  1.00  0.00    +0.000 H 
ATOM     23  N1  UNL A   1      17.050  20.347  -0.373  1.00  0.00    +0.000 N 
BRANCH   23   21
ATOM     21  C20 UNL A   1      15.936  20.349   0.437  1.00  0.00    +0.000 C 
ATOM     22  O1  UNL A   1      15.289  21.377   0.487  1.00  0.00    +0.000 O 
BRANCH   21   18
ATOM     18  C17 UNL A   1      15.759  19.166   1.397  1.00  0.00    +0.000 C 
BRANCH   18   17
ATOM     17  C16 UNL A   1      14.737  19.264   2.567  1.00  0.00    +0.000 C 
ATOM    124  H20 UNL A   1      14.452  20.290   2.664  1.00  0.00    +0.000 H 
ATOM    125  H21 UNL A   1      13.940  18.602   2.300  1.00  0.00    +0.000 H 
BRANCH   17   16
ATOM      4  C4  UNL A   1      15.562  18.085   8.428  1.00  0.00    +0.000 C 
ATOM      5  C5  UNL A   1      15.044  16.849   8.032  1.00  0.00    +0.000 C 
ATOM      6  C6  UNL A   1      14.812  16.546   6.686  1.00  0.00    +0.000 C 
ATOM      7  C7  UNL A   1      15.099  17.522   5.716  1.00  0.00    +0.000 C 
ATOM      8  C8  UNL A   1      15.691  18.750   6.057  1.00  0.00    +0.000 C 
ATOM      9  C9  UNL A   1      15.927  19.012   7.434  1.00  0.00    +0.000 C 
ATOM     10  C10 UNL A   1      15.887  19.515   4.847  1.00  0.00    +0.000 C 
ATOM    112  H8  UNL A   1      14.825  16.142   8.751  1.00  0.00    +0.000 H 
ATOM    113  H9  UNL A   1      14.439  15.623   6.409  1.00  0.00    +0.000 H 
ATOM    114  H10 UNL A   1      16.375  19.900   7.710  1.00  0.00    +0.000 H 
ATOM     16  C15 UNL A   1      15.193  18.806   3.878  1.00  0.00    +0.000 C 
ATOM     96  N7  UNL A   1      14.892  17.528   4.343  1.00  0.00    +0.000 N 
BRANCH    4    2
ATOM      2  C2  UNL A   1      15.714  18.383   9.911  1.00  0.00    +0.000 C 
ATOM    108  H4  UNL A   1      14.828  18.908  10.204  1.00  0.00    +0.000 H 
BRANCH    2    1
ATOM      1  C1  UNL A   1      15.816  17.090  10.718  1.00  0.00    +0.000 C 
ATOM    106  H2  UNL A   1      15.201  16.339  10.268  1.00  0.00    +0.000 H 
ATOM    107  H3  UNL A   1      15.487  17.268  11.720  1.00  0.00    +0.000 H 
ATOM    105  H1  UNL A   1      16.833  16.756  10.730  1.00  0.00    +0.000 H 
ENDBRANCH    2    1
BRANCH    2    3
ATOM      3  C3  UNL A   1      16.889  19.317  10.226  1.00  0.00    +0.000 C 
ATOM    109  H5  UNL A   1      17.601  19.275   9.428  1.00  0.00    +0.000 H 
ATOM    110  H6  UNL A   1      17.356  19.008  11.137  1.00  0.00    +0.000 H 
ATOM    111  H7  UNL A   1      16.529  20.319  10.331  1.00  0.00    +0.000 H 
ENDBRANCH    2    3
ENDBRANCH    4    2
BRANCH   10   11
ATOM     11  S1  UNL A   1      16.624  21.144   4.882  1.00  0.00    +0.000 S 
ATOM     12  C11 UNL A   1      15.846  22.525   5.896  1.00  0.00    +0.000 C 
ATOM     13  C12 UNL A   1      14.486  22.911   5.304  1.00  0.00    +0.000 C 
ATOM     14  C13 UNL A   1      15.708  22.518   7.439  1.00  0.00    +0.000 C 
ATOM     15  C14 UNL A   1      16.855  23.692   5.702  1.00  0.00    +0.000 C 
ATOM    115  H11 UNL A   1      13.796  22.105   5.441  1.00  0.00    +0.000 H 
ATOM    116  H12 UNL A   1      14.596  23.113   4.259  1.00  0.00    +0.000 H 
ATOM    117  H13 UNL A   1      14.116  23.785   5.798  1.00  0.00    +0.000 H 
ATOM    118  H14 UNL A   1      15.026  21.747   7.733  1.00  0.00    +0.000 H 
ATOM    119  H15 UNL A   1      15.337  23.466   7.769  1.00  0.00    +0.000 H 
ATOM    120  H16 UNL A   1      16.665  22.335   7.881  1.00  0.00    +0.000 H 
ATOM    121  H17 UNL A   1      17.053  23.822   4.659  1.00  0.00    +0.000 H 
ATOM    122  H18 UNL A   1      17.767  23.464   6.213  1.00  0.00    +0.000 H 
ATOM    123  H19 UNL A   1      16.440  24.594   6.100  1.00  0.00    +0.000 H 
ENDBRANCH   10   11
BRANCH   96   97
ATOM     97  C72 UNL A   1      14.607  16.311   3.527  1.00  0.00    +0.000 C 
ATOM    161  H57 UNL A   1      13.960  15.729   4.149  1.00  0.00    +0.000 H 
ATOM    160  H56 UNL A   1      14.199  16.646   2.596  1.00  0.00    +0.000 H 
BRANCH   97   98
ATOM     98  C73 UNL A   1      15.752  15.359   3.197  1.00  0.00    +0.000 C 
ATOM     99  C74 UNL A   1      17.093  15.795   3.189  1.00  0.00    +0.000 C 
ATOM    100  C75 UNL A   1      18.116  15.005   2.650  1.00  0.00    +0.000 C 
ATOM    162  H58 UNL A   1      17.326  16.717   3.589  1.00  0.00    +0.000 H 
ATOM    165  H61 UNL A   1      14.563  13.624   2.973  1.00  0.00    +0.000 H 
ATOM    103  C77 UNL A   1      16.551  13.194   2.389  1.00  0.00    +0.000 C 
ATOM    104  C78 UNL A   1      15.513  14.014   2.866  1.00  0.00    +0.000 C 
ATOM    163  H59 UNL A   1      19.075  15.379   2.571  1.00  0.00    +0.000 H 
ATOM    164  H60 UNL A   1      16.362  12.205   2.162  1.00  0.00    +0.000 H 
ATOM    101  C76 UNL A   1      17.832  13.714   2.224  1.00  0.00    +0.000 C 
ATOM    102 Cl1  UNL A   1      19.059  12.781   1.458  1.00  0.00    +0.000 Cl
ENDBRANCH   97   98
ENDBRANCH   96   97
ENDBRANCH   17   16
ENDBRANCH   18   17
BRANCH   18   19
ATOM     19  C18 UNL A   1      17.220  19.169   1.934  1.00  0.00    +0.000 C 
ATOM    126  H22 UNL A   1      17.902  19.102   1.111  1.00  0.00    +0.000 H 
ATOM    127  H23 UNL A   1      17.363  18.331   2.585  1.00  0.00    +0.000 H 
ATOM    128  H24 UNL A   1      17.400  20.075   2.473  1.00  0.00    +0.000 H 
ENDBRANCH   18   19
BRANCH   18   20
ATOM    129  H25 UNL A   1      15.906  17.216   0.461  1.00  0.00    +0.000 H 
ATOM    130  H26 UNL A   1      14.846  18.322  -0.379  1.00  0.00    +0.000 H 
ATOM    131  H27 UNL A   1      14.322  17.569   1.108  1.00  0.00    +0.000 H 
ATOM     20  C19 UNL A   1      15.160  17.975   0.583  1.00  0.00    +0.000 C 
ENDBRANCH   18   20
ENDBRANCH   21   18
ENDBRANCH   23   21
ENDBRANCH   24   23
ENDBRANCH   25   24
ENDBRANCH   26   25
ENDBRANCH   27   26
ENDBRANCH   28   27
ENDBRANCH   29   28
ENDBRANCH   30   29
ENDBRANCH   31   30
ENDBRANCH   33   31
ENDBRANCH   37   36
BRANCH   41   42
ATOM     42  C36 UNL A   1      21.239  13.474   4.815  1.00  0.00    +0.000 C 
ATOM     43  C37 UNL A   1      20.180  12.545   4.826  1.00  0.00    +0.000 C 
ATOM     44  F1  UNL A   1      18.947  12.921   5.199  1.00  0.00    +0.000 F 
ATOM     45  C38 UNL A   1      20.384  11.192   4.535  1.00  0.00    +0.000 C 
ATOM     46  F2  UNL A   1      19.371  10.324   4.659  1.00  0.00    +0.000 F 
ATOM     47  C39 UNL A   1      21.639  10.730   4.180  1.00  0.00    +0.000 C 
ATOM     48  F3  UNL A   1      21.846   9.428   3.947  1.00  0.00    +0.000 F 
ATOM     49  C40 UNL A   1      22.693  11.617   4.120  1.00  0.00    +0.000 C 
ATOM     50  F4  UNL A   1      23.923  11.184   3.810  1.00  0.00    +0.000 F 
ATOM     51  C41 UNL A   1      22.503  12.956   4.458  1.00  0.00    +0.000 C 
ATOM     52  F5  UNL A   1      23.618  13.693   4.536  1.00  0.00    +0.000 F 
ENDBRANCH   41   42
BRANCH   58   59
ATOM     65  F8  UNL A   1      23.325  19.728  13.323  1.00  0.00    +0.000 F 
ATOM     66  C51 UNL A   1      23.375  17.507  12.524  1.00  0.00    +0.000 C 
ATOM     67  F9  UNL A   1      23.162  17.041  13.762  1.00  0.00    +0.000 F 
ATOM     68  C52 UNL A   1      23.493  16.616  11.462  1.00  0.00    +0.000 C 
ATOM     69  F10 UNL A   1      23.399  15.301  11.713  1.00  0.00    +0.000 F 
ATOM     59  C47 UNL A   1      23.654  17.069  10.145  1.00  0.00    +0.000 C 
ATOM     60  C48 UNL A   1      23.696  18.458   9.937  1.00  0.00    +0.000 C 
ATOM     61  F6  UNL A   1      23.758  18.967   8.698  1.00  0.00    +0.000 F 
ATOM     62  C49 UNL A   1      23.618  19.349  11.008  1.00  0.00    +0.000 C 
ATOM     63  F7  UNL A   1      23.672  20.670  10.789  1.00  0.00    +0.000 F 
ATOM     64  C50 UNL A   1      23.447  18.872  12.299  1.00  0.00    +0.000 C 
ENDBRANCH   58   59
BRANCH   73   74
ATOM     74  C56 UNL A   1      28.783  17.405   6.472  1.00  0.00    +0.000 C 
ATOM     75  C57 UNL A   1      29.135  17.147   5.135  1.00  0.00    +0.000 C 
ATOM     76  F11 UNL A   1      28.199  16.769   4.252  1.00  0.00    +0.000 F 
ATOM     77  C58 UNL A   1      30.437  17.354   4.666  1.00  0.00    +0.000 C 
ATOM     78  F12 UNL A   1      30.717  17.170   3.368  1.00  0.00    +0.000 F 
ATOM     79  C59 UNL A   1      31.424  17.813   5.522  1.00  0.00    +0.000 C 
ATOM     80  F13 UNL A   1      32.652  18.082   5.058  1.00  0.00    +0.000 F 
ATOM     81  C60 UNL A   1      31.120  18.037   6.852  1.00  0.00    +0.000 C 
ATOM     82  F14 UNL A   1      32.057  18.516   7.682  1.00  0.00    +0.000 F 
ATOM     83  C61 UNL A   1      29.820  17.837   7.320  1.00  0.00    +0.000 C 
ATOM     84  F15 UNL A   1      29.573  18.170   8.595  1.00  0.00    +0.000 F 
ENDBRANCH   73   74
TORSDOF 25
ENDMDL
MODEL 9
REMARK VINA RESULT:      -8.3     23.091     28.599
ROOT
ATOM    148  H44 UNL A   1       6.447  51.870  15.540  1.00  0.00    +0.000 H 
ATOM    149  H45 UNL A   1       7.974  54.005  15.126  1.00  0.00    +0.000 H 
ATOM    150  H46 UNL A   1      10.352  50.797  15.870  1.00  0.00    +0.000 H 
ATOM    151  H47 UNL A   1      12.922  52.253   8.460  1.00  0.00    +0.000 H 
ATOM    152  H48 UNL A   1      10.433  51.869   8.076  1.00  0.00    +0.000 H 
ATOM    153  H49 UNL A   1      11.149  51.253  12.123  1.00  0.00    +0.000 H 
ATOM    154  H50 UNL A   1      13.811  49.889  13.420  1.00  0.00    +0.000 H 
ATOM    155  H51 UNL A   1      12.060  50.578  15.182  1.00  0.00    +0.000 H 
ATOM    156  H52 UNL A   1       7.501  47.308  13.016  1.00  0.00    +0.000 H 
ATOM    157  H53 UNL A   1       8.403  47.822  10.662  1.00  0.00    +0.000 H 
ATOM     37  C32 UNL A   1       9.132  50.576  10.317  1.00  0.00    +0.000 C 
ATOM     38  C33 UNL A   1       8.692  49.887  11.564  1.00  0.00    +0.000 C 
ATOM     39  N3  UNL A   1       8.448  50.412  12.722  1.00  0.00    +0.000 N 
ATOM     40  C34 UNL A   1       8.102  49.350  13.555  1.00  0.00    +0.000 C 
ATOM     41  C35 UNL A   1       8.226  49.438  14.907  1.00  0.00    +0.000 C 
ATOM     53  C42 UNL A   1       8.320  50.803  15.343  1.00  0.00    +0.000 C 
ATOM     54  C43 UNL A   1       7.467  51.884  15.388  1.00  0.00    +0.000 C 
ATOM     55  C44 UNL A   1       8.296  53.027  15.183  1.00  0.00    +0.000 C 
ATOM     56  C45 UNL A   1       9.618  52.594  15.072  1.00  0.00    +0.000 C 
ATOM     57  N4  UNL A   1       9.586  51.296  15.504  1.00  0.00    +0.000 N 
ATOM     58  C46 UNL A   1      10.799  53.204  14.503  1.00  0.00    +0.000 C 
ATOM     70  C53 UNL A   1      11.949  52.542  14.181  1.00  0.00    +0.000 C 
ATOM     71  N5  UNL A   1      12.789  53.039  13.199  1.00  0.00    +0.000 N 
ATOM     72  C54 UNL A   1      13.361  51.982  12.692  1.00  0.00    +0.000 C 
ATOM     73  C55 UNL A   1      13.697  51.839  11.256  1.00  0.00    +0.000 C 
ATOM     85  C62 UNL A   1      12.522  51.777  10.584  1.00  0.00    +0.000 C 
ATOM     86  C63 UNL A   1      12.237  51.970   9.180  1.00  0.00    +0.000 C 
ATOM     87  C64 UNL A   1      10.930  51.718   8.968  1.00  0.00    +0.000 C 
ATOM     88  C65 UNL A   1      10.323  51.198  10.196  1.00  0.00    +0.000 C 
ATOM     89  N6  UNL A   1      11.295  51.382  11.158  1.00  0.00    +0.000 N 
ATOM     90  C66 UNL A   1      13.303  50.783  13.509  1.00  0.00    +0.000 C 
ATOM     91  C67 UNL A   1      12.400  51.174  14.411  1.00  0.00    +0.000 C 
ATOM     92  C68 UNL A   1       7.911  48.204  12.709  1.00  0.00    +0.000 C 
ATOM     93  C69 UNL A   1       8.338  48.459  11.472  1.00  0.00    +0.000 C 
ENDROOT
BRANCH   37   36
ATOM     33  C28 UNL A   1       6.365  50.128   7.125  1.00  0.00    +0.000 C 
ATOM     34  C29 UNL A   1       6.015  50.812   8.290  1.00  0.00    +0.000 C 
ATOM     35  C30 UNL A   1       6.937  50.979   9.313  1.00  0.00    +0.000 C 
ATOM     36  C31 UNL A   1       8.211  50.424   9.196  1.00  0.00    +0.000 C 
ATOM    146  H42 UNL A   1       5.062  51.197   8.391  1.00  0.00    +0.000 H 
ATOM    147  H43 UNL A   1       6.680  51.512  10.159  1.00  0.00    +0.000 H 
ATOM    158  H54 UNL A   1       9.455  49.167   8.046  1.00  0.00    +0.000 H 
ATOM    159  H55 UNL A   1       7.879  48.957   6.227  1.00  0.00    +0.000 H 
ATOM     94  C70 UNL A   1       8.542  49.643   8.094  1.00  0.00    +0.000 C 
ATOM     95  C71 UNL A   1       7.628  49.514   7.059  1.00  0.00    +0.000 C 
BRANCH   33   31
ATOM     31  C27 UNL A   1       5.532  50.003   5.904  1.00  0.00    +0.000 C 
ATOM     32  O2  UNL A   1       5.981  50.416   4.831  1.00  0.00    +0.000 O 
BRANCH   31   30
ATOM    145  H41 UNL A   1       3.756  49.809   5.089  1.00  0.00    +0.000 H 
ATOM     30  N2  UNL A   1       4.267  49.498   5.871  1.00  0.00    +0.000 N 
BRANCH   30   29
ATOM     29  C26 UNL A   1       3.505  48.612   6.721  1.00  0.00    +0.000 C 
ATOM    143  H39 UNL A   1       3.576  48.961   7.730  1.00  0.00    +0.000 H 
ATOM    144  H40 UNL A   1       2.495  48.618   6.368  1.00  0.00    +0.000 H 
BRANCH   29   28
ATOM     28  C25 UNL A   1       4.002  47.167   6.668  1.00  0.00    +0.000 C 
ATOM    141  H37 UNL A   1       3.153  46.518   6.627  1.00  0.00    +0.000 H 
ATOM    142  H38 UNL A   1       4.621  47.076   5.800  1.00  0.00    +0.000 H 
BRANCH   28   27
ATOM     27  C24 UNL A   1       4.859  46.775   7.882  1.00  0.00    +0.000 C 
ATOM    140  H36 UNL A   1       4.307  46.028   8.413  1.00  0.00    +0.000 H 
ATOM    139  H35 UNL A   1       5.039  47.657   8.460  1.00  0.00    +0.000 H 
BRANCH   27   26
ATOM    137  H33 UNL A   1       6.049  45.138   7.215  1.00  0.00    +0.000 H 
ATOM     26  C23 UNL A   1       6.215  46.147   7.531  1.00  0.00    +0.000 C 
ATOM    138  H34 UNL A   1       6.650  46.747   6.760  1.00  0.00    +0.000 H 
BRANCH   26   25
ATOM     25  C22 UNL A   1       7.194  46.132   8.693  1.00  0.00    +0.000 C 
ATOM    135  H31 UNL A   1       7.129  47.061   9.220  1.00  0.00    +0.000 H 
ATOM    136  H32 UNL A   1       6.946  45.320   9.345  1.00  0.00    +0.000 H 
BRANCH   25   24
ATOM    133  H29 UNL A   1       9.233  46.687   8.637  1.00  0.00    +0.000 H 
ATOM    134  H30 UNL A   1       8.928  44.961   8.465  1.00  0.00    +0.000 H 
ATOM     24  C21 UNL A   1       8.604  45.942   8.194  1.00  0.00    +0.000 C 
BRANCH   24   23
ATOM    132  H28 UNL A   1       7.842  46.326   6.293  1.00  0.00    +0.000 H 
ATOM     23  N1  UNL A   1       8.675  46.064   6.748  1.00  0.00    +0.000 N 
BRANCH   23   21
ATOM     21  C20 UNL A   1       9.770  45.857   5.939  1.00  0.00    +0.000 C 
ATOM     22  O1  UNL A   1      10.530  44.962   6.252  1.00  0.00    +0.000 O 
BRANCH   21   18
ATOM     18  C17 UNL A   1      10.079  46.925   4.881  1.00  0.00    +0.000 C 
BRANCH   18   17
ATOM     17  C16 UNL A   1      10.905  48.186   5.271  1.00  0.00    +0.000 C 
ATOM    124  H20 UNL A   1      10.390  49.042   4.888  1.00  0.00    +0.000 H 
ATOM    125  H21 UNL A   1      10.984  48.151   6.338  1.00  0.00    +0.000 H 
BRANCH   17   16
ATOM      4  C4  UNL A   1      16.515  49.720   3.662  1.00  0.00    +0.000 C 
ATOM      5  C5  UNL A   1      16.815  48.991   4.815  1.00  0.00    +0.000 C 
ATOM      6  C6  UNL A   1      15.833  48.275   5.510  1.00  0.00    +0.000 C 
ATOM      7  C7  UNL A   1      14.511  48.309   5.033  1.00  0.00    +0.000 C 
ATOM      8  C8  UNL A   1      14.175  48.965   3.837  1.00  0.00    +0.000 C 
ATOM      9  C9  UNL A   1      15.204  49.664   3.151  1.00  0.00    +0.000 C 
ATOM     10  C10 UNL A   1      12.759  48.793   3.604  1.00  0.00    +0.000 C 
ATOM    112  H8  UNL A   1      17.786  48.981   5.166  1.00  0.00    +0.000 H 
ATOM    113  H9  UNL A   1      16.074  47.733   6.354  1.00  0.00    +0.000 H 
ATOM    114  H10 UNL A   1      14.987  50.142   2.262  1.00  0.00    +0.000 H 
ATOM     16  C15 UNL A   1      12.282  48.244   4.785  1.00  0.00    +0.000 C 
ATOM     96  N7  UNL A   1      13.342  47.776   5.557  1.00  0.00    +0.000 N 
BRANCH    4    2
ATOM      2  C2  UNL A   1      17.610  50.543   3.000  1.00  0.00    +0.000 C 
ATOM    108  H4  UNL A   1      17.904  51.281   3.716  1.00  0.00    +0.000 H 
BRANCH    2    1
ATOM      1  C1  UNL A   1      18.816  49.669   2.661  1.00  0.00    +0.000 C 
ATOM    106  H2  UNL A   1      18.655  48.678   3.031  1.00  0.00    +0.000 H 
ATOM    107  H3  UNL A   1      19.693  50.080   3.115  1.00  0.00    +0.000 H 
ATOM    105  H1  UNL A   1      18.946  49.636   1.599  1.00  0.00    +0.000 H 
ENDBRANCH    2    1
BRANCH    2    3
ATOM      3  C3  UNL A   1      17.128  51.311   1.763  1.00  0.00    +0.000 C 
ATOM    109  H5  UNL A   1      17.071  52.355   1.992  1.00  0.00    +0.000 H 
ATOM    110  H6  UNL A   1      16.162  50.955   1.476  1.00  0.00    +0.000 H 
ATOM    111  H7  UNL A   1      17.818  51.160   0.959  1.00  0.00    +0.000 H 
ENDBRANCH    2    3
ENDBRANCH    4    2
BRANCH   10   11
ATOM     11  S1  UNL A   1      11.958  49.492   2.165  1.00  0.00    +0.000 S 
ATOM     12  C11 UNL A   1      10.969  51.087   2.300  1.00  0.00    +0.000 C 
ATOM     13  C12 UNL A   1       9.721  50.861   3.160  1.00  0.00    +0.000 C 
ATOM     14  C13 UNL A   1      11.566  52.466   2.680  1.00  0.00    +0.000 C 
ATOM     15  C14 UNL A   1      10.554  51.347   0.825  1.00  0.00    +0.000 C 
ATOM    115  H11 UNL A   1      10.013  50.682   4.173  1.00  0.00    +0.000 H 
ATOM    116  H12 UNL A   1       9.181  50.015   2.790  1.00  0.00    +0.000 H 
ATOM    117  H13 UNL A   1       9.096  51.729   3.116  1.00  0.00    +0.000 H 
ATOM    118  H14 UNL A   1      11.904  52.441   3.694  1.00  0.00    +0.000 H 
ATOM    119  H15 UNL A   1      10.815  53.221   2.571  1.00  0.00    +0.000 H 
ATOM    120  H16 UNL A   1      12.390  52.687   2.034  1.00  0.00    +0.000 H 
ATOM    121  H17 UNL A   1      10.113  50.462   0.417  1.00  0.00    +0.000 H 
ATOM    122  H18 UNL A   1      11.418  51.614   0.252  1.00  0.00    +0.000 H 
ATOM    123  H19 UNL A   1       9.843  52.147   0.790  1.00  0.00    +0.000 H 
ENDBRANCH   10   11
BRANCH   96   97
ATOM     97  C72 UNL A   1      13.294  46.727   6.619  1.00  0.00    +0.000 C 
ATOM    161  H57 UNL A   1      12.434  46.144   6.368  1.00  0.00    +0.000 H 
ATOM    160  H56 UNL A   1      14.236  46.220   6.603  1.00  0.00    +0.000 H 
BRANCH   97   98
ATOM     98  C73 UNL A   1      13.040  47.151   8.063  1.00  0.00    +0.000 C 
ATOM     99  C74 UNL A   1      14.025  46.995   9.060  1.00  0.00    +0.000 C 
ATOM    100  C75 UNL A   1      13.721  47.146  10.419  1.00  0.00    +0.000 C 
ATOM    162  H58 UNL A   1      14.992  46.767   8.782  1.00  0.00    +0.000 H 
ATOM    165  H61 UNL A   1      11.101  47.932   7.745  1.00  0.00    +0.000 H 
ATOM    103  C77 UNL A   1      11.518  47.911   9.819  1.00  0.00    +0.000 C 
ATOM    104  C78 UNL A   1      11.806  47.692   8.460  1.00  0.00    +0.000 C 
ATOM    163  H59 UNL A   1      14.433  46.939  11.136  1.00  0.00    +0.000 H 
ATOM    164  H60 UNL A   1      10.612  48.321  10.094  1.00  0.00    +0.000 H 
ATOM    101  C76 UNL A   1      12.455  47.575  10.793  1.00  0.00    +0.000 C 
ATOM    102 Cl1  UNL A   1      12.041  47.652  12.463  1.00  0.00    +0.000 Cl
ENDBRANCH   97   98
ENDBRANCH   96   97
ENDBRANCH   17   16
ENDBRANCH   18   17
BRANCH   18   19
ATOM     19  C18 UNL A   1       8.597  47.301   4.589  1.00  0.00    +0.000 C 
ATOM    126  H22 UNL A   1       8.459  47.414   3.534  1.00  0.00    +0.000 H 
ATOM    127  H23 UNL A   1       8.359  48.222   5.080  1.00  0.00    +0.000 H 
ATOM    128  H24 UNL A   1       7.954  46.527   4.952  1.00  0.00    +0.000 H 
ENDBRANCH   18   19
BRANCH   18   20
ATOM    129  H25 UNL A   1      12.027  46.566   4.002  1.00  0.00    +0.000 H 
ATOM    130  H26 UNL A   1      10.727  46.618   2.836  1.00  0.00    +0.000 H 
ATOM    131  H27 UNL A   1      10.930  45.215   3.856  1.00  0.00    +0.000 H 
ATOM     20  C19 UNL A   1      11.014  46.280   3.809  1.00  0.00    +0.000 C 
ENDBRANCH   18   20
ENDBRANCH   21   18
ENDBRANCH   23   21
ENDBRANCH   24   23
ENDBRANCH   25   24
ENDBRANCH   26   25
ENDBRANCH   27   26
ENDBRANCH   28   27
ENDBRANCH   29   28
ENDBRANCH   30   29
ENDBRANCH   31   30
ENDBRANCH   33   31
ENDBRANCH   37   36
BRANCH   41   42
ATOM     42  C36 UNL A   1       8.679  48.291  15.778  1.00  0.00    +0.000 C 
ATOM     43  C37 UNL A   1      10.023  47.870  15.743  1.00  0.00    +0.000 C 
ATOM     44  F1  UNL A   1      10.953  48.612  15.123  1.00  0.00    +0.000 F 
ATOM     45  C38 UNL A   1      10.423  46.638  16.270  1.00  0.00    +0.000 C 
ATOM     46  F2  UNL A   1      11.691  46.231  16.122  1.00  0.00    +0.000 F 
ATOM     47  C39 UNL A   1       9.507  45.807  16.889  1.00  0.00    +0.000 C 
ATOM     48  F3  UNL A   1       9.879  44.607  17.352  1.00  0.00    +0.000 F 
ATOM     49  C40 UNL A   1       8.189  46.202  16.978  1.00  0.00    +0.000 C 
ATOM     50  F4  UNL A   1       7.280  45.396  17.545  1.00  0.00    +0.000 F 
ATOM     51  C41 UNL A   1       7.778  47.405  16.409  1.00  0.00    +0.000 C 
ATOM     52  F5  UNL A   1       6.456  47.613  16.396  1.00  0.00    +0.000 F 
ENDBRANCH   41   42
BRANCH   58   59
ATOM     65  F8  UNL A   1      10.546  58.460  12.432  1.00  0.00    +0.000 F 
ATOM     66  C51 UNL A   1      10.173  56.141  12.199  1.00  0.00    +0.000 C 
ATOM     67  F9  UNL A   1       9.780  56.316  10.930  1.00  0.00    +0.000 F 
ATOM     68  C52 UNL A   1      10.207  54.859  12.740  1.00  0.00    +0.000 C 
ATOM     69  F10 UNL A   1       9.831  53.827  11.970  1.00  0.00    +0.000 F 
ATOM     59  C47 UNL A   1      10.672  54.630  14.043  1.00  0.00    +0.000 C 
ATOM     60  C48 UNL A   1      11.099  55.744  14.785  1.00  0.00    +0.000 C 
ATOM     61  F6  UNL A   1      11.637  55.594  16.003  1.00  0.00    +0.000 F 
ATOM     62  C49 UNL A   1      11.025  57.033  14.255  1.00  0.00    +0.000 C 
ATOM     63  F7  UNL A   1      11.427  58.084  14.984  1.00  0.00    +0.000 F 
ATOM     64  C50 UNL A   1      10.572  57.228  12.959  1.00  0.00    +0.000 C 
ENDBRANCH   58   59
BRANCH   73   74
ATOM     74  C56 UNL A   1      15.046  51.424  10.803  1.00  0.00    +0.000 C 
ATOM     75  C57 UNL A   1      16.175  51.648  11.611  1.00  0.00    +0.000 C 
ATOM     76  F11 UNL A   1      16.091  52.457  12.677  1.00  0.00    +0.000 F 
ATOM     77  C58 UNL A   1      17.383  50.979  11.387  1.00  0.00    +0.000 C 
ATOM     78  F12 UNL A   1      18.414  51.160  12.224  1.00  0.00    +0.000 F 
ATOM     79  C59 UNL A   1      17.500  50.077  10.342  1.00  0.00    +0.000 C 
ATOM     80  F13 UNL A   1      18.631  49.382  10.170  1.00  0.00    +0.000 F 
ATOM     81  C60 UNL A   1      16.420  49.866   9.503  1.00  0.00    +0.000 C 
ATOM     82  F14 UNL A   1      16.509  48.970   8.511  1.00  0.00    +0.000 F 
ATOM     83  C61 UNL A   1      15.213  50.529   9.730  1.00  0.00    +0.000 C 
ATOM     84  F15 UNL A   1      14.180  50.201   8.940  1.00  0.00    +0.000 F 
ENDBRANCH   73   74
TORSDOF 25
ENDMDL
MODEL 10
REMARK VINA RESULT:      -8.3     34.156     39.161
ROOT
ATOM    148  H44 UNL A   1      12.305  -3.006  25.566  1.00  0.00    +0.000 H 
ATOM    149  H45 UNL A   1       9.754  -2.947  26.308  1.00  0.00    +0.000 H 
ATOM    150  H46 UNL A   1      11.547   0.517  27.442  1.00  0.00    +0.000 H 
ATOM    151  H47 UNL A   1       6.213   3.734  22.460  1.00  0.00    +0.000 H 
ATOM    152  H48 UNL A   1       7.474   2.151  20.912  1.00  0.00    +0.000 H 
ATOM    153  H49 UNL A   1       9.297   1.919  24.640  1.00  0.00    +0.000 H 
ATOM    154  H50 UNL A   1       9.722   4.385  26.731  1.00  0.00    +0.000 H 
ATOM    155  H51 UNL A   1      10.676   2.148  27.587  1.00  0.00    +0.000 H 
ATOM    156  H52 UNL A   1      14.433   1.139  22.999  1.00  0.00    +0.000 H 
ATOM    157  H53 UNL A   1      12.658   2.197  21.466  1.00  0.00    +0.000 H 
ATOM     37  C32 UNL A   1       9.999   1.268  22.018  1.00  0.00    +0.000 C 
ATOM     38  C33 UNL A   1      11.255   0.977  22.770  1.00  0.00    +0.000 C 
ATOM     39  N3  UNL A   1      11.418   0.161  23.762  1.00  0.00    +0.000 N 
ATOM     40  C34 UNL A   1      12.758   0.273  24.128  1.00  0.00    +0.000 C 
ATOM     41  C35 UNL A   1      13.186  -0.062  25.375  1.00  0.00    +0.000 C 
ATOM     53  C42 UNL A   1      12.236  -0.898  26.053  1.00  0.00    +0.000 C 
ATOM     54  C43 UNL A   1      11.775  -2.189  25.905  1.00  0.00    +0.000 C 
ATOM     55  C44 UNL A   1      10.412  -2.152  26.322  1.00  0.00    +0.000 C 
ATOM     56  C45 UNL A   1      10.119  -0.856  26.750  1.00  0.00    +0.000 C 
ATOM     57  N4  UNL A   1      11.343  -0.255  26.867  1.00  0.00    +0.000 N 
ATOM     58  C46 UNL A   1       8.873  -0.141  26.913  1.00  0.00    +0.000 C 
ATOM     70  C53 UNL A   1       8.754   1.213  27.037  1.00  0.00    +0.000 C 
ATOM     71  N5  UNL A   1       7.582   1.848  26.662  1.00  0.00    +0.000 N 
ATOM     72  C54 UNL A   1       7.961   3.038  26.285  1.00  0.00    +0.000 C 
ATOM     73  C55 UNL A   1       7.337   3.782  25.166  1.00  0.00    +0.000 C 
ATOM     85  C62 UNL A   1       7.637   3.104  24.031  1.00  0.00    +0.000 C 
ATOM     86  C63 UNL A   1       7.038   3.169  22.718  1.00  0.00    +0.000 C 
ATOM     87  C64 UNL A   1       7.735   2.370  21.886  1.00  0.00    +0.000 C 
ATOM     88  C65 UNL A   1       8.922   1.858  22.577  1.00  0.00    +0.000 C 
ATOM     89  N6  UNL A   1       8.735   2.228  23.892  1.00  0.00    +0.000 N 
ATOM     90  C66 UNL A   1       9.274   3.454  26.743  1.00  0.00    +0.000 C 
ATOM     91  C67 UNL A   1       9.735   2.283  27.185  1.00  0.00    +0.000 C 
ATOM     92  C68 UNL A   1      13.411   1.024  23.089  1.00  0.00    +0.000 C 
ATOM     93  C69 UNL A   1      12.512   1.552  22.259  1.00  0.00    +0.000 C 
ENDROOT
BRANCH   37   36
ATOM     33  C28 UNL A   1      10.269   0.284  17.895  1.00  0.00    +0.000 C 
ATOM     34  C29 UNL A   1      10.089  -0.707  18.860  1.00  0.00    +0.000 C 
ATOM     35  C30 UNL A   1       9.972  -0.371  20.202  1.00  0.00    +0.000 C 
ATOM     36  C31 UNL A   1      10.074   0.963  20.594  1.00  0.00    +0.000 C 
ATOM    146  H42 UNL A   1      10.044  -1.699  18.575  1.00  0.00    +0.000 H 
ATOM    147  H43 UNL A   1       9.809  -1.107  20.907  1.00  0.00    +0.000 H 
ATOM    158  H54 UNL A   1      10.522   2.926  19.963  1.00  0.00    +0.000 H 
ATOM    159  H55 UNL A   1      10.633   2.348  17.619  1.00  0.00    +0.000 H 
ATOM     94  C70 UNL A   1      10.366   1.952  19.660  1.00  0.00    +0.000 C 
ATOM     95  C71 UNL A   1      10.444   1.613  18.319  1.00  0.00    +0.000 C 
BRANCH   33   31
ATOM     31  C27 UNL A   1      10.264   0.081  16.425  1.00  0.00    +0.000 C 
ATOM     32  O2  UNL A   1      11.159  -0.597  15.915  1.00  0.00    +0.000 O 
BRANCH   31   30
ATOM    145  H41 UNL A   1       9.674   1.472  15.171  1.00  0.00    +0.000 H 
ATOM     30  N2  UNL A   1       9.360   0.627  15.565  1.00  0.00    +0.000 N 
BRANCH   30   29
ATOM     29  C26 UNL A   1       8.046   0.248  15.098  1.00  0.00    +0.000 C 
ATOM    143  H39 UNL A   1       7.482  -0.125  15.928  1.00  0.00    +0.000 H 
ATOM    144  H40 UNL A   1       7.594   1.117  14.669  1.00  0.00    +0.000 H 
BRANCH   29   28
ATOM     28  C25 UNL A   1       8.089  -0.831  14.014  1.00  0.00    +0.000 C 
ATOM    141  H37 UNL A   1       8.249  -0.356  13.069  1.00  0.00    +0.000 H 
ATOM    142  H38 UNL A   1       8.882  -1.503  14.267  1.00  0.00    +0.000 H 
BRANCH   28   27
ATOM     27  C24 UNL A   1       6.799  -1.660  13.932  1.00  0.00    +0.000 C 
ATOM    140  H36 UNL A   1       6.069  -1.037  13.458  1.00  0.00    +0.000 H 
ATOM    139  H35 UNL A   1       6.525  -1.948  14.925  1.00  0.00    +0.000 H 
BRANCH   27   26
ATOM    137  H33 UNL A   1       6.791  -2.658  12.049  1.00  0.00    +0.000 H 
ATOM     26  C23 UNL A   1       6.909  -2.931  13.076  1.00  0.00    +0.000 C 
ATOM    138  H34 UNL A   1       7.867  -3.361  13.275  1.00  0.00    +0.000 H 
BRANCH   26   25
ATOM     25  C22 UNL A   1       5.866  -3.983  13.418  1.00  0.00    +0.000 C 
ATOM    135  H31 UNL A   1       5.507  -3.812  14.411  1.00  0.00    +0.000 H 
ATOM    136  H32 UNL A   1       5.061  -3.913  12.716  1.00  0.00    +0.000 H 
BRANCH   25   24
ATOM    133  H29 UNL A   1       5.798  -6.000  12.793  1.00  0.00    +0.000 H 
ATOM    134  H30 UNL A   1       7.410  -5.294  12.845  1.00  0.00    +0.000 H 
ATOM     24  C21 UNL A   1       6.464  -5.364  13.338  1.00  0.00    +0.000 C 
BRANCH   24   23
ATOM    132  H28 UNL A   1       6.477  -6.884  14.762  1.00  0.00    +0.000 H 
ATOM     23  N1  UNL A   1       6.678  -5.926  14.660  1.00  0.00    +0.000 N 
BRANCH   23   21
ATOM     21  C20 UNL A   1       7.131  -5.277  15.787  1.00  0.00    +0.000 C 
ATOM     22  O1  UNL A   1       6.315  -4.640  16.425  1.00  0.00    +0.000 O 
BRANCH   21   18
ATOM     18  C17 UNL A   1       8.649  -5.193  15.992  1.00  0.00    +0.000 C 
BRANCH   18   17
ATOM     17  C16 UNL A   1       9.330  -6.042  17.105  1.00  0.00    +0.000 C 
ATOM    124  H20 UNL A   1      10.036  -6.691  16.630  1.00  0.00    +0.000 H 
ATOM    125  H21 UNL A   1       9.758  -5.331  17.779  1.00  0.00    +0.000 H 
BRANCH   17   16
ATOM      4  C4  UNL A   1       6.859 -10.078  20.850  1.00  0.00    +0.000 C 
ATOM      5  C5  UNL A   1       6.774  -8.947  21.667  1.00  0.00    +0.000 C 
ATOM      6  C6  UNL A   1       7.096  -7.671  21.193  1.00  0.00    +0.000 C 
ATOM      7  C7  UNL A   1       7.528  -7.535  19.862  1.00  0.00    +0.000 C 
ATOM      8  C8  UNL A   1       7.558  -8.630  18.981  1.00  0.00    +0.000 C 
ATOM      9  C9  UNL A   1       7.206  -9.906  19.497  1.00  0.00    +0.000 C 
ATOM     10  C10 UNL A   1       8.013  -8.165  17.691  1.00  0.00    +0.000 C 
ATOM    112  H8  UNL A   1       6.467  -9.056  22.647  1.00  0.00    +0.000 H 
ATOM    113  H9  UNL A   1       7.017  -6.844  21.807  1.00  0.00    +0.000 H 
ATOM    114  H10 UNL A   1       7.205 -10.724  18.867  1.00  0.00    +0.000 H 
ATOM     16  C15 UNL A   1       8.452  -6.871  17.928  1.00  0.00    +0.000 C 
ATOM     96  N7  UNL A   1       7.986  -6.427  19.163  1.00  0.00    +0.000 N 
BRANCH    4    2
ATOM      2  C2  UNL A   1       6.574 -11.447  21.448  1.00  0.00    +0.000 C 
ATOM    108  H4  UNL A   1       5.533 -11.455  21.695  1.00  0.00    +0.000 H 
BRANCH    2    1
ATOM      1  C1  UNL A   1       6.854 -12.552  20.432  1.00  0.00    +0.000 C 
ATOM    106  H2  UNL A   1       6.419 -12.290  19.490  1.00  0.00    +0.000 H 
ATOM    107  H3  UNL A   1       6.429 -13.471  20.778  1.00  0.00    +0.000 H 
ATOM    105  H1  UNL A   1       7.912 -12.670  20.315  1.00  0.00    +0.000 H 
ENDBRANCH    2    1
BRANCH    2    3
ATOM      3  C3  UNL A   1       7.328 -11.706  22.758  1.00  0.00    +0.000 C 
ATOM    109  H5  UNL A   1       7.605 -12.739  22.811  1.00  0.00    +0.000 H 
ATOM    110  H6  UNL A   1       6.698 -11.462  23.587  1.00  0.00    +0.000 H 
ATOM    111  H7  UNL A   1       8.210 -11.100  22.788  1.00  0.00    +0.000 H 
ENDBRANCH    2    3
ENDBRANCH    4    2
BRANCH   10   11
ATOM     11  S1  UNL A   1       8.179  -9.282  16.303  1.00  0.00    +0.000 S 
ATOM     12  C11 UNL A   1       9.728 -10.331  16.098  1.00  0.00    +0.000 C 
ATOM     13  C12 UNL A   1      10.936  -9.435  15.806  1.00  0.00    +0.000 C 
ATOM     14  C13 UNL A   1      10.182 -11.436  17.084  1.00  0.00    +0.000 C 
ATOM     15  C14 UNL A   1       9.389 -11.184  14.843  1.00  0.00    +0.000 C 
ATOM    115  H11 UNL A   1      11.164  -8.850  16.673  1.00  0.00    +0.000 H 
ATOM    116  H12 UNL A   1      10.709  -8.785  14.987  1.00  0.00    +0.000 H 
ATOM    117  H13 UNL A   1      11.779 -10.044  15.554  1.00  0.00    +0.000 H 
ATOM    118  H14 UNL A   1      10.454 -10.991  18.018  1.00  0.00    +0.000 H 
ATOM    119  H15 UNL A   1      11.025 -11.954  16.676  1.00  0.00    +0.000 H 
ATOM    120  H16 UNL A   1       9.379 -12.127  17.238  1.00  0.00    +0.000 H 
ATOM    121  H17 UNL A   1       9.053 -10.543  14.056  1.00  0.00    +0.000 H 
ATOM    122  H18 UNL A   1       8.618 -11.886  15.086  1.00  0.00    +0.000 H 
ATOM    123  H19 UNL A   1      10.263 -11.712  14.524  1.00  0.00    +0.000 H 
ENDBRANCH   10   11
BRANCH   96   97
ATOM     97  C72 UNL A   1       7.799  -5.014  19.605  1.00  0.00    +0.000 C 
ATOM    161  H57 UNL A   1       7.725  -4.464  18.690  1.00  0.00    +0.000 H 
ATOM    160  H56 UNL A   1       6.940  -4.995  20.242  1.00  0.00    +0.000 H 
BRANCH   97   98
ATOM     98  C73 UNL A   1       8.929  -4.320  20.359  1.00  0.00    +0.000 C 
ATOM     99  C74 UNL A   1      10.239  -4.268  19.837  1.00  0.00    +0.000 C 
ATOM    100  C75 UNL A   1      11.323  -3.859  20.623  1.00  0.00    +0.000 C 
ATOM    162  H58 UNL A   1      10.401  -4.536  18.855  1.00  0.00    +0.000 H 
ATOM    165  H61 UNL A   1       7.753  -3.636  21.978  1.00  0.00    +0.000 H 
ATOM    103  C77 UNL A   1       9.793  -3.249  22.379  1.00  0.00    +0.000 C 
ATOM    104  C78 UNL A   1       8.715  -3.725  21.614  1.00  0.00    +0.000 C 
ATOM    163  H59 UNL A   1      12.284  -3.915  20.252  1.00  0.00    +0.000 H 
ATOM    164  H60 UNL A   1       9.619  -2.803  23.294  1.00  0.00    +0.000 H 
ATOM    101  C76 UNL A   1      11.097  -3.379  21.906  1.00  0.00    +0.000 C 
ATOM    102 Cl1  UNL A   1      12.434  -2.983  22.916  1.00  0.00    +0.000 Cl
ENDBRANCH   97   98
ENDBRANCH   96   97
ENDBRANCH   17   16
ENDBRANCH   18   17
BRANCH   18   19
ATOM     19  C18 UNL A   1       8.682  -3.679  16.351  1.00  0.00    +0.000 C 
ATOM    126  H22 UNL A   1       8.038  -3.141  15.687  1.00  0.00    +0.000 H 
ATOM    127  H23 UNL A   1       9.683  -3.310  16.252  1.00  0.00    +0.000 H 
ATOM    128  H24 UNL A   1       8.350  -3.543  17.359  1.00  0.00    +0.000 H 
ENDBRANCH   18   19
BRANCH   18   20
ATOM    129  H25 UNL A   1       8.612  -5.874  13.935  1.00  0.00    +0.000 H 
ATOM    130  H26 UNL A   1       9.754  -6.733  14.940  1.00  0.00    +0.000 H 
ATOM    131  H27 UNL A   1      10.115  -5.113  14.397  1.00  0.00    +0.000 H 
ATOM     20  C19 UNL A   1       9.337  -5.774  14.716  1.00  0.00    +0.000 C 
ENDBRANCH   18   20
ENDBRANCH   21   18
ENDBRANCH   23   21
ENDBRANCH   24   23
ENDBRANCH   25   24
ENDBRANCH   26   25
ENDBRANCH   27   26
ENDBRANCH   28   27
ENDBRANCH   29   28
ENDBRANCH   30   29
ENDBRANCH   31   30
ENDBRANCH   33   31
ENDBRANCH   37   36
BRANCH   41   42
ATOM     42  C36 UNL A   1      14.251   0.702  26.123  1.00  0.00    +0.000 C 
ATOM     43  C37 UNL A   1      15.544   0.158  26.255  1.00  0.00    +0.000 C 
ATOM     44  F1  UNL A   1      15.907  -0.917  25.538  1.00  0.00    +0.000 F 
ATOM     45  C38 UNL A   1      16.461   0.654  27.187  1.00  0.00    +0.000 C 
ATOM     46  F2  UNL A   1      17.641   0.041  27.353  1.00  0.00    +0.000 F 
ATOM     47  C39 UNL A   1      16.136   1.736  27.986  1.00  0.00    +0.000 C 
ATOM     48  F3  UNL A   1      16.995   2.182  28.911  1.00  0.00    +0.000 F 
ATOM     49  C40 UNL A   1      14.895   2.321  27.858  1.00  0.00    +0.000 C 
ATOM     50  F4  UNL A   1      14.549   3.349  28.646  1.00  0.00    +0.000 F 
ATOM     51  C41 UNL A   1      13.961   1.797  26.967  1.00  0.00    +0.000 C 
ATOM     52  F5  UNL A   1      12.733   2.324  27.044  1.00  0.00    +0.000 F 
ENDBRANCH   41   42
BRANCH   58   59
ATOM     65  F8  UNL A   1       4.303  -3.431  26.399  1.00  0.00    +0.000 F 
ATOM     66  C51 UNL A   1       5.934  -2.377  27.741  1.00  0.00    +0.000 C 
ATOM     67  F9  UNL A   1       5.450  -2.985  28.833  1.00  0.00    +0.000 F 
ATOM     68  C52 UNL A   1       7.035  -1.534  27.852  1.00  0.00    +0.000 C 
ATOM     69  F10 UNL A   1       7.580  -1.344  29.063  1.00  0.00    +0.000 F 
ATOM     59  C47 UNL A   1       7.608  -0.931  26.723  1.00  0.00    +0.000 C 
ATOM     60  C48 UNL A   1       7.025  -1.206  25.474  1.00  0.00    +0.000 C 
ATOM     61  F6  UNL A   1       7.570  -0.737  24.343  1.00  0.00    +0.000 F 
ATOM     62  C49 UNL A   1       5.896  -2.020  25.371  1.00  0.00    +0.000 C 
ATOM     63  F7  UNL A   1       5.348  -2.260  24.171  1.00  0.00    +0.000 F 
ATOM     64  C50 UNL A   1       5.359  -2.612  26.503  1.00  0.00    +0.000 C 
ENDBRANCH   58   59
BRANCH   73   74
ATOM     74  C56 UNL A   1       6.878   5.184  25.313  1.00  0.00    +0.000 C 
ATOM     75  C57 UNL A   1       5.965   5.538  26.322  1.00  0.00    +0.000 C 
ATOM     76  F11 UNL A   1       5.306   4.586  26.998  1.00  0.00    +0.000 F 
ATOM     77  C58 UNL A   1       5.779   6.869  26.710  1.00  0.00    +0.000 C 
ATOM     78  F12 UNL A   1       4.958   7.161  27.728  1.00  0.00    +0.000 F 
ATOM     79  C59 UNL A   1       6.491   7.884  26.092  1.00  0.00    +0.000 C 
ATOM     80  F13 UNL A   1       6.369   9.150  26.511  1.00  0.00    +0.000 F 
ATOM     81  C60 UNL A   1       7.367   7.573  25.067  1.00  0.00    +0.000 C 
ATOM     82  F14 UNL A   1       8.087   8.541  24.486  1.00  0.00    +0.000 F 
ATOM     83  C61 UNL A   1       7.557   6.244  24.684  1.00  0.00    +0.000 C 
ATOM     84  F15 UNL A   1       8.494   6.007  23.754  1.00  0.00    +0.000 F 
ENDBRANCH   73   74
TORSDOF 25
ENDMDL
