MODEL 1
REMARK VINA RESULT:     -11.5      0.000      0.000
ROOT
ATOM     34  C25 UNL A   1      25.992  36.615  45.743  1.00  0.00    +0.000 C 
ATOM     35  C26 UNL A   1      27.300  36.393  45.031  1.00  0.00    +0.000 C 
ATOM     36  N4  UNL A   1      28.438  37.024  45.177  1.00  0.00    +0.000 N 
ATOM     37  C27 UNL A   1      29.325  36.411  44.302  1.00  0.00    +0.000 C 
ATOM     38  C28 UNL A   1      30.606  36.747  44.025  1.00  0.00    +0.000 C 
ATOM     50  C35 UNL A   1      31.299  37.855  44.624  1.00  0.00    +0.000 C 
ATOM     51  C36 UNL A   1      32.584  38.302  44.374  1.00  0.00    +0.000 C 
ATOM     52  C37 UNL A   1      32.837  39.392  45.210  1.00  0.00    +0.000 C 
ATOM     53  C38 UNL A   1      31.694  39.652  45.947  1.00  0.00    +0.000 C 
ATOM     54  N5  UNL A   1      30.760  38.696  45.584  1.00  0.00    +0.000 N 
ATOM     55  C39 UNL A   1      31.474  40.694  46.916  1.00  0.00    +0.000 C 
ATOM     67  C46 UNL A   1      30.326  40.884  47.608  1.00  0.00    +0.000 C 
ATOM     68  N6  UNL A   1      29.138  40.169  47.537  1.00  0.00    +0.000 N 
ATOM     69  C47 UNL A   1      28.330  40.723  48.406  1.00  0.00    +0.000 C 
ATOM     70  C48 UNL A   1      26.901  40.377  48.726  1.00  0.00    +0.000 C 
ATOM     82  C55 UNL A   1      26.312  39.347  48.087  1.00  0.00    +0.000 C 
ATOM     83  C56 UNL A   1      24.929  38.912  48.270  1.00  0.00    +0.000 C 
ATOM     84  C57 UNL A   1      24.688  37.864  47.466  1.00  0.00    +0.000 C 
ATOM     85  C58 UNL A   1      25.892  37.572  46.686  1.00  0.00    +0.000 C 
ATOM     86  N7  UNL A   1      26.813  38.483  47.143  1.00  0.00    +0.000 N 
ATOM     87  C59 UNL A   1      28.927  41.842  49.150  1.00  0.00    +0.000 C 
ATOM     88  C60 UNL A   1      30.131  41.923  48.598  1.00  0.00    +0.000 C 
ATOM     89  C61 UNL A   1      28.616  35.322  43.669  1.00  0.00    +0.000 C 
ATOM     90  C62 UNL A   1      27.342  35.309  44.036  1.00  0.00    +0.000 C 
ATOM    117  H25 UNL A   1      33.242  37.900  43.688  1.00  0.00    +0.000 H 
ATOM    118  H26 UNL A   1      33.726  39.915  45.268  1.00  0.00    +0.000 H 
ATOM    119  H27 UNL A   1      29.850  38.625  45.953  1.00  0.00    +0.000 H 
ATOM    120  H28 UNL A   1      24.248  39.342  48.914  1.00  0.00    +0.000 H 
ATOM    121  H29 UNL A   1      23.797  37.347  47.408  1.00  0.00    +0.000 H 
ATOM    122  H30 UNL A   1      27.743  38.513  46.824  1.00  0.00    +0.000 H 
ATOM    123  H31 UNL A   1      28.519  42.414  49.904  1.00  0.00    +0.000 H 
ATOM    124  H32 UNL A   1      30.838  42.633  48.842  1.00  0.00    +0.000 H 
ATOM    125  H33 UNL A   1      29.044  34.645  43.018  1.00  0.00    +0.000 H 
ATOM    126  H34 UNL A   1      26.579  34.697  43.708  1.00  0.00    +0.000 H 
ENDROOT
BRANCH   34   33
ATOM     33  C24 UNL A   1      24.812  35.776  45.409  1.00  0.00    +0.000 C 
ATOM    127  H35 UNL A   1      24.039  37.099  43.951  1.00  0.00    +0.000 H 
ATOM    115  H23 UNL A   1      23.327  32.877  46.244  1.00  0.00    +0.000 H 
ATOM    116  H24 UNL A   1      25.272  34.225  46.772  1.00  0.00    +0.000 H 
ATOM     91  C63 UNL A   1      23.871  36.223  44.470  1.00  0.00    +0.000 C 
ATOM     92  C64 UNL A   1      22.708  35.490  44.235  1.00  0.00    +0.000 C 
ATOM     32  C23 UNL A   1      24.594  34.555  46.067  1.00  0.00    +0.000 C 
ATOM     30  C21 UNL A   1      22.526  34.247  44.849  1.00  0.00    +0.000 C 
ATOM     31  C22 UNL A   1      23.466  33.786  45.776  1.00  0.00    +0.000 C 
ATOM    128  H36 UNL A   1      21.982  35.865  43.605  1.00  0.00    +0.000 H 
BRANCH   30    2
ATOM      1  O1  UNL A   1      21.377  32.205  44.760  1.00  0.00    +0.000 O 
ATOM      2  C1  UNL A   1      21.321  33.422  44.600  1.00  0.00    +0.000 C 
BRANCH    2    3
ATOM      3  N1  UNL A   1      20.150  33.998  44.182  1.00  0.00    +0.000 N 
ATOM     93  H1  UNL A   1      20.251  34.861  43.718  1.00  0.00    +0.000 H 
BRANCH    3    4
ATOM      4  C2  UNL A   1      18.783  33.530  44.321  1.00  0.00    +0.000 C 
ATOM     94  H2  UNL A   1      18.207  34.290  44.805  1.00  0.00    +0.000 H 
ATOM     95  H3  UNL A   1      18.806  32.628  44.897  1.00  0.00    +0.000 H 
BRANCH    4    5
ATOM     97  H5  UNL A   1      17.219  33.754  42.952  1.00  0.00    +0.000 H 
ATOM      5  C3  UNL A   1      18.137  33.206  42.978  1.00  0.00    +0.000 C 
ATOM     96  H4  UNL A   1      18.825  33.484  42.206  1.00  0.00    +0.000 H 
BRANCH    5    6
ATOM     98  H6  UNL A   1      18.164  31.424  41.829  1.00  0.00    +0.000 H 
ATOM     99  H7  UNL A   1      16.691  31.702  42.814  1.00  0.00    +0.000 H 
ATOM      6  C4  UNL A   1      17.759  31.738  42.769  1.00  0.00    +0.000 C 
BRANCH    6    7
ATOM    100  H8  UNL A   1      18.527  31.338  44.704  1.00  0.00    +0.000 H 
ATOM    101  H9  UNL A   1      19.072  30.234  43.400  1.00  0.00    +0.000 H 
ATOM      7  C5  UNL A   1      18.255  30.765  43.842  1.00  0.00    +0.000 C 
BRANCH    7    8
ATOM    102  H10 UNL A   1      16.293  29.958  43.882  1.00  0.00    +0.000 H 
ATOM    103  H11 UNL A   1      17.277  29.691  45.354  1.00  0.00    +0.000 H 
ATOM      8  C6  UNL A   1      17.250  29.698  44.284  1.00  0.00    +0.000 C 
BRANCH    8    9
ATOM      9  C7  UNL A   1      17.578  28.275  43.843  1.00  0.00    +0.000 C 
ATOM    105  H13 UNL A   1      18.632  28.222  43.664  1.00  0.00    +0.000 H 
ATOM    104  H12 UNL A   1      17.279  27.597  44.614  1.00  0.00    +0.000 H 
BRANCH    9   10
ATOM     10  N2  UNL A   1      16.900  27.913  42.612  1.00  0.00    +0.000 N 
ATOM    106  H14 UNL A   1      17.474  27.817  41.818  1.00  0.00    +0.000 H 
BRANCH   10   11
ATOM     11  C8  UNL A   1      15.560  27.690  42.415  1.00  0.00    +0.000 C 
ATOM     12  O2  UNL A   1      14.753  28.610  42.516  1.00  0.00    +0.000 O 
BRANCH   11   13
ATOM    107  H15 UNL A   1      15.299  25.565  43.942  1.00  0.00    +0.000 H 
ATOM    108  H16 UNL A   1      14.475  23.355  43.363  1.00  0.00    +0.000 H 
ATOM     13  C9  UNL A   1      15.093  26.355  41.993  1.00  0.00    +0.000 C 
ATOM     14  C10 UNL A   1      15.011  25.359  42.972  1.00  0.00    +0.000 C 
ATOM     15  C11 UNL A   1      14.539  24.088  42.639  1.00  0.00    +0.000 C 
ATOM     16  C12 UNL A   1      14.155  23.803  41.321  1.00  0.00    +0.000 C 
ATOM    113  H21 UNL A   1      14.007  24.589  39.362  1.00  0.00    +0.000 H 
ATOM     27  C19 UNL A   1      14.274  24.797  40.337  1.00  0.00    +0.000 C 
ATOM     28  C20 UNL A   1      14.752  26.064  40.669  1.00  0.00    +0.000 C 
BRANCH   16   17
ATOM    109  H17 UNL A   1      14.518  22.354  38.982  1.00  0.00    +0.000 H 
ATOM    110  H18 UNL A   1      13.464  20.340  38.355  1.00  0.00    +0.000 H 
ATOM    112  H20 UNL A   1      12.648  22.246  42.737  1.00  0.00    +0.000 H 
ATOM     17  C13 UNL A   1      13.623  22.482  40.939  1.00  0.00    +0.000 C 
ATOM     18  C14 UNL A   1      13.876  21.886  39.641  1.00  0.00    +0.000 C 
ATOM     19  C15 UNL A   1      13.285  20.740  39.290  1.00  0.00    +0.000 C 
ATOM     20  N3  UNL A   1      12.436  20.082  40.160  1.00  0.00    +0.000 N 
ATOM     24  C17 UNL A   1      12.166  20.552  41.435  1.00  0.00    +0.000 C 
ATOM     25  O3  UNL A   1      11.432  20.013  42.257  1.00  0.00    +0.000 O 
ATOM     26  C18 UNL A   1      12.817  21.840  41.804  1.00  0.00    +0.000 C 
BRANCH   20   21
ATOM     21  C16 UNL A   1      11.770  18.872  39.754  1.00  0.00    +0.000 C 
ATOM     22  F1  UNL A   1      11.879  18.674  38.419  1.00  0.00    +0.000 F 
ATOM    111  H19 UNL A   1      10.738  18.981  40.019  1.00  0.00    +0.000 H 
ATOM     23  F2  UNL A   1      12.299  17.795  40.385  1.00  0.00    +0.000 F 
ENDBRANCH   20   21
ENDBRANCH   16   17
BRANCH   28   29
ATOM    114  H22 UNL A   1      15.631  27.558  39.659  1.00  0.00    +0.000 H 
ATOM     29  O4  UNL A   1      14.869  27.016  39.694  1.00  0.00    +0.000 O 
ENDBRANCH   28   29
ENDBRANCH   11   13
ENDBRANCH   10   11
ENDBRANCH    9   10
ENDBRANCH    8    9
ENDBRANCH    7    8
ENDBRANCH    6    7
ENDBRANCH    5    6
ENDBRANCH    4    5
ENDBRANCH    3    4
ENDBRANCH    2    3
ENDBRANCH   30    2
ENDBRANCH   34   33
BRANCH   38   39
ATOM     39  C29 UNL A   1      31.347  35.930  43.008  1.00  0.00    +0.000 C 
ATOM     40  C30 UNL A   1      31.950  34.712  43.353  1.00  0.00    +0.000 C 
ATOM     41  F3  UNL A   1      31.958  34.299  44.630  1.00  0.00    +0.000 F 
ATOM     42  C31 UNL A   1      32.560  33.917  42.387  1.00  0.00    +0.000 C 
ATOM     43  F4  UNL A   1      33.152  32.768  42.743  1.00  0.00    +0.000 F 
ATOM     44  C32 UNL A   1      32.556  34.310  41.057  1.00  0.00    +0.000 C 
ATOM     45  F5  UNL A   1      33.124  33.533  40.125  1.00  0.00    +0.000 F 
ATOM     46  C33 UNL A   1      31.962  35.510  40.693  1.00  0.00    +0.000 C 
ATOM     47  F6  UNL A   1      31.944  35.885  39.407  1.00  0.00    +0.000 F 
ATOM     48  C34 UNL A   1      31.374  36.320  41.661  1.00  0.00    +0.000 C 
ATOM     49  F7  UNL A   1      30.806  37.474  41.279  1.00  0.00    +0.000 F 
ENDBRANCH   38   39
BRANCH   55   56
ATOM     65  C45 UNL A   1      32.640  42.895  46.538  1.00  0.00    +0.000 C 
ATOM     66  F12 UNL A   1      31.607  43.296  45.782  1.00  0.00    +0.000 F 
ATOM     56  C40 UNL A   1      32.612  41.640  47.167  1.00  0.00    +0.000 C 
ATOM     57  C41 UNL A   1      33.720  41.262  47.938  1.00  0.00    +0.000 C 
ATOM     58  F8  UNL A   1      33.731  40.077  48.566  1.00  0.00    +0.000 F 
ATOM     59  C42 UNL A   1      34.816  42.109  48.073  1.00  0.00    +0.000 C 
ATOM     60  F9  UNL A   1      35.856  41.736  48.830  1.00  0.00    +0.000 F 
ATOM     61  C43 UNL A   1      34.836  43.334  47.422  1.00  0.00    +0.000 C 
ATOM     62  F10 UNL A   1      35.904  44.135  47.532  1.00  0.00    +0.000 F 
ATOM     63  C44 UNL A   1      33.749  43.727  46.654  1.00  0.00    +0.000 C 
ATOM     64  F11 UNL A   1      33.774  44.902  46.011  1.00  0.00    +0.000 F 
ENDBRANCH   55   56
BRANCH   70   71
ATOM     71  C49 UNL A   1      26.124  41.180  49.707  1.00  0.00    +0.000 C 
ATOM     72  C50 UNL A   1      25.369  42.287  49.293  1.00  0.00    +0.000 C 
ATOM     73  F13 UNL A   1      25.362  42.646  48.001  1.00  0.00    +0.000 F 
ATOM     74  C51 UNL A   1      24.646  43.050  50.208  1.00  0.00    +0.000 C 
ATOM     75  F14 UNL A   1      23.965  44.125  49.791  1.00  0.00    +0.000 F 
ATOM     76  C52 UNL A   1      24.642  42.706  51.551  1.00  0.00    +0.000 C 
ATOM     77  F15 UNL A   1      23.941  43.435  52.430  1.00  0.00    +0.000 F 
ATOM     78  C53 UNL A   1      25.370  41.607  51.983  1.00  0.00    +0.000 C 
ATOM     79  F16 UNL A   1      25.357  41.263  53.278  1.00  0.00    +0.000 F 
ATOM     80  C54 UNL A   1      26.115  40.860  51.073  1.00  0.00    +0.000 C 
ATOM     81  F17 UNL A   1      26.818  39.809  51.521  1.00  0.00    +0.000 F 
ENDBRANCH   70   71
TORSDOF 18
ENDMDL
MODEL 2
REMARK VINA RESULT:     -11.5     40.428     47.332
ROOT
ATOM     34  C25 UNL A   1      53.499  20.068  11.790  1.00  0.00    +0.000 C 
ATOM     35  C26 UNL A   1      53.231  20.687  13.135  1.00  0.00    +0.000 C 
ATOM     36  N4  UNL A   1      54.048  20.856  14.145  1.00  0.00    +0.000 N 
ATOM     37  C27 UNL A   1      53.307  21.497  15.129  1.00  0.00    +0.000 C 
ATOM     38  C28 UNL A   1      53.678  21.823  16.388  1.00  0.00    +0.000 C 
ATOM     50  C35 UNL A   1      54.972  21.543  16.948  1.00  0.00    +0.000 C 
ATOM     51  C36 UNL A   1      55.427  21.795  18.230  1.00  0.00    +0.000 C 
ATOM     52  C37 UNL A   1      56.758  21.378  18.310  1.00  0.00    +0.000 C 
ATOM     53  C38 UNL A   1      57.118  20.826  17.092  1.00  0.00    +0.000 C 
ATOM     54  N5  UNL A   1      56.015  20.941  16.262  1.00  0.00    +0.000 N 
ATOM     55  C39 UNL A   1      58.377  20.241  16.713  1.00  0.00    +0.000 C 
ATOM     67  C46 UNL A   1      58.660  19.724  15.494  1.00  0.00    +0.000 C 
ATOM     68  N6  UNL A   1      57.839  19.620  14.380  1.00  0.00    +0.000 N 
ATOM     69  C47 UNL A   1      58.567  19.064  13.445  1.00  0.00    +0.000 C 
ATOM     70  C48 UNL A   1      58.178  18.683  12.041  1.00  0.00    +0.000 C 
ATOM     82  C55 UNL A   1      56.928  18.943  11.609  1.00  0.00    +0.000 C 
ATOM     83  C56 UNL A   1      56.399  18.607  10.290  1.00  0.00    +0.000 C 
ATOM     84  C57 UNL A   1      55.119  19.009  10.215  1.00  0.00    +0.000 C 
ATOM     85  C58 UNL A   1      54.729  19.603  11.494  1.00  0.00    +0.000 C 
ATOM     86  N7  UNL A   1      55.874  19.549  12.249  1.00  0.00    +0.000 N 
ATOM     87  C59 UNL A   1      59.950  18.777  13.854  1.00  0.00    +0.000 C 
ATOM     88  C60 UNL A   1      59.943  19.163  15.123  1.00  0.00    +0.000 C 
ATOM     89  C61 UNL A   1      51.991  21.741  14.580  1.00  0.00    +0.000 C 
ATOM     90  C62 UNL A   1      51.873  21.201  13.376  1.00  0.00    +0.000 C 
ATOM    117  H25 UNL A   1      54.879  22.217  18.995  1.00  0.00    +0.000 H 
ATOM    118  H26 UNL A   1      57.370  21.467  19.137  1.00  0.00    +0.000 H 
ATOM    119  H27 UNL A   1      55.977  20.640  15.325  1.00  0.00    +0.000 H 
ATOM    120  H28 UNL A   1      56.923  18.136   9.537  1.00  0.00    +0.000 H 
ATOM    121  H29 UNL A   1      54.510  18.914   9.388  1.00  0.00    +0.000 H 
ATOM    122  H30 UNL A   1      55.933  19.909  13.163  1.00  0.00    +0.000 H 
ATOM    123  H31 UNL A   1      60.724  18.380  13.300  1.00  0.00    +0.000 H 
ATOM    124  H32 UNL A   1      60.746  19.076  15.764  1.00  0.00    +0.000 H 
ATOM    125  H33 UNL A   1      51.244  22.265  15.063  1.00  0.00    +0.000 H 
ATOM    126  H34 UNL A   1      51.042  21.154  12.765  1.00  0.00    +0.000 H 
ENDROOT
BRANCH   34   33
ATOM     33  C24 UNL A   1      52.407  19.972  10.786  1.00  0.00    +0.000 C 
ATOM    127  H35 UNL A   1      51.859  17.991  11.283  1.00  0.00    +0.000 H 
ATOM    115  H23 UNL A   1      50.898  21.754   8.366  1.00  0.00    +0.000 H 
ATOM    116  H24 UNL A   1      52.659  21.930  10.023  1.00  0.00    +0.000 H 
ATOM     91  C63 UNL A   1      51.687  18.778  10.638  1.00  0.00    +0.000 C 
ATOM     92  C64 UNL A   1      50.737  18.650   9.625  1.00  0.00    +0.000 C 
ATOM     32  C23 UNL A   1      52.123  21.052   9.935  1.00  0.00    +0.000 C 
ATOM     30  C21 UNL A   1      50.417  19.747   8.820  1.00  0.00    +0.000 C 
ATOM     31  C22 UNL A   1      51.120  20.946   8.969  1.00  0.00    +0.000 C 
ATOM    128  H36 UNL A   1      50.270  17.743   9.469  1.00  0.00    +0.000 H 
BRANCH   30    2
ATOM      1  O1  UNL A   1      48.259  20.089   7.969  1.00  0.00    +0.000 O 
ATOM      2  C1  UNL A   1      49.391  19.661   7.755  1.00  0.00    +0.000 C 
BRANCH    2    3
ATOM      3  N1  UNL A   1      49.685  19.101   6.540  1.00  0.00    +0.000 N 
ATOM     93  H1  UNL A   1      49.848  19.743   5.812  1.00  0.00    +0.000 H 
BRANCH    3    4
ATOM      4  C2  UNL A   1      49.792  17.703   6.163  1.00  0.00    +0.000 C 
ATOM     94  H2  UNL A   1      50.567  17.249   6.745  1.00  0.00    +0.000 H 
ATOM     95  H3  UNL A   1      50.013  17.665   5.116  1.00  0.00    +0.000 H 
BRANCH    4    5
ATOM     97  H5  UNL A   1      48.780  15.920   6.570  1.00  0.00    +0.000 H 
ATOM      5  C3  UNL A   1      48.495  16.936   6.391  1.00  0.00    +0.000 C 
ATOM     96  H4  UNL A   1      47.983  17.389   7.215  1.00  0.00    +0.000 H 
BRANCH    5    6
ATOM     98  H6  UNL A   1      47.113  15.920   5.145  1.00  0.00    +0.000 H 
ATOM     99  H7  UNL A   1      48.119  17.171   4.346  1.00  0.00    +0.000 H 
ATOM      6  C4  UNL A   1      47.534  16.901   5.200  1.00  0.00    +0.000 C 
BRANCH    6    7
ATOM    100  H8  UNL A   1      46.092  18.025   6.273  1.00  0.00    +0.000 H 
ATOM    101  H9  UNL A   1      45.611  17.498   4.628  1.00  0.00    +0.000 H 
ATOM      7  C5  UNL A   1      46.380  17.906   5.250  1.00  0.00    +0.000 C 
BRANCH    7    8
ATOM    102  H10 UNL A   1      47.344  19.173   3.847  1.00  0.00    +0.000 H 
ATOM    103  H11 UNL A   1      47.115  19.856   5.487  1.00  0.00    +0.000 H 
ATOM      8  C6  UNL A   1      46.686  19.295   4.683  1.00  0.00    +0.000 C 
BRANCH    8    9
ATOM      9  C7  UNL A   1      45.470  20.087   4.215  1.00  0.00    +0.000 C 
ATOM    105  H13 UNL A   1      44.674  19.907   4.907  1.00  0.00    +0.000 H 
ATOM    104  H12 UNL A   1      45.727  21.126   4.180  1.00  0.00    +0.000 H 
BRANCH    9   10
ATOM     10  N2  UNL A   1      45.018  19.673   2.900  1.00  0.00    +0.000 N 
ATOM    106  H14 UNL A   1      45.501  20.065   2.136  1.00  0.00    +0.000 H 
BRANCH   10   11
ATOM     11  C8  UNL A   1      44.001  18.807   2.586  1.00  0.00    +0.000 C 
ATOM     12  O2  UNL A   1      44.118  17.603   2.801  1.00  0.00    +0.000 O 
BRANCH   11   13
ATOM    107  H15 UNL A   1      41.603  18.332   3.554  1.00  0.00    +0.000 H 
ATOM    108  H16 UNL A   1      39.457  19.202   2.824  1.00  0.00    +0.000 H 
ATOM     13  C9  UNL A   1      42.723  19.333   2.068  1.00  0.00    +0.000 C 
ATOM     14  C10 UNL A   1      41.553  18.969   2.743  1.00  0.00    +0.000 C 
ATOM     15  C11 UNL A   1      40.318  19.467   2.321  1.00  0.00    +0.000 C 
ATOM     16  C12 UNL A   1      40.247  20.325   1.215  1.00  0.00    +0.000 C 
ATOM    113  H21 UNL A   1      41.372  21.276  -0.304  1.00  0.00    +0.000 H 
ATOM     27  C19 UNL A   1      41.421  20.657   0.521  1.00  0.00    +0.000 C 
ATOM     28  C20 UNL A   1      42.652  20.153   0.939  1.00  0.00    +0.000 C 
BRANCH   16   17
ATOM    109  H17 UNL A   1      39.672  21.808  -1.060  1.00  0.00    +0.000 H 
ATOM    110  H18 UNL A   1      37.640  22.867  -1.615  1.00  0.00    +0.000 H 
ATOM    112  H20 UNL A   1      37.942  20.137   2.380  1.00  0.00    +0.000 H 
ATOM     17  C13 UNL A   1      38.964  20.895   0.761  1.00  0.00    +0.000 C 
ATOM     18  C14 UNL A   1      38.852  21.695  -0.444  1.00  0.00    +0.000 C 
ATOM     19  C15 UNL A   1      37.696  22.287  -0.762  1.00  0.00    +0.000 C 
ATOM     20  N3  UNL A   1      36.577  22.136   0.033  1.00  0.00    +0.000 N 
ATOM     24  C17 UNL A   1      36.577  21.359   1.180  1.00  0.00    +0.000 C 
ATOM     25  O3  UNL A   1      35.617  21.177   1.922  1.00  0.00    +0.000 O 
ATOM     26  C18 UNL A   1      37.876  20.721   1.532  1.00  0.00    +0.000 C 
BRANCH   20   21
ATOM     21  C16 UNL A   1      35.350  22.816  -0.296  1.00  0.00    +0.000 C 
ATOM     22  F1  UNL A   1      35.593  23.990  -0.926  1.00  0.00    +0.000 F 
ATOM    111  H19 UNL A   1      34.841  23.002   0.627  1.00  0.00    +0.000 H 
ATOM     23  F2  UNL A   1      34.579  22.053  -1.108  1.00  0.00    +0.000 F 
ENDBRANCH   20   21
ENDBRANCH   16   17
BRANCH   28   29
ATOM    114  H22 UNL A   1      44.353  21.150   0.566  1.00  0.00    +0.000 H 
ATOM     29  O4  UNL A   1      43.783  20.481   0.243  1.00  0.00    +0.000 O 
ENDBRANCH   28   29
ENDBRANCH   11   13
ENDBRANCH   10   11
ENDBRANCH    9   10
ENDBRANCH    8    9
ENDBRANCH    7    8
ENDBRANCH    6    7
ENDBRANCH    5    6
ENDBRANCH    4    5
ENDBRANCH    3    4
ENDBRANCH    2    3
ENDBRANCH   30    2
ENDBRANCH   34   33
BRANCH   38   39
ATOM     39  C29 UNL A   1      52.668  22.494  17.271  1.00  0.00    +0.000 C 
ATOM     40  C30 UNL A   1      52.440  23.876  17.196  1.00  0.00    +0.000 C 
ATOM     41  F3  UNL A   1      53.196  24.643  16.396  1.00  0.00    +0.000 F 
ATOM     42  C31 UNL A   1      51.441  24.478  17.955  1.00  0.00    +0.000 C 
ATOM     43  F4  UNL A   1      51.257  25.804  17.887  1.00  0.00    +0.000 F 
ATOM     44  C32 UNL A   1      50.635  23.710  18.782  1.00  0.00    +0.000 C 
ATOM     45  F5  UNL A   1      49.659  24.288  19.494  1.00  0.00    +0.000 F 
ATOM     46  C33 UNL A   1      50.841  22.341  18.869  1.00  0.00    +0.000 C 
ATOM     47  F6  UNL A   1      50.053  21.594  19.655  1.00  0.00    +0.000 F 
ATOM     48  C34 UNL A   1      51.857  21.739  18.131  1.00  0.00    +0.000 C 
ATOM     49  F7  UNL A   1      52.030  20.413  18.234  1.00  0.00    +0.000 F 
ENDBRANCH   38   39
BRANCH   55   56
ATOM     65  C45 UNL A   1      60.232  21.341  18.014  1.00  0.00    +0.000 C 
ATOM     66  F12 UNL A   1      59.965  22.497  17.389  1.00  0.00    +0.000 F 
ATOM     56  C40 UNL A   1      59.451  20.203  17.761  1.00  0.00    +0.000 C 
ATOM     57  C41 UNL A   1      59.777  19.016  18.431  1.00  0.00    +0.000 C 
ATOM     58  F8  UNL A   1      59.050  17.906  18.228  1.00  0.00    +0.000 F 
ATOM     59  C42 UNL A   1      60.846  18.970  19.320  1.00  0.00    +0.000 C 
ATOM     60  F9  UNL A   1      61.128  17.830  19.965  1.00  0.00    +0.000 F 
ATOM     61  C43 UNL A   1      61.622  20.099  19.537  1.00  0.00    +0.000 C 
ATOM     62  F10 UNL A   1      62.667  20.045  20.373  1.00  0.00    +0.000 F 
ATOM     63  C44 UNL A   1      61.317  21.284  18.884  1.00  0.00    +0.000 C 
ATOM     64  F11 UNL A   1      62.075  22.371  19.078  1.00  0.00    +0.000 F 
ENDBRANCH   55   56
BRANCH   70   71
ATOM     71  C49 UNL A   1      59.142  17.991  11.145  1.00  0.00    +0.000 C 
ATOM     72  C50 UNL A   1      59.258  16.593  11.157  1.00  0.00    +0.000 C 
ATOM     73  F13 UNL A   1      58.511  15.867  12.001  1.00  0.00    +0.000 F 
ATOM     74  C51 UNL A   1      60.166  15.938  10.326  1.00  0.00    +0.000 C 
ATOM     75  F14 UNL A   1      60.283  14.605  10.386  1.00  0.00    +0.000 F 
ATOM     76  C52 UNL A   1      60.955  16.665   9.449  1.00  0.00    +0.000 C 
ATOM     77  F15 UNL A   1      61.823  16.035   8.645  1.00  0.00    +0.000 F 
ATOM     78  C53 UNL A   1      60.849  18.047   9.410  1.00  0.00    +0.000 C 
ATOM     79  F16 UNL A   1      61.600  18.752   8.553  1.00  0.00    +0.000 F 
ATOM     80  C54 UNL A   1      59.961  18.705  10.258  1.00  0.00    +0.000 C 
ATOM     81  F17 UNL A   1      59.887  20.043  10.206  1.00  0.00    +0.000 F 
ENDBRANCH   70   71
TORSDOF 18
ENDMDL
MODEL 3
REMARK VINA RESULT:     -11.4     40.500     47.413
ROOT
ATOM     34  C25 UNL A   1      53.483  19.915  11.580  1.00  0.00    +0.000 C 
ATOM     35  C26 UNL A   1      53.200  20.578  12.902  1.00  0.00    +0.000 C 
ATOM     36  N4  UNL A   1      54.001  20.765  13.921  1.00  0.00    +0.000 N 
ATOM     37  C27 UNL A   1      53.251  21.445  14.871  1.00  0.00    +0.000 C 
ATOM     38  C28 UNL A   1      53.604  21.803  16.127  1.00  0.00    +0.000 C 
ATOM     50  C35 UNL A   1      54.884  21.523  16.719  1.00  0.00    +0.000 C 
ATOM     51  C36 UNL A   1      55.319  21.805  18.002  1.00  0.00    +0.000 C 
ATOM     52  C37 UNL A   1      56.642  21.373  18.119  1.00  0.00    +0.000 C 
ATOM     53  C38 UNL A   1      57.015  20.780  16.924  1.00  0.00    +0.000 C 
ATOM     54  N5  UNL A   1      55.930  20.886  16.070  1.00  0.00    +0.000 N 
ATOM     55  C39 UNL A   1      58.273  20.166  16.587  1.00  0.00    +0.000 C 
ATOM     67  C46 UNL A   1      58.571  19.610  15.388  1.00  0.00    +0.000 C 
ATOM     68  N6  UNL A   1      57.769  19.485  14.263  1.00  0.00    +0.000 N 
ATOM     69  C47 UNL A   1      58.506  18.891  13.358  1.00  0.00    +0.000 C 
ATOM     70  C48 UNL A   1      58.137  18.473  11.959  1.00  0.00    +0.000 C 
ATOM     82  C55 UNL A   1      56.899  18.738  11.497  1.00  0.00    +0.000 C 
ATOM     83  C56 UNL A   1      56.389  18.371  10.178  1.00  0.00    +0.000 C 
ATOM     84  C57 UNL A   1      55.117  18.788  10.067  1.00  0.00    +0.000 C 
ATOM     85  C58 UNL A   1      54.712  19.425  11.321  1.00  0.00    +0.000 C 
ATOM     86  N7  UNL A   1      55.842  19.377  12.099  1.00  0.00    +0.000 N 
ATOM     87  C59 UNL A   1      59.876  18.597  13.801  1.00  0.00    +0.000 C 
ATOM     88  C60 UNL A   1      59.852  19.020  15.058  1.00  0.00    +0.000 C 
ATOM     89  C61 UNL A   1      51.950  21.691  14.292  1.00  0.00    +0.000 C 
ATOM     90  C62 UNL A   1      51.845  21.117  13.102  1.00  0.00    +0.000 C 
ATOM    117  H25 UNL A   1      54.762  22.258  18.744  1.00  0.00    +0.000 H 
ATOM    118  H26 UNL A   1      57.240  21.478  18.954  1.00  0.00    +0.000 H 
ATOM    119  H27 UNL A   1      55.905  20.558  15.142  1.00  0.00    +0.000 H 
ATOM    120  H28 UNL A   1      56.920  17.870   9.449  1.00  0.00    +0.000 H 
ATOM    121  H29 UNL A   1      54.521  18.676   9.232  1.00  0.00    +0.000 H 
ATOM    122  H30 UNL A   1      55.890  19.763  13.003  1.00  0.00    +0.000 H 
ATOM    123  H31 UNL A   1      60.655  18.172  13.274  1.00  0.00    +0.000 H 
ATOM    124  H32 UNL A   1      60.642  18.941  15.716  1.00  0.00    +0.000 H 
ATOM    125  H33 UNL A   1      51.201  22.239  14.744  1.00  0.00    +0.000 H 
ATOM    126  H34 UNL A   1      51.026  21.063  12.477  1.00  0.00    +0.000 H 
ENDROOT
BRANCH   34   33
ATOM     33  C24 UNL A   1      52.409  19.805  10.559  1.00  0.00    +0.000 C 
ATOM    127  H35 UNL A   1      51.745  17.896  11.181  1.00  0.00    +0.000 H 
ATOM    115  H23 UNL A   1      51.048  21.485   7.984  1.00  0.00    +0.000 H 
ATOM    116  H24 UNL A   1      52.781  21.687   9.667  1.00  0.00    +0.000 H 
ATOM     91  C63 UNL A   1      51.628  18.643  10.478  1.00  0.00    +0.000 C 
ATOM     92  C64 UNL A   1      50.694  18.492   9.454  1.00  0.00    +0.000 C 
ATOM     32  C23 UNL A   1      52.201  20.835   9.628  1.00  0.00    +0.000 C 
ATOM     30  C21 UNL A   1      50.450  19.544   8.567  1.00  0.00    +0.000 C 
ATOM     31  C22 UNL A   1      51.214  20.713   8.648  1.00  0.00    +0.000 C 
ATOM    128  H36 UNL A   1      50.182  17.602   9.352  1.00  0.00    +0.000 H 
BRANCH   30    2
ATOM      1  O1  UNL A   1      48.275  19.740   7.715  1.00  0.00    +0.000 O 
ATOM      2  C1  UNL A   1      49.443  19.436   7.486  1.00  0.00    +0.000 C 
BRANCH    2    3
ATOM      3  N1  UNL A   1      49.796  18.991   6.239  1.00  0.00    +0.000 N 
ATOM     93  H1  UNL A   1      49.980  19.698   5.579  1.00  0.00    +0.000 H 
BRANCH    3    4
ATOM      4  C2  UNL A   1      49.939  17.634   5.743  1.00  0.00    +0.000 C 
ATOM     94  H2  UNL A   1      50.865  17.234   6.099  1.00  0.00    +0.000 H 
ATOM     95  H3  UNL A   1      49.913  17.675   4.674  1.00  0.00    +0.000 H 
BRANCH    4    5
ATOM     97  H5  UNL A   1      49.239  15.753   6.330  1.00  0.00    +0.000 H 
ATOM      5  C3  UNL A   1      48.805  16.723   6.199  1.00  0.00    +0.000 C 
ATOM     96  H4  UNL A   1      48.393  17.133   7.099  1.00  0.00    +0.000 H 
BRANCH    5    6
ATOM     98  H6  UNL A   1      47.173  15.618   5.418  1.00  0.00    +0.000 H 
ATOM     99  H7  UNL A   1      48.119  16.570   4.228  1.00  0.00    +0.000 H 
ATOM      6  C4  UNL A   1      47.663  16.543   5.196  1.00  0.00    +0.000 C 
BRANCH    6    7
ATOM    100  H8  UNL A   1      46.553  18.059   6.178  1.00  0.00    +0.000 H 
ATOM    101  H9  UNL A   1      45.697  17.182   4.868  1.00  0.00    +0.000 H 
ATOM      7  C5  UNL A   1      46.604  17.648   5.191  1.00  0.00    +0.000 C 
BRANCH    7    8
ATOM    102  H10 UNL A   1      47.089  18.379   3.259  1.00  0.00    +0.000 H 
ATOM    103  H11 UNL A   1      47.652  19.377   4.635  1.00  0.00    +0.000 H 
ATOM      8  C6  UNL A   1      46.855  18.800   4.214  1.00  0.00    +0.000 C 
BRANCH    8    9
ATOM      9  C7  UNL A   1      45.686  19.763   4.033  1.00  0.00    +0.000 C 
ATOM    105  H13 UNL A   1      45.149  19.806   4.958  1.00  0.00    +0.000 H 
ATOM    104  H12 UNL A   1      46.069  20.724   3.761  1.00  0.00    +0.000 H 
BRANCH    9   10
ATOM     10  N2  UNL A   1      44.764  19.319   3.004  1.00  0.00    +0.000 N 
ATOM    106  H14 UNL A   1      45.065  19.446   2.075  1.00  0.00    +0.000 H 
BRANCH   10   11
ATOM     11  C8  UNL A   1      43.526  18.748   3.162  1.00  0.00    +0.000 C 
ATOM     12  O2  UNL A   1      43.372  17.793   3.920  1.00  0.00    +0.000 O 
BRANCH   11   13
ATOM    107  H15 UNL A   1      43.558  20.626   1.323  1.00  0.00    +0.000 H 
ATOM    108  H16 UNL A   1      41.701  21.606   0.104  1.00  0.00    +0.000 H 
ATOM     13  C9  UNL A   1      42.354  19.337   2.486  1.00  0.00    +0.000 C 
ATOM     14  C10 UNL A   1      42.592  20.320   1.519  1.00  0.00    +0.000 C 
ATOM     15  C11 UNL A   1      41.524  20.885   0.820  1.00  0.00    +0.000 C 
ATOM     16  C12 UNL A   1      40.210  20.477   1.091  1.00  0.00    +0.000 C 
ATOM    113  H21 UNL A   1      39.011  19.222   2.302  1.00  0.00    +0.000 H 
ATOM     27  C19 UNL A   1      39.977  19.516   2.088  1.00  0.00    +0.000 C 
ATOM     28  C20 UNL A   1      41.044  18.957   2.790  1.00  0.00    +0.000 C 
BRANCH   16   17
ATOM    109  H17 UNL A   1      40.111  21.610  -1.441  1.00  0.00    +0.000 H 
ATOM    110  H18 UNL A   1      38.274  22.665  -2.476  1.00  0.00    +0.000 H 
ATOM    112  H20 UNL A   1      37.744  20.585   1.870  1.00  0.00    +0.000 H 
ATOM     17  C13 UNL A   1      39.061  21.029   0.351  1.00  0.00    +0.000 C 
ATOM     18  C14 UNL A   1      39.198  21.635  -0.960  1.00  0.00    +0.000 C 
ATOM     19  C15 UNL A   1      38.153  22.225  -1.550  1.00  0.00    +0.000 C 
ATOM     20  N3  UNL A   1      36.914  22.255  -0.939  1.00  0.00    +0.000 N 
ATOM     24  C17 UNL A   1      36.677  21.669   0.294  1.00  0.00    +0.000 C 
ATOM     25  O3  UNL A   1      35.603  21.651   0.884  1.00  0.00    +0.000 O 
ATOM     26  C18 UNL A   1      37.855  21.032   0.947  1.00  0.00    +0.000 C 
BRANCH   20   21
ATOM     21  C16 UNL A   1      35.808  22.933  -1.564  1.00  0.00    +0.000 C 
ATOM     22  F1  UNL A   1      35.608  24.156  -1.016  1.00  0.00    +0.000 F 
ATOM    111  H19 UNL A   1      34.942  22.323  -1.410  1.00  0.00    +0.000 H 
ATOM     23  F2  UNL A   1      36.031  23.097  -2.892  1.00  0.00    +0.000 F 
ENDBRANCH   20   21
ENDBRANCH   16   17
BRANCH   28   29
ATOM    114  H22 UNL A   1      41.397  17.326   3.904  1.00  0.00    +0.000 H 
ATOM     29  O4  UNL A   1      40.796  18.029   3.764  1.00  0.00    +0.000 O 
ENDBRANCH   28   29
ENDBRANCH   11   13
ENDBRANCH   10   11
ENDBRANCH    9   10
ENDBRANCH    8    9
ENDBRANCH    7    8
ENDBRANCH    6    7
ENDBRANCH    5    6
ENDBRANCH    4    5
ENDBRANCH    3    4
ENDBRANCH    2    3
ENDBRANCH   30    2
ENDBRANCH   34   33
BRANCH   38   39
ATOM     39  C29 UNL A   1      52.587  22.514  16.971  1.00  0.00    +0.000 C 
ATOM     40  C30 UNL A   1      51.840  21.830  17.940  1.00  0.00    +0.000 C 
ATOM     41  F3  UNL A   1      51.951  20.499  18.064  1.00  0.00    +0.000 F 
ATOM     42  C31 UNL A   1      50.962  22.511  18.779  1.00  0.00    +0.000 C 
ATOM     43  F4  UNL A   1      50.238  21.833  19.681  1.00  0.00    +0.000 F 
ATOM     44  C32 UNL A   1      50.834  23.888  18.683  1.00  0.00    +0.000 C 
ATOM     45  F5  UNL A   1      50.005  24.545  19.507  1.00  0.00    +0.000 F 
ATOM     46  C33 UNL A   1      51.566  24.586  17.734  1.00  0.00    +0.000 C 
ATOM     47  F6  UNL A   1      51.456  25.919  17.650  1.00  0.00    +0.000 F 
ATOM     48  C34 UNL A   1      52.426  23.904  16.875  1.00  0.00    +0.000 C 
ATOM     49  F7  UNL A   1      53.123  24.606  15.969  1.00  0.00    +0.000 F 
ENDBRANCH   38   39
BRANCH   55   56
ATOM     65  C45 UNL A   1      59.570  18.970  18.384  1.00  0.00    +0.000 C 
ATOM     66  F12 UNL A   1      58.928  17.835  18.071  1.00  0.00    +0.000 F 
ATOM     56  C40 UNL A   1      59.327  20.145  17.655  1.00  0.00    +0.000 C 
ATOM     57  C41 UNL A   1      60.014  21.308  18.027  1.00  0.00    +0.000 C 
ATOM     58  F8  UNL A   1      59.821  22.450  17.351  1.00  0.00    +0.000 F 
ATOM     59  C42 UNL A   1      60.910  21.296  19.092  1.00  0.00    +0.000 C 
ATOM     60  F9  UNL A   1      61.570  22.415  19.420  1.00  0.00    +0.000 F 
ATOM     61  C43 UNL A   1      61.116  20.132  19.817  1.00  0.00    +0.000 C 
ATOM     62  F10 UNL A   1      61.959  20.130  20.859  1.00  0.00    +0.000 F 
ATOM     63  C44 UNL A   1      60.446  18.969  19.465  1.00  0.00    +0.000 C 
ATOM     64  F11 UNL A   1      60.632  17.848  20.175  1.00  0.00    +0.000 F 
ENDBRANCH   55   56
BRANCH   70   71
ATOM     71  C49 UNL A   1      59.107  17.742  11.102  1.00  0.00    +0.000 C 
ATOM     72  C50 UNL A   1      59.949  18.432  10.219  1.00  0.00    +0.000 C 
ATOM     73  F13 UNL A   1      59.869  19.768  10.124  1.00  0.00    +0.000 F 
ATOM     74  C51 UNL A   1      60.854  17.752   9.405  1.00  0.00    +0.000 C 
ATOM     75  F14 UNL A   1      61.619  18.434   8.543  1.00  0.00    +0.000 F 
ATOM     76  C52 UNL A   1      60.953  16.371   9.478  1.00  0.00    +0.000 C 
ATOM     77  F15 UNL A   1      61.827  15.718   8.702  1.00  0.00    +0.000 F 
ATOM     78  C53 UNL A   1      60.139  15.667  10.354  1.00  0.00    +0.000 C 
ATOM     79  F16 UNL A   1      60.242  14.334  10.437  1.00  0.00    +0.000 F 
ATOM     80  C54 UNL A   1      59.216  16.344  11.148  1.00  0.00    +0.000 C 
ATOM     81  F17 UNL A   1      58.435  15.637  11.978  1.00  0.00    +0.000 F 
ENDBRANCH   70   71
TORSDOF 18
ENDMDL
MODEL 4
REMARK VINA RESULT:     -11.4     28.130     37.417
ROOT
ATOM     34  C25 UNL A   1       2.630  11.101  37.959  1.00  0.00    +0.000 C 
ATOM     35  C26 UNL A   1       3.628   9.979  38.065  1.00  0.00    +0.000 C 
ATOM     36  N4  UNL A   1       3.519   8.736  37.670  1.00  0.00    +0.000 N 
ATOM     37  C27 UNL A   1       4.730   8.132  37.981  1.00  0.00    +0.000 C 
ATOM     38  C28 UNL A   1       5.087   6.835  37.841  1.00  0.00    +0.000 C 
ATOM     50  C35 UNL A   1       4.224   5.810  37.318  1.00  0.00    +0.000 C 
ATOM     51  C36 UNL A   1       4.482   4.458  37.180  1.00  0.00    +0.000 C 
ATOM     52  C37 UNL A   1       3.361   3.858  36.601  1.00  0.00    +0.000 C 
ATOM     53  C38 UNL A   1       2.389   4.828  36.422  1.00  0.00    +0.000 C 
ATOM     54  N5  UNL A   1       2.935   6.024  36.858  1.00  0.00    +0.000 N 
ATOM     55  C39 UNL A   1       1.062   4.674  35.886  1.00  0.00    +0.000 C 
ATOM     67  C46 UNL A   1       0.164   5.676  35.732  1.00  0.00    +0.000 C 
ATOM     68  N6  UNL A   1       0.293   7.019  36.057  1.00  0.00    +0.000 N 
ATOM     69  C47 UNL A   1      -0.835   7.586  35.709  1.00  0.00    +0.000 C 
ATOM     70  C48 UNL A   1      -1.262   9.021  35.861  1.00  0.00    +0.000 C 
ATOM     82  C55 UNL A   1      -0.405   9.911  36.401  1.00  0.00    +0.000 C 
ATOM     83  C56 UNL A   1      -0.686  11.325  36.638  1.00  0.00    +0.000 C 
ATOM     84  C57 UNL A   1       0.393  11.900  37.194  1.00  0.00    +0.000 C 
ATOM     85  C58 UNL A   1       1.432  10.886  37.381  1.00  0.00    +0.000 C 
ATOM     86  N7  UNL A   1       0.881   9.744  36.854  1.00  0.00    +0.000 N 
ATOM     87  C59 UNL A   1      -1.802   6.665  35.093  1.00  0.00    +0.000 C 
ATOM     88  C60 UNL A   1      -1.159   5.507  35.166  1.00  0.00    +0.000 C 
ATOM     89  C61 UNL A   1       5.583   9.153  38.545  1.00  0.00    +0.000 C 
ATOM     90  C62 UNL A   1       4.927  10.297  38.680  1.00  0.00    +0.000 C 
ATOM    117  H25 UNL A   1       5.351   3.975  37.457  1.00  0.00    +0.000 H 
ATOM    118  H26 UNL A   1       3.272   2.860  36.350  1.00  0.00    +0.000 H 
ATOM    119  H27 UNL A   1       2.476   6.895  36.843  1.00  0.00    +0.000 H 
ATOM    120  H28 UNL A   1      -1.571  11.804  36.415  1.00  0.00    +0.000 H 
ATOM    121  H29 UNL A   1       0.476  12.896  37.448  1.00  0.00    +0.000 H 
ATOM    122  H30 UNL A   1       1.363   8.887  36.807  1.00  0.00    +0.000 H 
ATOM    123  H31 UNL A   1      -2.736   6.866  34.704  1.00  0.00    +0.000 H 
ATOM    124  H32 UNL A   1      -1.549   4.603  34.860  1.00  0.00    +0.000 H 
ATOM    125  H33 UNL A   1       6.571   9.011  38.808  1.00  0.00    +0.000 H 
ATOM    126  H34 UNL A   1       5.246  11.182  39.105  1.00  0.00    +0.000 H 
ENDROOT
BRANCH   34   33
ATOM     33  C24 UNL A   1       2.968  12.448  38.488  1.00  0.00    +0.000 C 
ATOM    127  H35 UNL A   1       3.955  13.103  36.736  1.00  0.00    +0.000 H 
ATOM    115  H23 UNL A   1       2.652  14.345  41.247  1.00  0.00    +0.000 H 
ATOM    116  H24 UNL A   1       2.067  12.157  40.380  1.00  0.00    +0.000 H 
ATOM     91  C63 UNL A   1       3.712  13.347  37.709  1.00  0.00    +0.000 C 
ATOM     92  C64 UNL A   1       4.124  14.568  38.242  1.00  0.00    +0.000 C 
ATOM     32  C23 UNL A   1       2.600  12.817  39.792  1.00  0.00    +0.000 C 
ATOM     30  C21 UNL A   1       3.704  14.954  39.518  1.00  0.00    +0.000 C 
ATOM     31  C22 UNL A   1       2.950  14.071  40.297  1.00  0.00    +0.000 C 
ATOM    128  H36 UNL A   1       4.739  15.187  37.693  1.00  0.00    +0.000 H 
BRANCH   30    2
ATOM      1  O1  UNL A   1       5.229  16.686  39.931  1.00  0.00    +0.000 O 
ATOM      2  C1  UNL A   1       4.091  16.256  40.107  1.00  0.00    +0.000 C 
BRANCH    2    3
ATOM      3  N1  UNL A   1       3.201  16.982  40.855  1.00  0.00    +0.000 N 
ATOM     93  H1  UNL A   1       2.309  17.090  40.453  1.00  0.00    +0.000 H 
BRANCH    3    4
ATOM      4  C2  UNL A   1       3.375  17.615  42.149  1.00  0.00    +0.000 C 
ATOM     94  H2  UNL A   1       3.222  18.668  42.040  1.00  0.00    +0.000 H 
ATOM     95  H3  UNL A   1       4.366  17.394  42.488  1.00  0.00    +0.000 H 
BRANCH    4    5
ATOM     97  H5  UNL A   1       2.932  16.337  43.744  1.00  0.00    +0.000 H 
ATOM      5  C3  UNL A   1       2.399  17.085  43.195  1.00  0.00    +0.000 C 
ATOM     96  H4  UNL A   1       2.078  17.911  43.796  1.00  0.00    +0.000 H 
BRANCH    5    6
ATOM     98  H6  UNL A   1       1.268  16.311  41.578  1.00  0.00    +0.000 H 
ATOM     99  H7  UNL A   1       0.324  17.000  42.938  1.00  0.00    +0.000 H 
ATOM      6  C4  UNL A   1       1.153  16.393  42.638  1.00  0.00    +0.000 C 
BRANCH    6    7
ATOM    100  H8  UNL A   1       0.935  14.301  42.379  1.00  0.00    +0.000 H 
ATOM    101  H9  UNL A   1      -0.105  15.049  43.635  1.00  0.00    +0.000 H 
ATOM      7  C5  UNL A   1       0.867  14.995  43.191  1.00  0.00    +0.000 C 
BRANCH    7    8
ATOM    102  H10 UNL A   1       1.661  15.144  45.153  1.00  0.00    +0.000 H 
ATOM    103  H11 UNL A   1       2.798  14.573  43.893  1.00  0.00    +0.000 H 
ATOM      8  C6  UNL A   1       1.809  14.516  44.299  1.00  0.00    +0.000 C 
BRANCH    8    9
ATOM      9  C7  UNL A   1       1.614  13.069  44.737  1.00  0.00    +0.000 C 
ATOM    105  H13 UNL A   1       1.626  13.045  45.807  1.00  0.00    +0.000 H 
ATOM    104  H12 UNL A   1       0.681  12.714  44.351  1.00  0.00    +0.000 H 
BRANCH    9   10
ATOM     10  N2  UNL A   1       2.676  12.204  44.261  1.00  0.00    +0.000 N 
ATOM    106  H14 UNL A   1       2.392  11.430  43.721  1.00  0.00    +0.000 H 
BRANCH   10   11
ATOM     11  C8  UNL A   1       4.028  12.325  44.470  1.00  0.00    +0.000 C 
ATOM     12  O2  UNL A   1       4.516  12.058  45.565  1.00  0.00    +0.000 O 
BRANCH   11   13
ATOM    107  H15 UNL A   1       4.726  10.788  42.454  1.00  0.00    +0.000 H 
ATOM    108  H16 UNL A   1       6.112  11.319  40.532  1.00  0.00    +0.000 H 
ATOM     13  C9  UNL A   1       4.914  12.693  43.348  1.00  0.00    +0.000 C 
ATOM     14  C10 UNL A   1       5.146  11.727  42.364  1.00  0.00    +0.000 C 
ATOM     15  C11 UNL A   1       5.945  12.031  41.260  1.00  0.00    +0.000 C 
ATOM     16  C12 UNL A   1       6.523  13.303  41.139  1.00  0.00    +0.000 C 
ATOM    113  H21 UNL A   1       6.750  15.188  42.074  1.00  0.00    +0.000 H 
ATOM     27  C19 UNL A   1       6.315  14.255  42.149  1.00  0.00    +0.000 C 
ATOM     28  C20 UNL A   1       5.522  13.948  43.255  1.00  0.00    +0.000 C 
BRANCH   16   17
ATOM    109  H17 UNL A   1       8.167  15.505  40.751  1.00  0.00    +0.000 H 
ATOM    110  H18 UNL A   1       9.289  16.136  38.776  1.00  0.00    +0.000 H 
ATOM    112  H20 UNL A   1       6.796  11.982  38.929  1.00  0.00    +0.000 H 
ATOM     17  C13 UNL A   1       7.347  13.670  39.972  1.00  0.00    +0.000 C 
ATOM     18  C14 UNL A   1       8.117  14.898  39.918  1.00  0.00    +0.000 C 
ATOM     19  C15 UNL A   1       8.760  15.250  38.800  1.00  0.00    +0.000 C 
ATOM     20  N3  UNL A   1       8.727  14.446  37.677  1.00  0.00    +0.000 N 
ATOM     24  C17 UNL A   1       8.052  13.236  37.647  1.00  0.00    +0.000 C 
ATOM     25  O3  UNL A   1       7.992  12.473  36.688  1.00  0.00    +0.000 O 
ATOM     26  C18 UNL A   1       7.325  12.867  38.893  1.00  0.00    +0.000 C 
BRANCH   20   21
ATOM     21  C16 UNL A   1       9.386  14.857  36.465  1.00  0.00    +0.000 C 
ATOM     22  F1  UNL A   1       8.500  15.013  35.452  1.00  0.00    +0.000 F 
ATOM    111  H19 UNL A   1      10.087  14.088  36.215  1.00  0.00    +0.000 H 
ATOM     23  F2  UNL A   1      10.033  16.036  36.644  1.00  0.00    +0.000 F 
ENDBRANCH   20   21
ENDBRANCH   16   17
BRANCH   28   29
ATOM    114  H22 UNL A   1       6.066  15.176  44.746  1.00  0.00    +0.000 H 
ATOM     29  O4  UNL A   1       5.339  14.886  44.232  1.00  0.00    +0.000 O 
ENDBRANCH   28   29
ENDBRANCH   11   13
ENDBRANCH   10   11
ENDBRANCH    9   10
ENDBRANCH    8    9
ENDBRANCH    7    8
ENDBRANCH    6    7
ENDBRANCH    5    6
ENDBRANCH    4    5
ENDBRANCH    3    4
ENDBRANCH    2    3
ENDBRANCH   30    2
ENDBRANCH   34   33
BRANCH   38   39
ATOM     39  C29 UNL A   1       6.461   6.429  38.284  1.00  0.00    +0.000 C 
ATOM     40  C30 UNL A   1       7.599   6.786  37.546  1.00  0.00    +0.000 C 
ATOM     41  F3  UNL A   1       7.470   7.419  36.370  1.00  0.00    +0.000 F 
ATOM     42  C31 UNL A   1       8.876   6.482  38.008  1.00  0.00    +0.000 C 
ATOM     43  F4  UNL A   1       9.949   6.811  37.274  1.00  0.00    +0.000 F 
ATOM     44  C32 UNL A   1       9.042   5.839  39.226  1.00  0.00    +0.000 C 
ATOM     45  F5  UNL A   1      10.273   5.568  39.680  1.00  0.00    +0.000 F 
ATOM     46  C33 UNL A   1       7.931   5.479  39.974  1.00  0.00    +0.000 C 
ATOM     47  F6  UNL A   1       8.089   4.873  41.158  1.00  0.00    +0.000 F 
ATOM     48  C34 UNL A   1       6.651   5.759  39.502  1.00  0.00    +0.000 C 
ATOM     49  F7  UNL A   1       5.595   5.401  40.248  1.00  0.00    +0.000 F 
ENDBRANCH   38   39
BRANCH   55   56
ATOM     65  C45 UNL A   1       1.002   2.799  34.206  1.00  0.00    +0.000 C 
ATOM     66  F12 UNL A   1       1.784   3.523  33.391  1.00  0.00    +0.000 F 
ATOM     56  C40 UNL A   1       0.651   3.291  35.473  1.00  0.00    +0.000 C 
ATOM     57  C41 UNL A   1      -0.176   2.502  36.283  1.00  0.00    +0.000 C 
ATOM     58  F8  UNL A   1      -0.527   2.928  37.505  1.00  0.00    +0.000 F 
ATOM     59  C42 UNL A   1      -0.637   1.266  35.840  1.00  0.00    +0.000 C 
ATOM     60  F9  UNL A   1      -1.412   0.519  36.637  1.00  0.00    +0.000 F 
ATOM     61  C43 UNL A   1      -0.301   0.809  34.574  1.00  0.00    +0.000 C 
ATOM     62  F10 UNL A   1      -0.768  -0.369  34.140  1.00  0.00    +0.000 F 
ATOM     63  C44 UNL A   1       0.517   1.575  33.757  1.00  0.00    +0.000 C 
ATOM     64  F11 UNL A   1       0.829   1.142  32.527  1.00  0.00    +0.000 F 
ENDBRANCH   55   56
BRANCH   70   71
ATOM     71  C49 UNL A   1      -2.625   9.457  35.460  1.00  0.00    +0.000 C 
ATOM     72  C50 UNL A   1      -3.678   9.469  36.387  1.00  0.00    +0.000 C 
ATOM     73  F13 UNL A   1      -3.464   9.061  37.647  1.00  0.00    +0.000 F 
ATOM     74  C51 UNL A   1      -4.961   9.868  36.016  1.00  0.00    +0.000 C 
ATOM     75  F14 UNL A   1      -5.956   9.832  36.912  1.00  0.00    +0.000 F 
ATOM     76  C52 UNL A   1      -5.211  10.287  34.719  1.00  0.00    +0.000 C 
ATOM     77  F15 UNL A   1      -6.443  10.678  34.364  1.00  0.00    +0.000 F 
ATOM     78  C53 UNL A   1      -4.183  10.297  33.787  1.00  0.00    +0.000 C 
ATOM     79  F16 UNL A   1      -4.418  10.715  32.537  1.00  0.00    +0.000 F 
ATOM     80  C54 UNL A   1      -2.906   9.873  34.150  1.00  0.00    +0.000 C 
ATOM     81  F17 UNL A   1      -1.935   9.883  33.226  1.00  0.00    +0.000 F 
ENDBRANCH   70   71
TORSDOF 18
ENDMDL
MODEL 5
REMARK VINA RESULT:     -11.4      1.432      2.151
ROOT
ATOM     34  C25 UNL A   1      26.136  35.320  45.867  1.00  0.00    +0.000 C 
ATOM     35  C26 UNL A   1      27.442  35.319  45.119  1.00  0.00    +0.000 C 
ATOM     36  N4  UNL A   1      28.459  36.136  45.229  1.00  0.00    +0.000 N 
ATOM     37  C27 UNL A   1      29.414  35.676  44.332  1.00  0.00    +0.000 C 
ATOM     38  C28 UNL A   1      30.610  36.224  44.018  1.00  0.00    +0.000 C 
ATOM     50  C35 UNL A   1      31.119  37.440  44.591  1.00  0.00    +0.000 C 
ATOM     51  C36 UNL A   1      32.301  38.099  44.302  1.00  0.00    +0.000 C 
ATOM     52  C37 UNL A   1      32.386  39.224  45.125  1.00  0.00    +0.000 C 
ATOM     53  C38 UNL A   1      31.236  39.291  45.894  1.00  0.00    +0.000 C 
ATOM     54  N5  UNL A   1      30.470  38.186  45.562  1.00  0.00    +0.000 N 
ATOM     55  C39 UNL A   1      30.867  40.290  46.863  1.00  0.00    +0.000 C 
ATOM     67  C46 UNL A   1      29.722  40.286  47.587  1.00  0.00    +0.000 C 
ATOM     68  N6  UNL A   1      28.674  39.378  47.553  1.00  0.00    +0.000 N 
ATOM     69  C47 UNL A   1      27.806  39.794  48.442  1.00  0.00    +0.000 C 
ATOM     70  C48 UNL A   1      26.467  39.211  48.805  1.00  0.00    +0.000 C 
ATOM     82  C55 UNL A   1      26.046  38.089  48.188  1.00  0.00    +0.000 C 
ATOM     83  C56 UNL A   1      24.764  37.425  48.412  1.00  0.00    +0.000 C 
ATOM     84  C57 UNL A   1      24.685  36.343  47.620  1.00  0.00    +0.000 C 
ATOM     85  C58 UNL A   1      25.899  36.255  46.808  1.00  0.00    +0.000 C 
ATOM     86  N7  UNL A   1      26.662  37.314  47.234  1.00  0.00    +0.000 N 
ATOM     87  C59 UNL A   1      28.223  41.005  49.163  1.00  0.00    +0.000 C 
ATOM     88  C60 UNL A   1      29.379  41.286  48.577  1.00  0.00    +0.000 C 
ATOM     89  C61 UNL A   1      28.885  34.476  43.725  1.00  0.00    +0.000 C 
ATOM     90  C62 UNL A   1      27.643  34.249  44.128  1.00  0.00    +0.000 C 
ATOM    117  H25 UNL A   1      32.999  37.809  43.600  1.00  0.00    +0.000 H 
ATOM    118  H26 UNL A   1      33.173  39.892  45.155  1.00  0.00    +0.000 H 
ATOM    119  H27 UNL A   1      29.596  37.964  45.957  1.00  0.00    +0.000 H 
ATOM    120  H28 UNL A   1      24.037  37.738  49.073  1.00  0.00    +0.000 H 
ATOM    121  H29 UNL A   1      23.894  35.681  47.590  1.00  0.00    +0.000 H 
ATOM    122  H30 UNL A   1      27.564  37.501  46.889  1.00  0.00    +0.000 H 
ATOM    123  H31 UNL A   1      27.743  41.507  49.926  1.00  0.00    +0.000 H 
ATOM    124  H32 UNL A   1      29.961  42.109  48.797  1.00  0.00    +0.000 H 
ATOM    125  H33 UNL A   1      29.405  33.876  43.065  1.00  0.00    +0.000 H 
ATOM    126  H34 UNL A   1      26.987  33.511  43.826  1.00  0.00    +0.000 H 
ENDROOT
BRANCH   34   33
ATOM     33  C24 UNL A   1      25.109  34.288  45.571  1.00  0.00    +0.000 C 
ATOM    127  H35 UNL A   1      24.231  35.343  43.962  1.00  0.00    +0.000 H 
ATOM    115  H23 UNL A   1      24.015  31.288  46.627  1.00  0.00    +0.000 H 
ATOM    116  H24 UNL A   1      25.715  32.953  47.096  1.00  0.00    +0.000 H 
ATOM     91  C63 UNL A   1      24.164  34.503  44.557  1.00  0.00    +0.000 C 
ATOM     92  C64 UNL A   1      23.133  33.586  44.349  1.00  0.00    +0.000 C 
ATOM     32  C23 UNL A   1      25.035  33.113  46.337  1.00  0.00    +0.000 C 
ATOM     30  C21 UNL A   1      23.100  32.392  45.075  1.00  0.00    +0.000 C 
ATOM     31  C22 UNL A   1      24.047  32.162  46.078  1.00  0.00    +0.000 C 
ATOM    128  H36 UNL A   1      22.395  33.791  43.659  1.00  0.00    +0.000 H 
BRANCH   30    2
ATOM      1  O1  UNL A   1      22.358  30.215  44.620  1.00  0.00    +0.000 O 
ATOM      2  C1  UNL A   1      22.042  31.377  44.860  1.00  0.00    +0.000 C 
BRANCH    2    3
ATOM      3  N1  UNL A   1      20.717  31.723  44.915  1.00  0.00    +0.000 N 
ATOM     93  H1  UNL A   1      20.302  31.649  45.805  1.00  0.00    +0.000 H 
BRANCH    3    4
ATOM      4  C2  UNL A   1      19.831  32.180  43.860  1.00  0.00    +0.000 C 
ATOM     94  H2  UNL A   1      18.925  31.615  43.903  1.00  0.00    +0.000 H 
ATOM     95  H3  UNL A   1      20.339  32.040  42.928  1.00  0.00    +0.000 H 
BRANCH    4    5
ATOM     97  H5  UNL A   1      20.065  34.028  44.809  1.00  0.00    +0.000 H 
ATOM      5  C3  UNL A   1      19.491  33.661  43.984  1.00  0.00    +0.000 C 
ATOM     96  H4  UNL A   1      19.729  34.134  43.053  1.00  0.00    +0.000 H 
BRANCH    5    6
ATOM     98  H6  UNL A   1      17.937  35.033  44.428  1.00  0.00    +0.000 H 
ATOM     99  H7  UNL A   1      17.806  33.420  45.201  1.00  0.00    +0.000 H 
ATOM      6  C4  UNL A   1      18.030  33.974  44.313  1.00  0.00    +0.000 C 
BRANCH    6    7
ATOM    100  H8  UNL A   1      17.408  32.675  42.757  1.00  0.00    +0.000 H 
ATOM    101  H9  UNL A   1      16.834  34.371  42.641  1.00  0.00    +0.000 H 
ATOM      7  C5  UNL A   1      17.004  33.522  43.270  1.00  0.00    +0.000 C 
BRANCH    7    8
ATOM    102  H10 UNL A   1      14.910  33.264  43.041  1.00  0.00    +0.000 H 
ATOM    103  H11 UNL A   1      15.462  33.753  44.673  1.00  0.00    +0.000 H 
ATOM      8  C6  UNL A   1      15.630  33.128  43.820  1.00  0.00    +0.000 C 
BRANCH    8    9
ATOM      9  C7  UNL A   1      15.520  31.691  44.320  1.00  0.00    +0.000 C 
ATOM    105  H13 UNL A   1      16.386  31.482  44.914  1.00  0.00    +0.000 H 
ATOM    104  H12 UNL A   1      14.622  31.594  44.894  1.00  0.00    +0.000 H 
BRANCH    9   10
ATOM     10  N2  UNL A   1      15.486  30.733  43.232  1.00  0.00    +0.000 N 
ATOM    106  H14 UNL A   1      14.755  30.847  42.582  1.00  0.00    +0.000 H 
BRANCH   10   11
ATOM     11  C8  UNL A   1      16.341  29.686  42.996  1.00  0.00    +0.000 C 
ATOM     12  O2  UNL A   1      17.552  29.822  43.150  1.00  0.00    +0.000 O 
BRANCH   11   13
ATOM    107  H15 UNL A   1      15.845  28.794  40.572  1.00  0.00    +0.000 H 
ATOM    108  H16 UNL A   1      15.025  26.617  39.879  1.00  0.00    +0.000 H 
ATOM     13  C9  UNL A   1      15.798  28.360  42.640  1.00  0.00    +0.000 C 
ATOM     14  C10 UNL A   1      15.623  28.077  41.281  1.00  0.00    +0.000 C 
ATOM     15  C11 UNL A   1      15.149  26.826  40.883  1.00  0.00    +0.000 C 
ATOM     16  C12 UNL A   1      14.839  25.853  41.843  1.00  0.00    +0.000 C 
ATOM    113  H21 UNL A   1      14.741  25.450  43.918  1.00  0.00    +0.000 H 
ATOM     27  C19 UNL A   1      14.982  26.157  43.206  1.00  0.00    +0.000 C 
ATOM     28  C20 UNL A   1      15.449  27.409  43.602  1.00  0.00    +0.000 C 
BRANCH   16   17
ATOM    109  H17 UNL A   1      15.196  24.460  39.468  1.00  0.00    +0.000 H 
ATOM    110  H18 UNL A   1      14.230  22.401  38.846  1.00  0.00    +0.000 H 
ATOM    112  H20 UNL A   1      13.470  24.195  43.285  1.00  0.00    +0.000 H 
ATOM     17  C13 UNL A   1      14.366  24.510  41.458  1.00  0.00    +0.000 C 
ATOM     18  C14 UNL A   1      14.604  23.949  40.142  1.00  0.00    +0.000 C 
ATOM     19  C15 UNL A   1      14.063  22.777  39.793  1.00  0.00    +0.000 C 
ATOM     20  N3  UNL A   1      13.284  22.061  40.681  1.00  0.00    +0.000 N 
ATOM     24  C17 UNL A   1      13.034  22.497  41.973  1.00  0.00    +0.000 C 
ATOM     25  O3  UNL A   1      12.361  21.906  42.811  1.00  0.00    +0.000 O 
ATOM     26  C18 UNL A   1      13.627  23.813  42.340  1.00  0.00    +0.000 C 
BRANCH   20   21
ATOM     21  C16 UNL A   1      12.669  20.822  40.279  1.00  0.00    +0.000 C 
ATOM     22  F1  UNL A   1      12.584  20.730  38.931  1.00  0.00    +0.000 F 
ATOM    111  H19 UNL A   1      11.687  20.810  40.704  1.00  0.00    +0.000 H 
ATOM     23  F2  UNL A   1      13.383  19.761  40.730  1.00  0.00    +0.000 F 
ENDBRANCH   20   21
ENDBRANCH   16   17
BRANCH   28   29
ATOM    114  H22 UNL A   1      15.118  27.170  45.567  1.00  0.00    +0.000 H 
ATOM     29  O4  UNL A   1      15.574  27.689  44.935  1.00  0.00    +0.000 O 
ENDBRANCH   28   29
ENDBRANCH   11   13
ENDBRANCH   10   11
ENDBRANCH    9   10
ENDBRANCH    8    9
ENDBRANCH    7    8
ENDBRANCH    6    7
ENDBRANCH    5    6
ENDBRANCH    4    5
ENDBRANCH    3    4
ENDBRANCH    2    3
ENDBRANCH   30    2
ENDBRANCH   34   33
BRANCH   38   39
ATOM     39  C29 UNL A   1      31.452  35.536  42.984  1.00  0.00    +0.000 C 
ATOM     40  C30 UNL A   1      32.232  34.417  43.308  1.00  0.00    +0.000 C 
ATOM     41  F3  UNL A   1      32.317  33.998  44.580  1.00  0.00    +0.000 F 
ATOM     42  C31 UNL A   1      32.942  33.731  42.327  1.00  0.00    +0.000 C 
ATOM     43  F4  UNL A   1      33.702  32.680  42.663  1.00  0.00    +0.000 F 
ATOM     44  C32 UNL A   1      32.866  34.133  41.002  1.00  0.00    +0.000 C 
ATOM     45  F5  UNL A   1      33.531  33.458  40.055  1.00  0.00    +0.000 F 
ATOM     46  C33 UNL A   1      32.097  35.236  40.658  1.00  0.00    +0.000 C 
ATOM     47  F6  UNL A   1      32.008  35.617  39.376  1.00  0.00    +0.000 F 
ATOM     48  C34 UNL A   1      31.406  35.940  41.642  1.00  0.00    +0.000 C 
ATOM     49  F7  UNL A   1      30.669  37.000  41.279  1.00  0.00    +0.000 F 
ENDBRANCH   38   39
BRANCH   55   56
ATOM     65  C45 UNL A   1      32.968  41.235  47.880  1.00  0.00    +0.000 C 
ATOM     66  F12 UNL A   1      33.249  40.025  48.387  1.00  0.00    +0.000 F 
ATOM     56  C40 UNL A   1      31.832  41.419  47.077  1.00  0.00    +0.000 C 
ATOM     57  C41 UNL A   1      31.575  42.704  46.580  1.00  0.00    +0.000 C 
ATOM     58  F8  UNL A   1      30.506  42.923  45.799  1.00  0.00    +0.000 F 
ATOM     59  C42 UNL A   1      32.423  43.766  46.878  1.00  0.00    +0.000 C 
ATOM     60  F9  UNL A   1      32.170  44.982  46.377  1.00  0.00    +0.000 F 
ATOM     61  C43 UNL A   1      33.527  43.569  47.695  1.00  0.00    +0.000 C 
ATOM     62  F10 UNL A   1      34.327  44.599  48.002  1.00  0.00    +0.000 F 
ATOM     63  C44 UNL A   1      33.799  42.305  48.197  1.00  0.00    +0.000 C 
ATOM     64  F11 UNL A   1      34.855  42.116  49.001  1.00  0.00    +0.000 F 
ENDBRANCH   55   56
BRANCH   70   71
ATOM     71  C49 UNL A   1      25.591  39.878  49.804  1.00  0.00    +0.000 C 
ATOM     72  C50 UNL A   1      24.694  40.885  49.416  1.00  0.00    +0.000 C 
ATOM     73  F13 UNL A   1      24.637  41.271  48.132  1.00  0.00    +0.000 F 
ATOM     74  C51 UNL A   1      23.877  41.521  50.348  1.00  0.00    +0.000 C 
ATOM     75  F14 UNL A   1      23.058  42.506  49.955  1.00  0.00    +0.000 F 
ATOM     76  C52 UNL A   1      23.920  41.146  51.681  1.00  0.00    +0.000 C 
ATOM     77  F15 UNL A   1      23.129  41.753  52.577  1.00  0.00    +0.000 F 
ATOM     78  C53 UNL A   1      24.790  40.144  52.088  1.00  0.00    +0.000 C 
ATOM     79  F16 UNL A   1      24.824  39.769  53.373  1.00  0.00    +0.000 F 
ATOM     80  C54 UNL A   1      25.626  39.526  51.161  1.00  0.00    +0.000 C 
ATOM     81  F17 UNL A   1      26.464  38.568  51.584  1.00  0.00    +0.000 F 
ENDBRANCH   70   71
TORSDOF 18
ENDMDL
MODEL 6
REMARK VINA RESULT:     -11.4     42.517     46.139
ROOT
ATOM     34  C25 UNL A   1      13.920  53.772   5.423  1.00  0.00    +0.000 C 
ATOM     35  C26 UNL A   1      13.535  52.317   5.404  1.00  0.00    +0.000 C 
ATOM     36  N4  UNL A   1      13.927  51.368   4.592  1.00  0.00    +0.000 N 
ATOM     37  C27 UNL A   1      13.293  50.212   5.026  1.00  0.00    +0.000 C 
ATOM     38  C28 UNL A   1      13.314  48.978   4.472  1.00  0.00    +0.000 C 
ATOM     50  C35 UNL A   1      14.034  48.642   3.273  1.00  0.00    +0.000 C 
ATOM     51  C36 UNL A   1      14.079  47.429   2.609  1.00  0.00    +0.000 C 
ATOM     52  C37 UNL A   1      14.929  47.566   1.509  1.00  0.00    +0.000 C 
ATOM     53  C38 UNL A   1      15.377  48.876   1.462  1.00  0.00    +0.000 C 
ATOM     54  N5  UNL A   1      14.827  49.524   2.556  1.00  0.00    +0.000 N 
ATOM     55  C39 UNL A   1      16.247  49.488   0.493  1.00  0.00    +0.000 C 
ATOM     67  C46 UNL A   1      16.651  50.781   0.516  1.00  0.00    +0.000 C 
ATOM     68  N6  UNL A   1      16.322  51.780   1.422  1.00  0.00    +0.000 N 
ATOM     69  C47 UNL A   1      16.968  52.849   1.031  1.00  0.00    +0.000 C 
ATOM     70  C48 UNL A   1      16.957  54.233   1.622  1.00  0.00    +0.000 C 
ATOM     82  C55 UNL A   1      16.220  54.474   2.725  1.00  0.00    +0.000 C 
ATOM     83  C56 UNL A   1      16.087  55.766   3.393  1.00  0.00    +0.000 C 
ATOM     84  C57 UNL A   1      15.270  55.633   4.450  1.00  0.00    +0.000 C 
ATOM     85  C58 UNL A   1      14.796  54.249   4.516  1.00  0.00    +0.000 C 
ATOM     86  N7  UNL A   1      15.435  53.629   3.471  1.00  0.00    +0.000 N 
ATOM     87  C59 UNL A   1      17.808  52.640  -0.158  1.00  0.00    +0.000 C 
ATOM     88  C60 UNL A   1      17.548  51.373  -0.454  1.00  0.00    +0.000 C 
ATOM     89  C61 UNL A   1      12.535  50.559   6.207  1.00  0.00    +0.000 C 
ATOM     90  C62 UNL A   1      12.598  51.861   6.444  1.00  0.00    +0.000 C 
ATOM    117  H25 UNL A   1      13.572  46.572   2.878  1.00  0.00    +0.000 H 
ATOM    118  H26 UNL A   1      15.180  46.818   0.843  1.00  0.00    +0.000 H 
ATOM    119  H27 UNL A   1      14.977  50.469   2.789  1.00  0.00    +0.000 H 
ATOM    120  H28 UNL A   1      16.547  56.641   3.098  1.00  0.00    +0.000 H 
ATOM    121  H29 UNL A   1      15.018  56.384   5.110  1.00  0.00    +0.000 H 
ATOM    122  H30 UNL A   1      15.339  52.669   3.276  1.00  0.00    +0.000 H 
ATOM    123  H31 UNL A   1      18.436  53.303  -0.637  1.00  0.00    +0.000 H 
ATOM    124  H32 UNL A   1      17.935  50.873  -1.269  1.00  0.00    +0.000 H 
ATOM    125  H33 UNL A   1      12.015  49.883   6.788  1.00  0.00    +0.000 H 
ATOM    126  H34 UNL A   1      12.116  52.413   7.171  1.00  0.00    +0.000 H 
ENDROOT
BRANCH   34   33
ATOM     33  C24 UNL A   1      13.339  54.682   6.445  1.00  0.00    +0.000 C 
ATOM    127  H35 UNL A   1      14.841  54.332   7.892  1.00  0.00    +0.000 H 
ATOM    115  H23 UNL A   1      10.727  56.736   6.954  1.00  0.00    +0.000 H 
ATOM    116  H24 UNL A   1      11.685  55.280   5.269  1.00  0.00    +0.000 H 
ATOM     91  C63 UNL A   1      13.945  54.808   7.703  1.00  0.00    +0.000 C 
ATOM     92  C64 UNL A   1      13.344  55.575   8.701  1.00  0.00    +0.000 C 
ATOM     32  C23 UNL A   1      12.149  55.379   6.186  1.00  0.00    +0.000 C 
ATOM     30  C21 UNL A   1      12.191  56.314   8.418  1.00  0.00    +0.000 C 
ATOM     31  C22 UNL A   1      11.587  56.206   7.161  1.00  0.00    +0.000 C 
ATOM    128  H36 UNL A   1      13.751  55.597   9.648  1.00  0.00    +0.000 H 
BRANCH   30    2
ATOM      1  O1  UNL A   1      11.717  58.383   9.414  1.00  0.00    +0.000 O 
ATOM      2  C1  UNL A   1      11.540  57.167   9.439  1.00  0.00    +0.000 C 
BRANCH    2    3
ATOM      3  N1  UNL A   1      10.755  56.616  10.418  1.00  0.00    +0.000 N 
ATOM     93  H1  UNL A   1       9.952  56.147  10.094  1.00  0.00    +0.000 H 
BRANCH    3    4
ATOM      4  C2  UNL A   1      10.927  56.618  11.859  1.00  0.00    +0.000 C 
ATOM     94  H2  UNL A   1      10.066  57.067  12.307  1.00  0.00    +0.000 H 
ATOM     95  H3  UNL A   1      11.818  57.170  12.078  1.00  0.00    +0.000 H 
BRANCH    4    5
ATOM     97  H5  UNL A   1      11.289  55.341  13.474  1.00  0.00    +0.000 H 
ATOM      5  C3  UNL A   1      11.100  55.214  12.428  1.00  0.00    +0.000 C 
ATOM     96  H4  UNL A   1      10.209  54.660  12.217  1.00  0.00    +0.000 H 
BRANCH    5    6
ATOM     98  H6  UNL A   1      12.760  55.020  11.124  1.00  0.00    +0.000 H 
ATOM     99  H7  UNL A   1      11.884  53.504  11.511  1.00  0.00    +0.000 H 
ATOM      6  C4  UNL A   1      12.289  54.424  11.877  1.00  0.00    +0.000 C 
BRANCH    6    7
ATOM    100  H8  UNL A   1      12.946  53.266  13.527  1.00  0.00    +0.000 H 
ATOM    101  H9  UNL A   1      13.605  54.931  13.425  1.00  0.00    +0.000 H 
ATOM      7  C5  UNL A   1      13.357  54.031  12.902  1.00  0.00    +0.000 C 
BRANCH    7    8
ATOM    102  H10 UNL A   1      15.408  54.278  12.417  1.00  0.00    +0.000 H 
ATOM    103  H11 UNL A   1      14.462  53.243  11.303  1.00  0.00    +0.000 H 
ATOM      8  C6  UNL A   1      14.672  53.507  12.319  1.00  0.00    +0.000 C 
BRANCH    8    9
ATOM      9  C7  UNL A   1      15.219  52.246  12.981  1.00  0.00    +0.000 C 
ATOM    105  H13 UNL A   1      15.976  52.543  13.678  1.00  0.00    +0.000 H 
ATOM    104  H12 UNL A   1      14.416  51.738  13.471  1.00  0.00    +0.000 H 
BRANCH    9   10
ATOM     10  N2  UNL A   1      15.828  51.344  12.022  1.00  0.00    +0.000 N 
ATOM    106  H14 UNL A   1      16.581  50.805  12.358  1.00  0.00    +0.000 H 
BRANCH   10   11
ATOM     11  C8  UNL A   1      15.489  51.148  10.707  1.00  0.00    +0.000 C 
ATOM     12  O2  UNL A   1      16.235  51.527   9.807  1.00  0.00    +0.000 O 
BRANCH   11   13
ATOM    107  H15 UNL A   1      13.085  52.153  10.356  1.00  0.00    +0.000 H 
ATOM    108  H16 UNL A   1      11.029  51.022   9.729  1.00  0.00    +0.000 H 
ATOM     13  C9  UNL A   1      14.263  50.399  10.368  1.00  0.00    +0.000 C 
ATOM     14  C10 UNL A   1      13.081  51.131  10.209  1.00  0.00    +0.000 C 
ATOM     15  C11 UNL A   1      11.899  50.480   9.851  1.00  0.00    +0.000 C 
ATOM     16  C12 UNL A   1      11.890  49.092   9.659  1.00  0.00    +0.000 C 
ATOM    113  H21 UNL A   1      13.068  47.335   9.731  1.00  0.00    +0.000 H 
ATOM     27  C19 UNL A   1      13.071  48.360   9.856  1.00  0.00    +0.000 C 
ATOM     28  C20 UNL A   1      14.250  49.009  10.220  1.00  0.00    +0.000 C 
BRANCH   16   17
ATOM    109  H17 UNL A   1      10.754  46.785  10.704  1.00  0.00    +0.000 H 
ATOM    110  H18 UNL A   1       8.911  45.578   9.863  1.00  0.00    +0.000 H 
ATOM    112  H20 UNL A   1      10.248  49.738   7.765  1.00  0.00    +0.000 H 
ATOM     17  C13 UNL A   1      10.667  48.376   9.251  1.00  0.00    +0.000 C 
ATOM     18  C14 UNL A   1      10.240  47.142   9.883  1.00  0.00    +0.000 C 
ATOM     19  C15 UNL A   1       9.189  46.463   9.410  1.00  0.00    +0.000 C 
ATOM     20  N3  UNL A   1       8.471  46.928   8.325  1.00  0.00    +0.000 N 
ATOM     24  C17 UNL A   1       8.779  48.116   7.682  1.00  0.00    +0.000 C 
ATOM     25  O3  UNL A   1       8.178  48.588   6.723  1.00  0.00    +0.000 O 
ATOM     26  C18 UNL A   1       9.963  48.851   8.208  1.00  0.00    +0.000 C 
BRANCH   20   21
ATOM     21  C16 UNL A   1       7.370  46.165   7.798  1.00  0.00    +0.000 C 
ATOM     22  F1  UNL A   1       7.799  45.216   6.932  1.00  0.00    +0.000 F 
ATOM    111  H19 UNL A   1       6.730  46.855   7.288  1.00  0.00    +0.000 H 
ATOM     23  F2  UNL A   1       6.688  45.549   8.795  1.00  0.00    +0.000 F 
ENDBRANCH   20   21
ENDBRANCH   16   17
BRANCH   28   29
ATOM    114  H22 UNL A   1      15.569  47.909  11.258  1.00  0.00    +0.000 H 
ATOM     29  O4  UNL A   1      15.389  48.277  10.416  1.00  0.00    +0.000 O 
ENDBRANCH   28   29
ENDBRANCH   11   13
ENDBRANCH   10   11
ENDBRANCH    9   10
ENDBRANCH    8    9
ENDBRANCH    7    8
ENDBRANCH    6    7
ENDBRANCH    5    6
ENDBRANCH    4    5
ENDBRANCH    3    4
ENDBRANCH    2    3
ENDBRANCH   30    2
ENDBRANCH   34   33
BRANCH   38   39
ATOM     39  C29 UNL A   1      12.512  47.894   5.129  1.00  0.00    +0.000 C 
ATOM     40  C30 UNL A   1      11.312  47.435   4.568  1.00  0.00    +0.000 C 
ATOM     41  F3  UNL A   1      10.805  48.029   3.477  1.00  0.00    +0.000 F 
ATOM     42  C31 UNL A   1      10.618  46.370   5.136  1.00  0.00    +0.000 C 
ATOM     43  F4  UNL A   1       9.459  45.964   4.598  1.00  0.00    +0.000 F 
ATOM     44  C32 UNL A   1      11.122  45.729   6.257  1.00  0.00    +0.000 C 
ATOM     45  F5  UNL A   1      10.465  44.689   6.789  1.00  0.00    +0.000 F 
ATOM     46  C33 UNL A   1      12.310  46.164   6.827  1.00  0.00    +0.000 C 
ATOM     47  F6  UNL A   1      12.807  45.536   7.901  1.00  0.00    +0.000 F 
ATOM     48  C34 UNL A   1      12.993  47.246   6.277  1.00  0.00    +0.000 C 
ATOM     49  F7  UNL A   1      14.140  47.643   6.848  1.00  0.00    +0.000 F 
ENDBRANCH   38   39
BRANCH   55   56
ATOM     65  C45 UNL A   1      15.904  48.348  -1.726  1.00  0.00    +0.000 C 
ATOM     66  F12 UNL A   1      14.704  48.938  -1.828  1.00  0.00    +0.000 F 
ATOM     56  C40 UNL A   1      16.735  48.618  -0.628  1.00  0.00    +0.000 C 
ATOM     57  C41 UNL A   1      17.975  47.969  -0.561  1.00  0.00    +0.000 C 
ATOM     58  F8  UNL A   1      18.806  48.206   0.464  1.00  0.00    +0.000 F 
ATOM     59  C42 UNL A   1      18.368  47.079  -1.557  1.00  0.00    +0.000 C 
ATOM     60  F9  UNL A   1      19.565  46.483  -1.484  1.00  0.00    +0.000 F 
ATOM     61  C43 UNL A   1      17.521  46.805  -2.621  1.00  0.00    +0.000 C 
ATOM     62  F10 UNL A   1      17.890  45.929  -3.564  1.00  0.00    +0.000 F 
ATOM     63  C44 UNL A   1      16.289  47.438  -2.706  1.00  0.00    +0.000 C 
ATOM     64  F11 UNL A   1      15.463  47.161  -3.724  1.00  0.00    +0.000 F 
ENDBRANCH   55   56
BRANCH   70   71
ATOM     71  C49 UNL A   1      17.715  55.341   0.984  1.00  0.00    +0.000 C 
ATOM     72  C50 UNL A   1      18.994  55.694   1.439  1.00  0.00    +0.000 C 
ATOM     73  F13 UNL A   1      19.537  55.042   2.479  1.00  0.00    +0.000 F 
ATOM     74  C51 UNL A   1      19.707  56.737   0.852  1.00  0.00    +0.000 C 
ATOM     75  F14 UNL A   1      20.910  57.077   1.332  1.00  0.00    +0.000 F 
ATOM     76  C52 UNL A   1      19.167  57.431  -0.220  1.00  0.00    +0.000 C 
ATOM     77  F15 UNL A   1      19.856  58.429  -0.790  1.00  0.00    +0.000 F 
ATOM     78  C53 UNL A   1      17.909  57.093  -0.697  1.00  0.00    +0.000 C 
ATOM     79  F16 UNL A   1      17.390  57.752  -1.741  1.00  0.00    +0.000 F 
ATOM     80  C54 UNL A   1      17.185  56.067  -0.093  1.00  0.00    +0.000 C 
ATOM     81  F17 UNL A   1      15.967  55.769  -0.568  1.00  0.00    +0.000 F 
ENDBRANCH   70   71
TORSDOF 18
ENDMDL
MODEL 7
REMARK VINA RESULT:     -11.0     32.132     39.360
ROOT
ATOM     34  C25 UNL A   1      46.506  50.674  18.030  1.00  0.00    +0.000 C 
ATOM     35  C26 UNL A   1      47.477  50.304  19.119  1.00  0.00    +0.000 C 
ATOM     36  N4  UNL A   1      48.504  50.977  19.575  1.00  0.00    +0.000 N 
ATOM     37  C27 UNL A   1      49.042  50.202  20.593  1.00  0.00    +0.000 C 
ATOM     38  C28 UNL A   1      50.158  50.425  21.325  1.00  0.00    +0.000 C 
ATOM     50  C35 UNL A   1      51.019  51.565  21.159  1.00  0.00    +0.000 C 
ATOM     51  C36 UNL A   1      52.198  51.855  21.822  1.00  0.00    +0.000 C 
ATOM     52  C37 UNL A   1      52.673  53.081  21.351  1.00  0.00    +0.000 C 
ATOM     53  C38 UNL A   1      51.814  53.532  20.361  1.00  0.00    +0.000 C 
ATOM     54  N5  UNL A   1      50.799  52.596  20.259  1.00  0.00    +0.000 N 
ATOM     55  C39 UNL A   1      51.912  54.731  19.572  1.00  0.00    +0.000 C 
ATOM     67  C46 UNL A   1      51.025  55.113  18.622  1.00  0.00    +0.000 C 
ATOM     68  N6  UNL A   1      49.880  54.461  18.189  1.00  0.00    +0.000 N 
ATOM     69  C47 UNL A   1      49.353  55.229  17.268  1.00  0.00    +0.000 C 
ATOM     70  C48 UNL A   1      48.120  55.002  16.434  1.00  0.00    +0.000 C 
ATOM     82  C55 UNL A   1      47.392  53.884  16.625  1.00  0.00    +0.000 C 
ATOM     83  C56 UNL A   1      46.193  53.513  15.877  1.00  0.00    +0.000 C 
ATOM     84  C57 UNL A   1      45.738  52.334  16.332  1.00  0.00    +0.000 C 
ATOM     85  C58 UNL A   1      46.632  51.850  17.385  1.00  0.00    +0.000 C 
ATOM     86  N7  UNL A   1      47.567  52.849  17.512  1.00  0.00    +0.000 N 
ATOM     87  C59 UNL A   1      50.095  56.476  17.032  1.00  0.00    +0.000 C 
ATOM     88  C60 UNL A   1      51.127  56.337  17.856  1.00  0.00    +0.000 C 
ATOM     89  C61 UNL A   1      48.200  49.035  20.732  1.00  0.00    +0.000 C 
ATOM     90  C62 UNL A   1      47.257  49.018  19.801  1.00  0.00    +0.000 C 
ATOM    117  H25 UNL A   1      52.649  51.268  22.541  1.00  0.00    +0.000 H 
ATOM    118  H26 UNL A   1      53.520  53.569  21.683  1.00  0.00    +0.000 H 
ATOM    119  H27 UNL A   1      50.035  52.654  19.641  1.00  0.00    +0.000 H 
ATOM    120  H28 UNL A   1      45.766  54.067  15.119  1.00  0.00    +0.000 H 
ATOM    121  H29 UNL A   1      44.894  51.848  15.993  1.00  0.00    +0.000 H 
ATOM    122  H30 UNL A   1      48.293  52.824  18.175  1.00  0.00    +0.000 H 
ATOM    123  H31 UNL A   1      49.874  57.256  16.395  1.00  0.00    +0.000 H 
ATOM    124  H32 UNL A   1      51.901  57.014  17.940  1.00  0.00    +0.000 H 
ATOM    125  H33 UNL A   1      48.318  48.311  21.459  1.00  0.00    +0.000 H 
ATOM    126  H34 UNL A   1      46.552  48.291  19.605  1.00  0.00    +0.000 H 
ENDROOT
BRANCH   34   33
ATOM     33  C24 UNL A   1      45.406  49.743  17.668  1.00  0.00    +0.000 C 
ATOM    127  H35 UNL A   1      46.643  48.370  16.640  1.00  0.00    +0.000 H 
ATOM    115  H23 UNL A   1      42.080  49.355  17.981  1.00  0.00    +0.000 H 
ATOM    116  H24 UNL A   1      43.874  50.863  18.604  1.00  0.00    +0.000 H 
ATOM     91  C63 UNL A   1      45.670  48.605  16.891  1.00  0.00    +0.000 C 
ATOM     92  C64 UNL A   1      44.625  47.789  16.459  1.00  0.00    +0.000 C 
ATOM     32  C23 UNL A   1      44.083  50.019  18.047  1.00  0.00    +0.000 C 
ATOM     30  C21 UNL A   1      43.318  48.037  16.889  1.00  0.00    +0.000 C 
ATOM     31  C22 UNL A   1      43.047  49.160  17.676  1.00  0.00    +0.000 C 
ATOM    128  H36 UNL A   1      44.817  47.002  15.820  1.00  0.00    +0.000 H 
BRANCH   30    2
ATOM      1  O1  UNL A   1      41.227  47.672  15.893  1.00  0.00    +0.000 O 
ATOM      2  C1  UNL A   1      42.185  47.174  16.479  1.00  0.00    +0.000 C 
BRANCH    2    3
ATOM      3  N1  UNL A   1      42.188  45.833  16.758  1.00  0.00    +0.000 N 
ATOM     93  H1  UNL A   1      42.482  45.253  16.018  1.00  0.00    +0.000 H 
BRANCH    3    4
ATOM      4  C2  UNL A   1      41.821  45.136  17.977  1.00  0.00    +0.000 C 
ATOM     94  H2  UNL A   1      40.947  44.550  17.788  1.00  0.00    +0.000 H 
ATOM     95  H3  UNL A   1      41.644  45.874  18.732  1.00  0.00    +0.000 H 
BRANCH    4    5
ATOM     97  H5  UNL A   1      42.719  43.250  18.069  1.00  0.00    +0.000 H 
ATOM      5  C3  UNL A   1      42.928  44.216  18.479  1.00  0.00    +0.000 C 
ATOM     96  H4  UNL A   1      43.866  44.624  18.161  1.00  0.00    +0.000 H 
BRANCH    5    6
ATOM     98  H6  UNL A   1      42.213  44.623  20.433  1.00  0.00    +0.000 H 
ATOM     99  H7  UNL A   1      43.974  44.316  20.290  1.00  0.00    +0.000 H 
ATOM      6  C4  UNL A   1      42.986  44.026  19.997  1.00  0.00    +0.000 C 
BRANCH    6    7
ATOM    100  H8  UNL A   1      43.777  42.141  20.558  1.00  0.00    +0.000 H 
ATOM    101  H9  UNL A   1      42.157  42.115  19.788  1.00  0.00    +0.000 H 
ATOM      7  C5  UNL A   1      42.808  42.589  20.493  1.00  0.00    +0.000 C 
BRANCH    7    8
ATOM    102  H10 UNL A   1      42.626  41.657  22.391  1.00  0.00    +0.000 H 
ATOM    103  H11 UNL A   1      41.098  42.230  21.654  1.00  0.00    +0.000 H 
ATOM      8  C6  UNL A   1      42.128  42.439  21.857  1.00  0.00    +0.000 C 
BRANCH    8    9
ATOM      9  C7  UNL A   1      42.142  43.690  22.730  1.00  0.00    +0.000 C 
ATOM    105  H13 UNL A   1      42.506  44.502  22.135  1.00  0.00    +0.000 H 
ATOM    104  H12 UNL A   1      41.148  43.878  23.079  1.00  0.00    +0.000 H 
BRANCH    9   10
ATOM     10  N2  UNL A   1      43.021  43.549  23.875  1.00  0.00    +0.000 N 
ATOM    106  H14 UNL A   1      42.703  42.951  24.590  1.00  0.00    +0.000 H 
BRANCH   10   11
ATOM     11  C8  UNL A   1      44.238  44.146  24.089  1.00  0.00    +0.000 C 
ATOM     12  O2  UNL A   1      44.616  44.401  25.230  1.00  0.00    +0.000 O 
BRANCH   11   13
ATOM    107  H15 UNL A   1      44.560  46.433  22.832  1.00  0.00    +0.000 H 
ATOM    108  H16 UNL A   1      46.063  46.978  21.005  1.00  0.00    +0.000 H 
ATOM     13  C9  UNL A   1      45.140  44.405  22.950  1.00  0.00    +0.000 C 
ATOM     14  C10 UNL A   1      45.173  45.705  22.434  1.00  0.00    +0.000 C 
ATOM     15  C11 UNL A   1      46.036  46.017  21.381  1.00  0.00    +0.000 C 
ATOM     16  C12 UNL A   1      46.863  45.028  20.832  1.00  0.00    +0.000 C 
ATOM    113  H21 UNL A   1      47.394  42.981  20.922  1.00  0.00    +0.000 H 
ATOM     27  C19 UNL A   1      46.798  43.718  21.332  1.00  0.00    +0.000 C 
ATOM     28  C20 UNL A   1      45.932  43.405  22.379  1.00  0.00    +0.000 C 
BRANCH   16   17
ATOM    109  H17 UNL A   1      49.580  45.586  20.944  1.00  0.00    +0.000 H 
ATOM    110  H18 UNL A   1      50.985  46.267  19.176  1.00  0.00    +0.000 H 
ATOM    112  H20 UNL A   1      46.356  45.128  18.296  1.00  0.00    +0.000 H 
ATOM     17  C13 UNL A   1      47.809  45.329  19.741  1.00  0.00    +0.000 C 
ATOM     18  C14 UNL A   1      49.202  45.649  19.985  1.00  0.00    +0.000 C 
ATOM     19  C15 UNL A   1      50.000  46.026  18.981  1.00  0.00    +0.000 C 
ATOM     20  N3  UNL A   1      49.526  46.099  17.685  1.00  0.00    +0.000 N 
ATOM     24  C17 UNL A   1      48.222  45.774  17.349  1.00  0.00    +0.000 C 
ATOM     25  O3  UNL A   1      47.743  45.809  16.220  1.00  0.00    +0.000 O 
ATOM     26  C18 UNL A   1      47.341  45.374  18.481  1.00  0.00    +0.000 C 
BRANCH   20   21
ATOM     21  C16 UNL A   1      50.383  46.551  16.618  1.00  0.00    +0.000 C 
ATOM     22  F1  UNL A   1      51.341  47.390  17.079  1.00  0.00    +0.000 F 
ATOM    111  H19 UNL A   1      49.761  47.065  15.916  1.00  0.00    +0.000 H 
ATOM     23  F2  UNL A   1      50.996  45.502  16.016  1.00  0.00    +0.000 F 
ENDBRANCH   20   21
ENDBRANCH   16   17
BRANCH   28   29
ATOM    114  H22 UNL A   1      45.167  41.852  23.394  1.00  0.00    +0.000 H 
ATOM     29  O4  UNL A   1      45.876  42.120  22.845  1.00  0.00    +0.000 O 
ENDBRANCH   28   29
ENDBRANCH   11   13
ENDBRANCH   10   11
ENDBRANCH    9   10
ENDBRANCH    8    9
ENDBRANCH    7    8
ENDBRANCH    6    7
ENDBRANCH    5    6
ENDBRANCH    4    5
ENDBRANCH    3    4
ENDBRANCH    2    3
ENDBRANCH   30    2
ENDBRANCH   34   33
BRANCH   38   39
ATOM     39  C29 UNL A   1      50.542  49.407  22.357  1.00  0.00    +0.000 C 
ATOM     40  C30 UNL A   1      51.378  48.327  22.038  1.00  0.00    +0.000 C 
ATOM     41  F3  UNL A   1      51.774  48.130  20.771  1.00  0.00    +0.000 F 
ATOM     42  C31 UNL A   1      51.801  47.435  23.020  1.00  0.00    +0.000 C 
ATOM     43  F4  UNL A   1      52.580  46.396  22.688  1.00  0.00    +0.000 F 
ATOM     44  C32 UNL A   1      51.419  47.619  24.340  1.00  0.00    +0.000 C 
ATOM     45  F5  UNL A   1      51.845  46.773  25.287  1.00  0.00    +0.000 F 
ATOM     46  C33 UNL A   1      50.594  48.682  24.678  1.00  0.00    +0.000 C 
ATOM     47  F6  UNL A   1      50.236  48.872  25.956  1.00  0.00    +0.000 F 
ATOM     48  C34 UNL A   1      50.148  49.561  23.694  1.00  0.00    +0.000 C 
ATOM     49  F7  UNL A   1      49.354  50.581  24.052  1.00  0.00    +0.000 F 
ENDBRANCH   38   39
BRANCH   55   56
ATOM     65  C45 UNL A   1      52.997  56.684  20.736  1.00  0.00    +0.000 C 
ATOM     66  F12 UNL A   1      51.876  56.861  21.451  1.00  0.00    +0.000 F 
ATOM     56  C40 UNL A   1      53.095  55.618  19.828  1.00  0.00    +0.000 C 
ATOM     57  C41 UNL A   1      54.283  55.482  19.097  1.00  0.00    +0.000 C 
ATOM     58  F8  UNL A   1      54.426  54.472  18.225  1.00  0.00    +0.000 F 
ATOM     59  C42 UNL A   1      55.333  56.379  19.268  1.00  0.00    +0.000 C 
ATOM     60  F9  UNL A   1      56.467  56.219  18.573  1.00  0.00    +0.000 F 
ATOM     61  C43 UNL A   1      55.205  57.441  20.151  1.00  0.00    +0.000 C 
ATOM     62  F10 UNL A   1      56.207  58.319  20.294  1.00  0.00    +0.000 F 
ATOM     63  C44 UNL A   1      54.038  57.594  20.885  1.00  0.00    +0.000 C 
ATOM     64  F11 UNL A   1      53.907  58.629  21.726  1.00  0.00    +0.000 F 
ENDBRANCH   55   56
BRANCH   70   71
ATOM     71  C49 UNL A   1      47.723  55.973  15.382  1.00  0.00    +0.000 C 
ATOM     72  C50 UNL A   1      47.010  57.136  15.708  1.00  0.00    +0.000 C 
ATOM     73  F13 UNL A   1      46.660  57.370  16.982  1.00  0.00    +0.000 F 
ATOM     74  C51 UNL A   1      46.626  58.046  14.726  1.00  0.00    +0.000 C 
ATOM     75  F14 UNL A   1      45.913  59.129  15.062  1.00  0.00    +0.000 F 
ATOM     76  C52 UNL A   1      46.969  57.826  13.401  1.00  0.00    +0.000 C 
ATOM     77  F15 UNL A   1      46.606  58.704  12.457  1.00  0.00    +0.000 F 
ATOM     78  C53 UNL A   1      47.685  56.689  13.055  1.00  0.00    +0.000 C 
ATOM     79  F16 UNL A   1      48.030  56.479  11.777  1.00  0.00    +0.000 F 
ATOM     80  C54 UNL A   1      48.046  55.765  14.033  1.00  0.00    +0.000 C 
ATOM     81  F17 UNL A   1      48.728  54.670  13.667  1.00  0.00    +0.000 F 
ENDBRANCH   70   71
TORSDOF 18
ENDMDL
MODEL 8
REMARK VINA RESULT:     -11.0     46.238     50.517
ROOT
ATOM     34  C25 UNL A   1      27.211 -13.558  35.636  1.00  0.00    +0.000 C 
ATOM     35  C26 UNL A   1      28.069 -13.754  34.415  1.00  0.00    +0.000 C 
ATOM     36  N4  UNL A   1      27.873 -13.336  33.190  1.00  0.00    +0.000 N 
ATOM     37  C27 UNL A   1      28.975 -13.765  32.463  1.00  0.00    +0.000 C 
ATOM     38  C28 UNL A   1      29.208 -13.648  31.135  1.00  0.00    +0.000 C 
ATOM     50  C35 UNL A   1      28.302 -13.028  30.206  1.00  0.00    +0.000 C 
ATOM     51  C36 UNL A   1      28.430 -12.903  28.835  1.00  0.00    +0.000 C 
ATOM     52  C37 UNL A   1      27.319 -12.204  28.355  1.00  0.00    +0.000 C 
ATOM     53  C38 UNL A   1      26.477 -11.935  29.423  1.00  0.00    +0.000 C 
ATOM     54  N5  UNL A   1      27.097 -12.439  30.554  1.00  0.00    +0.000 N 
ATOM     55  C39 UNL A   1      25.205 -11.263  29.409  1.00  0.00    +0.000 C 
ATOM     67  C46 UNL A   1      24.437 -11.028  30.500  1.00  0.00    +0.000 C 
ATOM     68  N6  UNL A   1      24.671 -11.379  31.821  1.00  0.00    +0.000 N 
ATOM     69  C47 UNL A   1      23.651 -10.922  32.503  1.00  0.00    +0.000 C 
ATOM     70  C48 UNL A   1      23.363 -11.045  33.976  1.00  0.00    +0.000 C 
ATOM     82  C55 UNL A   1      24.247 -11.680  34.770  1.00  0.00    +0.000 C 
ATOM     83  C56 UNL A   1      24.092 -11.902  36.206  1.00  0.00    +0.000 C 
ATOM     84  C57 UNL A   1      25.161 -12.574  36.665  1.00  0.00    +0.000 C 
ATOM     85  C58 UNL A   1      26.063 -12.857  35.548  1.00  0.00    +0.000 C 
ATOM     86  N7  UNL A   1      25.454 -12.263  34.470  1.00  0.00    +0.000 N 
ATOM     87  C59 UNL A   1      22.663 -10.199  31.689  1.00  0.00    +0.000 C 
ATOM     88  C60 UNL A   1      23.171 -10.326  30.470  1.00  0.00    +0.000 C 
ATOM     89  C61 UNL A   1      29.867 -14.426  33.389  1.00  0.00    +0.000 C 
ATOM     90  C62 UNL A   1      29.324 -14.504  34.595  1.00  0.00    +0.000 C 
ATOM    117  H25 UNL A   1      29.210 -13.262  28.263  1.00  0.00    +0.000 H 
ATOM    118  H26 UNL A   1      27.153 -11.934  27.373  1.00  0.00    +0.000 H 
ATOM    119  H27 UNL A   1      26.735 -12.386  31.469  1.00  0.00    +0.000 H 
ATOM    120  H28 UNL A   1      23.289 -11.594  36.775  1.00  0.00    +0.000 H 
ATOM    121  H29 UNL A   1      25.320 -12.845  37.647  1.00  0.00    +0.000 H 
ATOM    122  H30 UNL A   1      25.846 -12.256  33.567  1.00  0.00    +0.000 H 
ATOM    123  H31 UNL A   1      21.800  -9.718  31.987  1.00  0.00    +0.000 H 
ATOM    124  H32 UNL A   1      22.722  -9.971  29.612  1.00  0.00    +0.000 H 
ATOM    125  H33 UNL A   1      30.802 -14.788  33.143  1.00  0.00    +0.000 H 
ATOM    126  H34 UNL A   1      29.687 -14.970  35.441  1.00  0.00    +0.000 H 
ENDROOT
BRANCH   34   33
ATOM     33  C24 UNL A   1      27.630 -14.134  36.940  1.00  0.00    +0.000 C 
ATOM    127  H35 UNL A   1      26.954 -16.092  36.514  1.00  0.00    +0.000 H 
ATOM    115  H23 UNL A   1      29.076 -13.273  39.851  1.00  0.00    +0.000 H 
ATOM    116  H24 UNL A   1      28.425 -12.332  37.713  1.00  0.00    +0.000 H 
ATOM     91  C63 UNL A   1      27.367 -15.479  37.235  1.00  0.00    +0.000 C 
ATOM     92  C64 UNL A   1      27.661 -15.994  38.497  1.00  0.00    +0.000 C 
ATOM     32  C23 UNL A   1      28.241 -13.328  37.913  1.00  0.00    +0.000 C 
ATOM     30  C21 UNL A   1      28.323 -15.203  39.441  1.00  0.00    +0.000 C 
ATOM     31  C22 UNL A   1      28.603 -13.864  39.151  1.00  0.00    +0.000 C 
ATOM    128  H36 UNL A   1      27.389 -16.961  38.735  1.00  0.00    +0.000 H 
BRANCH   30    2
ATOM      1  O1  UNL A   1      28.863 -16.929  40.934  1.00  0.00    +0.000 O 
ATOM      2  C1  UNL A   1      28.682 -15.723  40.781  1.00  0.00    +0.000 C 
BRANCH    2    3
ATOM      3  N1  UNL A   1      28.805 -14.877  41.852  1.00  0.00    +0.000 N 
ATOM     93  H1  UNL A   1      29.667 -14.406  41.916  1.00  0.00    +0.000 H 
BRANCH    3    4
ATOM      4  C2  UNL A   1      27.856 -14.571  42.907  1.00  0.00    +0.000 C 
ATOM     94  H2  UNL A   1      28.341 -13.961  43.639  1.00  0.00    +0.000 H 
ATOM     95  H3  UNL A   1      27.525 -15.499  43.325  1.00  0.00    +0.000 H 
BRANCH    4    5
ATOM     97  H5  UNL A   1      26.475 -13.008  43.057  1.00  0.00    +0.000 H 
ATOM      5  C3  UNL A   1      26.627 -13.831  42.390  1.00  0.00    +0.000 C 
ATOM     96  H4  UNL A   1      26.820 -13.535  41.380  1.00  0.00    +0.000 H 
BRANCH    5    6
ATOM     98  H6  UNL A   1      24.535 -13.975  42.703  1.00  0.00    +0.000 H 
ATOM     99  H7  UNL A   1      25.488 -15.445  43.083  1.00  0.00    +0.000 H 
ATOM      6  C4  UNL A   1      25.323 -14.633  42.405  1.00  0.00    +0.000 C 
BRANCH    6    7
ATOM    100  H8  UNL A   1      23.995 -15.785  41.221  1.00  0.00    +0.000 H 
ATOM    101  H9  UNL A   1      25.734 -15.920  40.806  1.00  0.00    +0.000 H 
ATOM      7  C5  UNL A   1      24.923 -15.275  41.074  1.00  0.00    +0.000 C 
BRANCH    7    8
ATOM    102  H10 UNL A   1      25.095 -14.799  39.013  1.00  0.00    +0.000 H 
ATOM    103  H11 UNL A   1      25.311 -13.433  40.151  1.00  0.00    +0.000 H 
ATOM      8  C6  UNL A   1      24.749 -14.309  39.900  1.00  0.00    +0.000 C 
BRANCH    8    9
ATOM      9  C7  UNL A   1      23.320 -13.838  39.652  1.00  0.00    +0.000 C 
ATOM    105  H13 UNL A   1      23.074 -13.123  40.410  1.00  0.00    +0.000 H 
ATOM    104  H12 UNL A   1      23.263 -13.406  38.675  1.00  0.00    +0.000 H 
BRANCH    9   10
ATOM     10  N2  UNL A   1      22.362 -14.925  39.740  1.00  0.00    +0.000 N 
ATOM    106  H14 UNL A   1      21.921 -15.040  40.613  1.00  0.00    +0.000 H 
BRANCH   10   11
ATOM     11  C8  UNL A   1      21.995 -15.814  38.760  1.00  0.00    +0.000 C 
ATOM     12  O2  UNL A   1      21.226 -16.738  39.013  1.00  0.00    +0.000 O 
BRANCH   11   13
ATOM    107  H15 UNL A   1      24.204 -16.754  37.687  1.00  0.00    +0.000 H 
ATOM    108  H16 UNL A   1      25.011 -16.537  35.408  1.00  0.00    +0.000 H 
ATOM     13  C9  UNL A   1      22.456 -15.609  37.373  1.00  0.00    +0.000 C 
ATOM     14  C10 UNL A   1      23.660 -16.214  36.996  1.00  0.00    +0.000 C 
ATOM     15  C11 UNL A   1      24.125 -16.087  35.686  1.00  0.00    +0.000 C 
ATOM     16  C12 UNL A   1      23.393 -15.347  34.747  1.00  0.00    +0.000 C 
ATOM    113  H21 UNL A   1      21.668 -14.154  34.460  1.00  0.00    +0.000 H 
ATOM     27  C19 UNL A   1      22.204 -14.713  35.143  1.00  0.00    +0.000 C 
ATOM     28  C20 UNL A   1      21.744 -14.835  36.453  1.00  0.00    +0.000 C 
BRANCH   16   17
ATOM    109  H17 UNL A   1      22.048 -14.319  32.547  1.00  0.00    +0.000 H 
ATOM    110  H18 UNL A   1      22.745 -14.339  30.295  1.00  0.00    +0.000 H 
ATOM    112  H20 UNL A   1      25.689 -16.019  33.759  1.00  0.00    +0.000 H 
ATOM     17  C13 UNL A   1      23.838 -15.217  33.347  1.00  0.00    +0.000 C 
ATOM     18  C14 UNL A   1      22.978 -14.695  32.302  1.00  0.00    +0.000 C 
ATOM     19  C15 UNL A   1      23.377 -14.698  31.026  1.00  0.00    +0.000 C 
ATOM     20  N3  UNL A   1      24.624 -15.177  30.673  1.00  0.00    +0.000 N 
ATOM     24  C17 UNL A   1      25.530 -15.658  31.605  1.00  0.00    +0.000 C 
ATOM     25  O3  UNL A   1      26.652 -16.086  31.359  1.00  0.00    +0.000 O 
ATOM     26  C18 UNL A   1      25.063 -15.665  33.019  1.00  0.00    +0.000 C 
BRANCH   20   21
ATOM     21  C16 UNL A   1      25.026 -15.217  29.290  1.00  0.00    +0.000 C 
ATOM     22  F1  UNL A   1      25.606 -16.402  28.981  1.00  0.00    +0.000 F 
ATOM    111  H19 UNL A   1      25.729 -14.424  29.148  1.00  0.00    +0.000 H 
ATOM     23  F2  UNL A   1      23.958 -15.045  28.473  1.00  0.00    +0.000 F 
ENDBRANCH   20   21
ENDBRANCH   16   17
BRANCH   28   29
ATOM    114  H22 UNL A   1      20.595 -13.588  37.527  1.00  0.00    +0.000 H 
ATOM     29  O4  UNL A   1      20.588 -14.203  36.821  1.00  0.00    +0.000 O 
ENDBRANCH   28   29
ENDBRANCH   11   13
ENDBRANCH   10   11
ENDBRANCH    9   10
ENDBRANCH    8    9
ENDBRANCH    7    8
ENDBRANCH    6    7
ENDBRANCH    5    6
ENDBRANCH    4    5
ENDBRANCH    3    4
ENDBRANCH    2    3
ENDBRANCH   30    2
ENDBRANCH   34   33
BRANCH   38   39
ATOM     39  C29 UNL A   1      30.478 -14.227  30.587  1.00  0.00    +0.000 C 
ATOM     40  C30 UNL A   1      30.597 -15.599  30.320  1.00  0.00    +0.000 C 
ATOM     41  F3  UNL A   1      29.602 -16.439  30.643  1.00  0.00    +0.000 F 
ATOM     42  C31 UNL A   1      31.747 -16.116  29.730  1.00  0.00    +0.000 C 
ATOM     43  F4  UNL A   1      31.849 -17.433  29.507  1.00  0.00    +0.000 F 
ATOM     44  C32 UNL A   1      32.788 -15.271  29.373  1.00  0.00    +0.000 C 
ATOM     45  F5  UNL A   1      33.884 -15.768  28.785  1.00  0.00    +0.000 F 
ATOM     46  C33 UNL A   1      32.690 -13.911  29.626  1.00  0.00    +0.000 C 
ATOM     47  F6  UNL A   1      33.687 -13.090  29.267  1.00  0.00    +0.000 F 
ATOM     48  C34 UNL A   1      31.552 -13.393  30.239  1.00  0.00    +0.000 C 
ATOM     49  F7  UNL A   1      31.485 -12.074  30.468  1.00  0.00    +0.000 F 
ENDBRANCH   38   39
BRANCH   55   56
ATOM     65  C45 UNL A   1      23.702 -11.520  27.404  1.00  0.00    +0.000 C 
ATOM     66  F12 UNL A   1      23.131 -12.585  27.986  1.00  0.00    +0.000 F 
ATOM     56  C40 UNL A   1      24.698 -10.794  28.077  1.00  0.00    +0.000 C 
ATOM     57  C41 UNL A   1      25.271  -9.697  27.421  1.00  0.00    +0.000 C 
ATOM     58  F8  UNL A   1      26.218  -8.967  28.031  1.00  0.00    +0.000 F 
ATOM     59  C42 UNL A   1      24.865  -9.339  26.139  1.00  0.00    +0.000 C 
ATOM     60  F9  UNL A   1      25.412  -8.275  25.538  1.00  0.00    +0.000 F 
ATOM     61  C43 UNL A   1      23.898 -10.086  25.481  1.00  0.00    +0.000 C 
ATOM     62  F10 UNL A   1      23.528  -9.756  24.236  1.00  0.00    +0.000 F 
ATOM     63  C44 UNL A   1      23.318 -11.176  26.112  1.00  0.00    +0.000 C 
ATOM     64  F11 UNL A   1      22.396 -11.909  25.471  1.00  0.00    +0.000 F 
ENDBRANCH   55   56
BRANCH   70   71
ATOM     71  C49 UNL A   1      22.102 -10.509  34.552  1.00  0.00    +0.000 C 
ATOM     72  C50 UNL A   1      22.089  -9.294  35.252  1.00  0.00    +0.000 C 
ATOM     73  F13 UNL A   1      23.231  -8.611  35.426  1.00  0.00    +0.000 F 
ATOM     74  C51 UNL A   1      20.913  -8.791  35.803  1.00  0.00    +0.000 C 
ATOM     75  F14 UNL A   1      20.938  -7.647  36.499  1.00  0.00    +0.000 F 
ATOM     76  C52 UNL A   1      19.720  -9.479  35.644  1.00  0.00    +0.000 C 
ATOM     77  F15 UNL A   1      18.587  -8.992  36.167  1.00  0.00    +0.000 F 
ATOM     78  C53 UNL A   1      19.704 -10.677  34.945  1.00  0.00    +0.000 C 
ATOM     79  F16 UNL A   1      18.551 -11.338  34.776  1.00  0.00    +0.000 F 
ATOM     80  C54 UNL A   1      20.885 -11.194  34.416  1.00  0.00    +0.000 C 
ATOM     81  F17 UNL A   1      20.841 -12.360  33.754  1.00  0.00    +0.000 F 
ENDBRANCH   70   71
TORSDOF 18
ENDMDL
MODEL 9
REMARK VINA RESULT:     -11.0     38.803     48.498
ROOT
ATOM     34  C25 UNL A   1      22.439   8.798   7.666  1.00  0.00    +0.000 C 
ATOM     35  C26 UNL A   1      21.635   7.872   8.538  1.00  0.00    +0.000 C 
ATOM     36  N4  UNL A   1      21.746   6.576   8.690  1.00  0.00    +0.000 N 
ATOM     37  C27 UNL A   1      20.783   6.221   9.625  1.00  0.00    +0.000 C 
ATOM     38  C28 UNL A   1      20.447   4.986  10.064  1.00  0.00    +0.000 C 
ATOM     50  C35 UNL A   1      21.065   3.770   9.609  1.00  0.00    +0.000 C 
ATOM     51  C36 UNL A   1      20.761   2.467   9.962  1.00  0.00    +0.000 C 
ATOM     52  C37 UNL A   1      21.642   1.617   9.290  1.00  0.00    +0.000 C 
ATOM     53  C38 UNL A   1      22.463   2.387   8.483  1.00  0.00    +0.000 C 
ATOM     54  N5  UNL A   1      22.104   3.708   8.695  1.00  0.00    +0.000 N 
ATOM     55  C39 UNL A   1      23.503   1.948   7.590  1.00  0.00    +0.000 C 
ATOM     67  C46 UNL A   1      24.275   2.764   6.834  1.00  0.00    +0.000 C 
ATOM     68  N6  UNL A   1      24.237   4.147   6.729  1.00  0.00    +0.000 N 
ATOM     69  C47 UNL A   1      25.186   4.472   5.886  1.00  0.00    +0.000 C 
ATOM     70  C48 UNL A   1      25.575   5.833   5.374  1.00  0.00    +0.000 C 
ATOM     82  C55 UNL A   1      24.914   6.919   5.821  1.00  0.00    +0.000 C 
ATOM     83  C56 UNL A   1      25.158   8.296   5.397  1.00  0.00    +0.000 C 
ATOM     84  C57 UNL A   1      24.310   9.112   6.045  1.00  0.00    +0.000 C 
ATOM     85  C58 UNL A   1      23.441   8.311   6.908  1.00  0.00    +0.000 C 
ATOM     86  N7  UNL A   1      23.892   7.026   6.733  1.00  0.00    +0.000 N 
ATOM     87  C59 UNL A   1      25.955   3.325   5.380  1.00  0.00    +0.000 C 
ATOM     88  C60 UNL A   1      25.335   2.306   5.959  1.00  0.00    +0.000 C 
ATOM     89  C61 UNL A   1      20.133   7.439  10.052  1.00  0.00    +0.000 C 
ATOM     90  C62 UNL A   1      20.577   8.480   9.361  1.00  0.00    +0.000 C 
ATOM    117  H25 UNL A   1      20.013   2.174  10.610  1.00  0.00    +0.000 H 
ATOM    118  H26 UNL A   1      21.674   0.588   9.379  1.00  0.00    +0.000 H 
ATOM    119  H27 UNL A   1      22.525   4.485   8.262  1.00  0.00    +0.000 H 
ATOM    120  H28 UNL A   1      25.867   8.593   4.709  1.00  0.00    +0.000 H 
ATOM    121  H29 UNL A   1      24.278  10.138   5.949  1.00  0.00    +0.000 H 
ATOM    122  H30 UNL A   1      23.518   6.255   7.216  1.00  0.00    +0.000 H 
ATOM    123  H31 UNL A   1      26.766   3.315   4.743  1.00  0.00    +0.000 H 
ATOM    124  H32 UNL A   1      25.575   1.314   5.808  1.00  0.00    +0.000 H 
ATOM    125  H33 UNL A   1      19.418   7.493  10.794  1.00  0.00    +0.000 H 
ATOM    126  H34 UNL A   1      20.263   9.462   9.394  1.00  0.00    +0.000 H 
ENDROOT
BRANCH   34   33
ATOM     33  C24 UNL A   1      22.131  10.252   7.644  1.00  0.00    +0.000 C 
ATOM    127  H35 UNL A   1      20.444  10.074   6.382  1.00  0.00    +0.000 H 
ATOM    115  H23 UNL A   1      23.241  13.193   8.838  1.00  0.00    +0.000 H 
ATOM    116  H24 UNL A   1      23.732  10.820   8.905  1.00  0.00    +0.000 H 
ATOM     91  C63 UNL A   1      21.065  10.736   6.871  1.00  0.00    +0.000 C 
ATOM     92  C64 UNL A   1      20.841  12.108   6.762  1.00  0.00    +0.000 C 
ATOM     32  C23 UNL A   1      22.935  11.163   8.347  1.00  0.00    +0.000 C 
ATOM     30  C21 UNL A   1      21.607  13.006   7.512  1.00  0.00    +0.000 C 
ATOM     31  C22 UNL A   1      22.663  12.532   8.296  1.00  0.00    +0.000 C 
ATOM    128  H36 UNL A   1      20.108  12.461   6.128  1.00  0.00    +0.000 H 
BRANCH   30    2
ATOM      1  O1  UNL A   1      21.204  15.008   6.359  1.00  0.00    +0.000 O 
ATOM      2  C1  UNL A   1      21.379  14.469   7.450  1.00  0.00    +0.000 C 
BRANCH    2    3
ATOM      3  N1  UNL A   1      21.371  15.227   8.591  1.00  0.00    +0.000 N 
ATOM     93  H1  UNL A   1      20.629  15.041   9.211  1.00  0.00    +0.000 H 
BRANCH    3    4
ATOM      4  C2  UNL A   1      22.290  16.263   9.024  1.00  0.00    +0.000 C 
ATOM     94  H2  UNL A   1      21.753  16.973   9.616  1.00  0.00    +0.000 H 
ATOM     95  H3  UNL A   1      22.705  16.716   8.147  1.00  0.00    +0.000 H 
BRANCH    4    5
ATOM     97  H5  UNL A   1      23.354  14.645   9.812  1.00  0.00    +0.000 H 
ATOM      5  C3  UNL A   1      23.446  15.710   9.850  1.00  0.00    +0.000 C 
ATOM     96  H4  UNL A   1      24.359  16.077   9.428  1.00  0.00    +0.000 H 
BRANCH    5    6
ATOM     98  H6  UNL A   1      24.434  16.287  11.635  1.00  0.00    +0.000 H 
ATOM     99  H7  UNL A   1      22.988  15.248  11.839  1.00  0.00    +0.000 H 
ATOM      6  C4  UNL A   1      23.429  16.082  11.335  1.00  0.00    +0.000 C 
BRANCH    6    7
ATOM    100  H8  UNL A   1      21.599  16.939  11.977  1.00  0.00    +0.000 H 
ATOM    101  H9  UNL A   1      22.573  17.929  10.843  1.00  0.00    +0.000 H 
ATOM      7  C5  UNL A   1      22.570  17.295  11.705  1.00  0.00    +0.000 C 
BRANCH    7    8
ATOM    102  H10 UNL A   1      22.366  18.145  13.638  1.00  0.00    +0.000 H 
ATOM    103  H11 UNL A   1      23.275  19.125  12.447  1.00  0.00    +0.000 H 
ATOM      8  C6  UNL A   1      23.098  18.152  12.858  1.00  0.00    +0.000 C 
BRANCH    8    9
ATOM      9  C7  UNL A   1      24.427  17.695  13.452  1.00  0.00    +0.000 C 
ATOM    105  H13 UNL A   1      24.252  17.416  14.471  1.00  0.00    +0.000 H 
ATOM    104  H12 UNL A   1      24.794  16.869  12.880  1.00  0.00    +0.000 H 
BRANCH    9   10
ATOM     10  N2  UNL A   1      25.423  18.749  13.444  1.00  0.00    +0.000 N 
ATOM    106  H14 UNL A   1      25.983  18.817  14.251  1.00  0.00    +0.000 H 
BRANCH   10   11
ATOM     11  C8  UNL A   1      25.681  19.666  12.455  1.00  0.00    +0.000 C 
ATOM     12  O2  UNL A   1      25.418  20.854  12.622  1.00  0.00    +0.000 O 
BRANCH   11   13
ATOM    107  H15 UNL A   1      28.244  19.153  12.169  1.00  0.00    +0.000 H 
ATOM    108  H16 UNL A   1      29.440  18.378  10.204  1.00  0.00    +0.000 H 
ATOM     13  C9  UNL A   1      26.360  19.238  11.216  1.00  0.00    +0.000 C 
ATOM     14  C10 UNL A   1      27.737  19.001  11.283  1.00  0.00    +0.000 C 
ATOM     15  C11 UNL A   1      28.425  18.558  10.152  1.00  0.00    +0.000 C 
ATOM     16  C12 UNL A   1      27.741  18.358   8.945  1.00  0.00    +0.000 C 
ATOM    113  H21 UNL A   1      25.860  18.502   7.987  1.00  0.00    +0.000 H 
ATOM     27  C19 UNL A   1      26.366  18.633   8.877  1.00  0.00    +0.000 C 
ATOM     28  C20 UNL A   1      25.681  19.082  10.005  1.00  0.00    +0.000 C 
BRANCH   16   17
ATOM    109  H17 UNL A   1      28.568  19.734   6.681  1.00  0.00    +0.000 H 
ATOM    110  H18 UNL A   1      29.475  18.835   4.699  1.00  0.00    +0.000 H 
ATOM    112  H20 UNL A   1      28.503  15.932   8.457  1.00  0.00    +0.000 H 
ATOM     17  C13 UNL A   1      28.429  17.861   7.739  1.00  0.00    +0.000 C 
ATOM     18  C14 UNL A   1      28.748  18.720   6.615  1.00  0.00    +0.000 C 
ATOM     19  C15 UNL A   1      29.270  18.210   5.495  1.00  0.00    +0.000 C 
ATOM     20  N3  UNL A   1      29.540  16.859   5.386  1.00  0.00    +0.000 N 
ATOM     24  C17 UNL A   1      29.307  15.968   6.420  1.00  0.00    +0.000 C 
ATOM     25  O3  UNL A   1      29.532  14.762   6.392  1.00  0.00    +0.000 O 
ATOM     26  C18 UNL A   1      28.707  16.547   7.655  1.00  0.00    +0.000 C 
BRANCH   20   21
ATOM     21  C16 UNL A   1      30.060  16.315   4.158  1.00  0.00    +0.000 C 
ATOM     22  F1  UNL A   1      29.644  17.032   3.087  1.00  0.00    +0.000 F 
ATOM    111  H19 UNL A   1      29.694  15.312   4.084  1.00  0.00    +0.000 H 
ATOM     23  F2  UNL A   1      31.416  16.316   4.166  1.00  0.00    +0.000 F 
ENDBRANCH   20   21
ENDBRANCH   16   17
BRANCH   28   29
ATOM    114  H22 UNL A   1      24.049  20.239   9.844  1.00  0.00    +0.000 H 
ATOM     29  O4  UNL A   1      24.343  19.353   9.916  1.00  0.00    +0.000 O 
ENDBRANCH   28   29
ENDBRANCH   11   13
ENDBRANCH   10   11
ENDBRANCH    9   10
ENDBRANCH    8    9
ENDBRANCH    7    8
ENDBRANCH    6    7
ENDBRANCH    5    6
ENDBRANCH    4    5
ENDBRANCH    3    4
ENDBRANCH    2    3
ENDBRANCH   30    2
ENDBRANCH   34   33
BRANCH   38   39
ATOM     39  C29 UNL A   1      19.339   4.871  11.069  1.00  0.00    +0.000 C 
ATOM     40  C30 UNL A   1      18.006   4.704  10.667  1.00  0.00    +0.000 C 
ATOM     41  F3  UNL A   1      17.684   4.742   9.365  1.00  0.00    +0.000 F 
ATOM     42  C31 UNL A   1      16.995   4.510  11.604  1.00  0.00    +0.000 C 
ATOM     43  F4  UNL A   1      15.725   4.378  11.198  1.00  0.00    +0.000 F 
ATOM     44  C32 UNL A   1      17.299   4.454  12.956  1.00  0.00    +0.000 C 
ATOM     45  F5  UNL A   1      16.328   4.244  13.855  1.00  0.00    +0.000 F 
ATOM     46  C33 UNL A   1      18.612   4.613  13.376  1.00  0.00    +0.000 C 
ATOM     47  F6  UNL A   1      18.910   4.543  14.680  1.00  0.00    +0.000 F 
ATOM     48  C34 UNL A   1      19.622   4.834  12.443  1.00  0.00    +0.000 C 
ATOM     49  F7  UNL A   1      20.882   4.982  12.878  1.00  0.00    +0.000 F 
ENDBRANCH   38   39
BRANCH   55   56
ATOM     65  C45 UNL A   1      23.004  -0.305   6.581  1.00  0.00    +0.000 C 
ATOM     66  F12 UNL A   1      22.155   0.282   5.724  1.00  0.00    +0.000 F 
ATOM     56  C40 UNL A   1      23.737   0.469   7.494  1.00  0.00    +0.000 C 
ATOM     57  C41 UNL A   1      24.602  -0.193   8.376  1.00  0.00    +0.000 C 
ATOM     58  F8  UNL A   1      25.331   0.508   9.257  1.00  0.00    +0.000 F 
ATOM     59  C42 UNL A   1      24.727  -1.578   8.346  1.00  0.00    +0.000 C 
ATOM     60  F9  UNL A   1      25.574  -2.189   9.185  1.00  0.00    +0.000 F 
ATOM     61  C43 UNL A   1      23.974  -2.328   7.454  1.00  0.00    +0.000 C 
ATOM     62  F10 UNL A   1      24.076  -3.663   7.446  1.00  0.00    +0.000 F 
ATOM     63  C44 UNL A   1      23.112  -1.693   6.573  1.00  0.00    +0.000 C 
ATOM     64  F11 UNL A   1      22.370  -2.416   5.722  1.00  0.00    +0.000 F 
ENDBRANCH   55   56
BRANCH   70   71
ATOM     71  C49 UNL A   1      26.647   5.986   4.356  1.00  0.00    +0.000 C 
ATOM     72  C50 UNL A   1      27.971   6.246   4.740  1.00  0.00    +0.000 C 
ATOM     73  F13 UNL A   1      28.276   6.381   6.039  1.00  0.00    +0.000 F 
ATOM     74  C51 UNL A   1      28.980   6.400   3.791  1.00  0.00    +0.000 C 
ATOM     75  F14 UNL A   1      30.228   6.686   4.185  1.00  0.00    +0.000 F 
ATOM     76  C52 UNL A   1      28.691   6.272   2.442  1.00  0.00    +0.000 C 
ATOM     77  F15 UNL A   1      29.663   6.412   1.530  1.00  0.00    +0.000 F 
ATOM     78  C53 UNL A   1      27.392   6.002   2.038  1.00  0.00    +0.000 C 
ATOM     79  F16 UNL A   1      27.111   5.863   0.735  1.00  0.00    +0.000 F 
ATOM     80  C54 UNL A   1      26.378   5.874   2.984  1.00  0.00    +0.000 C 
ATOM     81  F17 UNL A   1      25.129   5.624   2.564  1.00  0.00    +0.000 F 
ENDBRANCH   70   71
TORSDOF 18
ENDMDL
MODEL 10
REMARK VINA RESULT:     -11.0     32.450     38.992
ROOT
ATOM     34  C25 UNL A   1       1.479   4.588  35.595  1.00  0.00    +0.000 C 
ATOM     35  C26 UNL A   1       2.712   5.018  36.344  1.00  0.00    +0.000 C 
ATOM     36  N4  UNL A   1       2.952   6.146  36.964  1.00  0.00    +0.000 N 
ATOM     37  C27 UNL A   1       4.222   6.017  37.508  1.00  0.00    +0.000 C 
ATOM     38  C28 UNL A   1       4.952   6.939  38.177  1.00  0.00    +0.000 C 
ATOM     50  C35 UNL A   1       4.509   8.279  38.449  1.00  0.00    +0.000 C 
ATOM     51  C36 UNL A   1       5.196   9.301  39.080  1.00  0.00    +0.000 C 
ATOM     52  C37 UNL A   1       4.358  10.416  39.144  1.00  0.00    +0.000 C 
ATOM     53  C38 UNL A   1       3.165  10.104  38.512  1.00  0.00    +0.000 C 
ATOM     54  N5  UNL A   1       3.268   8.787  38.097  1.00  0.00    +0.000 N 
ATOM     55  C39 UNL A   1       2.016  10.946  38.307  1.00  0.00    +0.000 C 
ATOM     67  C46 UNL A   1       0.875  10.568  37.682  1.00  0.00    +0.000 C 
ATOM     68  N6  UNL A   1       0.565   9.346  37.101  1.00  0.00    +0.000 N 
ATOM     69  C47 UNL A   1      -0.655   9.465  36.641  1.00  0.00    +0.000 C 
ATOM     70  C48 UNL A   1      -1.486   8.461  35.887  1.00  0.00    +0.000 C 
ATOM     82  C55 UNL A   1      -0.977   7.239  35.636  1.00  0.00    +0.000 C 
ATOM     83  C56 UNL A   1      -1.649   6.174  34.894  1.00  0.00    +0.000 C 
ATOM     84  C57 UNL A   1      -0.841   5.103  34.835  1.00  0.00    +0.000 C 
ATOM     85  C58 UNL A   1       0.420   5.416  35.508  1.00  0.00    +0.000 C 
ATOM     86  N7  UNL A   1       0.237   6.693  35.978  1.00  0.00    +0.000 N 
ATOM     87  C59 UNL A   1      -1.270  10.774  36.905  1.00  0.00    +0.000 C 
ATOM     88  C60 UNL A   1      -0.281  11.421  37.508  1.00  0.00    +0.000 C 
ATOM     89  C61 UNL A   1       4.686   4.683  37.197  1.00  0.00    +0.000 C 
ATOM     90  C62 UNL A   1       3.817   4.048  36.424  1.00  0.00    +0.000 C 
ATOM    117  H25 UNL A   1       6.161   9.248  39.442  1.00  0.00    +0.000 H 
ATOM    118  H26 UNL A   1       4.588  11.320  39.588  1.00  0.00    +0.000 H 
ATOM    119  H27 UNL A   1       2.565   8.286  37.623  1.00  0.00    +0.000 H 
ATOM    120  H28 UNL A   1      -2.592   6.237  34.482  1.00  0.00    +0.000 H 
ATOM    121  H29 UNL A   1      -1.073   4.203  34.386  1.00  0.00    +0.000 H 
ATOM    122  H30 UNL A   1       0.913   7.173  36.509  1.00  0.00    +0.000 H 
ATOM    123  H31 UNL A   1      -2.221  11.104  36.681  1.00  0.00    +0.000 H 
ATOM    124  H32 UNL A   1      -0.330  12.405  37.815  1.00  0.00    +0.000 H 
ATOM    125  H33 UNL A   1       5.574   4.279  37.533  1.00  0.00    +0.000 H 
ATOM    126  H34 UNL A   1       3.895   3.115  35.990  1.00  0.00    +0.000 H 
ENDROOT
BRANCH   34   33
ATOM     33  C24 UNL A   1       1.429   3.248  34.955  1.00  0.00    +0.000 C 
ATOM    127  H35 UNL A   1       2.300   3.870  33.131  1.00  0.00    +0.000 H 
ATOM    115  H23 UNL A   1       0.440   0.088  35.544  1.00  0.00    +0.000 H 
ATOM    116  H24 UNL A   1       0.548   2.264  36.608  1.00  0.00    +0.000 H 
ATOM     91  C63 UNL A   1       1.867   3.080  33.633  1.00  0.00    +0.000 C 
ATOM     92  C64 UNL A   1       1.720   1.849  32.993  1.00  0.00    +0.000 C 
ATOM     32  C23 UNL A   1       0.890   2.148  35.641  1.00  0.00    +0.000 C 
ATOM     30  C21 UNL A   1       1.238   0.744  33.701  1.00  0.00    +0.000 C 
ATOM     31  C22 UNL A   1       0.812   0.898  35.024  1.00  0.00    +0.000 C 
ATOM    128  H36 UNL A   1       1.968   1.755  31.996  1.00  0.00    +0.000 H 
BRANCH   30    2
ATOM      1  O1  UNL A   1       2.000  -1.413  33.188  1.00  0.00    +0.000 O 
ATOM      2  C1  UNL A   1       1.098  -0.588  33.068  1.00  0.00    +0.000 C 
BRANCH    2    3
ATOM      3  N1  UNL A   1      -0.019  -0.906  32.340  1.00  0.00    +0.000 N 
ATOM     93  H1  UNL A   1      -0.541  -1.665  32.687  1.00  0.00    +0.000 H 
BRANCH    3    4
ATOM      4  C2  UNL A   1      -0.549  -0.293  31.136  1.00  0.00    +0.000 C 
ATOM     94  H2  UNL A   1      -0.712  -1.057  30.405  1.00  0.00    +0.000 H 
ATOM     95  H3  UNL A   1       0.166   0.429  30.798  1.00  0.00    +0.000 H 
BRANCH    4    5
ATOM     97  H5  UNL A   1      -2.353   0.497  30.432  1.00  0.00    +0.000 H 
ATOM      5  C3  UNL A   1      -1.864   0.438  31.383  1.00  0.00    +0.000 C 
ATOM     96  H4  UNL A   1      -2.416  -0.113  32.116  1.00  0.00    +0.000 H 
BRANCH    5    6
ATOM     98  H6  UNL A   1      -2.362   2.496  31.273  1.00  0.00    +0.000 H 
ATOM     99  H7  UNL A   1      -0.690   2.120  31.802  1.00  0.00    +0.000 H 
ATOM      6  C4  UNL A   1      -1.730   1.880  31.878  1.00  0.00    +0.000 C 
BRANCH    6    7
ATOM    100  H8  UNL A   1      -2.673   3.022  33.395  1.00  0.00    +0.000 H 
ATOM    101  H9  UNL A   1      -1.183   2.151  33.880  1.00  0.00    +0.000 H 
ATOM      7  C5  UNL A   1      -2.107   2.116  33.343  1.00  0.00    +0.000 C 
BRANCH    7    8
ATOM    102  H10 UNL A   1      -2.500   0.794  34.956  1.00  0.00    +0.000 H 
ATOM    103  H11 UNL A   1      -2.906   0.177  33.325  1.00  0.00    +0.000 H 
ATOM      8  C6  UNL A   1      -2.933   1.007  34.001  1.00  0.00    +0.000 C 
BRANCH    8    9
ATOM      9  C7  UNL A   1      -4.407   1.334  34.212  1.00  0.00    +0.000 C 
ATOM    105  H13 UNL A   1      -4.806   1.672  33.277  1.00  0.00    +0.000 H 
ATOM    104  H12 UNL A   1      -4.910   0.453  34.553  1.00  0.00    +0.000 H 
BRANCH    9   10
ATOM     10  N2  UNL A   1      -4.601   2.391  35.186  1.00  0.00    +0.000 N 
ATOM    106  H14 UNL A   1      -4.850   3.271  34.821  1.00  0.00    +0.000 H 
BRANCH   10   11
ATOM     11  C8  UNL A   1      -4.477   2.320  36.551  1.00  0.00    +0.000 C 
ATOM     12  O2  UNL A   1      -5.049   1.437  37.185  1.00  0.00    +0.000 O 
BRANCH   11   13
ATOM    107  H15 UNL A   1      -1.974   1.886  37.229  1.00  0.00    +0.000 H 
ATOM    108  H16 UNL A   1      -0.402   3.381  38.320  1.00  0.00    +0.000 H 
ATOM     13  C9  UNL A   1      -3.581   3.258  37.257  1.00  0.00    +0.000 C 
ATOM     14  C10 UNL A   1      -2.272   2.834  37.509  1.00  0.00    +0.000 C 
ATOM     15  C11 UNL A   1      -1.369   3.693  38.139  1.00  0.00    +0.000 C 
ATOM     16  C12 UNL A   1      -1.773   4.977  38.528  1.00  0.00    +0.000 C 
ATOM    113  H21 UNL A   1      -3.407   6.321  38.601  1.00  0.00    +0.000 H 
ATOM     27  C19 UNL A   1      -3.099   5.382  38.303  1.00  0.00    +0.000 C 
ATOM     28  C20 UNL A   1      -4.002   4.521  37.681  1.00  0.00    +0.000 C 
BRANCH   16   17
ATOM    109  H17 UNL A   1       0.871   4.612  39.290  1.00  0.00    +0.000 H 
ATOM    110  H18 UNL A   1       2.240   6.103  40.500  1.00  0.00    +0.000 H 
ATOM    112  H20 UNL A   1      -2.230   7.439  39.186  1.00  0.00    +0.000 H 
ATOM     17  C13 UNL A   1      -0.838   5.922  39.167  1.00  0.00    +0.000 C 
ATOM     18  C14 UNL A   1       0.510   5.546  39.546  1.00  0.00    +0.000 C 
ATOM     19  C15 UNL A   1       1.289   6.395  40.224  1.00  0.00    +0.000 C 
ATOM     20  N3  UNL A   1       0.840   7.657  40.562  1.00  0.00    +0.000 N 
ATOM     24  C17 UNL A   1      -0.417   8.120  40.208  1.00  0.00    +0.000 C 
ATOM     25  O3  UNL A   1      -0.871   9.229  40.468  1.00  0.00    +0.000 O 
ATOM     26  C18 UNL A   1      -1.280   7.156  39.470  1.00  0.00    +0.000 C 
BRANCH   20   21
ATOM     21  C16 UNL A   1       1.672   8.546  41.332  1.00  0.00    +0.000 C 
ATOM     22  F1  UNL A   1       1.233   8.647  42.609  1.00  0.00    +0.000 F 
ATOM    111  H19 UNL A   1       1.624   9.504  40.858  1.00  0.00    +0.000 H 
ATOM     23  F2  UNL A   1       2.953   8.104  41.360  1.00  0.00    +0.000 F 
ENDBRANCH   20   21
ENDBRANCH   16   17
BRANCH   28   29
ATOM    114  H22 UNL A   1      -5.588   5.134  36.615  1.00  0.00    +0.000 H 
ATOM     29  O4  UNL A   1      -5.291   4.930  37.479  1.00  0.00    +0.000 O 
ENDBRANCH   28   29
ENDBRANCH   11   13
ENDBRANCH   10   11
ENDBRANCH    9   10
ENDBRANCH    8    9
ENDBRANCH    7    8
ENDBRANCH    6    7
ENDBRANCH    5    6
ENDBRANCH    4    5
ENDBRANCH    3    4
ENDBRANCH    2    3
ENDBRANCH   30    2
ENDBRANCH   34   33
BRANCH   38   39
ATOM     39  C29 UNL A   1       6.325   6.552  38.641  1.00  0.00    +0.000 C 
ATOM     40  C30 UNL A   1       6.509   5.735  39.766  1.00  0.00    +0.000 C 
ATOM     41  F3  UNL A   1       5.456   5.362  40.510  1.00  0.00    +0.000 F 
ATOM     42  C31 UNL A   1       7.780   5.308  40.140  1.00  0.00    +0.000 C 
ATOM     43  F4  UNL A   1       7.934   4.548  41.234  1.00  0.00    +0.000 F 
ATOM     44  C32 UNL A   1       8.886   5.666  39.385  1.00  0.00    +0.000 C 
ATOM     45  F5  UNL A   1      10.106   5.236  39.733  1.00  0.00    +0.000 F 
ATOM     46  C33 UNL A   1       8.727   6.471  38.266  1.00  0.00    +0.000 C 
ATOM     47  F6  UNL A   1       9.792   6.806  37.525  1.00  0.00    +0.000 F 
ATOM     48  C34 UNL A   1       7.460   6.922  37.904  1.00  0.00    +0.000 C 
ATOM     49  F7  UNL A   1       7.337   7.697  36.816  1.00  0.00    +0.000 F 
ENDBRANCH   38   39
BRANCH   55   56
ATOM     65  C45 UNL A   1       2.765  13.340  38.084  1.00  0.00    +0.000 C 
ATOM     66  F12 UNL A   1       3.248  13.060  36.864  1.00  0.00    +0.000 F 
ATOM     56  C40 UNL A   1       2.102  12.351  38.826  1.00  0.00    +0.000 C 
ATOM     57  C41 UNL A   1       1.625  12.689  40.100  1.00  0.00    +0.000 C 
ATOM     58  F8  UNL A   1       0.975  11.779  40.840  1.00  0.00    +0.000 F 
ATOM     59  C42 UNL A   1       1.809  13.970  40.613  1.00  0.00    +0.000 C 
ATOM     60  F9  UNL A   1       1.329  14.278  41.825  1.00  0.00    +0.000 F 
ATOM     61  C43 UNL A   1       2.491  14.926  39.874  1.00  0.00    +0.000 C 
ATOM     62  F10 UNL A   1       2.689  16.150  40.380  1.00  0.00    +0.000 F 
ATOM     63  C44 UNL A   1       2.970  14.612  38.611  1.00  0.00    +0.000 C 
ATOM     64  F11 UNL A   1       3.644  15.528  37.903  1.00  0.00    +0.000 F 
ENDBRANCH   55   56
BRANCH   70   71
ATOM     71  C49 UNL A   1      -2.840   8.816  35.385  1.00  0.00    +0.000 C 
ATOM     72  C50 UNL A   1      -3.979   8.601  36.174  1.00  0.00    +0.000 C 
ATOM     73  F13 UNL A   1      -3.855   8.048  37.390  1.00  0.00    +0.000 F 
ATOM     74  C51 UNL A   1      -5.251   8.923  35.707  1.00  0.00    +0.000 C 
ATOM     75  F14 UNL A   1      -6.325   8.671  36.467  1.00  0.00    +0.000 F 
ATOM     76  C52 UNL A   1      -5.408   9.489  34.452  1.00  0.00    +0.000 C 
ATOM     77  F15 UNL A   1      -6.631   9.806  34.005  1.00  0.00    +0.000 F 
ATOM     78  C53 UNL A   1      -4.296   9.724  33.657  1.00  0.00    +0.000 C 
ATOM     79  F16 UNL A   1      -4.442  10.284  32.449  1.00  0.00    +0.000 F 
ATOM     80  C54 UNL A   1      -3.025   9.378  34.113  1.00  0.00    +0.000 C 
ATOM     81  F17 UNL A   1      -1.969   9.606  33.319  1.00  0.00    +0.000 F 
ENDBRANCH   70   71
TORSDOF 18
ENDMDL
