MODEL 1
REMARK VINA RESULT:     -10.7      0.000      0.000
ROOT
ATOM    131  H30 UNL A   1      28.300  16.030   6.484  1.00  0.00    +0.000 H 
ATOM    132  H31 UNL A   1      26.478  14.111   6.763  1.00  0.00    +0.000 H 
ATOM    133  H32 UNL A   1      25.476  17.239   9.107  1.00  0.00    +0.000 H 
ATOM    134  H33 UNL A   1      19.392  17.734   3.729  1.00  0.00    +0.000 H 
ATOM    135  H34 UNL A   1      21.373  17.732   2.128  1.00  0.00    +0.000 H 
ATOM    136  H35 UNL A   1      22.923  17.664   5.984  1.00  0.00    +0.000 H 
ATOM    137  H36 UNL A   1      21.545  19.135   8.655  1.00  0.00    +0.000 H 
ATOM    138  H37 UNL A   1      23.646  17.821   9.362  1.00  0.00    +0.000 H 
ATOM    139  H38 UNL A   1      27.002  21.017   5.469  1.00  0.00    +0.000 H 
ATOM    140  H39 UNL A   1      25.128  20.977   3.710  1.00  0.00    +0.000 H 
ATOM     41  C30 UNL A   1      23.859  18.413   3.452  1.00  0.00    +0.000 C 
ATOM     42  C31 UNL A   1      24.948  18.820   4.396  1.00  0.00    +0.000 C 
ATOM     43  N9  UNL A   1      25.586  18.091   5.258  1.00  0.00    +0.000 N 
ATOM     44  C32 UNL A   1      26.407  18.964   5.974  1.00  0.00    +0.000 C 
ATOM     45  C33 UNL A   1      26.868  18.658   7.219  1.00  0.00    +0.000 C 
ATOM     57  C40 UNL A   1      26.803  17.245   7.473  1.00  0.00    +0.000 C 
ATOM     58  C41 UNL A   1      27.369  16.115   6.921  1.00  0.00    +0.000 C 
ATOM     59  C42 UNL A   1      26.392  15.088   7.082  1.00  0.00    +0.000 C 
ATOM     60  C43 UNL A   1      25.300  15.643   7.751  1.00  0.00    +0.000 C 
ATOM     61  N10 UNL A   1      25.792  16.801   8.284  1.00  0.00    +0.000 N 
ATOM     62  C44 UNL A   1      23.902  15.285   7.794  1.00  0.00    +0.000 C 
ATOM     74  C51 UNL A   1      22.897  16.137   8.150  1.00  0.00    +0.000 C 
ATOM     75  N11 UNL A   1      21.627  15.984   7.621  1.00  0.00    +0.000 N 
ATOM     76  C52 UNL A   1      21.141  17.193   7.571  1.00  0.00    +0.000 C 
ATOM     77  C53 UNL A   1      20.211  17.662   6.520  1.00  0.00    +0.000 C 
ATOM     89  C60 UNL A   1      20.895  17.687   5.354  1.00  0.00    +0.000 C 
ATOM     90  C61 UNL A   1      20.387  17.740   4.001  1.00  0.00    +0.000 C 
ATOM     91  C62 UNL A   1      21.433  17.797   3.157  1.00  0.00    +0.000 C 
ATOM     92  C63 UNL A   1      22.672  17.965   3.921  1.00  0.00    +0.000 C 
ATOM     93  N12 UNL A   1      22.295  17.755   5.232  1.00  0.00    +0.000 N 
ATOM     94  C64 UNL A   1      21.818  18.173   8.403  1.00  0.00    +0.000 C 
ATOM     95  C65 UNL A   1      22.898  17.467   8.746  1.00  0.00    +0.000 C 
ATOM     96  C66 UNL A   1      26.379  20.219   5.271  1.00  0.00    +0.000 C 
ATOM     97  C67 UNL A   1      25.436  20.211   4.329  1.00  0.00    +0.000 C 
ENDROOT
BRANCH   41   40
ATOM    129  H28 UNL A   1      22.932  21.079  -0.167  1.00  0.00    +0.000 H 
ATOM     98  C68 UNL A   1      24.694  17.957   1.165  1.00  0.00    +0.000 C 
ATOM     99  C69 UNL A   1      24.766  18.263  -0.177  1.00  0.00    +0.000 C 
ATOM    130  H29 UNL A   1      22.959  20.634   2.226  1.00  0.00    +0.000 H 
ATOM     37  C26 UNL A   1      24.045  19.351  -0.665  1.00  0.00    +0.000 C 
ATOM     38  C27 UNL A   1      23.405  20.239   0.202  1.00  0.00    +0.000 C 
ATOM     39  C28 UNL A   1      23.411  19.977   1.570  1.00  0.00    +0.000 C 
ATOM     40  C29 UNL A   1      24.034  18.819   2.050  1.00  0.00    +0.000 C 
ATOM    141  H40 UNL A   1      25.128  17.089   1.519  1.00  0.00    +0.000 H 
ATOM    142  H41 UNL A   1      25.347  17.694  -0.813  1.00  0.00    +0.000 H 
BRANCH   37   35
ATOM     35  C25 UNL A   1      23.912  19.527  -2.123  1.00  0.00    +0.000 C 
ATOM     36  O3  UNL A   1      23.916  18.564  -2.864  1.00  0.00    +0.000 O 
BRANCH   35   34
ATOM     34  N8  UNL A   1      23.805  20.812  -2.623  1.00  0.00    +0.000 N 
ATOM    128  H27 UNL A   1      23.221  21.430  -2.128  1.00  0.00    +0.000 H 
BRANCH   34   33
ATOM     33  C24 UNL A   1      24.468  21.346  -3.809  1.00  0.00    +0.000 C 
ATOM    126  H25 UNL A   1      24.111  20.824  -4.672  1.00  0.00    +0.000 H 
ATOM    127  H26 UNL A   1      24.245  22.390  -3.877  1.00  0.00    +0.000 H 
BRANCH   33   32
ATOM    124  H23 UNL A   1      26.318  21.640  -2.814  1.00  0.00    +0.000 H 
ATOM    125  H24 UNL A   1      26.186  20.135  -3.753  1.00  0.00    +0.000 H 
ATOM     32  C23 UNL A   1      25.980  21.185  -3.722  1.00  0.00    +0.000 C 
BRANCH   32   31
ATOM    122  H21 UNL A   1      27.026  21.042  -5.565  1.00  0.00    +0.000 H 
ATOM    123  H22 UNL A   1      26.062  22.537  -5.322  1.00  0.00    +0.000 H 
ATOM     31  C22 UNL A   1      26.737  21.825  -4.894  1.00  0.00    +0.000 C 
BRANCH   31   30
ATOM    121  H20 UNL A   1      28.810  21.921  -4.574  1.00  0.00    +0.000 H 
ATOM     30  C21 UNL A   1      28.000  22.619  -4.522  1.00  0.00    +0.000 C 
ATOM    120  H19 UNL A   1      27.851  23.037  -3.549  1.00  0.00    +0.000 H 
BRANCH   30   29
ATOM     29  C20 UNL A   1      28.369  23.764  -5.479  1.00  0.00    +0.000 C 
ATOM    118  H17 UNL A   1      27.955  24.672  -5.093  1.00  0.00    +0.000 H 
ATOM    119  H18 UNL A   1      29.437  23.794  -5.534  1.00  0.00    +0.000 H 
BRANCH   29   28
ATOM    116  H15 UNL A   1      28.682  23.436  -7.568  1.00  0.00    +0.000 H 
ATOM     28  C19 UNL A   1      27.851  23.563  -6.907  1.00  0.00    +0.000 C 
ATOM    117  H16 UNL A   1      27.227  22.695  -6.933  1.00  0.00    +0.000 H 
BRANCH   28   27
ATOM     27  N7  UNL A   1      27.078  24.715  -7.325  1.00  0.00    +0.000 N 
ATOM    115  H14 UNL A   1      27.636  25.499  -7.533  1.00  0.00    +0.000 H 
BRANCH   27   25
ATOM     25  C18 UNL A   1      25.738  24.949  -7.492  1.00  0.00    +0.000 C 
ATOM     26  O2  UNL A   1      25.258  24.670  -8.593  1.00  0.00    +0.000 O 
BRANCH   25   24
ATOM    100  C70 UNL A   1      24.184  26.791  -6.616  1.00  0.00    +0.000 C 
ATOM    101  C71 UNL A   1      23.274  27.230  -5.645  1.00  0.00    +0.000 C 
ATOM    143  H42 UNL A   1      24.356  27.371  -7.452  1.00  0.00    +0.000 H 
ATOM    144  H43 UNL A   1      22.722  28.086  -5.802  1.00  0.00    +0.000 H 
ATOM    113  H12 UNL A   1      23.850  24.883  -3.315  1.00  0.00    +0.000 H 
ATOM    114  H13 UNL A   1      25.263  24.022  -5.090  1.00  0.00    +0.000 H 
ATOM     21  C14 UNL A   1      23.118  26.502  -4.459  1.00  0.00    +0.000 C 
ATOM     22  C15 UNL A   1      23.893  25.367  -4.225  1.00  0.00    +0.000 C 
ATOM     23  C16 UNL A   1      24.729  24.893  -5.241  1.00  0.00    +0.000 C 
ATOM     24  C17 UNL A   1      24.859  25.578  -6.463  1.00  0.00    +0.000 C 
BRANCH   21   20
ATOM      2  C2  UNL A   1      22.391  27.864  -2.468  1.00  0.00    +0.000 C 
ATOM      3  C3  UNL A   1      21.263  27.706  -1.689  1.00  0.00    +0.000 C 
ATOM     18  N4  UNL A   1      20.400  26.831  -2.277  1.00  0.00    +0.000 N 
ATOM     19  N5  UNL A   1      20.952  26.427  -3.416  1.00  0.00    +0.000 N 
ATOM     20  N6  UNL A   1      22.205  26.937  -3.476  1.00  0.00    +0.000 N 
BRANCH    2    1
ATOM      1  C1  UNL A   1      23.480  28.866  -2.399  1.00  0.00    +0.000 C 
ATOM    102  H1  UNL A   1      23.068  29.848  -2.509  1.00  0.00    +0.000 H 
ATOM    103  H2  UNL A   1      24.183  28.684  -3.185  1.00  0.00    +0.000 H 
ATOM    104  H3  UNL A   1      23.975  28.790  -1.453  1.00  0.00    +0.000 H 
ENDBRANCH    2    1
BRANCH    3    4
ATOM      4  C4  UNL A   1      20.925  28.412  -0.459  1.00  0.00    +0.000 C 
ATOM      5  N1  UNL A   1      19.921  29.295  -0.398  1.00  0.00    +0.000 N 
ATOM      6  N2  UNL A   1      20.046  29.864   0.820  1.00  0.00    +0.000 N 
ATOM     13  C11 UNL A   1      21.087  29.319   1.537  1.00  0.00    +0.000 C 
ATOM     14  C12 UNL A   1      21.647  28.326   0.755  1.00  0.00    +0.000 C 
ATOM    110  H9  UNL A   1      21.391  29.598   2.483  1.00  0.00    +0.000 H 
BRANCH    6    7
ATOM      7  C5  UNL A   1      19.186  30.909   1.225  1.00  0.00    +0.000 C 
ATOM      8  C6  UNL A   1      18.504  30.800   2.443  1.00  0.00    +0.000 C 
ATOM      9  C7  UNL A   1      17.678  31.840   2.868  1.00  0.00    +0.000 C 
ATOM    105  H4  UNL A   1      18.613  29.954   3.024  1.00  0.00    +0.000 H 
ATOM     11  C9  UNL A   1      18.141  33.051   0.827  1.00  0.00    +0.000 C 
ATOM     12  C10 UNL A   1      19.014  32.040   0.417  1.00  0.00    +0.000 C 
ATOM    109  H8  UNL A   1      19.527  32.126  -0.475  1.00  0.00    +0.000 H 
ATOM     10  C8  UNL A   1      17.487  32.958   2.056  1.00  0.00    +0.000 C 
ATOM    106  H5  UNL A   1      17.206  31.783   3.785  1.00  0.00    +0.000 H 
ATOM    108  H7  UNL A   1      17.980  33.869   0.218  1.00  0.00    +0.000 H 
ATOM    107  H6  UNL A   1      16.861  33.719   2.364  1.00  0.00    +0.000 H 
ENDBRANCH    6    7
BRANCH   14   15
ATOM    111  H10 UNL A   1      23.697  27.712   0.959  1.00  0.00    +0.000 H 
ATOM     15  C13 UNL A   1      22.720  27.460   1.171  1.00  0.00    +0.000 C 
BRANCH   15   16
ATOM     16  N3  UNL A   1      22.459  26.367   1.811  1.00  0.00    +0.000 N 
BRANCH   16   17
ATOM     17  O1  UNL A   1      21.127  26.005   1.580  1.00  0.00    +0.000 O 
ATOM    112  H11 UNL A   1      20.820  25.879   0.703  1.00  0.00    +0.000 H 
ENDBRANCH   16   17
ENDBRANCH   15   16
ENDBRANCH   14   15
ENDBRANCH    3    4
ENDBRANCH   21   20
ENDBRANCH   25   24
ENDBRANCH   27   25
ENDBRANCH   28   27
ENDBRANCH   29   28
ENDBRANCH   30   29
ENDBRANCH   31   30
ENDBRANCH   32   31
ENDBRANCH   33   32
ENDBRANCH   34   33
ENDBRANCH   35   34
ENDBRANCH   37   35
ENDBRANCH   41   40
BRANCH   45   46
ATOM     46  C34 UNL A   1      27.004  19.658   8.354  1.00  0.00    +0.000 C 
ATOM     47  C35 UNL A   1      28.121  19.573   9.214  1.00  0.00    +0.000 C 
ATOM     48  F1  UNL A   1      29.188  18.832   8.878  1.00  0.00    +0.000 F 
ATOM     49  C36 UNL A   1      28.128  20.159  10.484  1.00  0.00    +0.000 C 
ATOM     50  F2  UNL A   1      29.152  19.932  11.318  1.00  0.00    +0.000 F 
ATOM     51  C37 UNL A   1      27.049  20.906  10.915  1.00  0.00    +0.000 C 
ATOM     52  F3  UNL A   1      27.021  21.411  12.157  1.00  0.00    +0.000 F 
ATOM     53  C38 UNL A   1      25.975  21.087  10.071  1.00  0.00    +0.000 C 
ATOM     54  F4  UNL A   1      24.913  21.798  10.478  1.00  0.00    +0.000 F 
ATOM     55  C39 UNL A   1      25.942  20.460   8.825  1.00  0.00    +0.000 C 
ATOM     56  F5  UNL A   1      24.790  20.583   8.157  1.00  0.00    +0.000 F 
ENDBRANCH   45   46
BRANCH   62   63
ATOM     65  F6  UNL A   1      23.891  14.726   4.918  1.00  0.00    +0.000 F 
ATOM     66  C47 UNL A   1      23.214  12.506   5.241  1.00  0.00    +0.000 C 
ATOM     67  F7  UNL A   1      23.210  12.319   3.913  1.00  0.00    +0.000 F 
ATOM     68  C48 UNL A   1      22.938  11.444   6.087  1.00  0.00    +0.000 C 
ATOM     69  F8  UNL A   1      22.675  10.231   5.582  1.00  0.00    +0.000 F 
ATOM     70  C49 UNL A   1      22.961  11.635   7.460  1.00  0.00    +0.000 C 
ATOM     71  F9  UNL A   1      22.745  10.600   8.284  1.00  0.00    +0.000 F 
ATOM     72  C50 UNL A   1      23.231  12.893   7.987  1.00  0.00    +0.000 C 
ATOM     73  F10 UNL A   1      23.264  13.040   9.322  1.00  0.00    +0.000 F 
ATOM     63  C45 UNL A   1      23.513  13.985   7.155  1.00  0.00    +0.000 C 
ATOM     64  C46 UNL A   1      23.527  13.756   5.769  1.00  0.00    +0.000 C 
ENDBRANCH   62   63
BRANCH   77   78
ATOM     78  C54 UNL A   1      18.876  18.224   6.814  1.00  0.00    +0.000 C 
ATOM     79  C55 UNL A   1      18.441  19.419   6.221  1.00  0.00    +0.000 C 
ATOM     80  F11 UNL A   1      19.299  20.174   5.521  1.00  0.00    +0.000 F 
ATOM     81  C56 UNL A   1      17.105  19.823   6.286  1.00  0.00    +0.000 C 
ATOM     82  F12 UNL A   1      16.714  20.941   5.659  1.00  0.00    +0.000 F 
ATOM     83  C57 UNL A   1      16.169  19.047   6.952  1.00  0.00    +0.000 C 
ATOM     84  F13 UNL A   1      14.878  19.408   6.967  1.00  0.00    +0.000 F 
ATOM     85  C58 UNL A   1      16.570  17.876   7.567  1.00  0.00    +0.000 C 
ATOM     86  F14 UNL A   1      15.668  17.100   8.185  1.00  0.00    +0.000 F 
ATOM     87  C59 UNL A   1      17.901  17.468   7.494  1.00  0.00    +0.000 C 
ATOM     88  F15 UNL A   1      18.204  16.273   8.023  1.00  0.00    +0.000 F 
ENDBRANCH   77   78
TORSDOF 22
ENDMDL
MODEL 2
REMARK VINA RESULT:     -10.0     29.091     36.022
ROOT
ATOM    131  H30 UNL A   1      53.164  30.294  -0.391  1.00  0.00    +0.000 H 
ATOM    132  H31 UNL A   1      55.427  29.013  -0.954  1.00  0.00    +0.000 H 
ATOM    133  H32 UNL A   1      56.299  32.729   0.358  1.00  0.00    +0.000 H 
ATOM    134  H33 UNL A   1      59.268  28.482   6.630  1.00  0.00    +0.000 H 
ATOM    135  H34 UNL A   1      56.912  27.519   6.544  1.00  0.00    +0.000 H 
ATOM    136  H35 UNL A   1      57.132  30.459   3.614  1.00  0.00    +0.000 H 
ATOM    137  H36 UNL A   1      58.956  33.258   3.809  1.00  0.00    +0.000 H 
ATOM    138  H37 UNL A   1      57.812  33.113   1.504  1.00  0.00    +0.000 H 
ATOM    139  H38 UNL A   1      52.391  32.771   4.174  1.00  0.00    +0.000 H 
ATOM    140  H39 UNL A   1      53.322  31.259   6.032  1.00  0.00    +0.000 H 
ATOM     41  C30 UNL A   1      55.084  29.209   5.061  1.00  0.00    +0.000 C 
ATOM     42  C31 UNL A   1      54.397  30.290   4.283  1.00  0.00    +0.000 C 
ATOM     43  N9  UNL A   1      54.408  30.497   3.004  1.00  0.00    +0.000 N 
ATOM     44  C32 UNL A   1      53.722  31.696   2.798  1.00  0.00    +0.000 C 
ATOM     45  C33 UNL A   1      53.912  32.450   1.680  1.00  0.00    +0.000 C 
ATOM     57  C40 UNL A   1      54.493  31.678   0.615  1.00  0.00    +0.000 C 
ATOM     58  C41 UNL A   1      54.119  30.572  -0.121  1.00  0.00    +0.000 C 
ATOM     59  C42 UNL A   1      55.337  29.895  -0.428  1.00  0.00    +0.000 C 
ATOM     60  C43 UNL A   1      56.385  30.643   0.112  1.00  0.00    +0.000 C 
ATOM     61  N10 UNL A   1      55.826  31.864   0.362  1.00  0.00    +0.000 N 
ATOM     62  C44 UNL A   1      57.721  30.286   0.529  1.00  0.00    +0.000 C 
ATOM     74  C51 UNL A   1      58.479  31.014   1.400  1.00  0.00    +0.000 C 
ATOM     75  N11 UNL A   1      59.413  30.388   2.208  1.00  0.00    +0.000 N 
ATOM     76  C52 UNL A   1      59.453  31.114   3.290  1.00  0.00    +0.000 C 
ATOM     77  C53 UNL A   1      59.697  30.563   4.642  1.00  0.00    +0.000 C 
ATOM     89  C60 UNL A   1      58.630  29.799   4.968  1.00  0.00    +0.000 C 
ATOM     90  C61 UNL A   1      58.513  28.790   5.998  1.00  0.00    +0.000 C 
ATOM     91  C62 UNL A   1      57.252  28.321   5.991  1.00  0.00    +0.000 C 
ATOM     92  C63 UNL A   1      56.434  29.125   5.078  1.00  0.00    +0.000 C 
ATOM     93  N12 UNL A   1      57.349  29.903   4.398  1.00  0.00    +0.000 N 
ATOM     94  C64 UNL A   1      58.906  32.455   3.164  1.00  0.00    +0.000 C 
ATOM     95  C65 UNL A   1      58.319  32.345   1.970  1.00  0.00    +0.000 C 
ATOM     96  C66 UNL A   1      53.090  32.023   4.048  1.00  0.00    +0.000 C 
ATOM     97  C67 UNL A   1      53.532  31.228   5.023  1.00  0.00    +0.000 C 
ENDROOT
BRANCH   41   40
ATOM    129  H28 UNL A   1      52.305  25.753   6.242  1.00  0.00    +0.000 H 
ATOM     98  C68 UNL A   1      53.886  29.094   7.225  1.00  0.00    +0.000 C 
ATOM     99  C69 UNL A   1      53.009  28.472   8.088  1.00  0.00    +0.000 C 
ATOM    130  H29 UNL A   1      53.991  26.763   4.805  1.00  0.00    +0.000 H 
ATOM     37  C26 UNL A   1      52.370  27.303   7.680  1.00  0.00    +0.000 C 
ATOM     38  C27 UNL A   1      52.738  26.655   6.499  1.00  0.00    +0.000 C 
ATOM     39  C28 UNL A   1      53.693  27.239   5.671  1.00  0.00    +0.000 C 
ATOM     40  C29 UNL A   1      54.250  28.475   6.023  1.00  0.00    +0.000 C 
ATOM    141  H40 UNL A   1      54.277  30.019   7.467  1.00  0.00    +0.000 H 
ATOM    142  H41 UNL A   1      52.827  28.868   9.024  1.00  0.00    +0.000 H 
BRANCH   37   35
ATOM     35  C25 UNL A   1      51.249  26.781   8.484  1.00  0.00    +0.000 C 
ATOM     36  O3  UNL A   1      50.848  27.393   9.454  1.00  0.00    +0.000 O 
BRANCH   35   34
ATOM     34  N8  UNL A   1      50.686  25.573   8.119  1.00  0.00    +0.000 N 
ATOM    128  H27 UNL A   1      50.723  25.339   7.164  1.00  0.00    +0.000 H 
BRANCH   34   33
ATOM     33  C24 UNL A   1      50.040  24.607   9.004  1.00  0.00    +0.000 C 
ATOM    126  H25 UNL A   1      50.061  24.984  10.004  1.00  0.00    +0.000 H 
ATOM    127  H26 UNL A   1      49.033  24.467   8.670  1.00  0.00    +0.000 H 
BRANCH   33   32
ATOM    124  H23 UNL A   1      50.025  22.491   9.154  1.00  0.00    +0.000 H 
ATOM    125  H24 UNL A   1      51.200  23.167   8.002  1.00  0.00    +0.000 H 
ATOM     32  C23 UNL A   1      50.748  23.259   8.968  1.00  0.00    +0.000 C 
BRANCH   32   31
ATOM    122  H21 UNL A   1      51.777  22.167  10.471  1.00  0.00    +0.000 H 
ATOM    123  H22 UNL A   1      52.786  23.256   9.461  1.00  0.00    +0.000 H 
ATOM     31  C22 UNL A   1      51.873  23.125  10.004  1.00  0.00    +0.000 C 
BRANCH   31   30
ATOM    121  H20 UNL A   1      51.215  23.841  11.865  1.00  0.00    +0.000 H 
ATOM     30  C21 UNL A   1      51.891  24.191  11.113  1.00  0.00    +0.000 C 
ATOM    120  H19 UNL A   1      51.606  25.125  10.676  1.00  0.00    +0.000 H 
BRANCH   30   29
ATOM     29  C20 UNL A   1      53.242  24.390  11.818  1.00  0.00    +0.000 C 
ATOM    118  H17 UNL A   1      53.877  23.565  11.571  1.00  0.00    +0.000 H 
ATOM    119  H18 UNL A   1      53.637  25.325  11.480  1.00  0.00    +0.000 H 
BRANCH   29   28
ATOM    116  H15 UNL A   1      54.057  24.164  13.782  1.00  0.00    +0.000 H 
ATOM     28  C19 UNL A   1      53.132  24.476  13.344  1.00  0.00    +0.000 C 
ATOM    117  H16 UNL A   1      52.919  25.487  13.622  1.00  0.00    +0.000 H 
BRANCH   28   27
ATOM     27  N7  UNL A   1      52.064  23.620  13.818  1.00  0.00    +0.000 N 
ATOM    115  H14 UNL A   1      51.208  24.095  13.929  1.00  0.00    +0.000 H 
BRANCH   27   25
ATOM     25  C18 UNL A   1      51.988  22.292  14.147  1.00  0.00    +0.000 C 
ATOM     26  O2  UNL A   1      52.090  22.009  15.343  1.00  0.00    +0.000 O 
BRANCH   25   24
ATOM    100  C70 UNL A   1      50.660  20.632  12.712  1.00  0.00    +0.000 C 
ATOM    101  C71 UNL A   1      50.645  19.688  11.677  1.00  0.00    +0.000 C 
ATOM    143  H42 UNL A   1      49.772  20.921  13.150  1.00  0.00    +0.000 H 
ATOM    144  H43 UNL A   1      49.748  19.345  11.302  1.00  0.00    +0.000 H 
ATOM    113  H12 UNL A   1      53.955  19.224  11.366  1.00  0.00    +0.000 H 
ATOM    114  H13 UNL A   1      53.966  21.009  13.010  1.00  0.00    +0.000 H 
ATOM     21  C14 UNL A   1      51.853  19.211  11.152  1.00  0.00    +0.000 C 
ATOM     22  C15 UNL A   1      53.067  19.642  11.685  1.00  0.00    +0.000 C 
ATOM     23  C16 UNL A   1      53.066  20.650  12.654  1.00  0.00    +0.000 C 
ATOM     24  C17 UNL A   1      51.864  21.184  13.155  1.00  0.00    +0.000 C 
BRANCH   21   20
ATOM      2  C2  UNL A   1      51.582  18.449   8.767  1.00  0.00    +0.000 C 
ATOM      3  C3  UNL A   1      51.486  17.158   8.286  1.00  0.00    +0.000 C 
ATOM     18  N4  UNL A   1      51.807  16.264   9.263  1.00  0.00    +0.000 N 
ATOM     19  N5  UNL A   1      52.108  16.956  10.358  1.00  0.00    +0.000 N 
ATOM     20  N6  UNL A   1      51.846  18.261  10.111  1.00  0.00    +0.000 N 
BRANCH    2    1
ATOM      1  C1  UNL A   1      51.582  19.747   8.054  1.00  0.00    +0.000 C 
ATOM    102  H1  UNL A   1      52.588  20.100   7.957  1.00  0.00    +0.000 H 
ATOM    103  H2  UNL A   1      51.007  20.459   8.608  1.00  0.00    +0.000 H 
ATOM    104  H3  UNL A   1      51.152  19.621   7.082  1.00  0.00    +0.000 H 
ENDBRANCH    2    1
BRANCH    3    4
ATOM      4  C4  UNL A   1      51.191  16.737   6.922  1.00  0.00    +0.000 C 
ATOM      5  N1  UNL A   1      52.072  16.053   6.183  1.00  0.00    +0.000 N 
ATOM      6  N2  UNL A   1      51.523  16.021   4.949  1.00  0.00    +0.000 N 
ATOM     13  C11 UNL A   1      50.293  16.637   4.918  1.00  0.00    +0.000 C 
ATOM     14  C12 UNL A   1      50.017  17.065   6.204  1.00  0.00    +0.000 C 
ATOM    110  H9  UNL A   1      49.689  16.755   4.090  1.00  0.00    +0.000 H 
BRANCH    6    7
ATOM      7  C5  UNL A   1      52.209  15.428   3.865  1.00  0.00    +0.000 C 
ATOM      8  C6  UNL A   1      51.485  14.697   2.916  1.00  0.00    +0.000 C 
ATOM      9  C7  UNL A   1      52.146  14.135   1.824  1.00  0.00    +0.000 C 
ATOM    105  H4  UNL A   1      50.466  14.574   3.024  1.00  0.00    +0.000 H 
ATOM     11  C9  UNL A   1      54.257  14.955   2.674  1.00  0.00    +0.000 C 
ATOM     12  C10 UNL A   1      53.597  15.568   3.741  1.00  0.00    +0.000 C 
ATOM    109  H8  UNL A   1      54.129  16.119   4.434  1.00  0.00    +0.000 H 
ATOM     10  C8  UNL A   1      53.532  14.254   1.709  1.00  0.00    +0.000 C 
ATOM    106  H5  UNL A   1      51.611  13.631   1.099  1.00  0.00    +0.000 H 
ATOM    108  H7  UNL A   1      55.284  15.022   2.598  1.00  0.00    +0.000 H 
ATOM    107  H6  UNL A   1      54.021  13.823   0.910  1.00  0.00    +0.000 H 
ENDBRANCH    6    7
BRANCH   14   15
ATOM    111  H10 UNL A   1      48.132  17.189   7.229  1.00  0.00    +0.000 H 
ATOM     15  C13 UNL A   1      48.788  17.694   6.613  1.00  0.00    +0.000 C 
BRANCH   15   16
ATOM     16  N3  UNL A   1      48.506  18.889   6.211  1.00  0.00    +0.000 N 
BRANCH   16   17
ATOM     17  O1  UNL A   1      47.659  19.501   7.144  1.00  0.00    +0.000 O 
ATOM    112  H11 UNL A   1      47.988  20.179   7.701  1.00  0.00    +0.000 H 
ENDBRANCH   16   17
ENDBRANCH   15   16
ENDBRANCH   14   15
ENDBRANCH    3    4
ENDBRANCH   21   20
ENDBRANCH   25   24
ENDBRANCH   27   25
ENDBRANCH   28   27
ENDBRANCH   29   28
ENDBRANCH   30   29
ENDBRANCH   31   30
ENDBRANCH   32   31
ENDBRANCH   33   32
ENDBRANCH   34   33
ENDBRANCH   35   34
ENDBRANCH   37   35
ENDBRANCH   41   40
BRANCH   45   46
ATOM     46  C34 UNL A   1      53.950  33.968   1.663  1.00  0.00    +0.000 C 
ATOM     47  C35 UNL A   1      53.195  34.663   0.693  1.00  0.00    +0.000 C 
ATOM     48  F1  UNL A   1      52.238  34.036  -0.008  1.00  0.00    +0.000 F 
ATOM     49  C36 UNL A   1      53.475  35.988   0.344  1.00  0.00    +0.000 C 
ATOM     50  F2  UNL A   1      52.825  36.560  -0.680  1.00  0.00    +0.000 F 
ATOM     51  C37 UNL A   1      54.471  36.689   0.995  1.00  0.00    +0.000 C 
ATOM     52  F3  UNL A   1      54.789  37.935   0.617  1.00  0.00    +0.000 F 
ATOM     53  C38 UNL A   1      55.173  36.074   2.010  1.00  0.00    +0.000 C 
ATOM     54  F4  UNL A   1      56.153  36.733   2.644  1.00  0.00    +0.000 F 
ATOM     55  C39 UNL A   1      54.934  34.735   2.324  1.00  0.00    +0.000 C 
ATOM     56  F5  UNL A   1      55.774  34.203   3.217  1.00  0.00    +0.000 F 
ENDBRANCH   45   46
BRANCH   62   63
ATOM     65  F6  UNL A   1      57.012  27.837   1.974  1.00  0.00    +0.000 F 
ATOM     66  C47 UNL A   1      58.242  26.485   0.508  1.00  0.00    +0.000 C 
ATOM     67  F7  UNL A   1      57.899  25.404   1.223  1.00  0.00    +0.000 F 
ATOM     68  C48 UNL A   1      58.989  26.336  -0.650  1.00  0.00    +0.000 C 
ATOM     69  F8  UNL A   1      59.362  25.115  -1.059  1.00  0.00    +0.000 F 
ATOM     70  C49 UNL A   1      59.329  27.453  -1.398  1.00  0.00    +0.000 C 
ATOM     71  F9  UNL A   1      60.007  27.310  -2.545  1.00  0.00    +0.000 F 
ATOM     72  C50 UNL A   1      58.945  28.721  -0.975  1.00  0.00    +0.000 C 
ATOM     73  F10 UNL A   1      59.274  29.781  -1.732  1.00  0.00    +0.000 F 
ATOM     63  C45 UNL A   1      58.190  28.901   0.192  1.00  0.00    +0.000 C 
ATOM     64  C46 UNL A   1      57.822  27.751   0.910  1.00  0.00    +0.000 C 
ENDBRANCH   62   63
BRANCH   77   78
ATOM     78  C54 UNL A   1      60.804  31.014   5.511  1.00  0.00    +0.000 C 
ATOM     79  C55 UNL A   1      62.130  30.631   5.262  1.00  0.00    +0.000 C 
ATOM     80  F11 UNL A   1      62.399  29.696   4.340  1.00  0.00    +0.000 F 
ATOM     81  C56 UNL A   1      63.203  31.248   5.911  1.00  0.00    +0.000 C 
ATOM     82  F12 UNL A   1      64.460  30.898   5.605  1.00  0.00    +0.000 F 
ATOM     83  C57 UNL A   1      62.978  32.260   6.832  1.00  0.00    +0.000 C 
ATOM     84  F13 UNL A   1      64.010  32.889   7.413  1.00  0.00    +0.000 F 
ATOM     85  C58 UNL A   1      61.682  32.644   7.118  1.00  0.00    +0.000 C 
ATOM     86  F14 UNL A   1      61.452  33.643   7.981  1.00  0.00    +0.000 F 
ATOM     87  C59 UNL A   1      60.611  32.035   6.463  1.00  0.00    +0.000 C 
ATOM     88  F15 UNL A   1      59.387  32.523   6.710  1.00  0.00    +0.000 F 
ENDBRANCH   77   78
TORSDOF 22
ENDMDL
MODEL 3
REMARK VINA RESULT:      -9.9     45.774     54.339
ROOT
ATOM    131  H30 UNL A   1      48.099  12.559  52.904  1.00  0.00    +0.000 H 
ATOM    132  H31 UNL A   1      48.741  14.368  51.061  1.00  0.00    +0.000 H 
ATOM    133  H32 UNL A   1      48.126  10.806  49.265  1.00  0.00    +0.000 H 
ATOM    134  H33 UNL A   1      41.706  14.811  46.279  1.00  0.00    +0.000 H 
ATOM    135  H34 UNL A   1      41.348  15.233  48.766  1.00  0.00    +0.000 H 
ATOM    136  H35 UNL A   1      44.694  12.791  48.413  1.00  0.00    +0.000 H 
ATOM    137  H36 UNL A   1      45.155  10.463  46.054  1.00  0.00    +0.000 H 
ATOM    138  H37 UNL A   1      47.250  10.629  47.547  1.00  0.00    +0.000 H 
ATOM    139  H38 UNL A   1      43.901   9.437  52.446  1.00  0.00    +0.000 H 
ATOM    140  H39 UNL A   1      41.967  10.881  51.563  1.00  0.00    +0.000 H 
ATOM     41  C30 UNL A   1      42.830  13.373  50.422  1.00  0.00    +0.000 C 
ATOM     42  C31 UNL A   1      43.670  12.269  50.989  1.00  0.00    +0.000 C 
ATOM     43  N9  UNL A   1      44.957  12.226  51.135  1.00  0.00    +0.000 N 
ATOM     44  C32 UNL A   1      45.254  10.939  51.588  1.00  0.00    +0.000 C 
ATOM     45  C33 UNL A   1      46.489  10.388  51.425  1.00  0.00    +0.000 C 
ATOM     57  C40 UNL A   1      47.488  11.392  51.184  1.00  0.00    +0.000 C 
ATOM     58  C41 UNL A   1      47.996  12.469  51.882  1.00  0.00    +0.000 C 
ATOM     59  C42 UNL A   1      48.347  13.430  50.888  1.00  0.00    +0.000 C 
ATOM     60  C43 UNL A   1      48.062  12.873  49.640  1.00  0.00    +0.000 C 
ATOM     61  N10 UNL A   1      47.933  11.537  49.896  1.00  0.00    +0.000 N 
ATOM     62  C44 UNL A   1      47.766  13.463  48.356  1.00  0.00    +0.000 C 
ATOM     74  C51 UNL A   1      47.118  12.821  47.342  1.00  0.00    +0.000 C 
ATOM     75  N11 UNL A   1      46.348  13.535  46.439  1.00  0.00    +0.000 N 
ATOM     76  C52 UNL A   1      45.402  12.710  46.086  1.00  0.00    +0.000 C 
ATOM     77  C53 UNL A   1      44.024  13.134  45.752  1.00  0.00    +0.000 C 
ATOM     89  C60 UNL A   1      43.454  13.598  46.888  1.00  0.00    +0.000 C 
ATOM     90  C61 UNL A   1      42.277  14.423  47.046  1.00  0.00    +0.000 C 
ATOM     91  C62 UNL A   1      42.054  14.598  48.361  1.00  0.00    +0.000 C 
ATOM     92  C63 UNL A   1      42.969  13.751  49.131  1.00  0.00    +0.000 C 
ATOM     93  N12 UNL A   1      43.869  13.282  48.195  1.00  0.00    +0.000 N 
ATOM     94  C64 UNL A   1      45.661  11.307  46.365  1.00  0.00    +0.000 C 
ATOM     95  C65 UNL A   1      46.741  11.429  47.140  1.00  0.00    +0.000 C 
ATOM     96  C66 UNL A   1      43.999  10.331  51.940  1.00  0.00    +0.000 C 
ATOM     97  C67 UNL A   1      42.979  11.080  51.522  1.00  0.00    +0.000 C 
ENDROOT
BRANCH   41   40
ATOM    129  H28 UNL A   1      40.724  16.125  53.431  1.00  0.00    +0.000 H 
ATOM     98  C68 UNL A   1      40.603  12.891  51.393  1.00  0.00    +0.000 C 
ATOM     99  C69 UNL A   1      39.561  13.205  52.239  1.00  0.00    +0.000 C 
ATOM    130  H29 UNL A   1      42.471  15.655  51.803  1.00  0.00    +0.000 H 
ATOM     37  C26 UNL A   1      39.659  14.338  53.044  1.00  0.00    +0.000 C 
ATOM     38  C27 UNL A   1      40.700  15.255  52.876  1.00  0.00    +0.000 C 
ATOM     39  C28 UNL A   1      41.706  14.979  51.953  1.00  0.00    +0.000 C 
ATOM     40  C29 UNL A   1      41.671  13.782  51.228  1.00  0.00    +0.000 C 
ATOM    141  H40 UNL A   1      40.595  11.995  50.878  1.00  0.00    +0.000 H 
ATOM    142  H41 UNL A   1      38.720  12.609  52.277  1.00  0.00    +0.000 H 
BRANCH   37   35
ATOM     35  C25 UNL A   1      38.676  14.536  54.126  1.00  0.00    +0.000 C 
ATOM     36  O3  UNL A   1      38.216  13.583  54.723  1.00  0.00    +0.000 O 
BRANCH   35   34
ATOM     34  N8  UNL A   1      38.280  15.826  54.425  1.00  0.00    +0.000 N 
ATOM    128  H27 UNL A   1      38.673  16.234  55.229  1.00  0.00    +0.000 H 
BRANCH   34   33
ATOM     33  C24 UNL A   1      37.338  16.648  53.669  1.00  0.00    +0.000 C 
ATOM    126  H25 UNL A   1      36.818  16.027  52.970  1.00  0.00    +0.000 H 
ATOM    127  H26 UNL A   1      36.655  17.097  54.360  1.00  0.00    +0.000 H 
BRANCH   33   32
ATOM    124  H23 UNL A   1      38.692  17.313  52.179  1.00  0.00    +0.000 H 
ATOM    125  H24 UNL A   1      37.295  18.374  52.470  1.00  0.00    +0.000 H 
ATOM     32  C23 UNL A   1      38.051  17.760  52.911  1.00  0.00    +0.000 C 
BRANCH   32   31
ATOM    122  H21 UNL A   1      38.586  19.679  53.646  1.00  0.00    +0.000 H 
ATOM    123  H22 UNL A   1      38.748  18.320  54.808  1.00  0.00    +0.000 H 
ATOM     31  C22 UNL A   1      38.902  18.670  53.808  1.00  0.00    +0.000 C 
BRANCH   31   30
ATOM    121  H20 UNL A   1      40.560  17.990  52.713  1.00  0.00    +0.000 H 
ATOM     30  C21 UNL A   1      40.421  18.608  53.575  1.00  0.00    +0.000 C 
ATOM    120  H19 UNL A   1      40.875  18.220  54.463  1.00  0.00    +0.000 H 
BRANCH   30   29
ATOM     29  C20 UNL A   1      41.096  19.949  53.246  1.00  0.00    +0.000 C 
ATOM    118  H17 UNL A   1      41.025  20.112  52.191  1.00  0.00    +0.000 H 
ATOM    119  H18 UNL A   1      40.587  20.703  53.810  1.00  0.00    +0.000 H 
BRANCH   29   28
ATOM    116  H15 UNL A   1      43.084  20.699  53.009  1.00  0.00    +0.000 H 
ATOM     28  C19 UNL A   1      42.573  20.009  53.647  1.00  0.00    +0.000 C 
ATOM    117  H16 UNL A   1      42.645  20.332  54.665  1.00  0.00    +0.000 H 
BRANCH   28   27
ATOM     27  N7  UNL A   1      43.180  18.700  53.521  1.00  0.00    +0.000 N 
ATOM    115  H14 UNL A   1      42.905  18.224  52.703  1.00  0.00    +0.000 H 
BRANCH   27   25
ATOM     25  C18 UNL A   1      44.052  17.979  54.294  1.00  0.00    +0.000 C 
ATOM     26  O2  UNL A   1      44.908  18.620  54.910  1.00  0.00    +0.000 O 
BRANCH   25   24
ATOM    100  C70 UNL A   1      44.861  15.653  53.579  1.00  0.00    +0.000 C 
ATOM    101  C71 UNL A   1      44.910  14.274  53.825  1.00  0.00    +0.000 C 
ATOM    143  H42 UNL A   1      45.411  16.052  52.803  1.00  0.00    +0.000 H 
ATOM    144  H43 UNL A   1      45.553  13.676  53.285  1.00  0.00    +0.000 H 
ATOM    113  H12 UNL A   1      42.508  14.088  56.161  1.00  0.00    +0.000 H 
ATOM    114  H13 UNL A   1      42.583  16.497  55.873  1.00  0.00    +0.000 H 
ATOM     21  C14 UNL A   1      44.083  13.712  54.805  1.00  0.00    +0.000 C 
ATOM     22  C15 UNL A   1      43.184  14.512  55.507  1.00  0.00    +0.000 C 
ATOM     23  C16 UNL A   1      43.210  15.897  55.315  1.00  0.00    +0.000 C 
ATOM     24  C17 UNL A   1      44.074  16.490  54.374  1.00  0.00    +0.000 C 
BRANCH   21   20
ATOM      2  C2  UNL A   1      43.080  11.433  55.186  1.00  0.00    +0.000 C 
ATOM      3  C3  UNL A   1      43.699  10.293  55.657  1.00  0.00    +0.000 C 
ATOM     18  N4  UNL A   1      45.052  10.462  55.677  1.00  0.00    +0.000 N 
ATOM     19  N5  UNL A   1      45.309  11.686  55.229  1.00  0.00    +0.000 N 
ATOM     20  N6  UNL A   1      44.128  12.325  55.058  1.00  0.00    +0.000 N 
BRANCH    2    1
ATOM      1  C1  UNL A   1      41.684  11.662  54.747  1.00  0.00    +0.000 C 
ATOM    102  H1  UNL A   1      41.104  12.017  55.574  1.00  0.00    +0.000 H 
ATOM    103  H2  UNL A   1      41.268  10.744  54.388  1.00  0.00    +0.000 H 
ATOM    104  H3  UNL A   1      41.671  12.390  53.963  1.00  0.00    +0.000 H 
ENDBRANCH    2    1
BRANCH    3    4
ATOM      4  C4  UNL A   1      43.077   9.020  56.003  1.00  0.00    +0.000 C 
ATOM      5  N1  UNL A   1      42.231   8.900  57.033  1.00  0.00    +0.000 N 
ATOM      6  N2  UNL A   1      42.029   7.569  57.148  1.00  0.00    +0.000 N 
ATOM     13  C11 UNL A   1      42.702   6.862  56.178  1.00  0.00    +0.000 C 
ATOM     14  C12 UNL A   1      43.351   7.782  55.376  1.00  0.00    +0.000 C 
ATOM    110  H9  UNL A   1      42.718   5.836  56.069  1.00  0.00    +0.000 H 
BRANCH    6    7
ATOM      7  C5  UNL A   1      41.227   7.044  58.187  1.00  0.00    +0.000 C 
ATOM      8  C6  UNL A   1      40.217   6.127  57.873  1.00  0.00    +0.000 C 
ATOM      9  C7  UNL A   1      39.442   5.577  58.893  1.00  0.00    +0.000 C 
ATOM    105  H4  UNL A   1      40.047   5.859  56.891  1.00  0.00    +0.000 H 
ATOM     11  C9  UNL A   1      40.619   6.922  60.521  1.00  0.00    +0.000 C 
ATOM     12  C10 UNL A   1      41.438   7.437  59.514  1.00  0.00    +0.000 C 
ATOM    109  H8  UNL A   1      42.192   8.103  59.746  1.00  0.00    +0.000 H 
ATOM     10  C8  UNL A   1      39.634   5.983  60.214  1.00  0.00    +0.000 C 
ATOM    106  H5  UNL A   1      38.724   4.868  58.672  1.00  0.00    +0.000 H 
ATOM    108  H7  UNL A   1      40.744   7.237  61.496  1.00  0.00    +0.000 H 
ATOM    107  H6  UNL A   1      39.047   5.588  60.966  1.00  0.00    +0.000 H 
ENDBRANCH    6    7
BRANCH   14   15
ATOM    111  H10 UNL A   1      44.918   8.032  53.927  1.00  0.00    +0.000 H 
ATOM     15  C13 UNL A   1      44.109   7.453  54.197  1.00  0.00    +0.000 C 
BRANCH   15   16
ATOM     16  N3  UNL A   1      43.776   6.433  53.476  1.00  0.00    +0.000 N 
BRANCH   16   17
ATOM     17  O1  UNL A   1      43.402   6.874  52.200  1.00  0.00    +0.000 O 
ATOM    112  H11 UNL A   1      43.933   6.664  51.457  1.00  0.00    +0.000 H 
ENDBRANCH   16   17
ENDBRANCH   15   16
ENDBRANCH   14   15
ENDBRANCH    3    4
ENDBRANCH   21   20
ENDBRANCH   25   24
ENDBRANCH   27   25
ENDBRANCH   28   27
ENDBRANCH   29   28
ENDBRANCH   30   29
ENDBRANCH   31   30
ENDBRANCH   32   31
ENDBRANCH   33   32
ENDBRANCH   34   33
ENDBRANCH   35   34
ENDBRANCH   37   35
ENDBRANCH   41   40
BRANCH   45   46
ATOM     46  C34 UNL A   1      46.740   8.929  51.085  1.00  0.00    +0.000 C 
ATOM     47  C35 UNL A   1      46.062   8.353  49.988  1.00  0.00    +0.000 C 
ATOM     48  F1  UNL A   1      45.443   9.127  49.083  1.00  0.00    +0.000 F 
ATOM     49  C36 UNL A   1      45.914   6.969  49.850  1.00  0.00    +0.000 C 
ATOM     50  F2  UNL A   1      45.143   6.476  48.871  1.00  0.00    +0.000 F 
ATOM     51  C37 UNL A   1      46.491   6.108  50.763  1.00  0.00    +0.000 C 
ATOM     52  F3  UNL A   1      46.293   4.786  50.674  1.00  0.00    +0.000 F 
ATOM     53  C38 UNL A   1      47.235   6.628  51.800  1.00  0.00    +0.000 C 
ATOM     54  F4  UNL A   1      47.792   5.809  52.704  1.00  0.00    +0.000 F 
ATOM     55  C39 UNL A   1      47.341   8.009  51.971  1.00  0.00    +0.000 C 
ATOM     56  F5  UNL A   1      47.958   8.396  53.092  1.00  0.00    +0.000 F 
ENDBRANCH   45   46
BRANCH   62   63
ATOM     65  F6  UNL A   1      49.984  14.816  47.001  1.00  0.00    +0.000 F 
ATOM     66  C47 UNL A   1      49.100  16.941  47.437  1.00  0.00    +0.000 C 
ATOM     67  F7  UNL A   1      50.151  17.500  46.821  1.00  0.00    +0.000 F 
ATOM     68  C48 UNL A   1      48.074  17.742  47.913  1.00  0.00    +0.000 C 
ATOM     69  F8  UNL A   1      48.127  19.072  47.752  1.00  0.00    +0.000 F 
ATOM     70  C49 UNL A   1      46.979  17.161  48.534  1.00  0.00    +0.000 C 
ATOM     71  F9  UNL A   1      45.961  17.927  48.950  1.00  0.00    +0.000 F 
ATOM     72  C50 UNL A   1      46.922  15.782  48.705  1.00  0.00    +0.000 C 
ATOM     73  F10 UNL A   1      45.839  15.249  49.294  1.00  0.00    +0.000 F 
ATOM     63  C45 UNL A   1      47.946  14.948  48.234  1.00  0.00    +0.000 C 
ATOM     64  C46 UNL A   1      49.023  15.557  47.570  1.00  0.00    +0.000 C 
ENDBRANCH   62   63
BRANCH   77   78
ATOM     78  C54 UNL A   1      43.378  12.836  44.457  1.00  0.00    +0.000 C 
ATOM     79  C55 UNL A   1      42.715  11.619  44.235  1.00  0.00    +0.000 C 
ATOM     80  F11 UNL A   1      42.814  10.626  45.131  1.00  0.00    +0.000 F 
ATOM     81  C56 UNL A   1      41.890  11.428  43.123  1.00  0.00    +0.000 C 
ATOM     82  F12 UNL A   1      41.227  10.274  42.974  1.00  0.00    +0.000 F 
ATOM     83  C57 UNL A   1      41.712  12.446  42.199  1.00  0.00    +0.000 C 
ATOM     84  F13 UNL A   1      40.879  12.281  41.162  1.00  0.00    +0.000 F 
ATOM     85  C58 UNL A   1      42.371  13.648  42.376  1.00  0.00    +0.000 C 
ATOM     86  F14 UNL A   1      42.181  14.652  41.507  1.00  0.00    +0.000 F 
ATOM     87  C59 UNL A   1      43.186  13.843  43.490  1.00  0.00    +0.000 C 
ATOM     88  F15 UNL A   1      43.713  15.064  43.656  1.00  0.00    +0.000 F 
ENDBRANCH   77   78
TORSDOF 22
ENDMDL
MODEL 4
REMARK VINA RESULT:      -9.9     12.232     19.880
ROOT
ATOM    131  H30 UNL A   1       3.986  30.224  -4.858  1.00  0.00    +0.000 H 
ATOM    132  H31 UNL A   1       5.422  32.367  -5.515  1.00  0.00    +0.000 H 
ATOM    133  H32 UNL A   1       5.161  32.128  -1.494  1.00  0.00    +0.000 H 
ATOM    134  H33 UNL A   1      13.107  30.583  -2.305  1.00  0.00    +0.000 H 
ATOM    135  H34 UNL A   1      12.171  28.831  -3.899  1.00  0.00    +0.000 H 
ATOM    136  H35 UNL A   1       8.923  30.778  -2.185  1.00  0.00    +0.000 H 
ATOM    137  H36 UNL A   1       8.818  32.004   0.927  1.00  0.00    +0.000 H 
ATOM    138  H37 UNL A   1       6.632  32.571  -0.315  1.00  0.00    +0.000 H 
ATOM    139  H38 UNL A   1       5.648  26.689  -1.348  1.00  0.00    +0.000 H 
ATOM    140  H39 UNL A   1       8.144  26.278  -1.800  1.00  0.00    +0.000 H 
ATOM     41  C30 UNL A   1       9.360  28.307  -3.430  1.00  0.00    +0.000 C 
ATOM     42  C31 UNL A   1       7.949  28.237  -2.930  1.00  0.00    +0.000 C 
ATOM     43  N9  UNL A   1       6.965  29.047  -3.169  1.00  0.00    +0.000 N 
ATOM     44  C32 UNL A   1       5.904  28.615  -2.372  1.00  0.00    +0.000 C 
ATOM     45  C33 UNL A   1       4.888  29.449  -2.015  1.00  0.00    +0.000 C 
ATOM     57  C40 UNL A   1       4.810  30.589  -2.887  1.00  0.00    +0.000 C 
ATOM     58  C41 UNL A   1       4.582  30.789  -4.233  1.00  0.00    +0.000 C 
ATOM     59  C42 UNL A   1       5.346  31.944  -4.577  1.00  0.00    +0.000 C 
ATOM     60  C43 UNL A   1       5.971  32.400  -3.415  1.00  0.00    +0.000 C 
ATOM     61  N10 UNL A   1       5.288  31.779  -2.407  1.00  0.00    +0.000 N 
ATOM     62  C44 UNL A   1       7.164  33.182  -3.196  1.00  0.00    +0.000 C 
ATOM     74  C51 UNL A   1       7.869  33.205  -2.027  1.00  0.00    +0.000 C 
ATOM     75  N11 UNL A   1       9.235  33.436  -2.037  1.00  0.00    +0.000 N 
ATOM     76  C52 UNL A   1       9.690  32.767  -1.014  1.00  0.00    +0.000 C 
ATOM     77  C53 UNL A   1      11.020  32.119  -0.982  1.00  0.00    +0.000 C 
ATOM     89  C60 UNL A   1      10.999  31.103  -1.875  1.00  0.00    +0.000 C 
ATOM     90  C61 UNL A   1      12.107  30.388  -2.467  1.00  0.00    +0.000 C 
ATOM     91  C62 UNL A   1      11.613  29.424  -3.265  1.00  0.00    +0.000 C 
ATOM     92  C63 UNL A   1      10.158  29.345  -3.096  1.00  0.00    +0.000 C 
ATOM     93  N12 UNL A   1       9.841  30.465  -2.355  1.00  0.00    +0.000 N 
ATOM     94  C64 UNL A   1       8.697  32.391  -0.021  1.00  0.00    +0.000 C 
ATOM     95  C65 UNL A   1       7.584  32.689  -0.695  1.00  0.00    +0.000 C 
ATOM     96  C66 UNL A   1       6.282  27.329  -1.850  1.00  0.00    +0.000 C 
ATOM     97  C67 UNL A   1       7.567  27.077  -2.103  1.00  0.00    +0.000 C 
ENDROOT
BRANCH   41   40
ATOM    129  H28 UNL A   1       9.432  24.987  -6.599  1.00  0.00    +0.000 H 
ATOM     98  C68 UNL A   1      10.762  26.273  -3.251  1.00  0.00    +0.000 C 
ATOM     99  C69 UNL A   1      11.185  25.052  -3.733  1.00  0.00    +0.000 C 
ATOM    130  H29 UNL A   1       8.828  27.218  -5.834  1.00  0.00    +0.000 H 
ATOM     37  C26 UNL A   1      10.625  24.554  -4.906  1.00  0.00    +0.000 C 
ATOM     38  C27 UNL A   1       9.786  25.343  -5.697  1.00  0.00    +0.000 C 
ATOM     39  C28 UNL A   1       9.431  26.615  -5.253  1.00  0.00    +0.000 C 
ATOM     40  C29 UNL A   1       9.899  27.070  -4.014  1.00  0.00    +0.000 C 
ATOM    141  H40 UNL A   1      11.082  26.600  -2.326  1.00  0.00    +0.000 H 
ATOM    142  H41 UNL A   1      11.908  24.515  -3.229  1.00  0.00    +0.000 H 
BRANCH   37   35
ATOM     35  C25 UNL A   1      10.880  23.151  -5.283  1.00  0.00    +0.000 C 
ATOM     36  O3  UNL A   1      11.967  22.815  -5.709  1.00  0.00    +0.000 O 
BRANCH   35   34
ATOM     34  N8  UNL A   1       9.848  22.240  -5.160  1.00  0.00    +0.000 N 
ATOM    128  H27 UNL A   1       9.040  22.411  -5.695  1.00  0.00    +0.000 H 
BRANCH   34   33
ATOM     33  C24 UNL A   1       9.832  21.047  -4.316  1.00  0.00    +0.000 C 
ATOM    126  H25 UNL A   1      10.575  21.151  -3.554  1.00  0.00    +0.000 H 
ATOM    127  H26 UNL A   1       8.856  20.953  -3.887  1.00  0.00    +0.000 H 
BRANCH   33   32
ATOM    124  H23 UNL A   1       9.193  19.314  -5.358  1.00  0.00    +0.000 H 
ATOM    125  H24 UNL A   1      10.656  20.095  -5.999  1.00  0.00    +0.000 H 
ATOM     32  C23 UNL A   1      10.123  19.789  -5.124  1.00  0.00    +0.000 C 
BRANCH   32   31
ATOM    122  H21 UNL A   1      11.884  19.293  -4.046  1.00  0.00    +0.000 H 
ATOM    123  H22 UNL A   1      10.407  18.376  -3.601  1.00  0.00    +0.000 H 
ATOM     31  C22 UNL A   1      11.012  18.777  -4.388  1.00  0.00    +0.000 C 
BRANCH   31   30
ATOM    121  H20 UNL A   1      12.543  17.614  -5.231  1.00  0.00    +0.000 H 
ATOM     30  C21 UNL A   1      11.474  17.566  -5.216  1.00  0.00    +0.000 C 
ATOM    120  H19 UNL A   1      11.025  17.639  -6.184  1.00  0.00    +0.000 H 
BRANCH   30   29
ATOM     29  C20 UNL A   1      11.121  16.190  -4.632  1.00  0.00    +0.000 C 
ATOM    118  H17 UNL A   1      10.075  16.177  -4.406  1.00  0.00    +0.000 H 
ATOM    119  H18 UNL A   1      11.388  15.459  -5.367  1.00  0.00    +0.000 H 
BRANCH   29   28
ATOM    116  H15 UNL A   1      11.914  16.701  -2.713  1.00  0.00    +0.000 H 
ATOM     28  C19 UNL A   1      11.895  15.846  -3.356  1.00  0.00    +0.000 C 
ATOM    117  H16 UNL A   1      11.410  15.030  -2.862  1.00  0.00    +0.000 H 
BRANCH   28   27
ATOM     27  N7  UNL A   1      13.254  15.462  -3.683  1.00  0.00    +0.000 N 
ATOM    115  H14 UNL A   1      13.317  14.555  -4.063  1.00  0.00    +0.000 H 
BRANCH   27   25
ATOM     25  C18 UNL A   1      14.468  16.086  -3.575  1.00  0.00    +0.000 C 
ATOM     26  O2  UNL A   1      15.466  15.411  -3.838  1.00  0.00    +0.000 O 
BRANCH   25   24
ATOM    100  C70 UNL A   1      14.743  18.613  -3.919  1.00  0.00    +0.000 C 
ATOM    101  C71 UNL A   1      14.782  19.900  -3.367  1.00  0.00    +0.000 C 
ATOM    143  H42 UNL A   1      14.782  18.496  -4.944  1.00  0.00    +0.000 H 
ATOM    144  H43 UNL A   1      14.767  20.727  -3.982  1.00  0.00    +0.000 H 
ATOM    113  H12 UNL A   1      15.040  19.055  -0.129  1.00  0.00    +0.000 H 
ATOM    114  H13 UNL A   1      14.762  16.842  -1.086  1.00  0.00    +0.000 H 
ATOM     21  C14 UNL A   1      14.841  20.059  -1.977  1.00  0.00    +0.000 C 
ATOM     22  C15 UNL A   1      14.902  18.942  -1.145  1.00  0.00    +0.000 C 
ATOM     23  C16 UNL A   1      14.772  17.668  -1.706  1.00  0.00    +0.000 C 
ATOM     24  C17 UNL A   1      14.655  17.487  -3.097  1.00  0.00    +0.000 C 
BRANCH   21   20
ATOM      2  C2  UNL A   1      13.899  22.325  -1.408  1.00  0.00    +0.000 C 
ATOM      3  C3  UNL A   1      14.569  23.437  -0.939  1.00  0.00    +0.000 C 
ATOM     18  N4  UNL A   1      15.835  23.104  -0.563  1.00  0.00    +0.000 N 
ATOM     19  N5  UNL A   1      15.990  21.802  -0.782  1.00  0.00    +0.000 N 
ATOM     20  N6  UNL A   1      14.880  21.351  -1.414  1.00  0.00    +0.000 N 
BRANCH    2    1
ATOM      1  C1  UNL A   1      12.461  22.112  -1.692  1.00  0.00    +0.000 C 
ATOM    102  H1  UNL A   1      11.965  23.060  -1.749  1.00  0.00    +0.000 H 
ATOM    103  H2  UNL A   1      12.025  21.529  -0.908  1.00  0.00    +0.000 H 
ATOM    104  H3  UNL A   1      12.353  21.596  -2.623  1.00  0.00    +0.000 H 
ENDBRANCH    2    1
BRANCH    3    4
ATOM      4  C4  UNL A   1      14.036  24.781  -0.746  1.00  0.00    +0.000 C 
ATOM      5  N1  UNL A   1      13.090  25.047   0.163  1.00  0.00    +0.000 N 
ATOM      6  N2  UNL A   1      12.731  26.324  -0.090  1.00  0.00    +0.000 N 
ATOM     13  C11 UNL A   1      13.469  26.872  -1.114  1.00  0.00    +0.000 C 
ATOM     14  C12 UNL A   1      14.372  25.911  -1.527  1.00  0.00    +0.000 C 
ATOM    110  H9  UNL A   1      13.368  27.824  -1.500  1.00  0.00    +0.000 H 
BRANCH    6    7
ATOM      7  C5  UNL A   1      11.691  26.944   0.639  1.00  0.00    +0.000 C 
ATOM      8  C6  UNL A   1      10.823  27.822  -0.021  1.00  0.00    +0.000 C 
ATOM      9  C7  UNL A   1       9.773  28.413   0.680  1.00  0.00    +0.000 C 
ATOM    105  H4  UNL A   1      10.959  28.030  -1.023  1.00  0.00    +0.000 H 
ATOM     11  C9  UNL A   1      10.509  27.326   2.711  1.00  0.00    +0.000 C 
ATOM     12  C10 UNL A   1      11.531  26.686   2.006  1.00  0.00    +0.000 C 
ATOM    109  H8  UNL A   1      12.163  26.028   2.489  1.00  0.00    +0.000 H 
ATOM     10  C8  UNL A   1       9.623  28.175   2.047  1.00  0.00    +0.000 C 
ATOM    106  H5  UNL A   1       9.104  29.028   0.189  1.00  0.00    +0.000 H 
ATOM    108  H7  UNL A   1      10.410  27.170   3.726  1.00  0.00    +0.000 H 
ATOM    107  H6  UNL A   1       8.856  28.628   2.568  1.00  0.00    +0.000 H 
ENDBRANCH    6    7
BRANCH   14   15
ATOM    111  H10 UNL A   1      15.950  26.973  -2.529  1.00  0.00    +0.000 H 
ATOM     15  C13 UNL A   1      15.383  26.112  -2.534  1.00  0.00    +0.000 C 
BRANCH   15   16
ATOM     16  N3  UNL A   1      15.580  25.215  -3.443  1.00  0.00    +0.000 N 
BRANCH   16   17
ATOM     17  O1  UNL A   1      14.384  24.991  -4.135  1.00  0.00    +0.000 O 
ATOM    112  H11 UNL A   1      13.563  25.179  -3.726  1.00  0.00    +0.000 H 
ENDBRANCH   16   17
ENDBRANCH   15   16
ENDBRANCH   14   15
ENDBRANCH    3    4
ENDBRANCH   21   20
ENDBRANCH   25   24
ENDBRANCH   27   25
ENDBRANCH   28   27
ENDBRANCH   29   28
ENDBRANCH   30   29
ENDBRANCH   31   30
ENDBRANCH   32   31
ENDBRANCH   33   32
ENDBRANCH   34   33
ENDBRANCH   35   34
ENDBRANCH   37   35
ENDBRANCH   41   40
BRANCH   45   46
ATOM     46  C34 UNL A   1       4.217  29.453  -0.652  1.00  0.00    +0.000 C 
ATOM     47  C35 UNL A   1       5.021  29.485   0.509  1.00  0.00    +0.000 C 
ATOM     48  F1  UNL A   1       6.322  29.804   0.431  1.00  0.00    +0.000 F 
ATOM     49  C36 UNL A   1       4.535  29.089   1.759  1.00  0.00    +0.000 C 
ATOM     50  F2  UNL A   1       5.373  29.002   2.802  1.00  0.00    +0.000 F 
ATOM     51  C37 UNL A   1       3.216  28.712   1.911  1.00  0.00    +0.000 C 
ATOM     52  F3  UNL A   1       2.764  28.266   3.091  1.00  0.00    +0.000 F 
ATOM     53  C38 UNL A   1       2.375  28.750   0.819  1.00  0.00    +0.000 C 
ATOM     54  F4  UNL A   1       1.094  28.374   0.943  1.00  0.00    +0.000 F 
ATOM     55  C39 UNL A   1       2.868  29.093  -0.441  1.00  0.00    +0.000 C 
ATOM     56  F5  UNL A   1       2.001  28.951  -1.448  1.00  0.00    +0.000 F 
ENDBRANCH   45   46
BRANCH   62   63
ATOM     65  F6  UNL A   1       9.114  31.868  -4.945  1.00  0.00    +0.000 F 
ATOM     66  C47 UNL A   1       9.253  33.724  -6.368  1.00  0.00    +0.000 C 
ATOM     67  F7  UNL A   1      10.156  33.076  -7.117  1.00  0.00    +0.000 F 
ATOM     68  C48 UNL A   1       8.809  34.979  -6.754  1.00  0.00    +0.000 C 
ATOM     69  F8  UNL A   1       9.276  35.542  -7.878  1.00  0.00    +0.000 F 
ATOM     70  C49 UNL A   1       7.862  35.640  -5.988  1.00  0.00    +0.000 C 
ATOM     71  F9  UNL A   1       7.392  36.830  -6.384  1.00  0.00    +0.000 F 
ATOM     72  C50 UNL A   1       7.378  35.059  -4.820  1.00  0.00    +0.000 C 
ATOM     73  F10 UNL A   1       6.446  35.717  -4.111  1.00  0.00    +0.000 F 
ATOM     63  C45 UNL A   1       7.809  33.792  -4.406  1.00  0.00    +0.000 C 
ATOM     64  C46 UNL A   1       8.737  33.124  -5.221  1.00  0.00    +0.000 C 
ENDBRANCH   62   63
BRANCH   77   78
ATOM     78  C54 UNL A   1      12.041  32.419   0.044  1.00  0.00    +0.000 C 
ATOM     79  C55 UNL A   1      12.001  31.818   1.310  1.00  0.00    +0.000 C 
ATOM     80  F11 UNL A   1      10.930  31.101   1.682  1.00  0.00    +0.000 F 
ATOM     81  C56 UNL A   1      13.086  31.891   2.189  1.00  0.00    +0.000 C 
ATOM     82  F12 UNL A   1      13.035  31.255   3.368  1.00  0.00    +0.000 F 
ATOM     83  C57 UNL A   1      14.237  32.573   1.827  1.00  0.00    +0.000 C 
ATOM     84  F13 UNL A   1      15.297  32.596   2.648  1.00  0.00    +0.000 F 
ATOM     85  C58 UNL A   1      14.299  33.197   0.595  1.00  0.00    +0.000 C 
ATOM     86  F14 UNL A   1      15.419  33.831   0.220  1.00  0.00    +0.000 F 
ATOM     87  C59 UNL A   1      13.221  33.116  -0.285  1.00  0.00    +0.000 C 
ATOM     88  F15 UNL A   1      13.384  33.655  -1.502  1.00  0.00    +0.000 F 
ENDBRANCH   77   78
TORSDOF 22
ENDMDL
MODEL 5
REMARK VINA RESULT:      -9.7     45.662     53.710
ROOT
ATOM    131  H30 UNL A   1      44.256  10.170  47.657  1.00  0.00    +0.000 H 
ATOM    132  H31 UNL A   1      46.720  10.401  48.637  1.00  0.00    +0.000 H 
ATOM    133  H32 UNL A   1      46.403  12.657  45.306  1.00  0.00    +0.000 H 
ATOM    134  H33 UNL A   1      47.172  18.636  50.769  1.00  0.00    +0.000 H 
ATOM    135  H34 UNL A   1      45.231  17.356  51.812  1.00  0.00    +0.000 H 
ATOM    136  H35 UNL A   1      46.174  15.443  48.244  1.00  0.00    +0.000 H 
ATOM    137  H36 UNL A   1      47.309  16.947  45.479  1.00  0.00    +0.000 H 
ATOM    138  H37 UNL A   1      47.240  14.394  45.126  1.00  0.00    +0.000 H 
ATOM    139  H38 UNL A   1      41.323  14.341  46.401  1.00  0.00    +0.000 H 
ATOM    140  H39 UNL A   1      41.636  16.085  48.263  1.00  0.00    +0.000 H 
ATOM     41  C30 UNL A   1      43.932  15.590  49.918  1.00  0.00    +0.000 C 
ATOM     42  C31 UNL A   1      43.464  14.819  48.721  1.00  0.00    +0.000 C 
ATOM     43  N9  UNL A   1      43.964  13.737  48.211  1.00  0.00    +0.000 N 
ATOM     44  C32 UNL A   1      43.246  13.494  47.038  1.00  0.00    +0.000 C 
ATOM     45  C33 UNL A   1      43.758  12.737  46.027  1.00  0.00    +0.000 C 
ATOM     57  C40 UNL A   1      44.832  11.900  46.486  1.00  0.00    +0.000 C 
ATOM     58  C41 UNL A   1      44.965  10.875  47.400  1.00  0.00    +0.000 C 
ATOM     59  C42 UNL A   1      46.289  10.998  47.915  1.00  0.00    +0.000 C 
ATOM     60  C43 UNL A   1      46.899  12.072  47.263  1.00  0.00    +0.000 C 
ATOM     61  N10 UNL A   1      46.107  12.288  46.170  1.00  0.00    +0.000 N 
ATOM     62  C44 UNL A   1      47.986  12.945  47.635  1.00  0.00    +0.000 C 
ATOM     74  C51 UNL A   1      48.203  14.181  47.098  1.00  0.00    +0.000 C 
ATOM     75  N11 UNL A   1      48.811  15.175  47.848  1.00  0.00    +0.000 N 
ATOM     76  C52 UNL A   1      48.295  16.287  47.403  1.00  0.00    +0.000 C 
ATOM     77  C53 UNL A   1      48.049  17.475  48.250  1.00  0.00    +0.000 C 
ATOM     89  C60 UNL A   1      47.072  17.153  49.128  1.00  0.00    +0.000 C 
ATOM     90  C61 UNL A   1      46.702  17.813  50.360  1.00  0.00    +0.000 C 
ATOM     91  C62 UNL A   1      45.640  17.172  50.882  1.00  0.00    +0.000 C 
ATOM     92  C63 UNL A   1      45.153  16.171  49.929  1.00  0.00    +0.000 C 
ATOM     93  N12 UNL A   1      46.135  16.118  48.960  1.00  0.00    +0.000 N 
ATOM     94  C64 UNL A   1      47.650  16.200  46.104  1.00  0.00    +0.000 C 
ATOM     95  C65 UNL A   1      47.624  14.874  45.955  1.00  0.00    +0.000 C 
ATOM     96  C66 UNL A   1      42.118  14.386  47.057  1.00  0.00    +0.000 C 
ATOM     97  C67 UNL A   1      42.241  15.280  48.038  1.00  0.00    +0.000 C 
ENDROOT
BRANCH   41   40
ATOM    129  H28 UNL A   1      40.635  14.500  52.918  1.00  0.00    +0.000 H 
ATOM     98  C68 UNL A   1      42.464  17.261  51.006  1.00  0.00    +0.000 C 
ATOM     99  C69 UNL A   1      41.416  17.586  51.842  1.00  0.00    +0.000 C 
ATOM    130  H29 UNL A   1      42.597  13.952  51.585  1.00  0.00    +0.000 H 
ATOM     37  C26 UNL A   1      40.700  16.564  52.461  1.00  0.00    +0.000 C 
ATOM     38  C27 UNL A   1      41.135  15.238  52.399  1.00  0.00    +0.000 C 
ATOM     39  C28 UNL A   1      42.250  14.924  51.626  1.00  0.00    +0.000 C 
ATOM     40  C29 UNL A   1      42.901  15.935  50.907  1.00  0.00    +0.000 C 
ATOM    141  H40 UNL A   1      42.927  17.999  50.452  1.00  0.00    +0.000 H 
ATOM    142  H41 UNL A   1      41.166  18.573  52.007  1.00  0.00    +0.000 H 
BRANCH   37   35
ATOM     35  C25 UNL A   1      39.432  16.887  53.142  1.00  0.00    +0.000 C 
ATOM     36  O3  UNL A   1      38.378  16.451  52.723  1.00  0.00    +0.000 O 
BRANCH   35   34
ATOM     34  N8  UNL A   1      39.474  17.713  54.250  1.00  0.00    +0.000 N 
ATOM    128  H27 UNL A   1      40.168  17.519  54.919  1.00  0.00    +0.000 H 
BRANCH   34   33
ATOM     33  C24 UNL A   1      38.593  18.844  54.530  1.00  0.00    +0.000 C 
ATOM    126  H25 UNL A   1      39.172  19.640  54.949  1.00  0.00    +0.000 H 
ATOM    127  H26 UNL A   1      38.136  19.149  53.612  1.00  0.00    +0.000 H 
BRANCH   33   32
ATOM    124  H23 UNL A   1      37.109  19.359  55.955  1.00  0.00    +0.000 H 
ATOM    125  H24 UNL A   1      36.746  17.934  54.953  1.00  0.00    +0.000 H 
ATOM     32  C23 UNL A   1      37.491  18.463  55.510  1.00  0.00    +0.000 C 
BRANCH   32   31
ATOM    122  H21 UNL A   1      38.973  17.247  56.424  1.00  0.00    +0.000 H 
ATOM    123  H22 UNL A   1      37.841  18.079  57.541  1.00  0.00    +0.000 H 
ATOM     31  C22 UNL A   1      37.961  17.527  56.632  1.00  0.00    +0.000 C 
BRANCH   31   30
ATOM    121  H20 UNL A   1      36.385  16.473  57.534  1.00  0.00    +0.000 H 
ATOM     30  C21 UNL A   1      37.143  16.239  56.816  1.00  0.00    +0.000 C 
ATOM    120  H19 UNL A   1      37.812  15.465  57.130  1.00  0.00    +0.000 H 
BRANCH   30   29
ATOM     29  C20 UNL A   1      36.399  15.742  55.566  1.00  0.00    +0.000 C 
ATOM    118  H17 UNL A   1      35.350  15.885  55.718  1.00  0.00    +0.000 H 
ATOM    119  H18 UNL A   1      36.771  16.305  54.736  1.00  0.00    +0.000 H 
BRANCH   29   28
ATOM    116  H15 UNL A   1      36.436  13.677  56.122  1.00  0.00    +0.000 H 
ATOM     28  C19 UNL A   1      36.646  14.263  55.251  1.00  0.00    +0.000 C 
ATOM    117  H16 UNL A   1      36.004  13.965  54.449  1.00  0.00    +0.000 H 
BRANCH   28   27
ATOM     27  N7  UNL A   1      38.025  14.058  54.856  1.00  0.00    +0.000 N 
ATOM    115  H14 UNL A   1      38.273  14.560  54.046  1.00  0.00    +0.000 H 
BRANCH   27   25
ATOM     25  C18 UNL A   1      39.057  13.315  55.366  1.00  0.00    +0.000 C 
ATOM     26  O2  UNL A   1      39.167  13.286  56.594  1.00  0.00    +0.000 O 
BRANCH   25   24
ATOM    100  C70 UNL A   1      39.821  11.935  53.344  1.00  0.00    +0.000 C 
ATOM    101  C71 UNL A   1      40.871  11.426  52.569  1.00  0.00    +0.000 C 
ATOM    143  H42 UNL A   1      38.846  11.806  53.030  1.00  0.00    +0.000 H 
ATOM    144  H43 UNL A   1      40.676  10.996  51.652  1.00  0.00    +0.000 H 
ATOM    113  H12 UNL A   1      43.402  12.019  54.691  1.00  0.00    +0.000 H 
ATOM    114  H13 UNL A   1      41.603  13.082  55.926  1.00  0.00    +0.000 H 
ATOM     21  C14 UNL A   1      42.186  11.502  53.043  1.00  0.00    +0.000 C 
ATOM     22  C15 UNL A   1      42.448  12.046  54.299  1.00  0.00    +0.000 C 
ATOM     23  C16 UNL A   1      41.402  12.630  55.020  1.00  0.00    +0.000 C 
ATOM     24  C17 UNL A   1      40.080  12.615  54.536  1.00  0.00    +0.000 C 
BRANCH   21   20
ATOM      2  C2  UNL A   1      44.012   9.860  52.481  1.00  0.00    +0.000 C 
ATOM      3  C3  UNL A   1      45.031   9.995  51.559  1.00  0.00    +0.000 C 
ATOM     18  N4  UNL A   1      44.805  11.075  50.759  1.00  0.00    +0.000 N 
ATOM     19  N5  UNL A   1      43.664  11.633  51.150  1.00  0.00    +0.000 N 
ATOM     20  N6  UNL A   1      43.248  10.992  52.268  1.00  0.00    +0.000 N 
BRANCH    2    1
ATOM      1  C1  UNL A   1      43.668   8.737  53.383  1.00  0.00    +0.000 C 
ATOM    102  H1  UNL A   1      42.677   8.876  53.765  1.00  0.00    +0.000 H 
ATOM    103  H2  UNL A   1      44.362   8.706  54.196  1.00  0.00    +0.000 H 
ATOM    104  H3  UNL A   1      43.714   7.816  52.840  1.00  0.00    +0.000 H 
ENDBRANCH    2    1
BRANCH    3    4
ATOM      4  C4  UNL A   1      46.159   9.097  51.343  1.00  0.00    +0.000 C 
ATOM      5  N1  UNL A   1      47.274   9.167  52.080  1.00  0.00    +0.000 N 
ATOM      6  N2  UNL A   1      48.136   8.328  51.465  1.00  0.00    +0.000 N 
ATOM     13  C11 UNL A   1      47.562   7.705  50.381  1.00  0.00    +0.000 C 
ATOM     14  C12 UNL A   1      46.251   8.140  50.306  1.00  0.00    +0.000 C 
ATOM    110  H9  UNL A   1      48.023   7.037  49.744  1.00  0.00    +0.000 H 
BRANCH    6    7
ATOM      7  C5  UNL A   1      49.464   8.185  51.928  1.00  0.00    +0.000 C 
ATOM      8  C6  UNL A   1      49.733   8.348  53.292  1.00  0.00    +0.000 C 
ATOM      9  C7  UNL A   1      51.034   8.177  53.765  1.00  0.00    +0.000 C 
ATOM    105  H4  UNL A   1      48.973   8.593  53.945  1.00  0.00    +0.000 H 
ATOM     11  C9  UNL A   1      51.807   7.772  51.509  1.00  0.00    +0.000 C 
ATOM     12  C10 UNL A   1      50.499   7.887  51.033  1.00  0.00    +0.000 C 
ATOM    109  H8  UNL A   1      50.298   7.754  50.029  1.00  0.00    +0.000 H 
ATOM     10  C8  UNL A   1      52.071   7.901  52.873  1.00  0.00    +0.000 C 
ATOM    106  H5  UNL A   1      51.231   8.254  54.776  1.00  0.00    +0.000 H 
ATOM    108  H7  UNL A   1      52.580   7.591  50.850  1.00  0.00    +0.000 H 
ATOM    107  H6  UNL A   1      53.036   7.792  53.223  1.00  0.00    +0.000 H 
ENDBRANCH    6    7
BRANCH   14   15
ATOM    111  H10 UNL A   1      45.074   8.224  48.510  1.00  0.00    +0.000 H 
ATOM     15  C13 UNL A   1      45.283   7.666  49.352  1.00  0.00    +0.000 C 
BRANCH   15   16
ATOM     16  N3  UNL A   1      44.675   6.542  49.548  1.00  0.00    +0.000 N 
BRANCH   16   17
ATOM     17  O1  UNL A   1      43.611   6.744  50.436  1.00  0.00    +0.000 O 
ATOM    112  H11 UNL A   1      43.422   7.605  50.754  1.00  0.00    +0.000 H 
ENDBRANCH   16   17
ENDBRANCH   15   16
ENDBRANCH   14   15
ENDBRANCH    3    4
ENDBRANCH   21   20
ENDBRANCH   25   24
ENDBRANCH   27   25
ENDBRANCH   28   27
ENDBRANCH   29   28
ENDBRANCH   30   29
ENDBRANCH   31   30
ENDBRANCH   32   31
ENDBRANCH   33   32
ENDBRANCH   34   33
ENDBRANCH   35   34
ENDBRANCH   37   35
ENDBRANCH   41   40
BRANCH   45   46
ATOM     46  C34 UNL A   1      43.567  13.035  44.550  1.00  0.00    +0.000 C 
ATOM     47  C35 UNL A   1      43.804  14.344  44.077  1.00  0.00    +0.000 C 
ATOM     48  F1  UNL A   1      44.463  15.236  44.832  1.00  0.00    +0.000 F 
ATOM     49  C36 UNL A   1      43.279  14.802  42.864  1.00  0.00    +0.000 C 
ATOM     50  F2  UNL A   1      43.411  16.092  42.524  1.00  0.00    +0.000 F 
ATOM     51  C37 UNL A   1      42.558  13.953  42.048  1.00  0.00    +0.000 C 
ATOM     52  F3  UNL A   1      41.995  14.405  40.919  1.00  0.00    +0.000 F 
ATOM     53  C38 UNL A   1      42.378  12.641  42.432  1.00  0.00    +0.000 C 
ATOM     54  F4  UNL A   1      41.669  11.805  41.660  1.00  0.00    +0.000 F 
ATOM     55  C39 UNL A   1      42.854  12.195  43.667  1.00  0.00    +0.000 C 
ATOM     56  F5  UNL A   1      42.492  10.952  43.999  1.00  0.00    +0.000 F 
ENDBRANCH   45   46
BRANCH   62   63
ATOM     65  F6  UNL A   1      47.068  13.295  50.396  1.00  0.00    +0.000 F 
ATOM     66  C47 UNL A   1      49.018  12.345  51.282  1.00  0.00    +0.000 C 
ATOM     67  F7  UNL A   1      48.550  12.551  52.521  1.00  0.00    +0.000 F 
ATOM     68  C48 UNL A   1      50.225  11.689  51.100  1.00  0.00    +0.000 C 
ATOM     69  F8  UNL A   1      50.920  11.253  52.160  1.00  0.00    +0.000 F 
ATOM     70  C49 UNL A   1      50.699  11.461  49.818  1.00  0.00    +0.000 C 
ATOM     71  F9  UNL A   1      51.840  10.781  49.636  1.00  0.00    +0.000 F 
ATOM     72  C50 UNL A   1      49.981  11.914  48.716  1.00  0.00    +0.000 C 
ATOM     73  F10 UNL A   1      50.458  11.661  47.487  1.00  0.00    +0.000 F 
ATOM     63  C45 UNL A   1      48.758  12.581  48.870  1.00  0.00    +0.000 C 
ATOM     64  C46 UNL A   1      48.278  12.762  50.177  1.00  0.00    +0.000 C 
ENDBRANCH   62   63
BRANCH   77   78
ATOM     78  C54 UNL A   1      48.622  18.806  47.961  1.00  0.00    +0.000 C 
ATOM     79  C55 UNL A   1      49.998  19.051  48.089  1.00  0.00    +0.000 C 
ATOM     80  F11 UNL A   1      50.795  18.134  48.655  1.00  0.00    +0.000 F 
ATOM     81  C56 UNL A   1      50.584  20.213  47.580  1.00  0.00    +0.000 C 
ATOM     82  F12 UNL A   1      51.909  20.388  47.668  1.00  0.00    +0.000 F 
ATOM     83  C57 UNL A   1      49.808  21.166  46.936  1.00  0.00    +0.000 C 
ATOM     84  F13 UNL A   1      50.379  22.254  46.399  1.00  0.00    +0.000 F 
ATOM     85  C58 UNL A   1      48.446  20.965  46.815  1.00  0.00    +0.000 C 
ATOM     86  F14 UNL A   1      47.691  21.862  46.165  1.00  0.00    +0.000 F 
ATOM     87  C59 UNL A   1      47.863  19.801  47.314  1.00  0.00    +0.000 C 
ATOM     88  F15 UNL A   1      46.556  19.620  47.074  1.00  0.00    +0.000 F 
ENDBRANCH   77   78
TORSDOF 22
ENDMDL
MODEL 6
REMARK VINA RESULT:      -9.7     29.667     36.680
ROOT
ATOM    131  H30 UNL A   1      51.108  14.479   7.758  1.00  0.00    +0.000 H 
ATOM    132  H31 UNL A   1      53.265  14.030   6.265  1.00  0.00    +0.000 H 
ATOM    133  H32 UNL A   1      51.694  17.615   5.279  1.00  0.00    +0.000 H 
ATOM    134  H33 UNL A   1      58.604  20.202   8.704  1.00  0.00    +0.000 H 
ATOM    135  H34 UNL A   1      57.724  18.731  10.588  1.00  0.00    +0.000 H 
ATOM    136  H35 UNL A   1      54.870  18.678   7.565  1.00  0.00    +0.000 H 
ATOM    137  H36 UNL A   1      54.177  21.225   5.509  1.00  0.00    +0.000 H 
ATOM    138  H37 UNL A   1      52.780  19.160   4.853  1.00  0.00    +0.000 H 
ATOM    139  H38 UNL A   1      50.405  18.953  10.416  1.00  0.00    +0.000 H 
ATOM    140  H39 UNL A   1      52.661  19.574  11.480  1.00  0.00    +0.000 H 
ATOM     41  C30 UNL A   1      54.891  18.181  10.322  1.00  0.00    +0.000 C 
ATOM     42  C31 UNL A   1      53.446  18.109   9.933  1.00  0.00    +0.000 C 
ATOM     43  N9  UNL A   1      52.888  17.365   9.029  1.00  0.00    +0.000 N 
ATOM     44  C32 UNL A   1      51.551  17.763   8.970  1.00  0.00    +0.000 C 
ATOM     45  C33 UNL A   1      50.785  17.542   7.865  1.00  0.00    +0.000 C 
ATOM     57  C40 UNL A   1      51.341  16.509   7.035  1.00  0.00    +0.000 C 
ATOM     58  C41 UNL A   1      51.621  15.166   7.183  1.00  0.00    +0.000 C 
ATOM     59  C42 UNL A   1      52.771  14.929   6.374  1.00  0.00    +0.000 C 
ATOM     60  C43 UNL A   1      53.109  16.135   5.754  1.00  0.00    +0.000 C 
ATOM     61  N10 UNL A   1      51.987  16.903   5.893  1.00  0.00    +0.000 N 
ATOM     62  C44 UNL A   1      54.352  16.642   5.225  1.00  0.00    +0.000 C 
ATOM     74  C51 UNL A   1      54.625  17.964   5.025  1.00  0.00    +0.000 C 
ATOM     75  N11 UNL A   1      55.925  18.433   5.114  1.00  0.00    +0.000 N 
ATOM     76  C52 UNL A   1      55.806  19.658   5.544  1.00  0.00    +0.000 C 
ATOM     77  C53 UNL A   1      56.789  20.316   6.433  1.00  0.00    +0.000 C 
ATOM     89  C60 UNL A   1      56.737  19.690   7.631  1.00  0.00    +0.000 C 
ATOM     90  C61 UNL A   1      57.697  19.711   8.712  1.00  0.00    +0.000 C 
ATOM     91  C62 UNL A   1      57.206  18.981   9.730  1.00  0.00    +0.000 C 
ATOM     92  C63 UNL A   1      55.824  18.593   9.434  1.00  0.00    +0.000 C 
ATOM     93  N12 UNL A   1      55.651  18.933   8.108  1.00  0.00    +0.000 N 
ATOM     94  C64 UNL A   1      54.486  20.248   5.392  1.00  0.00    +0.000 C 
ATOM     95  C65 UNL A   1      53.791  19.158   5.061  1.00  0.00    +0.000 C 
ATOM     96  C66 UNL A   1      51.330  18.621  10.103  1.00  0.00    +0.000 C 
ATOM     97  C67 UNL A   1      52.485  18.930  10.693  1.00  0.00    +0.000 C 
ENDROOT
BRANCH   41   40
ATOM    129  H28 UNL A   1      55.501  20.024  14.481  1.00  0.00    +0.000 H 
ATOM     98  C68 UNL A   1      55.703  16.902  12.281  1.00  0.00    +0.000 C 
ATOM     99  C69 UNL A   1      56.089  16.833  13.603  1.00  0.00    +0.000 C 
ATOM    130  H29 UNL A   1      54.651  20.094  12.201  1.00  0.00    +0.000 H 
ATOM     37  C26 UNL A   1      56.098  17.997  14.369  1.00  0.00    +0.000 C 
ATOM     38  C27 UNL A   1      55.551  19.186  13.880  1.00  0.00    +0.000 C 
ATOM     39  C28 UNL A   1      55.076  19.229  12.571  1.00  0.00    +0.000 C 
ATOM     40  C29 UNL A   1      55.177  18.091  11.761  1.00  0.00    +0.000 C 
ATOM    141  H40 UNL A   1      55.802  16.073  11.673  1.00  0.00    +0.000 H 
ATOM    142  H41 UNL A   1      56.368  15.932  14.020  1.00  0.00    +0.000 H 
BRANCH   37   35
ATOM     35  C25 UNL A   1      56.748  17.980  15.692  1.00  0.00    +0.000 C 
ATOM     36  O3  UNL A   1      57.305  16.977  16.093  1.00  0.00    +0.000 O 
BRANCH   35   34
ATOM     34  N8  UNL A   1      56.688  19.122  16.468  1.00  0.00    +0.000 N 
ATOM    128  H27 UNL A   1      55.792  19.441  16.718  1.00  0.00    +0.000 H 
BRANCH   34   33
ATOM     33  C24 UNL A   1      57.820  19.907  16.956  1.00  0.00    +0.000 C 
ATOM    126  H25 UNL A   1      58.683  19.673  16.370  1.00  0.00    +0.000 H 
ATOM    127  H26 UNL A   1      57.571  20.944  16.870  1.00  0.00    +0.000 H 
BRANCH   33   32
ATOM    124  H23 UNL A   1      58.169  20.532  18.953  1.00  0.00    +0.000 H 
ATOM    125  H24 UNL A   1      57.331  18.972  18.775  1.00  0.00    +0.000 H 
ATOM     32  C23 UNL A   1      58.117  19.605  18.419  1.00  0.00    +0.000 C 
BRANCH   32   31
ATOM    122  H21 UNL A   1      60.065  19.456  19.254  1.00  0.00    +0.000 H 
ATOM    123  H22 UNL A   1      59.164  17.912  19.080  1.00  0.00    +0.000 H 
ATOM     31  C22 UNL A   1      59.435  18.848  18.637  1.00  0.00    +0.000 C 
BRANCH   31   30
ATOM    121  H20 UNL A   1      61.156  19.010  17.445  1.00  0.00    +0.000 H 
ATOM     30  C21 UNL A   1      60.222  18.495  17.364  1.00  0.00    +0.000 C 
ATOM    120  H19 UNL A   1      59.635  18.793  16.521  1.00  0.00    +0.000 H 
BRANCH   30   29
ATOM     29  C20 UNL A   1      60.574  17.009  17.194  1.00  0.00    +0.000 C 
ATOM    118  H17 UNL A   1      61.226  16.723  17.992  1.00  0.00    +0.000 H 
ATOM    119  H18 UNL A   1      59.652  16.465  17.205  1.00  0.00    +0.000 H 
BRANCH   29   28
ATOM    116  H15 UNL A   1      61.605  17.599  15.416  1.00  0.00    +0.000 H 
ATOM     28  C19 UNL A   1      61.267  16.689  15.865  1.00  0.00    +0.000 C 
ATOM    117  H16 UNL A   1      62.098  16.043  16.052  1.00  0.00    +0.000 H 
BRANCH   28   27
ATOM     27  N7  UNL A   1      60.344  16.026  14.966  1.00  0.00    +0.000 N 
ATOM    115  H14 UNL A   1      59.910  15.240  15.370  1.00  0.00    +0.000 H 
BRANCH   27   25
ATOM     25  C18 UNL A   1      59.946  16.256  13.675  1.00  0.00    +0.000 C 
ATOM     26  O2  UNL A   1      59.698  17.424  13.370  1.00  0.00    +0.000 O 
BRANCH   25   24
ATOM    100  C70 UNL A   1      58.703  15.172  11.711  1.00  0.00    +0.000 C 
ATOM    101  C71 UNL A   1      58.666  14.192  10.711  1.00  0.00    +0.000 C 
ATOM    143  H42 UNL A   1      57.963  15.891  11.747  1.00  0.00    +0.000 H 
ATOM    144  H43 UNL A   1      57.951  14.235   9.970  1.00  0.00    +0.000 H 
ATOM    113  H12 UNL A   1      61.176  12.253  11.809  1.00  0.00    +0.000 H 
ATOM    114  H13 UNL A   1      61.359  14.068  13.410  1.00  0.00    +0.000 H 
ATOM     21  C14 UNL A   1      59.603  13.151  10.722  1.00  0.00    +0.000 C 
ATOM     22  C15 UNL A   1      60.545  13.067  11.746  1.00  0.00    +0.000 C 
ATOM     23  C16 UNL A   1      60.627  14.101  12.683  1.00  0.00    +0.000 C 
ATOM     24  C17 UNL A   1      59.730  15.186  12.658  1.00  0.00    +0.000 C 
BRANCH   21   20
ATOM      2  C2  UNL A   1      60.580  11.764   8.860  1.00  0.00    +0.000 C 
ATOM      3  C3  UNL A   1      59.920  10.951   7.961  1.00  0.00    +0.000 C 
ATOM     18  N4  UNL A   1      58.625  10.772   8.347  1.00  0.00    +0.000 N 
ATOM     19  N5  UNL A   1      58.444  11.453   9.474  1.00  0.00    +0.000 N 
ATOM     20  N6  UNL A   1      59.572  12.161   9.719  1.00  0.00    +0.000 N 
BRANCH    2    1
ATOM      1  C1  UNL A   1      62.024  12.048   9.024  1.00  0.00    +0.000 C 
ATOM    102  H1  UNL A   1      62.234  13.040   8.681  1.00  0.00    +0.000 H 
ATOM    103  H2  UNL A   1      62.594  11.346   8.453  1.00  0.00    +0.000 H 
ATOM    104  H3  UNL A   1      62.290  11.965  10.057  1.00  0.00    +0.000 H 
ENDBRANCH    2    1
BRANCH    3    4
ATOM      4  C4  UNL A   1      60.481  10.263   6.804  1.00  0.00    +0.000 C 
ATOM      5  N1  UNL A   1      60.433  10.788   5.574  1.00  0.00    +0.000 N 
ATOM      6  N2  UNL A   1      60.867   9.794   4.768  1.00  0.00    +0.000 N 
ATOM     13  C11 UNL A   1      61.225   8.673   5.482  1.00  0.00    +0.000 C 
ATOM     14  C12 UNL A   1      61.041   8.965   6.821  1.00  0.00    +0.000 C 
ATOM    110  H9  UNL A   1      61.568   7.782   5.091  1.00  0.00    +0.000 H 
BRANCH    6    7
ATOM      7  C5  UNL A   1      60.894   9.957   3.364  1.00  0.00    +0.000 C 
ATOM      8  C6  UNL A   1      61.146   8.845   2.552  1.00  0.00    +0.000 C 
ATOM      9  C7  UNL A   1      61.142   8.988   1.165  1.00  0.00    +0.000 C 
ATOM    105  H4  UNL A   1      61.333   7.924   2.978  1.00  0.00    +0.000 H 
ATOM     11  C9  UNL A   1      60.727  11.358   1.404  1.00  0.00    +0.000 C 
ATOM     12  C10 UNL A   1      60.674  11.216   2.792  1.00  0.00    +0.000 C 
ATOM    109  H8  UNL A   1      60.475  12.033   3.391  1.00  0.00    +0.000 H 
ATOM     10  C8  UNL A   1      60.945  10.244   0.592  1.00  0.00    +0.000 C 
ATOM    106  H5  UNL A   1      61.285   8.163   0.560  1.00  0.00    +0.000 H 
ATOM    108  H7  UNL A   1      60.604  12.290   0.977  1.00  0.00    +0.000 H 
ATOM    107  H6  UNL A   1      60.960  10.351  -0.435  1.00  0.00    +0.000 H 
ENDBRANCH    6    7
BRANCH   14   15
ATOM    111  H10 UNL A   1      62.355   7.807   8.068  1.00  0.00    +0.000 H 
ATOM     15  C13 UNL A   1      61.373   8.079   7.907  1.00  0.00    +0.000 C 
BRANCH   15   16
ATOM     16  N3  UNL A   1      60.442   7.624   8.680  1.00  0.00    +0.000 N 
BRANCH   16   17
ATOM     17  O1  UNL A   1      59.460   7.001   7.900  1.00  0.00    +0.000 O 
ATOM    112  H11 UNL A   1      58.687   6.660   8.304  1.00  0.00    +0.000 H 
ENDBRANCH   16   17
ENDBRANCH   15   16
ENDBRANCH   14   15
ENDBRANCH    3    4
ENDBRANCH   21   20
ENDBRANCH   25   24
ENDBRANCH   27   25
ENDBRANCH   28   27
ENDBRANCH   29   28
ENDBRANCH   30   29
ENDBRANCH   31   30
ENDBRANCH   32   31
ENDBRANCH   33   32
ENDBRANCH   34   33
ENDBRANCH   35   34
ENDBRANCH   37   35
ENDBRANCH   41   40
BRANCH   45   46
ATOM     46  C34 UNL A   1      49.755  18.519   7.324  1.00  0.00    +0.000 C 
ATOM     47  C35 UNL A   1      48.557  18.017   6.770  1.00  0.00    +0.000 C 
ATOM     48  F1  UNL A   1      48.189  16.743   6.976  1.00  0.00    +0.000 F 
ATOM     49  C36 UNL A   1      47.763  18.777   5.906  1.00  0.00    +0.000 C 
ATOM     50  F2  UNL A   1      46.713  18.212   5.294  1.00  0.00    +0.000 F 
ATOM     51  C37 UNL A   1      48.098  20.086   5.616  1.00  0.00    +0.000 C 
ATOM     52  F3  UNL A   1      47.379  20.796   4.736  1.00  0.00    +0.000 F 
ATOM     53  C38 UNL A   1      49.212  20.642   6.207  1.00  0.00    +0.000 C 
ATOM     54  F4  UNL A   1      49.561  21.906   5.927  1.00  0.00    +0.000 F 
ATOM     55  C39 UNL A   1      50.037  19.870   7.027  1.00  0.00    +0.000 C 
ATOM     56  F5  UNL A   1      51.166  20.467   7.420  1.00  0.00    +0.000 F 
ENDBRANCH   45   46
BRANCH   62   63
ATOM     65  F6  UNL A   1      55.447  15.480   2.768  1.00  0.00    +0.000 F 
ATOM     66  C47 UNL A   1      57.107  14.305   3.932  1.00  0.00    +0.000 C 
ATOM     67  F7  UNL A   1      57.548  13.791   2.775  1.00  0.00    +0.000 F 
ATOM     68  C48 UNL A   1      57.775  14.021   5.112  1.00  0.00    +0.000 C 
ATOM     69  F8  UNL A   1      58.866  13.242   5.097  1.00  0.00    +0.000 F 
ATOM     70  C49 UNL A   1      57.328  14.567   6.305  1.00  0.00    +0.000 C 
ATOM     71  F9  UNL A   1      58.002  14.338   7.441  1.00  0.00    +0.000 F 
ATOM     72  C50 UNL A   1      56.196  15.375   6.323  1.00  0.00    +0.000 C 
ATOM     73  F10 UNL A   1      55.800  15.904   7.493  1.00  0.00    +0.000 F 
ATOM     63  C45 UNL A   1      55.500  15.678   5.145  1.00  0.00    +0.000 C 
ATOM     64  C46 UNL A   1      55.997  15.148   3.944  1.00  0.00    +0.000 C 
ENDBRANCH   62   63
BRANCH   77   78
ATOM     78  C54 UNL A   1      57.476  21.577   6.085  1.00  0.00    +0.000 C 
ATOM     79  C55 UNL A   1      58.258  21.685   4.925  1.00  0.00    +0.000 C 
ATOM     80  F11 UNL A   1      58.550  20.592   4.206  1.00  0.00    +0.000 F 
ATOM     81  C56 UNL A   1      58.698  22.925   4.453  1.00  0.00    +0.000 C 
ATOM     82  F12 UNL A   1      59.393  22.997   3.310  1.00  0.00    +0.000 F 
ATOM     83  C57 UNL A   1      58.373  24.090   5.132  1.00  0.00    +0.000 C 
ATOM     84  F13 UNL A   1      58.749  25.283   4.649  1.00  0.00    +0.000 F 
ATOM     85  C58 UNL A   1      57.625  24.015   6.292  1.00  0.00    +0.000 C 
ATOM     86  F14 UNL A   1      57.276  25.136   6.939  1.00  0.00    +0.000 F 
ATOM     87  C59 UNL A   1      57.178  22.778   6.757  1.00  0.00    +0.000 C 
ATOM     88  F15 UNL A   1      56.371  22.784   7.829  1.00  0.00    +0.000 F 
ENDBRANCH   77   78
TORSDOF 22
ENDMDL
MODEL 7
REMARK VINA RESULT:      -9.6     40.977     45.244
ROOT
ATOM    131  H30 UNL A   1       1.164  16.299  40.452  1.00  0.00    +0.000 H 
ATOM    132  H31 UNL A   1      -0.508  15.108  38.758  1.00  0.00    +0.000 H 
ATOM    133  H32 UNL A   1       3.289  14.217  37.720  1.00  0.00    +0.000 H 
ATOM    134  H33 UNL A   1       0.919   6.828  40.161  1.00  0.00    +0.000 H 
ATOM    135  H34 UNL A   1       0.287   8.179  42.226  1.00  0.00    +0.000 H 
ATOM    136  H35 UNL A   1       2.088  10.807  39.556  1.00  0.00    +0.000 H 
ATOM    137  H36 UNL A   1       4.547  10.024  37.426  1.00  0.00    +0.000 H 
ATOM    138  H37 UNL A   1       3.823  12.473  37.071  1.00  0.00    +0.000 H 
ATOM    139  H38 UNL A   1       5.043  13.712  42.868  1.00  0.00    +0.000 H 
ATOM    140  H39 UNL A   1       4.095  11.447  43.627  1.00  0.00    +0.000 H 
ATOM     41  C30 UNL A   1       1.635  10.742  42.320  1.00  0.00    +0.000 C 
ATOM     42  C31 UNL A   1       2.491  11.953  42.102  1.00  0.00    +0.000 C 
ATOM     43  N9  UNL A   1       2.276  12.964  41.319  1.00  0.00    +0.000 N 
ATOM     44  C32 UNL A   1       3.425  13.756  41.384  1.00  0.00    +0.000 C 
ATOM     45  C33 UNL A   1       3.752  14.629  40.391  1.00  0.00    +0.000 C 
ATOM     57  C40 UNL A   1       2.614  14.950  39.574  1.00  0.00    +0.000 C 
ATOM     58  C41 UNL A   1       1.389  15.551  39.779  1.00  0.00    +0.000 C 
ATOM     59  C42 UNL A   1       0.500  14.915  38.862  1.00  0.00    +0.000 C 
ATOM     60  C43 UNL A   1       1.241  13.985  38.129  1.00  0.00    +0.000 C 
ATOM     61  N10 UNL A   1       2.539  14.355  38.343  1.00  0.00    +0.000 N 
ATOM     62  C44 UNL A   1       0.868  12.778  37.431  1.00  0.00    +0.000 C 
ATOM     74  C51 UNL A   1       1.732  11.771  37.113  1.00  0.00    +0.000 C 
ATOM     75  N11 UNL A   1       1.283  10.464  37.023  1.00  0.00    +0.000 N 
ATOM     76  C52 UNL A   1       2.305   9.738  37.381  1.00  0.00    +0.000 C 
ATOM     77  C53 UNL A   1       2.186   8.454  38.107  1.00  0.00    +0.000 C 
ATOM     89  C60 UNL A   1       1.708   8.728  39.343  1.00  0.00    +0.000 C 
ATOM     90  C61 UNL A   1       1.103   7.833  40.305  1.00  0.00    +0.000 C 
ATOM     91  C62 UNL A   1       0.822   8.534  41.418  1.00  0.00    +0.000 C 
ATOM     92  C63 UNL A   1       1.390   9.881  41.307  1.00  0.00    +0.000 C 
ATOM     93  N12 UNL A   1       1.788   9.975  39.989  1.00  0.00    +0.000 N 
ATOM     94  C64 UNL A   1       3.593  10.409  37.341  1.00  0.00    +0.000 C 
ATOM     95  C65 UNL A   1       3.184  11.667  37.163  1.00  0.00    +0.000 C 
ATOM     96  C66 UNL A   1       4.211  13.246  42.475  1.00  0.00    +0.000 C 
ATOM     97  C67 UNL A   1       3.718  12.086  42.910  1.00  0.00    +0.000 C 
ENDROOT
BRANCH   41   40
ATOM    129  H28 UNL A   1      -0.386  11.453  46.379  1.00  0.00    +0.000 H 
ATOM     98  C68 UNL A   1       2.167   9.444  44.361  1.00  0.00    +0.000 C 
ATOM     99  C69 UNL A   1       2.001   9.186  45.705  1.00  0.00    +0.000 C 
ATOM    130  H29 UNL A   1      -0.220  11.779  43.972  1.00  0.00    +0.000 H 
ATOM     37  C26 UNL A   1       1.136   9.985  46.448  1.00  0.00    +0.000 C 
ATOM     38  C27 UNL A   1       0.300  10.916  45.826  1.00  0.00    +0.000 C 
ATOM     39  C28 UNL A   1       0.404  11.110  44.450  1.00  0.00    +0.000 C 
ATOM     40  C29 UNL A   1       1.359  10.391  43.720  1.00  0.00    +0.000 C 
ATOM    141  H40 UNL A   1       2.889   8.936  43.825  1.00  0.00    +0.000 H 
ATOM    142  H41 UNL A   1       2.513   8.411  46.155  1.00  0.00    +0.000 H 
BRANCH   37   35
ATOM     35  C25 UNL A   1       1.150   9.883  47.919  1.00  0.00    +0.000 C 
ATOM     36  O3  UNL A   1       0.594   8.958  48.478  1.00  0.00    +0.000 O 
BRANCH   35   34
ATOM     34  N8  UNL A   1       1.792  10.872  48.640  1.00  0.00    +0.000 N 
ATOM    128  H27 UNL A   1       1.267  11.318  49.343  1.00  0.00    +0.000 H 
BRANCH   34   33
ATOM     33  C24 UNL A   1       3.170  11.325  48.467  1.00  0.00    +0.000 C 
ATOM    126  H25 UNL A   1       3.560  11.620  49.418  1.00  0.00    +0.000 H 
ATOM    127  H26 UNL A   1       3.739  10.518  48.056  1.00  0.00    +0.000 H 
BRANCH   33   32
ATOM    124  H23 UNL A   1       2.433  12.443  46.823  1.00  0.00    +0.000 H 
ATOM    125  H24 UNL A   1       3.218  13.395  48.104  1.00  0.00    +0.000 H 
ATOM     32  C23 UNL A   1       3.252  12.506  47.509  1.00  0.00    +0.000 C 
BRANCH   32   31
ATOM    122  H21 UNL A   1       5.351  12.228  47.341  1.00  0.00    +0.000 H 
ATOM    123  H22 UNL A   1       4.397  11.927  45.851  1.00  0.00    +0.000 H 
ATOM     31  C22 UNL A   1       4.557  12.555  46.702  1.00  0.00    +0.000 C 
BRANCH   31   30
ATOM    121  H20 UNL A   1       4.083  14.555  46.271  1.00  0.00    +0.000 H 
ATOM     30  C21 UNL A   1       4.943  13.932  46.138  1.00  0.00    +0.000 C 
ATOM    120  H19 UNL A   1       5.228  13.801  45.115  1.00  0.00    +0.000 H 
BRANCH   30   29
ATOM     29  C20 UNL A   1       6.096  14.646  46.861  1.00  0.00    +0.000 C 
ATOM    118  H17 UNL A   1       5.749  14.956  47.825  1.00  0.00    +0.000 H 
ATOM    119  H18 UNL A   1       6.906  13.949  46.924  1.00  0.00    +0.000 H 
BRANCH   29   28
ATOM    116  H15 UNL A   1       7.654  16.021  46.356  1.00  0.00    +0.000 H 
ATOM     28  C19 UNL A   1       6.621  15.878  46.117  1.00  0.00    +0.000 C 
ATOM    117  H16 UNL A   1       6.508  15.724  45.064  1.00  0.00    +0.000 H 
BRANCH   28   27
ATOM     27  N7  UNL A   1       5.871  17.055  46.506  1.00  0.00    +0.000 N 
ATOM    115  H14 UNL A   1       6.118  17.392  47.398  1.00  0.00    +0.000 H 
BRANCH   27   25
ATOM     25  C18 UNL A   1       4.893  17.800  45.902  1.00  0.00    +0.000 C 
ATOM     26  O2  UNL A   1       5.007  19.026  45.968  1.00  0.00    +0.000 O 
BRANCH   25   24
ATOM    100  C70 UNL A   1       2.557  16.740  45.917  1.00  0.00    +0.000 C 
ATOM    101  C71 UNL A   1       1.416  16.346  45.207  1.00  0.00    +0.000 C 
ATOM    143  H42 UNL A   1       2.566  16.669  46.947  1.00  0.00    +0.000 H 
ATOM    144  H43 UNL A   1       0.563  16.064  45.713  1.00  0.00    +0.000 H 
ATOM    113  H12 UNL A   1       2.649  16.582  42.094  1.00  0.00    +0.000 H 
ATOM    114  H13 UNL A   1       4.545  17.460  43.330  1.00  0.00    +0.000 H 
ATOM     21  C14 UNL A   1       1.437  16.337  43.807  1.00  0.00    +0.000 C 
ATOM     22  C15 UNL A   1       2.601  16.678  43.120  1.00  0.00    +0.000 C 
ATOM     23  C16 UNL A   1       3.701  17.154  43.840  1.00  0.00    +0.000 C 
ATOM     24  C17 UNL A   1       3.682  17.225  45.246  1.00  0.00    +0.000 C 
BRANCH   21   20
ATOM      2  C2  UNL A   1      -0.609  16.726  42.389  1.00  0.00    +0.000 C 
ATOM      3  C3  UNL A   1      -1.629  15.844  42.098  1.00  0.00    +0.000 C 
ATOM     18  N4  UNL A   1      -1.288  14.582  42.482  1.00  0.00    +0.000 N 
ATOM     19  N5  UNL A   1      -0.071  14.639  43.013  1.00  0.00    +0.000 N 
ATOM     20  N6  UNL A   1       0.292  15.942  43.085  1.00  0.00    +0.000 N 
BRANCH    2    1
ATOM      1  C1  UNL A   1      -0.389  18.125  41.955  1.00  0.00    +0.000 C 
ATOM    102  H1  UNL A   1       0.390  18.152  41.220  1.00  0.00    +0.000 H 
ATOM    103  H2  UNL A   1      -0.105  18.720  42.797  1.00  0.00    +0.000 H 
ATOM    104  H3  UNL A   1      -1.291  18.514  41.532  1.00  0.00    +0.000 H 
ENDBRANCH    2    1
BRANCH    3    4
ATOM      4  C4  UNL A   1      -2.874  16.124  41.392  1.00  0.00    +0.000 C 
ATOM      5  N1  UNL A   1      -2.985  15.988  40.065  1.00  0.00    +0.000 N 
ATOM      6  N2  UNL A   1      -4.194  16.515  39.773  1.00  0.00    +0.000 N 
ATOM     13  C11 UNL A   1      -4.856  16.938  40.902  1.00  0.00    +0.000 C 
ATOM     14  C12 UNL A   1      -4.048  16.645  41.985  1.00  0.00    +0.000 C 
ATOM    110  H9  UNL A   1      -5.784  17.389  40.935  1.00  0.00    +0.000 H 
BRANCH    6    7
ATOM      7  C5  UNL A   1      -4.641  16.608  38.435  1.00  0.00    +0.000 C 
ATOM      8  C6  UNL A   1      -4.960  17.865  37.908  1.00  0.00    +0.000 C 
ATOM      9  C7  UNL A   1      -5.370  17.973  36.579  1.00  0.00    +0.000 C 
ATOM    105  H4  UNL A   1      -4.891  18.708  38.499  1.00  0.00    +0.000 H 
ATOM     11  C9  UNL A   1      -5.231  15.571  36.335  1.00  0.00    +0.000 C 
ATOM     12  C10 UNL A   1      -4.767  15.458  37.647  1.00  0.00    +0.000 C 
ATOM    109  H8  UNL A   1      -4.518  14.533  38.032  1.00  0.00    +0.000 H 
ATOM     10  C8  UNL A   1      -5.518  16.827  35.798  1.00  0.00    +0.000 C 
ATOM    106  H5  UNL A   1      -5.566  18.902  36.173  1.00  0.00    +0.000 H 
ATOM    108  H7  UNL A   1      -5.363  14.723  35.761  1.00  0.00    +0.000 H 
ATOM    107  H6  UNL A   1      -5.838  16.908  34.820  1.00  0.00    +0.000 H 
ENDBRANCH    6    7
BRANCH   14   15
ATOM    111  H10 UNL A   1      -3.685  16.832  44.095  1.00  0.00    +0.000 H 
ATOM     15  C13 UNL A   1      -4.409  16.861  43.362  1.00  0.00    +0.000 C 
BRANCH   15   16
ATOM     16  N3  UNL A   1      -5.640  17.093  43.680  1.00  0.00    +0.000 N 
BRANCH   16   17
ATOM     17  O1  UNL A   1      -5.748  18.396  44.182  1.00  0.00    +0.000 O 
ATOM    112  H11 UNL A   1      -5.134  19.053  43.918  1.00  0.00    +0.000 H 
ENDBRANCH   16   17
ENDBRANCH   15   16
ENDBRANCH   14   15
ENDBRANCH    3    4
ENDBRANCH   21   20
ENDBRANCH   25   24
ENDBRANCH   27   25
ENDBRANCH   28   27
ENDBRANCH   29   28
ENDBRANCH   30   29
ENDBRANCH   31   30
ENDBRANCH   32   31
ENDBRANCH   33   32
ENDBRANCH   34   33
ENDBRANCH   35   34
ENDBRANCH   37   35
ENDBRANCH   41   40
BRANCH   45   46
ATOM     46  C34 UNL A   1       5.168  14.886  39.906  1.00  0.00    +0.000 C 
ATOM     47  C35 UNL A   1       5.914  13.815  39.365  1.00  0.00    +0.000 C 
ATOM     48  F1  UNL A   1       5.309  12.671  39.009  1.00  0.00    +0.000 F 
ATOM     49  C36 UNL A   1       7.309  13.851  39.277  1.00  0.00    +0.000 C 
ATOM     50  F2  UNL A   1       7.982  12.758  38.890  1.00  0.00    +0.000 F 
ATOM     51  C37 UNL A   1       8.006  14.980  39.660  1.00  0.00    +0.000 C 
ATOM     52  F3  UNL A   1       9.346  14.995  39.643  1.00  0.00    +0.000 F 
ATOM     53  C38 UNL A   1       7.309  16.081  40.111  1.00  0.00    +0.000 C 
ATOM     54  F4  UNL A   1       7.968  17.181  40.501  1.00  0.00    +0.000 F 
ATOM     55  C39 UNL A   1       5.921  16.029  40.252  1.00  0.00    +0.000 C 
ATOM     56  F5  UNL A   1       5.369  17.097  40.838  1.00  0.00    +0.000 F 
ENDBRANCH   45   46
BRANCH   62   63
ATOM     65  F6  UNL A   1      -0.856  11.562  39.464  1.00  0.00    +0.000 F 
ATOM     66  C47 UNL A   1      -2.764  11.749  38.116  1.00  0.00    +0.000 C 
ATOM     67  F7  UNL A   1      -3.495  11.169  39.078  1.00  0.00    +0.000 F 
ATOM     68  C48 UNL A   1      -3.381  12.206  36.962  1.00  0.00    +0.000 C 
ATOM     69  F8  UNL A   1      -4.706  12.076  36.810  1.00  0.00    +0.000 F 
ATOM     70  C49 UNL A   1      -2.626  12.822  35.976  1.00  0.00    +0.000 C 
ATOM     71  F9  UNL A   1      -3.225  13.312  34.882  1.00  0.00    +0.000 F 
ATOM     72  C50 UNL A   1      -1.250  12.957  36.130  1.00  0.00    +0.000 C 
ATOM     73  F10 UNL A   1      -0.551  13.575  35.165  1.00  0.00    +0.000 F 
ATOM     63  C45 UNL A   1      -0.600  12.503  37.286  1.00  0.00    +0.000 C 
ATOM     64  C46 UNL A   1      -1.392  11.922  38.289  1.00  0.00    +0.000 C 
ENDBRANCH   62   63
BRANCH   77   78
ATOM     78  C54 UNL A   1       2.746   7.184  37.601  1.00  0.00    +0.000 C 
ATOM     79  C55 UNL A   1       2.112   6.465  36.576  1.00  0.00    +0.000 C 
ATOM     80  F11 UNL A   1       0.886   6.818  36.164  1.00  0.00    +0.000 F 
ATOM     81  C56 UNL A   1       2.753   5.412  35.917  1.00  0.00    +0.000 C 
ATOM     82  F12 UNL A   1       2.140   4.785  34.904  1.00  0.00    +0.000 F 
ATOM     83  C57 UNL A   1       4.043   5.045  36.270  1.00  0.00    +0.000 C 
ATOM     84  F13 UNL A   1       4.678   4.072  35.601  1.00  0.00    +0.000 F 
ATOM     85  C58 UNL A   1       4.686   5.718  37.292  1.00  0.00    +0.000 C 
ATOM     86  F14 UNL A   1       5.945   5.396  37.620  1.00  0.00    +0.000 F 
ATOM     87  C59 UNL A   1       4.050   6.775  37.943  1.00  0.00    +0.000 C 
ATOM     88  F15 UNL A   1       4.765   7.451  38.854  1.00  0.00    +0.000 F 
ENDBRANCH   77   78
TORSDOF 22
ENDMDL
MODEL 8
REMARK VINA RESULT:      -9.5     31.452     40.571
ROOT
ATOM    131  H30 UNL A   1       4.077   0.291  21.924  1.00  0.00    +0.000 H 
ATOM    132  H31 UNL A   1       6.524  -0.215  21.009  1.00  0.00    +0.000 H 
ATOM    133  H32 UNL A   1       6.538   3.329  22.940  1.00  0.00    +0.000 H 
ATOM    134  H33 UNL A   1      11.129  -0.922  28.139  1.00  0.00    +0.000 H 
ATOM    135  H34 UNL A   1       9.105  -2.462  28.006  1.00  0.00    +0.000 H 
ATOM    136  H35 UNL A   1       8.258   0.868  25.666  1.00  0.00    +0.000 H 
ATOM    137  H36 UNL A   1       9.309   3.985  26.278  1.00  0.00    +0.000 H 
ATOM    138  H37 UNL A   1       8.010   3.916  24.052  1.00  0.00    +0.000 H 
ATOM    139  H38 UNL A   1       3.164   1.678  26.906  1.00  0.00    +0.000 H 
ATOM    140  H39 UNL A   1       4.639   0.192  28.396  1.00  0.00    +0.000 H 
ATOM     41  C30 UNL A   1       6.761  -1.112  26.965  1.00  0.00    +0.000 C 
ATOM     42  C31 UNL A   1       5.742  -0.147  26.441  1.00  0.00    +0.000 C 
ATOM     43  N9  UNL A   1       5.568   0.263  25.223  1.00  0.00    +0.000 N 
ATOM     44  C32 UNL A   1       4.579   1.247  25.283  1.00  0.00    +0.000 C 
ATOM     45  C33 UNL A   1       4.453   2.198  24.315  1.00  0.00    +0.000 C 
ATOM     57  C40 UNL A   1       5.101   1.799  23.095  1.00  0.00    +0.000 C 
ATOM     58  C41 UNL A   1       4.951   0.770  22.188  1.00  0.00    +0.000 C 
ATOM     59  C42 UNL A   1       6.264   0.510  21.694  1.00  0.00    +0.000 C 
ATOM     60  C43 UNL A   1       7.134   1.415  22.306  1.00  0.00    +0.000 C 
ATOM     61  N10 UNL A   1       6.307   2.380  22.808  1.00  0.00    +0.000 N 
ATOM     62  C44 UNL A   1       8.551   1.371  22.575  1.00  0.00    +0.000 C 
ATOM     74  C51 UNL A   1       9.181   2.124  23.523  1.00  0.00    +0.000 C 
ATOM     75  N11 UNL A   1      10.324   1.652  24.148  1.00  0.00    +0.000 N 
ATOM     76  C52 UNL A   1      10.285   2.174  25.343  1.00  0.00    +0.000 C 
ATOM     77  C53 UNL A   1      10.801   1.495  26.553  1.00  0.00    +0.000 C 
ATOM     89  C60 UNL A   1      10.006   0.426  26.789  1.00  0.00    +0.000 C 
ATOM     90  C61 UNL A   1      10.259  -0.731  27.618  1.00  0.00    +0.000 C 
ATOM     91  C62 UNL A   1       9.168  -1.518  27.594  1.00  0.00    +0.000 C 
ATOM     92  C63 UNL A   1       8.081  -0.828  26.892  1.00  0.00    +0.000 C 
ATOM     93  N12 UNL A   1       8.690   0.271  26.319  1.00  0.00    +0.000 N 
ATOM     94  C64 UNL A   1       9.402   3.317  25.498  1.00  0.00    +0.000 C 
ATOM     95  C65 UNL A   1       8.743   3.249  24.338  1.00  0.00    +0.000 C 
ATOM     96  C66 UNL A   1       4.016   1.180  26.604  1.00  0.00    +0.000 C 
ATOM     97  C67 UNL A   1       4.746   0.386  27.388  1.00  0.00    +0.000 C 
ENDROOT
BRANCH   41   40
ATOM    129  H28 UNL A   1       5.038  -5.314  27.626  1.00  0.00    +0.000 H 
ATOM     98  C68 UNL A   1       5.900  -1.912  29.145  1.00  0.00    +0.000 C 
ATOM     99  C69 UNL A   1       5.307  -2.880  29.927  1.00  0.00    +0.000 C 
ATOM    130  H29 UNL A   1       6.248  -3.670  26.301  1.00  0.00    +0.000 H 
ATOM     37  C26 UNL A   1       4.914  -4.080  29.340  1.00  0.00    +0.000 C 
ATOM     38  C27 UNL A   1       5.275  -4.393  28.027  1.00  0.00    +0.000 C 
ATOM     39  C28 UNL A   1       5.957  -3.447  27.266  1.00  0.00    +0.000 C 
ATOM     40  C29 UNL A   1       6.247  -2.193  27.818  1.00  0.00    +0.000 C 
ATOM    141  H40 UNL A   1       6.090  -0.977  29.540  1.00  0.00    +0.000 H 
ATOM    142  H41 UNL A   1       5.154  -2.716  30.935  1.00  0.00    +0.000 H 
BRANCH   37   35
ATOM     35  C25 UNL A   1       4.055  -5.005  30.104  1.00  0.00    +0.000 C 
ATOM     36  O3  UNL A   1       2.866  -4.785  30.224  1.00  0.00    +0.000 O 
BRANCH   35   34
ATOM     34  N8  UNL A   1       4.641  -6.110  30.692  1.00  0.00    +0.000 N 
ATOM    128  H27 UNL A   1       4.868  -6.034  31.646  1.00  0.00    +0.000 H 
BRANCH   34   33
ATOM     33  C24 UNL A   1       4.956  -7.381  30.044  1.00  0.00    +0.000 C 
ATOM    126  H25 UNL A   1       4.388  -8.158  30.509  1.00  0.00    +0.000 H 
ATOM    127  H26 UNL A   1       4.710  -7.298  29.006  1.00  0.00    +0.000 H 
BRANCH   33   32
ATOM    124  H23 UNL A   1       6.716  -8.320  29.323  1.00  0.00    +0.000 H 
ATOM    125  H24 UNL A   1       6.967  -6.782  30.181  1.00  0.00    +0.000 H 
ATOM     32  C23 UNL A   1       6.438  -7.712  30.159  1.00  0.00    +0.000 C 
BRANCH   32   31
ATOM    122  H21 UNL A   1       7.751  -8.938  31.293  1.00  0.00    +0.000 H 
ATOM    123  H22 UNL A   1       6.803  -7.731  32.224  1.00  0.00    +0.000 H 
ATOM     31  C22 UNL A   1       6.803  -8.466  31.446  1.00  0.00    +0.000 C 
BRANCH   31   30
ATOM    121  H20 UNL A   1       5.721 -10.226  31.073  1.00  0.00    +0.000 H 
ATOM     30  C21 UNL A   1       5.805  -9.546  31.895  1.00  0.00    +0.000 C 
ATOM    120  H19 UNL A   1       4.886  -9.060  32.149  1.00  0.00    +0.000 H 
BRANCH   30   29
ATOM     29  C20 UNL A   1       6.241 -10.393  33.100  1.00  0.00    +0.000 C 
ATOM    118  H17 UNL A   1       5.875 -11.388  32.964  1.00  0.00    +0.000 H 
ATOM    119  H18 UNL A   1       7.310 -10.353  33.140  1.00  0.00    +0.000 H 
BRANCH   29   28
ATOM    116  H15 UNL A   1       4.820  -9.315  34.280  1.00  0.00    +0.000 H 
ATOM     28  C19 UNL A   1       5.723  -9.866  34.442  1.00  0.00    +0.000 C 
ATOM    117  H16 UNL A   1       5.534 -10.693  35.093  1.00  0.00    +0.000 H 
BRANCH   28   27
ATOM     27  N7  UNL A   1       6.709  -8.998  35.054  1.00  0.00    +0.000 N 
ATOM    115  H14 UNL A   1       7.474  -9.490  35.431  1.00  0.00    +0.000 H 
BRANCH   27   25
ATOM     25  C18 UNL A   1       6.805  -7.642  35.222  1.00  0.00    +0.000 C 
ATOM     26  O2  UNL A   1       6.346  -6.936  34.322  1.00  0.00    +0.000 O 
BRANCH   25   24
ATOM    100  C70 UNL A   1       7.813  -7.607  37.581  1.00  0.00    +0.000 C 
ATOM    101  C71 UNL A   1       8.574  -6.939  38.548  1.00  0.00    +0.000 C 
ATOM    143  H42 UNL A   1       7.491  -8.571  37.761  1.00  0.00    +0.000 H 
ATOM    144  H43 UNL A   1       8.878  -7.434  39.400  1.00  0.00    +0.000 H 
ATOM    113  H12 UNL A   1       8.650  -3.900  37.125  1.00  0.00    +0.000 H 
ATOM    114  H13 UNL A   1       7.515  -5.126  35.363  1.00  0.00    +0.000 H 
ATOM     21  C14 UNL A   1       8.921  -5.596  38.355  1.00  0.00    +0.000 C 
ATOM     22  C15 UNL A   1       8.477  -4.913  37.224  1.00  0.00    +0.000 C 
ATOM     23  C16 UNL A   1       7.797  -5.617  36.227  1.00  0.00    +0.000 C 
ATOM     24  C17 UNL A   1       7.487  -6.982  36.375  1.00  0.00    +0.000 C 
BRANCH   21   20
ATOM      2  C2  UNL A   1       9.257  -4.242  40.453  1.00  0.00    +0.000 C 
ATOM      3  C3  UNL A   1      10.397  -3.589  40.877  1.00  0.00    +0.000 C 
ATOM     18  N4  UNL A   1      11.466  -3.963  40.119  1.00  0.00    +0.000 N 
ATOM     19  N5  UNL A   1      11.034  -4.842  39.221  1.00  0.00    +0.000 N 
ATOM     20  N6  UNL A   1       9.686  -4.916  39.325  1.00  0.00    +0.000 N 
BRANCH    2    1
ATOM      1  C1  UNL A   1       7.926  -4.370  41.088  1.00  0.00    +0.000 C 
ATOM    102  H1  UNL A   1       7.296  -3.567  40.763  1.00  0.00    +0.000 H 
ATOM    103  H2  UNL A   1       8.032  -4.330  42.152  1.00  0.00    +0.000 H 
ATOM    104  H3  UNL A   1       7.485  -5.305  40.810  1.00  0.00    +0.000 H 
ENDBRANCH    2    1
BRANCH    3    4
ATOM      4  C4  UNL A   1      10.538  -2.696  42.021  1.00  0.00    +0.000 C 
ATOM      5  N1  UNL A   1       9.623  -1.764  42.312  1.00  0.00    +0.000 N 
ATOM      6  N2  UNL A   1      10.190  -1.032  43.296  1.00  0.00    +0.000 N 
ATOM     13  C11 UNL A   1      11.427  -1.520  43.651  1.00  0.00    +0.000 C 
ATOM     14  C12 UNL A   1      11.661  -2.643  42.879  1.00  0.00    +0.000 C 
ATOM    110  H9  UNL A   1      12.060  -1.123  44.363  1.00  0.00    +0.000 H 
BRANCH    6    7
ATOM      7  C5  UNL A   1       9.536   0.104  43.825  1.00  0.00    +0.000 C 
ATOM      8  C6  UNL A   1       8.336   0.532  43.245  1.00  0.00    +0.000 C 
ATOM      9  C7  UNL A   1       7.665   1.632  43.780  1.00  0.00    +0.000 C 
ATOM    105  H4  UNL A   1       7.950   0.037  42.427  1.00  0.00    +0.000 H 
ATOM     11  C9  UNL A   1       9.430   1.927  45.406  1.00  0.00    +0.000 C 
ATOM     12  C10 UNL A   1      10.082   0.794  44.914  1.00  0.00    +0.000 C 
ATOM    109  H8  UNL A   1      10.960   0.470  45.349  1.00  0.00    +0.000 H 
ATOM     10  C8  UNL A   1       8.217   2.335  44.850  1.00  0.00    +0.000 C 
ATOM    106  H5  UNL A   1       6.758   1.926  43.383  1.00  0.00    +0.000 H 
ATOM    108  H7  UNL A   1       9.847   2.463  46.183  1.00  0.00    +0.000 H 
ATOM    107  H6  UNL A   1       7.727   3.159  45.233  1.00  0.00    +0.000 H 
ENDBRANCH    6    7
BRANCH   14   15
ATOM    111  H10 UNL A   1      12.736  -4.412  43.461  1.00  0.00    +0.000 H 
ATOM     15  C13 UNL A   1      12.817  -3.494  42.997  1.00  0.00    +0.000 C 
BRANCH   15   16
ATOM     16  N3  UNL A   1      13.956  -3.110  42.523  1.00  0.00    +0.000 N 
BRANCH   16   17
ATOM     17  O1  UNL A   1      14.680  -2.461  43.532  1.00  0.00    +0.000 O 
ATOM    112  H11 UNL A   1      14.668  -1.526  43.591  1.00  0.00    +0.000 H 
ENDBRANCH   16   17
ENDBRANCH   15   16
ENDBRANCH   14   15
ENDBRANCH    3    4
ENDBRANCH   21   20
ENDBRANCH   25   24
ENDBRANCH   27   25
ENDBRANCH   28   27
ENDBRANCH   29   28
ENDBRANCH   30   29
ENDBRANCH   31   30
ENDBRANCH   32   31
ENDBRANCH   33   32
ENDBRANCH   34   33
ENDBRANCH   35   34
ENDBRANCH   37   35
ENDBRANCH   41   40
BRANCH   45   46
ATOM     46  C34 UNL A   1       4.096   3.650  24.579  1.00  0.00    +0.000 C 
ATOM     47  C35 UNL A   1       3.145   4.285  23.750  1.00  0.00    +0.000 C 
ATOM     48  F1  UNL A   1       2.353   3.566  22.941  1.00  0.00    +0.000 F 
ATOM     49  C36 UNL A   1       3.057   5.678  23.653  1.00  0.00    +0.000 C 
ATOM     50  F2  UNL A   1       2.238   6.233  22.749  1.00  0.00    +0.000 F 
ATOM     51  C37 UNL A   1       3.866   6.486  24.427  1.00  0.00    +0.000 C 
ATOM     52  F3  UNL A   1       3.834   7.819  24.287  1.00  0.00    +0.000 F 
ATOM     53  C38 UNL A   1       4.747   5.906  25.314  1.00  0.00    +0.000 C 
ATOM     54  F4  UNL A   1       5.550   6.674  26.064  1.00  0.00    +0.000 F 
ATOM     55  C39 UNL A   1       4.876   4.517  25.375  1.00  0.00    +0.000 C 
ATOM     56  F5  UNL A   1       5.864   4.072  26.159  1.00  0.00    +0.000 F 
ENDBRANCH   45   46
BRANCH   62   63
ATOM     65  F6  UNL A   1       8.625  -1.389  23.558  1.00  0.00    +0.000 F 
ATOM     66  C47 UNL A   1      10.019  -2.090  21.810  1.00  0.00    +0.000 C 
ATOM     67  F7  UNL A   1      10.029  -3.329  22.321  1.00  0.00    +0.000 F 
ATOM     68  C48 UNL A   1      10.670  -1.833  20.614  1.00  0.00    +0.000 C 
ATOM     69  F8  UNL A   1      11.302  -2.820  19.964  1.00  0.00    +0.000 F 
ATOM     70  C49 UNL A   1      10.644  -0.555  20.077  1.00  0.00    +0.000 C 
ATOM     71  F9  UNL A   1      11.228  -0.312  18.896  1.00  0.00    +0.000 F 
ATOM     72  C50 UNL A   1       9.991   0.473  20.750  1.00  0.00    +0.000 C 
ATOM     73  F10 UNL A   1       9.968   1.695  20.194  1.00  0.00    +0.000 F 
ATOM     63  C45 UNL A   1       9.325   0.241  21.961  1.00  0.00    +0.000 C 
ATOM     64  C46 UNL A   1       9.329  -1.071  22.462  1.00  0.00    +0.000 C 
ENDBRANCH   62   63
BRANCH   77   78
ATOM     78  C54 UNL A   1      11.837   2.081  27.429  1.00  0.00    +0.000 C 
ATOM     79  C55 UNL A   1      13.199   1.995  27.106  1.00  0.00    +0.000 C 
ATOM     80  F11 UNL A   1      13.603   1.217  26.091  1.00  0.00    +0.000 F 
ATOM     81  C56 UNL A   1      14.159   2.755  27.779  1.00  0.00    +0.000 C 
ATOM     82  F12 UNL A   1      15.445   2.691  27.406  1.00  0.00    +0.000 F 
ATOM     83  C57 UNL A   1      13.784   3.616  28.799  1.00  0.00    +0.000 C 
ATOM     84  F13 UNL A   1      14.698   4.385  29.408  1.00  0.00    +0.000 F 
ATOM     85  C58 UNL A   1      12.452   3.705  29.158  1.00  0.00    +0.000 C 
ATOM     86  F14 UNL A   1      12.071   4.559  30.119  1.00  0.00    +0.000 F 
ATOM     87  C59 UNL A   1      11.493   2.955  28.479  1.00  0.00    +0.000 C 
ATOM     88  F15 UNL A   1      10.209   3.164  28.807  1.00  0.00    +0.000 F 
ENDBRANCH   77   78
TORSDOF 22
ENDMDL
MODEL 9
REMARK VINA RESULT:      -9.4     44.167     50.957
ROOT
ATOM    131  H30 UNL A   1      22.690  31.156  46.978  1.00  0.00    +0.000 H 
ATOM    132  H31 UNL A   1      24.951  31.858  45.764  1.00  0.00    +0.000 H 
ATOM    133  H32 UNL A   1      22.100  34.593  44.940  1.00  0.00    +0.000 H 
ATOM    134  H33 UNL A   1      26.952  39.224  49.544  1.00  0.00    +0.000 H 
ATOM    135  H34 UNL A   1      26.621  37.255  51.125  1.00  0.00    +0.000 H 
ATOM    136  H35 UNL A   1      24.323  36.500  47.744  1.00  0.00    +0.000 H 
ATOM    137  H36 UNL A   1      22.794  38.822  45.882  1.00  0.00    +0.000 H 
ATOM    138  H37 UNL A   1      22.462  36.492  44.829  1.00  0.00    +0.000 H 
ATOM    139  H38 UNL A   1      19.938  34.494  49.955  1.00  0.00    +0.000 H 
ATOM    140  H39 UNL A   1      21.621  35.812  51.382  1.00  0.00    +0.000 H 
ATOM     41  C30 UNL A   1      24.320  35.644  50.412  1.00  0.00    +0.000 C 
ATOM     42  C31 UNL A   1      23.080  35.048  49.819  1.00  0.00    +0.000 C 
ATOM     43  N9  UNL A   1      22.967  34.288  48.775  1.00  0.00    +0.000 N 
ATOM     44  C32 UNL A   1      21.598  34.109  48.569  1.00  0.00    +0.000 C 
ATOM     45  C33 UNL A   1      21.093  33.764  47.352  1.00  0.00    +0.000 C 
ATOM     57  C40 UNL A   1      22.102  33.187  46.507  1.00  0.00    +0.000 C 
ATOM     58  C41 UNL A   1      22.910  32.070  46.555  1.00  0.00    +0.000 C 
ATOM     59  C42 UNL A   1      24.116  32.449  45.894  1.00  0.00    +0.000 C 
ATOM     60  C43 UNL A   1      23.963  33.765  45.454  1.00  0.00    +0.000 C 
ATOM     61  N10 UNL A   1      22.614  33.978  45.513  1.00  0.00    +0.000 N 
ATOM     62  C44 UNL A   1      24.915  34.810  45.159  1.00  0.00    +0.000 C 
ATOM     74  C51 UNL A   1      24.618  36.141  45.135  1.00  0.00    +0.000 C 
ATOM     75  N11 UNL A   1      25.585  37.081  45.452  1.00  0.00    +0.000 N 
ATOM     76  C52 UNL A   1      24.923  38.070  45.985  1.00  0.00    +0.000 C 
ATOM     77  C53 UNL A   1      25.457  38.929  47.065  1.00  0.00    +0.000 C 
ATOM     89  C60 UNL A   1      25.574  38.163  48.173  1.00  0.00    +0.000 C 
ATOM     90  C61 UNL A   1      26.340  38.410  49.375  1.00  0.00    +0.000 C 
ATOM     91  C62 UNL A   1      26.121  37.398  50.234  1.00  0.00    +0.000 C 
ATOM     92  C63 UNL A   1      25.062  36.530  49.710  1.00  0.00    +0.000 C 
ATOM     93  N12 UNL A   1      24.874  36.966  48.414  1.00  0.00    +0.000 N 
ATOM     94  C64 UNL A   1      23.496  38.086  45.711  1.00  0.00    +0.000 C 
ATOM     95  C65 UNL A   1      23.357  36.870  45.176  1.00  0.00    +0.000 C 
ATOM     96  C66 UNL A   1      20.940  34.620  49.742  1.00  0.00    +0.000 C 
ATOM     97  C67 UNL A   1      21.802  35.280  50.517  1.00  0.00    +0.000 C 
ENDROOT
BRANCH   41   40
ATOM    129  H28 UNL A   1      24.126  37.105  54.758  1.00  0.00    +0.000 H 
ATOM     98  C68 UNL A   1      25.238  34.370  52.327  1.00  0.00    +0.000 C 
ATOM     99  C69 UNL A   1      25.514  34.244  53.672  1.00  0.00    +0.000 C 
ATOM    130  H29 UNL A   1      23.482  37.235  52.414  1.00  0.00    +0.000 H 
ATOM     37  C26 UNL A   1      25.186  35.288  54.533  1.00  0.00    +0.000 C 
ATOM     38  C27 UNL A   1      24.421  36.372  54.094  1.00  0.00    +0.000 C 
ATOM     39  C28 UNL A   1      24.064  36.452  52.750  1.00  0.00    +0.000 C 
ATOM     40  C29 UNL A   1      24.495  35.461  51.860  1.00  0.00    +0.000 C 
ATOM    141  H40 UNL A   1      25.579  33.656  51.663  1.00  0.00    +0.000 H 
ATOM    142  H41 UNL A   1      25.959  33.387  54.036  1.00  0.00    +0.000 H 
BRANCH   37   35
ATOM     35  C25 UNL A   1      25.707  35.271  55.913  1.00  0.00    +0.000 C 
ATOM     36  O3  UNL A   1      26.817  35.699  56.158  1.00  0.00    +0.000 O 
BRANCH   35   34
ATOM     34  N8  UNL A   1      24.910  34.738  56.909  1.00  0.00    +0.000 N 
ATOM    128  H27 UNL A   1      25.336  34.586  57.782  1.00  0.00    +0.000 H 
BRANCH   34   33
ATOM     33  C24 UNL A   1      23.499  34.376  56.798  1.00  0.00    +0.000 C 
ATOM    126  H25 UNL A   1      23.083  34.858  55.939  1.00  0.00    +0.000 H 
ATOM    127  H26 UNL A   1      23.432  33.312  56.708  1.00  0.00    +0.000 H 
BRANCH   33   32
ATOM    124  H23 UNL A   1      22.223  35.727  57.819  1.00  0.00    +0.000 H 
ATOM    125  H24 UNL A   1      22.027  34.014  58.256  1.00  0.00    +0.000 H 
ATOM     32  C23 UNL A   1      22.716  34.802  58.034  1.00  0.00    +0.000 C 
BRANCH   32   31
ATOM    122  H21 UNL A   1      24.365  34.259  59.257  1.00  0.00    +0.000 H 
ATOM    123  H22 UNL A   1      23.949  36.005  59.229  1.00  0.00    +0.000 H 
ATOM     31  C22 UNL A   1      23.591  34.998  59.280  1.00  0.00    +0.000 C 
BRANCH   31   30
ATOM    121  H20 UNL A   1      23.563  34.415  61.297  1.00  0.00    +0.000 H 
ATOM     30  C21 UNL A   1      22.867  34.880  60.631  1.00  0.00    +0.000 C 
ATOM    120  H19 UNL A   1      21.972  34.315  60.477  1.00  0.00    +0.000 H 
BRANCH   30   29
ATOM     29  C20 UNL A   1      22.477  36.212  61.292  1.00  0.00    +0.000 C 
ATOM    118  H17 UNL A   1      21.733  36.684  60.686  1.00  0.00    +0.000 H 
ATOM    119  H18 UNL A   1      22.118  35.981  62.273  1.00  0.00    +0.000 H 
BRANCH   29   28
ATOM    116  H15 UNL A   1      23.728  37.466  62.490  1.00  0.00    +0.000 H 
ATOM     28  C19 UNL A   1      23.651  37.182  61.461  1.00  0.00    +0.000 C 
ATOM    117  H16 UNL A   1      24.552  36.697  61.149  1.00  0.00    +0.000 H 
BRANCH   28   27
ATOM     27  N7  UNL A   1      23.444  38.365  60.652  1.00  0.00    +0.000 N 
ATOM    115  H14 UNL A   1      23.028  39.106  61.150  1.00  0.00    +0.000 H 
BRANCH   27   25
ATOM     25  C18 UNL A   1      23.700  38.675  59.342  1.00  0.00    +0.000 C 
ATOM     26  O2  UNL A   1      24.835  39.077  59.078  1.00  0.00    +0.000 O 
BRANCH   25   24
ATOM    100  C70 UNL A   1      21.338  38.290  58.419  1.00  0.00    +0.000 C 
ATOM    101  C71 UNL A   1      20.434  38.405  57.355  1.00  0.00    +0.000 C 
ATOM    143  H42 UNL A   1      21.006  37.952  59.336  1.00  0.00    +0.000 H 
ATOM    144  H43 UNL A   1      19.429  38.231  57.509  1.00  0.00    +0.000 H 
ATOM    113  H12 UNL A   1      22.618  39.121  54.909  1.00  0.00    +0.000 H 
ATOM    114  H13 UNL A   1      24.139  39.123  56.801  1.00  0.00    +0.000 H 
ATOM     21  C14 UNL A   1      20.899  38.758  56.082  1.00  0.00    +0.000 C 
ATOM     22  C15 UNL A   1      22.261  38.954  55.863  1.00  0.00    +0.000 C 
ATOM     23  C16 UNL A   1      23.138  38.924  56.952  1.00  0.00    +0.000 C 
ATOM     24  C17 UNL A   1      22.683  38.626  58.251  1.00  0.00    +0.000 C 
BRANCH   21   20
ATOM      2  C2  UNL A   1      19.877  38.083  53.881  1.00  0.00    +0.000 C 
ATOM      3  C3  UNL A   1      19.008  38.801  53.084  1.00  0.00    +0.000 C 
ATOM     18  N4  UNL A   1      18.538  39.888  53.758  1.00  0.00    +0.000 N 
ATOM     19  N5  UNL A   1      19.087  39.880  54.968  1.00  0.00    +0.000 N 
ATOM     20  N6  UNL A   1      19.995  38.876  55.007  1.00  0.00    +0.000 N 
BRANCH    2    1
ATOM      1  C1  UNL A   1      20.444  36.725  53.711  1.00  0.00    +0.000 C 
ATOM    102  H1  UNL A   1      20.515  36.496  52.667  1.00  0.00    +0.000 H 
ATOM    103  H2  UNL A   1      19.809  36.010  54.190  1.00  0.00    +0.000 H 
ATOM    104  H3  UNL A   1      21.419  36.687  54.152  1.00  0.00    +0.000 H 
ENDBRANCH    2    1
BRANCH    3    4
ATOM      4  C4  UNL A   1      18.535  38.457  51.749  1.00  0.00    +0.000 C 
ATOM      5  N1  UNL A   1      17.242  38.228  51.490  1.00  0.00    +0.000 N 
ATOM      6  N2  UNL A   1      17.231  37.761  50.223  1.00  0.00    +0.000 N 
ATOM     13  C11 UNL A   1      18.492  37.736  49.673  1.00  0.00    +0.000 C 
ATOM     14  C12 UNL A   1      19.362  38.239  50.622  1.00  0.00    +0.000 C 
ATOM    110  H9  UNL A   1      18.741  37.404  48.728  1.00  0.00    +0.000 H 
BRANCH    6    7
ATOM      7  C5  UNL A   1      16.025  37.341  49.615  1.00  0.00    +0.000 C 
ATOM      8  C6  UNL A   1      14.807  37.640  50.236  1.00  0.00    +0.000 C 
ATOM      9  C7  UNL A   1      13.610  37.261  49.628  1.00  0.00    +0.000 C 
ATOM    105  H4  UNL A   1      14.794  38.140  51.138  1.00  0.00    +0.000 H 
ATOM     11  C9  UNL A   1      14.847  36.209  47.836  1.00  0.00    +0.000 C 
ATOM     12  C10 UNL A   1      16.049  36.633  48.407  1.00  0.00    +0.000 C 
ATOM    109  H8  UNL A   1      16.947  36.424  47.943  1.00  0.00    +0.000 H 
ATOM     10  C8  UNL A   1      13.630  36.536  48.436  1.00  0.00    +0.000 C 
ATOM    106  H5  UNL A   1      12.708  37.516  50.061  1.00  0.00    +0.000 H 
ATOM    108  H7  UNL A   1      14.859  35.653  46.966  1.00  0.00    +0.000 H 
ATOM    107  H6  UNL A   1      12.744  36.241  47.998  1.00  0.00    +0.000 H 
ENDBRANCH    6    7
BRANCH   14   15
ATOM    111  H10 UNL A   1      21.387  37.652  50.205  1.00  0.00    +0.000 H 
ATOM     15  C13 UNL A   1      20.771  38.452  50.413  1.00  0.00    +0.000 C 
BRANCH   15   16
ATOM     16  N3  UNL A   1      21.264  39.644  50.486  1.00  0.00    +0.000 N 
BRANCH   16   17
ATOM     17  O1  UNL A   1      22.662  39.567  50.447  1.00  0.00    +0.000 O 
ATOM    112  H11 UNL A   1      23.156  40.225  49.998  1.00  0.00    +0.000 H 
ENDBRANCH   16   17
ENDBRANCH   15   16
ENDBRANCH   14   15
ENDBRANCH    3    4
ENDBRANCH   21   20
ENDBRANCH   25   24
ENDBRANCH   27   25
ENDBRANCH   28   27
ENDBRANCH   29   28
ENDBRANCH   30   29
ENDBRANCH   31   30
ENDBRANCH   32   31
ENDBRANCH   33   32
ENDBRANCH   34   33
ENDBRANCH   35   34
ENDBRANCH   37   35
ENDBRANCH   41   40
BRANCH   45   46
ATOM     46  C34 UNL A   1      19.797  34.306  46.775  1.00  0.00    +0.000 C 
ATOM     47  C35 UNL A   1      18.939  33.431  46.073  1.00  0.00    +0.000 C 
ATOM     48  F1  UNL A   1      19.100  32.101  46.157  1.00  0.00    +0.000 F 
ATOM     49  C36 UNL A   1      17.966  33.899  45.185  1.00  0.00    +0.000 C 
ATOM     50  F2  UNL A   1      17.273  33.030  44.435  1.00  0.00    +0.000 F 
ATOM     51  C37 UNL A   1      17.766  35.255  45.015  1.00  0.00    +0.000 C 
ATOM     52  F3  UNL A   1      16.883  35.709  44.115  1.00  0.00    +0.000 F 
ATOM     53  C38 UNL A   1      18.523  36.143  45.749  1.00  0.00    +0.000 C 
ATOM     54  F4  UNL A   1      18.354  37.464  45.588  1.00  0.00    +0.000 F 
ATOM     55  C39 UNL A   1      19.532  35.681  46.595  1.00  0.00    +0.000 C 
ATOM     56  F5  UNL A   1      20.299  36.633  47.138  1.00  0.00    +0.000 F 
ENDBRANCH   45   46
BRANCH   62   63
ATOM     65  F6  UNL A   1      26.582  34.515  42.767  1.00  0.00    +0.000 F 
ATOM     66  C47 UNL A   1      28.489  33.994  44.027  1.00  0.00    +0.000 C 
ATOM     67  F7  UNL A   1      29.193  33.855  42.894  1.00  0.00    +0.000 F 
ATOM     68  C48 UNL A   1      29.122  33.868  45.253  1.00  0.00    +0.000 C 
ATOM     69  F8  UNL A   1      30.437  33.616  45.308  1.00  0.00    +0.000 F 
ATOM     70  C49 UNL A   1      28.396  34.031  46.422  1.00  0.00    +0.000 C 
ATOM     71  F9  UNL A   1      29.014  33.961  47.610  1.00  0.00    +0.000 F 
ATOM     72  C50 UNL A   1      27.031  34.290  46.368  1.00  0.00    +0.000 C 
ATOM     73  F10 UNL A   1      26.360  34.461  47.519  1.00  0.00    +0.000 F 
ATOM     63  C45 UNL A   1      26.364  34.422  45.142  1.00  0.00    +0.000 C 
ATOM     64  C46 UNL A   1      27.130  34.297  43.971  1.00  0.00    +0.000 C 
ENDBRANCH   62   63
BRANCH   77   78
ATOM     78  C54 UNL A   1      25.573  40.398  46.947  1.00  0.00    +0.000 C 
ATOM     79  C55 UNL A   1      24.575  41.249  47.444  1.00  0.00    +0.000 C 
ATOM     80  F11 UNL A   1      23.408  40.744  47.869  1.00  0.00    +0.000 F 
ATOM     81  C56 UNL A   1      24.785  42.625  47.571  1.00  0.00    +0.000 C 
ATOM     82  F12 UNL A   1      23.831  43.401  48.104  1.00  0.00    +0.000 F 
ATOM     83  C57 UNL A   1      25.996  43.188  47.196  1.00  0.00    +0.000 C 
ATOM     84  F13 UNL A   1      26.216  44.499  47.369  1.00  0.00    +0.000 F 
ATOM     85  C58 UNL A   1      26.991  42.379  46.681  1.00  0.00    +0.000 C 
ATOM     86  F14 UNL A   1      28.178  42.905  46.347  1.00  0.00    +0.000 F 
ATOM     87  C59 UNL A   1      26.785  41.004  46.564  1.00  0.00    +0.000 C 
ATOM     88  F15 UNL A   1      27.824  40.263  46.152  1.00  0.00    +0.000 F 
ENDBRANCH   77   78
TORSDOF 22
ENDMDL
MODEL 10
REMARK VINA RESULT:      -9.4     10.982     19.920
ROOT
ATOM    131  H30 UNL A   1      10.720  34.560   0.065  1.00  0.00    +0.000 H 
ATOM    132  H31 UNL A   1       9.821  33.837  -2.333  1.00  0.00    +0.000 H 
ATOM    133  H32 UNL A   1      13.636  32.588  -1.916  1.00  0.00    +0.000 H 
ATOM    134  H33 UNL A   1       9.965  25.329  -1.949  1.00  0.00    +0.000 H 
ATOM    135  H34 UNL A   1       8.630  26.469  -0.103  1.00  0.00    +0.000 H 
ATOM    136  H35 UNL A   1      11.551  29.159  -1.334  1.00  0.00    +0.000 H 
ATOM    137  H36 UNL A   1      14.611  28.339  -2.414  1.00  0.00    +0.000 H 
ATOM    138  H37 UNL A   1      14.269  30.888  -2.593  1.00  0.00    +0.000 H 
ATOM    139  H38 UNL A   1      13.063  31.181   3.331  1.00  0.00    +0.000 H 
ATOM    140  H39 UNL A   1      11.733  28.984   3.242  1.00  0.00    +0.000 H 
ATOM     41  C30 UNL A   1       9.992  28.794   0.965  1.00  0.00    +0.000 C 
ATOM     42  C31 UNL A   1      10.942  29.897   1.320  1.00  0.00    +0.000 C 
ATOM     43  N9  UNL A   1      11.141  31.021   0.706  1.00  0.00    +0.000 N 
ATOM     44  C32 UNL A   1      12.211  31.636   1.359  1.00  0.00    +0.000 C 
ATOM     45  C33 UNL A   1      12.980  32.580   0.747  1.00  0.00    +0.000 C 
ATOM     57  C40 UNL A   1      12.307  33.155  -0.385  1.00  0.00    +0.000 C 
ATOM     58  C41 UNL A   1      11.151  33.883  -0.582  1.00  0.00    +0.000 C 
ATOM     59  C42 UNL A   1      10.680  33.498  -1.873  1.00  0.00    +0.000 C 
ATOM     60  C43 UNL A   1      11.591  32.582  -2.401  1.00  0.00    +0.000 C 
ATOM     61  N10 UNL A   1      12.707  32.742  -1.628  1.00  0.00    +0.000 N 
ATOM     62  C44 UNL A   1      11.459  31.538  -3.389  1.00  0.00    +0.000 C 
ATOM     74  C51 UNL A   1      12.305  30.474  -3.508  1.00  0.00    +0.000 C 
ATOM     75  N11 UNL A   1      11.845  29.263  -3.997  1.00  0.00    +0.000 N 
ATOM     76  C52 UNL A   1      12.574  28.365  -3.394  1.00  0.00    +0.000 C 
ATOM     77  C53 UNL A   1      12.077  27.025  -3.012  1.00  0.00    +0.000 C 
ATOM     89  C60 UNL A   1      11.151  27.196  -2.041  1.00  0.00    +0.000 C 
ATOM     90  C61 UNL A   1      10.143  26.272  -1.571  1.00  0.00    +0.000 C 
ATOM     91  C62 UNL A   1       9.475  26.853  -0.557  1.00  0.00    +0.000 C 
ATOM     92  C63 UNL A   1      10.129  28.114  -0.196  1.00  0.00    +0.000 C 
ATOM     93  N12 UNL A   1      11.042  28.325  -1.209  1.00  0.00    +0.000 N 
ATOM     94  C64 UNL A   1      13.807  28.856  -2.802  1.00  0.00    +0.000 C 
ATOM     95  C65 UNL A   1      13.596  30.171  -2.904  1.00  0.00    +0.000 C 
ATOM     96  C66 UNL A   1      12.438  30.886   2.565  1.00  0.00    +0.000 C 
ATOM     97  C67 UNL A   1      11.731  29.756   2.558  1.00  0.00    +0.000 C 
ENDROOT
BRANCH   41   40
ATOM    129  H28 UNL A   1       8.842  25.721   4.174  1.00  0.00    +0.000 H 
ATOM     98  C68 UNL A   1       7.884  28.891   2.261  1.00  0.00    +0.000 C 
ATOM     99  C69 UNL A   1       7.018  28.370   3.199  1.00  0.00    +0.000 C 
ATOM    130  H29 UNL A   1      10.442  26.745   2.652  1.00  0.00    +0.000 H 
ATOM     37  C26 UNL A   1       7.337  27.166   3.822  1.00  0.00    +0.000 C 
ATOM     38  C27 UNL A   1       8.593  26.577   3.653  1.00  0.00    +0.000 C 
ATOM     39  C28 UNL A   1       9.503  27.157   2.773  1.00  0.00    +0.000 C 
ATOM     40  C29 UNL A   1       9.138  28.302   2.055  1.00  0.00    +0.000 C 
ATOM    141  H40 UNL A   1       7.607  29.718   1.709  1.00  0.00    +0.000 H 
ATOM    142  H41 UNL A   1       6.144  28.865   3.436  1.00  0.00    +0.000 H 
BRANCH   37   35
ATOM     35  C25 UNL A   1       6.308  26.479   4.625  1.00  0.00    +0.000 C 
ATOM     36  O3  UNL A   1       5.400  27.107   5.131  1.00  0.00    +0.000 O 
BRANCH   35   34
ATOM     34  N8  UNL A   1       6.417  25.112   4.801  1.00  0.00    +0.000 N 
ATOM    128  H27 UNL A   1       5.907  24.545   4.180  1.00  0.00    +0.000 H 
BRANCH   34   33
ATOM     33  C24 UNL A   1       7.211  24.422   5.815  1.00  0.00    +0.000 C 
ATOM    126  H25 UNL A   1       6.688  23.543   6.126  1.00  0.00    +0.000 H 
ATOM    127  H26 UNL A   1       8.158  24.171   5.385  1.00  0.00    +0.000 H 
BRANCH   33   32
ATOM    124  H23 UNL A   1       6.936  26.233   6.884  1.00  0.00    +0.000 H 
ATOM    125  H24 UNL A   1       7.105  24.773   7.885  1.00  0.00    +0.000 H 
ATOM     32  C23 UNL A   1       7.456  25.309   7.029  1.00  0.00    +0.000 C 
BRANCH   32   31
ATOM    122  H21 UNL A   1       9.120  26.626   6.948  1.00  0.00    +0.000 H 
ATOM    123  H22 UNL A   1       9.101  25.468   8.320  1.00  0.00    +0.000 H 
ATOM     31  C22 UNL A   1       8.939  25.623   7.273  1.00  0.00    +0.000 C 
BRANCH   31   30
ATOM    121  H20 UNL A   1       9.711  24.775   5.514  1.00  0.00    +0.000 H 
ATOM     30  C21 UNL A   1       9.944  24.706   6.556  1.00  0.00    +0.000 C 
ATOM    120  H19 UNL A   1       9.836  23.721   6.959  1.00  0.00    +0.000 H 
BRANCH   30   29
ATOM     29  C20 UNL A   1      11.421  25.111   6.687  1.00  0.00    +0.000 C 
ATOM    118  H17 UNL A   1      11.959  24.694   5.862  1.00  0.00    +0.000 H 
ATOM    119  H18 UNL A   1      11.453  26.181   6.696  1.00  0.00    +0.000 H 
BRANCH   29   28
ATOM    116  H15 UNL A   1      11.910  25.357   8.754  1.00  0.00    +0.000 H 
ATOM     28  C19 UNL A   1      12.078  24.631   7.985  1.00  0.00    +0.000 C 
ATOM    117  H16 UNL A   1      11.647  23.694   8.268  1.00  0.00    +0.000 H 
BRANCH   28   27
ATOM     27  N7  UNL A   1      13.503  24.459   7.791  1.00  0.00    +0.000 N 
ATOM    115  H14 UNL A   1      14.024  25.263   8.021  1.00  0.00    +0.000 H 
BRANCH   27   25
ATOM     25  C18 UNL A   1      14.283  23.420   7.356  1.00  0.00    +0.000 C 
ATOM     26  O2  UNL A   1      14.768  23.525   6.227  1.00  0.00    +0.000 O 
BRANCH   25   24
ATOM    100  C70 UNL A   1      15.369  22.035   9.221  1.00  0.00    +0.000 C 
ATOM    101  C71 UNL A   1      15.413  20.844   9.958  1.00  0.00    +0.000 C 
ATOM    143  H42 UNL A   1      15.975  22.825   9.492  1.00  0.00    +0.000 H 
ATOM    144  H43 UNL A   1      15.987  20.785  10.812  1.00  0.00    +0.000 H 
ATOM    113  H12 UNL A   1      13.463  18.954   7.986  1.00  0.00    +0.000 H 
ATOM    114  H13 UNL A   1      13.230  21.080   6.838  1.00  0.00    +0.000 H 
ATOM     21  C14 UNL A   1      14.675  19.733   9.530  1.00  0.00    +0.000 C 
ATOM     22  C15 UNL A   1      13.931  19.797   8.353  1.00  0.00    +0.000 C 
ATOM     23  C16 UNL A   1      13.825  21.017   7.680  1.00  0.00    +0.000 C 
ATOM     24  C17 UNL A   1      14.514  22.162   8.124  1.00  0.00    +0.000 C 
BRANCH   21   20
ATOM      2  C2  UNL A   1      13.766  18.009  11.126  1.00  0.00    +0.000 C 
ATOM      3  C3  UNL A   1      14.435  16.962  11.727  1.00  0.00    +0.000 C 
ATOM     18  N4  UNL A   1      15.662  16.794  11.157  1.00  0.00    +0.000 N 
ATOM     19  N5  UNL A   1      15.791  17.712  10.204  1.00  0.00    +0.000 N 
ATOM     20  N6  UNL A   1      14.714  18.531  10.267  1.00  0.00    +0.000 N 
BRANCH    2    1
ATOM      1  C1  UNL A   1      12.346  18.420  11.207  1.00  0.00    +0.000 C 
ATOM    102  H1  UNL A   1      11.800  17.979  10.397  1.00  0.00    +0.000 H 
ATOM    103  H2  UNL A   1      12.278  19.486  11.142  1.00  0.00    +0.000 H 
ATOM    104  H3  UNL A   1      11.931  18.092  12.137  1.00  0.00    +0.000 H 
ENDBRANCH    2    1
BRANCH    3    4
ATOM      4  C4  UNL A   1      13.932  16.057  12.753  1.00  0.00    +0.000 C 
ATOM      5  N1  UNL A   1      14.037  16.333  14.058  1.00  0.00    +0.000 N 
ATOM      6  N2  UNL A   1      13.645  15.197  14.675  1.00  0.00    +0.000 N 
ATOM     13  C11 UNL A   1      13.257  14.232  13.775  1.00  0.00    +0.000 C 
ATOM     14  C12 UNL A   1      13.376  14.779  12.511  1.00  0.00    +0.000 C 
ATOM    110  H9  UNL A   1      12.935  13.278  14.002  1.00  0.00    +0.000 H 
BRANCH    6    7
ATOM      7  C5  UNL A   1      13.685  15.085  16.084  1.00  0.00    +0.000 C 
ATOM      8  C6  UNL A   1      12.969  16.002  16.862  1.00  0.00    +0.000 C 
ATOM      9  C7  UNL A   1      12.974  15.881  18.252  1.00  0.00    +0.000 C 
ATOM    105  H4  UNL A   1      12.439  16.763  16.411  1.00  0.00    +0.000 H 
ATOM     11  C9  UNL A   1      14.477  13.993  18.088  1.00  0.00    +0.000 C 
ATOM     12  C10 UNL A   1      14.434  14.071  16.694  1.00  0.00    +0.000 C 
ATOM    109  H8  UNL A   1      14.951  13.387  16.119  1.00  0.00    +0.000 H 
ATOM     10  C8  UNL A   1      13.736  14.886  18.864  1.00  0.00    +0.000 C 
ATOM    106  H5  UNL A   1      12.414  16.529  18.829  1.00  0.00    +0.000 H 
ATOM    108  H7  UNL A   1      15.057  13.273  18.545  1.00  0.00    +0.000 H 
ATOM    107  H6  UNL A   1      13.753  14.810  19.893  1.00  0.00    +0.000 H 
ENDBRANCH    6    7
BRANCH   14   15
ATOM    111  H10 UNL A   1      13.514  13.283  10.973  1.00  0.00    +0.000 H 
ATOM     15  C13 UNL A   1      12.995  14.116  11.290  1.00  0.00    +0.000 C 
BRANCH   15   16
ATOM     16  N3  UNL A   1      12.004  14.563  10.592  1.00  0.00    +0.000 N 
BRANCH   16   17
ATOM     17  O1  UNL A   1      12.493  15.125   9.406  1.00  0.00    +0.000 O 
ATOM    112  H11 UNL A   1      12.033  14.995   8.601  1.00  0.00    +0.000 H 
ENDBRANCH   16   17
ENDBRANCH   15   16
ENDBRANCH   14   15
ENDBRANCH    3    4
ENDBRANCH   21   20
ENDBRANCH   25   24
ENDBRANCH   27   25
ENDBRANCH   28   27
ENDBRANCH   29   28
ENDBRANCH   30   29
ENDBRANCH   31   30
ENDBRANCH   32   31
ENDBRANCH   33   32
ENDBRANCH   34   33
ENDBRANCH   35   34
ENDBRANCH   37   35
ENDBRANCH   41   40
BRANCH   45   46
ATOM     46  C34 UNL A   1      14.484  32.705   0.917  1.00  0.00    +0.000 C 
ATOM     47  C35 UNL A   1      15.319  31.678   0.425  1.00  0.00    +0.000 C 
ATOM     48  F1  UNL A   1      14.843  30.760  -0.429  1.00  0.00    +0.000 F 
ATOM     49  C36 UNL A   1      16.630  31.506   0.879  1.00  0.00    +0.000 C 
ATOM     50  F2  UNL A   1      17.336  30.434   0.490  1.00  0.00    +0.000 F 
ATOM     51  C37 UNL A   1      17.179  32.389   1.788  1.00  0.00    +0.000 C 
ATOM     52  F3  UNL A   1      18.410  32.189   2.278  1.00  0.00    +0.000 F 
ATOM     53  C38 UNL A   1      16.426  33.457   2.227  1.00  0.00    +0.000 C 
ATOM     54  F4  UNL A   1      16.936  34.318   3.120  1.00  0.00    +0.000 F 
ATOM     55  C39 UNL A   1      15.099  33.602   1.817  1.00  0.00    +0.000 C 
ATOM     56  F5  UNL A   1      14.422  34.584   2.422  1.00  0.00    +0.000 F 
ENDBRANCH   45   46
BRANCH   62   63
ATOM     65  F6  UNL A   1      11.112  32.191  -6.225  1.00  0.00    +0.000 F 
ATOM     66  C47 UNL A   1       8.828  31.671  -6.179  1.00  0.00    +0.000 C 
ATOM     67  F7  UNL A   1       8.731  32.004  -7.474  1.00  0.00    +0.000 F 
ATOM     68  C48 UNL A   1       7.723  31.166  -5.512  1.00  0.00    +0.000 C 
ATOM     69  F8  UNL A   1       6.561  31.003  -6.160  1.00  0.00    +0.000 F 
ATOM     70  C49 UNL A   1       7.830  30.805  -4.178  1.00  0.00    +0.000 C 
ATOM     71  F9  UNL A   1       6.779  30.269  -3.542  1.00  0.00    +0.000 F 
ATOM     72  C50 UNL A   1       9.034  30.975  -3.502  1.00  0.00    +0.000 C 
ATOM     73  F10 UNL A   1       9.110  30.598  -2.215  1.00  0.00    +0.000 F 
ATOM     63  C45 UNL A   1      10.167  31.484  -4.151  1.00  0.00    +0.000 C 
ATOM     64  C46 UNL A   1      10.045  31.801  -5.514  1.00  0.00    +0.000 C 
ENDBRANCH   62   63
BRANCH   77   78
ATOM     78  C54 UNL A   1      12.708  25.768  -3.467  1.00  0.00    +0.000 C 
ATOM     79  C55 UNL A   1      13.644  25.092  -2.671  1.00  0.00    +0.000 C 
ATOM     80  F11 UNL A   1      14.125  25.669  -1.561  1.00  0.00    +0.000 F 
ATOM     81  C56 UNL A   1      14.051  23.789  -2.969  1.00  0.00    +0.000 C 
ATOM     82  F12 UNL A   1      14.903  23.152  -2.154  1.00  0.00    +0.000 F 
ATOM     83  C57 UNL A   1      13.539  23.129  -4.076  1.00  0.00    +0.000 C 
ATOM     84  F13 UNL A   1      13.888  21.860  -4.330  1.00  0.00    +0.000 F 
ATOM     85  C58 UNL A   1      12.633  23.777  -4.894  1.00  0.00    +0.000 C 
ATOM     86  F14 UNL A   1      12.104  23.139  -5.948  1.00  0.00    +0.000 F 
ATOM     87  C59 UNL A   1      12.219  25.074  -4.591  1.00  0.00    +0.000 C 
ATOM     88  F15 UNL A   1      11.263  25.607  -5.366  1.00  0.00    +0.000 F 
ENDBRANCH   77   78
TORSDOF 22
ENDMDL
