MODEL 1
REMARK VINA RESULT:      -7.9      0.000      0.000
ROOT
ATOM    133  H29 UNL A   1      28.576  26.147  -7.662  1.00  0.00    +0.000 H 
ATOM    134  H30 UNL A   1      26.418  27.610  -7.985  1.00  0.00    +0.000 H 
ATOM    135  H31 UNL A   1      25.363  24.160  -5.958  1.00  0.00    +0.000 H 
ATOM    136  H32 UNL A   1      25.725  27.299 -10.998  1.00  0.00    +0.000 H 
ATOM    137  H33 UNL A   1      27.069  25.326 -10.066  1.00  0.00    +0.000 H 
ATOM    138  H34 UNL A   1      24.606  23.971 -13.118  1.00  0.00    +0.000 H 
ATOM    139  H35 UNL A   1      21.012  27.582 -10.143  1.00  0.00    +0.000 H 
ATOM    140  H36 UNL A   1      21.543  27.827  -7.636  1.00  0.00    +0.000 H 
ATOM    141  H37 UNL A   1      28.358  20.627  -7.645  1.00  0.00    +0.000 H 
ATOM    142  H38 UNL A   1      27.332  20.359  -9.990  1.00  0.00    +0.000 H 
ATOM     38  C25 UNL A   1      25.849  22.768 -10.778  1.00  0.00    +0.000 C 
ATOM     39  C26 UNL A   1      26.516  22.414  -9.521  1.00  0.00    +0.000 C 
ATOM     40  N6  UNL A   1      26.481  23.129  -8.456  1.00  0.00    +0.000 N 
ATOM     41  C27 UNL A   1      27.420  22.612  -7.588  1.00  0.00    +0.000 C 
ATOM     42  C28 UNL A   1      27.909  23.430  -6.614  1.00  0.00    +0.000 C 
ATOM     54  C35 UNL A   1      27.254  24.733  -6.703  1.00  0.00    +0.000 C 
ATOM     55  C36 UNL A   1      27.623  25.899  -7.354  1.00  0.00    +0.000 C 
ATOM     56  C37 UNL A   1      26.460  26.689  -7.522  1.00  0.00    +0.000 C 
ATOM     57  C38 UNL A   1      25.391  26.014  -6.956  1.00  0.00    +0.000 C 
ATOM     58  N7  UNL A   1      25.894  24.834  -6.442  1.00  0.00    +0.000 N 
ATOM     59  C39 UNL A   1      23.991  26.368  -6.791  1.00  0.00    +0.000 C 
ATOM     71  C46 UNL A   1      23.309  26.557  -7.960  1.00  0.00    +0.000 C 
ATOM     72  N8  UNL A   1      23.729  26.006  -9.144  1.00  0.00    +0.000 N 
ATOM     73  C47 UNL A   1      22.901  26.346 -10.094  1.00  0.00    +0.000 C 
ATOM     74  C48 UNL A   1      23.078  25.943 -11.537  1.00  0.00    +0.000 C 
ATOM     86  C55 UNL A   1      24.390  25.736 -11.859  1.00  0.00    +0.000 C 
ATOM     87  C56 UNL A   1      25.522  26.297 -11.139  1.00  0.00    +0.000 C 
ATOM     88  C57 UNL A   1      26.251  25.260 -10.693  1.00  0.00    +0.000 C 
ATOM     89  C58 UNL A   1      25.698  24.029 -11.240  1.00  0.00    +0.000 C 
ATOM     90  N9  UNL A   1      24.837  24.451 -12.290  1.00  0.00    +0.000 N 
ATOM     91  C59 UNL A   1      21.805  27.181  -9.619  1.00  0.00    +0.000 C 
ATOM     92  C60 UNL A   1      22.105  27.286  -8.313  1.00  0.00    +0.000 C 
ATOM     93  C61 UNL A   1      27.774  21.326  -8.130  1.00  0.00    +0.000 C 
ATOM     94  C62 UNL A   1      27.246  21.160  -9.346  1.00  0.00    +0.000 C 
ENDROOT
BRANCH   38   37
ATOM     34  C21 UNL A   1      25.073  19.313 -12.887  1.00  0.00    +0.000 C 
ATOM     35  C22 UNL A   1      26.011  20.191 -13.452  1.00  0.00    +0.000 C 
ATOM     36  C23 UNL A   1      26.230  21.419 -12.849  1.00  0.00    +0.000 C 
ATOM    131  H27 UNL A   1      26.530  19.926 -14.303  1.00  0.00    +0.000 H 
ATOM    132  H28 UNL A   1      26.881  22.108 -13.255  1.00  0.00    +0.000 H 
ATOM     37  C24 UNL A   1      25.537  21.682 -11.675  1.00  0.00    +0.000 C 
ATOM    143  H39 UNL A   1      23.884  21.187 -10.454  1.00  0.00    +0.000 H 
ATOM    144  H40 UNL A   1      23.246  19.276 -11.820  1.00  0.00    +0.000 H 
ATOM     95  C63 UNL A   1      24.449  20.907 -11.271  1.00  0.00    +0.000 C 
ATOM     96  C64 UNL A   1      24.139  19.772 -11.969  1.00  0.00    +0.000 C 
BRANCH   34   32
ATOM     33  O7  UNL A   1      24.812  17.123 -13.685  1.00  0.00    +0.000 O 
ATOM     32  C20 UNL A   1      25.430  17.877 -12.942  1.00  0.00    +0.000 C 
BRANCH   32   31
ATOM    130  H26 UNL A   1      26.586  17.502 -11.337  1.00  0.00    +0.000 H 
ATOM     31  N5  UNL A   1      26.587  17.441 -12.320  1.00  0.00    +0.000 N 
BRANCH   31   30
ATOM    129  H25 UNL A   1      27.852  17.263 -13.919  1.00  0.00    +0.000 H 
ATOM     30  C19 UNL A   1      27.804  16.906 -12.911  1.00  0.00    +0.000 C 
ATOM    128  H24 UNL A   1      27.764  15.838 -12.866  1.00  0.00    +0.000 H 
BRANCH   30   29
ATOM     29  C18 UNL A   1      29.065  17.372 -12.207  1.00  0.00    +0.000 C 
ATOM    126  H22 UNL A   1      28.931  18.395 -11.921  1.00  0.00    +0.000 H 
ATOM    127  H23 UNL A   1      29.207  16.721 -11.370  1.00  0.00    +0.000 H 
BRANCH   29   28
ATOM    124  H20 UNL A   1      30.123  16.633 -13.884  1.00  0.00    +0.000 H 
ATOM     28  C17 UNL A   1      30.333  17.275 -13.055  1.00  0.00    +0.000 C 
ATOM    125  H21 UNL A   1      30.573  18.281 -13.329  1.00  0.00    +0.000 H 
BRANCH   28   27
ATOM    122  H18 UNL A   1      31.333  16.582 -11.314  1.00  0.00    +0.000 H 
ATOM     27  C16 UNL A   1      31.581  16.732 -12.344  1.00  0.00    +0.000 C 
ATOM    123  H19 UNL A   1      31.843  15.834 -12.863  1.00  0.00    +0.000 H 
BRANCH   27   26
ATOM    121  H17 UNL A   1      33.554  17.170 -11.767  1.00  0.00    +0.000 H 
ATOM     26  C15 UNL A   1      32.822  17.623 -12.403  1.00  0.00    +0.000 C 
ATOM    120  H16 UNL A   1      32.544  18.606 -12.084  1.00  0.00    +0.000 H 
BRANCH   26   25
ATOM     25  C14 UNL A   1      33.452  17.731 -13.784  1.00  0.00    +0.000 C 
ATOM    118  H14 UNL A   1      34.310  17.092 -13.817  1.00  0.00    +0.000 H 
ATOM    119  H15 UNL A   1      32.708  17.442 -14.496  1.00  0.00    +0.000 H 
BRANCH   25   24
ATOM    117  H13 UNL A   1      34.546  19.149 -14.826  1.00  0.00    +0.000 H 
ATOM     24  N4  UNL A   1      33.866  19.072 -14.118  1.00  0.00    +0.000 N 
BRANCH   24   22
ATOM     22  C13 UNL A   1      33.434  20.249 -13.574  1.00  0.00    +0.000 C 
ATOM     23  O6  UNL A   1      32.346  20.689 -13.955  1.00  0.00    +0.000 O 
BRANCH   22   21
ATOM    115  H11 UNL A   1      33.761  21.930 -12.307  1.00  0.00    +0.000 H 
ATOM    116  H12 UNL A   1      34.585  20.417 -11.820  1.00  0.00    +0.000 H 
ATOM     21  C12 UNL A   1      34.321  21.074 -12.621  1.00  0.00    +0.000 C 
BRANCH   21   20
ATOM    114  H10 UNL A   1      36.332  20.922 -13.082  1.00  0.00    +0.000 H 
ATOM     20  N3  UNL A   1      35.577  21.543 -13.188  1.00  0.00    +0.000 N 
BRANCH   20   18
ATOM     18  C11 UNL A   1      35.877  22.702 -13.840  1.00  0.00    +0.000 C 
ATOM     19  O5  UNL A   1      36.204  23.676 -13.158  1.00  0.00    +0.000 O 
BRANCH   18   17
ATOM     17  C10 UNL A   1      35.809  22.807 -15.373  1.00  0.00    +0.000 C 
ATOM    113  H9  UNL A   1      36.455  22.046 -15.755  1.00  0.00    +0.000 H 
ATOM    112  H8  UNL A   1      36.106  23.796 -15.652  1.00  0.00    +0.000 H 
BRANCH   17   16
ATOM    111  H7  UNL A   1      34.053  21.732 -15.616  1.00  0.00    +0.000 H 
ATOM     16  N2  UNL A   1      34.487  22.550 -15.952  1.00  0.00    +0.000 N 
BRANCH   16   14
ATOM     14  C9  UNL A   1      33.740  23.246 -16.882  1.00  0.00    +0.000 C 
ATOM     15  O4  UNL A   1      33.836  22.932 -18.064  1.00  0.00    +0.000 O 
BRANCH   14   12
ATOM     12  C8  UNL A   1      32.806  24.394 -16.443  1.00  0.00    +0.000 C 
ATOM     13  O3  UNL A   1      32.656  25.324 -17.229  1.00  0.00    +0.000 O 
BRANCH   12   11
ATOM     97  C65 UNL A   1      30.671  24.383 -14.994  1.00  0.00    +0.000 C 
ATOM     98  C66 UNL A   1      29.599  24.327 -15.914  1.00  0.00    +0.000 C 
ATOM     99  C67 UNL A   1      28.284  24.253 -15.458  1.00  0.00    +0.000 C 
ATOM    100  C68 UNL A   1      28.014  24.253 -14.097  1.00  0.00    +0.000 C 
ATOM    101  C69 UNL A   1      29.047  24.337 -13.159  1.00  0.00    +0.000 C 
ATOM    102  C70 UNL A   1      30.373  24.393 -13.626  1.00  0.00    +0.000 C 
ATOM      9  N1  UNL A   1      31.590  24.425 -12.978  1.00  0.00    +0.000 N 
ATOM     10  C6  UNL A   1      32.634  24.447 -13.874  1.00  0.00    +0.000 C 
ATOM     11  C7  UNL A   1      32.104  24.416 -15.152  1.00  0.00    +0.000 C 
ATOM    110  H6  UNL A   1      33.637  24.481 -13.635  1.00  0.00    +0.000 H 
ATOM    145  H41 UNL A   1      29.792  24.340 -16.928  1.00  0.00    +0.000 H 
ATOM    146  H42 UNL A   1      27.507  24.198 -16.136  1.00  0.00    +0.000 H 
ATOM    147  H43 UNL A   1      27.037  24.191 -13.772  1.00  0.00    +0.000 H 
ATOM    148  H44 UNL A   1      28.842  24.356 -12.147  1.00  0.00    +0.000 H 
BRANCH    9    6
ATOM      6  S1  UNL A   1      31.787  24.333 -11.286  1.00  0.00    +0.000 S 
ATOM      7  O1  UNL A   1      30.714  25.129 -10.734  1.00  0.00    +0.000 O 
ATOM      8  O2  UNL A   1      33.187  24.646 -11.037  1.00  0.00    +0.000 O 
BRANCH    6    5
ATOM      2  C2  UNL A   1      31.138  20.055  -9.803  1.00  0.00    +0.000 C 
ATOM      3  C3  UNL A   1      32.154  20.864  -9.281  1.00  0.00    +0.000 C 
ATOM      4  C4  UNL A   1      32.346  22.158  -9.767  1.00  0.00    +0.000 C 
ATOM      5  C5  UNL A   1      31.528  22.649 -10.792  1.00  0.00    +0.000 C 
ATOM    103  C71 UNL A   1      30.539  21.835 -11.347  1.00  0.00    +0.000 C 
ATOM    104  C72 UNL A   1      30.340  20.547 -10.843  1.00  0.00    +0.000 C 
ATOM    108  H4  UNL A   1      32.764  20.501  -8.532  1.00  0.00    +0.000 H 
ATOM    109  H5  UNL A   1      33.091  22.753  -9.372  1.00  0.00    +0.000 H 
ATOM    149  H45 UNL A   1      29.958  22.183 -12.127  1.00  0.00    +0.000 H 
ATOM    150  H46 UNL A   1      29.597  19.952 -11.240  1.00  0.00    +0.000 H 
BRANCH    2    1
ATOM      1  C1  UNL A   1      30.917  18.678  -9.248  1.00  0.00    +0.000 C 
ATOM    106  H2  UNL A   1      30.094  18.695  -8.566  1.00  0.00    +0.000 H 
ATOM    107  H3  UNL A   1      31.799  18.354  -8.735  1.00  0.00    +0.000 H 
ATOM    105  H1  UNL A   1      30.702  18.001 -10.050  1.00  0.00    +0.000 H 
ENDBRANCH    2    1
ENDBRANCH    6    5
ENDBRANCH    9    6
ENDBRANCH   12   11
ENDBRANCH   14   12
ENDBRANCH   16   14
ENDBRANCH   17   16
ENDBRANCH   18   17
ENDBRANCH   20   18
ENDBRANCH   21   20
ENDBRANCH   22   21
ENDBRANCH   24   22
ENDBRANCH   25   24
ENDBRANCH   26   25
ENDBRANCH   27   26
ENDBRANCH   28   27
ENDBRANCH   29   28
ENDBRANCH   30   29
ENDBRANCH   31   30
ENDBRANCH   32   31
ENDBRANCH   34   32
ENDBRANCH   38   37
BRANCH   42   43
ATOM     43  C29 UNL A   1      29.173  23.197  -5.816  1.00  0.00    +0.000 C 
ATOM     44  C30 UNL A   1      30.433  23.255  -6.458  1.00  0.00    +0.000 C 
ATOM     45  F1  UNL A   1      30.551  23.631  -7.737  1.00  0.00    +0.000 F 
ATOM     46  C31 UNL A   1      31.628  22.931  -5.811  1.00  0.00    +0.000 C 
ATOM     47  F2  UNL A   1      32.784  22.996  -6.485  1.00  0.00    +0.000 F 
ATOM     48  C32 UNL A   1      31.621  22.538  -4.491  1.00  0.00    +0.000 C 
ATOM     49  F3  UNL A   1      32.764  22.206  -3.875  1.00  0.00    +0.000 F 
ATOM     50  C33 UNL A   1      30.424  22.520  -3.806  1.00  0.00    +0.000 C 
ATOM     51  F4  UNL A   1      30.403  22.162  -2.514  1.00  0.00    +0.000 F 
ATOM     52  C34 UNL A   1      29.232  22.880  -4.446  1.00  0.00    +0.000 C 
ATOM     53  F5  UNL A   1      28.155  22.962  -3.659  1.00  0.00    +0.000 F 
ENDBRANCH   42   43
BRANCH   59   60
ATOM     65  C43 UNL A   1      22.250  27.029  -2.846  1.00  0.00    +0.000 C 
ATOM     66  F8  UNL A   1      21.684  27.231  -1.650  1.00  0.00    +0.000 F 
ATOM     67  C44 UNL A   1      22.123  25.812  -3.478  1.00  0.00    +0.000 C 
ATOM     68  F9  UNL A   1      21.388  24.839  -2.922  1.00  0.00    +0.000 F 
ATOM     69  C45 UNL A   1      22.742  25.596  -4.707  1.00  0.00    +0.000 C 
ATOM     70  F10 UNL A   1      22.584  24.365  -5.216  1.00  0.00    +0.000 F 
ATOM     60  C40 UNL A   1      23.460  26.609  -5.394  1.00  0.00    +0.000 C 
ATOM     61  C41 UNL A   1      23.497  27.853  -4.744  1.00  0.00    +0.000 C 
ATOM     62  F6  UNL A   1      24.006  28.941  -5.335  1.00  0.00    +0.000 F 
ATOM     63  C42 UNL A   1      22.946  28.043  -3.473  1.00  0.00    +0.000 C 
ATOM     64  F7  UNL A   1      23.071  29.235  -2.872  1.00  0.00    +0.000 F 
ENDBRANCH   59   60
BRANCH   74   75
ATOM     75  C49 UNL A   1      22.161  25.060 -12.313  1.00  0.00    +0.000 C 
ATOM     76  C50 UNL A   1      21.845  25.454 -13.631  1.00  0.00    +0.000 C 
ATOM     77  F11 UNL A   1      21.957  26.744 -13.989  1.00  0.00    +0.000 F 
ATOM     78  C51 UNL A   1      21.560  24.513 -14.619  1.00  0.00    +0.000 C 
ATOM     79  F12 UNL A   1      21.418  24.905 -15.893  1.00  0.00    +0.000 F 
ATOM     80  C52 UNL A   1      21.516  23.168 -14.296  1.00  0.00    +0.000 C 
ATOM     81  F13 UNL A   1      21.353  22.252 -15.260  1.00  0.00    +0.000 F 
ATOM     82  C53 UNL A   1      21.682  22.773 -12.976  1.00  0.00    +0.000 C 
ATOM     83  F14 UNL A   1      21.637  21.468 -12.666  1.00  0.00    +0.000 F 
ATOM     84  C54 UNL A   1      21.999  23.709 -11.988  1.00  0.00    +0.000 C 
ATOM     85  F15 UNL A   1      22.268  23.272 -10.750  1.00  0.00    +0.000 F 
ENDBRANCH   74   75
TORSDOF 25
ENDMDL
MODEL 2
REMARK VINA RESULT:      -7.7     13.664     21.100
ROOT
ATOM    133  H29 UNL A   1      18.606  15.315   7.218  1.00  0.00    +0.000 H 
ATOM    134  H30 UNL A   1      21.167  14.749   7.367  1.00  0.00    +0.000 H 
ATOM    135  H31 UNL A   1      20.558  18.483   9.043  1.00  0.00    +0.000 H 
ATOM    136  H32 UNL A   1      22.194  15.073   4.452  1.00  0.00    +0.000 H 
ATOM    137  H33 UNL A   1      20.095  16.461   4.940  1.00  0.00    +0.000 H 
ATOM    138  H34 UNL A   1      22.379  18.410   2.075  1.00  0.00    +0.000 H 
ATOM    139  H35 UNL A   1      26.481  16.642   5.931  1.00  0.00    +0.000 H 
ATOM    140  H36 UNL A   1      25.662  16.403   8.360  1.00  0.00    +0.000 H 
ATOM    141  H37 UNL A   1      16.820  20.499   6.541  1.00  0.00    +0.000 H 
ATOM    142  H38 UNL A   1      18.056  20.958   4.331  1.00  0.00    +0.000 H 
ATOM     38  C25 UNL A   1      20.415  19.229   4.060  1.00  0.00    +0.000 C 
ATOM     39  C26 UNL A   1      19.465  19.399   5.165  1.00  0.00    +0.000 C 
ATOM     40  N6  UNL A   1      19.577  18.831   6.310  1.00  0.00    +0.000 N 
ATOM     41  C27 UNL A   1      18.385  19.021   6.976  1.00  0.00    +0.000 C 
ATOM     42  C28 UNL A   1      18.067  18.154   7.979  1.00  0.00    +0.000 C 
ATOM     54  C35 UNL A   1      19.151  17.189   8.144  1.00  0.00    +0.000 C 
ATOM     55  C36 UNL A   1      19.340  15.925   7.610  1.00  0.00    +0.000 C 
ATOM     56  C37 UNL A   1      20.720  15.618   7.697  1.00  0.00    +0.000 C 
ATOM     57  C38 UNL A   1      21.364  16.685   8.301  1.00  0.00    +0.000 C 
ATOM     58  N7  UNL A   1      20.393  17.625   8.588  1.00  0.00    +0.000 N 
ATOM     59  C39 UNL A   1      22.750  16.895   8.688  1.00  0.00    +0.000 C 
ATOM     71  C46 UNL A   1      23.639  16.890   7.650  1.00  0.00    +0.000 C 
ATOM     72  N8  UNL A   1      23.253  17.154   6.361  1.00  0.00    +0.000 N 
ATOM     73  C47 UNL A   1      24.293  17.080   5.576  1.00  0.00    +0.000 C 
ATOM     74  C48 UNL A   1      24.226  17.278   4.082  1.00  0.00    +0.000 C 
ATOM     86  C55 UNL A   1      23.001  16.954   3.572  1.00  0.00    +0.000 C 
ATOM     87  C56 UNL A   1      22.044  16.065   4.208  1.00  0.00    +0.000 C 
ATOM     88  C57 UNL A   1      20.927  16.782   4.419  1.00  0.00    +0.000 C 
ATOM     89  C58 UNL A   1      21.084  18.086   3.791  1.00  0.00    +0.000 C 
ATOM     90  N9  UNL A   1      22.201  17.941   2.923  1.00  0.00    +0.000 N 
ATOM     91  C59 UNL A   1      25.520  16.754   6.292  1.00  0.00    +0.000 C 
ATOM     92  C60 UNL A   1      25.065  16.642   7.552  1.00  0.00    +0.000 C 
ATOM     93  C61 UNL A   1      17.688  20.036   6.230  1.00  0.00    +0.000 C 
ATOM     94  C62 UNL A   1      18.315  20.297   5.080  1.00  0.00    +0.000 C 
ENDROOT
BRANCH   38   37
ATOM     34  C21 UNL A   1      20.355  22.591   1.677  1.00  0.00    +0.000 C 
ATOM     35  C22 UNL A   1      19.642  21.478   1.204  1.00  0.00    +0.000 C 
ATOM     36  C23 UNL A   1      19.718  20.285   1.904  1.00  0.00    +0.000 C 
ATOM    131  H27 UNL A   1      19.070  21.548   0.348  1.00  0.00    +0.000 H 
ATOM    132  H28 UNL A   1      19.242  19.434   1.567  1.00  0.00    +0.000 H 
ATOM     37  C24 UNL A   1      20.461  20.283   3.076  1.00  0.00    +0.000 C 
ATOM    143  H39 UNL A   1      21.963  21.241   4.215  1.00  0.00    +0.000 H 
ATOM    144  H40 UNL A   1      22.132  23.133   2.692  1.00  0.00    +0.000 H 
ATOM     95  C63 UNL A   1      21.343  21.317   3.393  1.00  0.00    +0.000 C 
ATOM     96  C64 UNL A   1      21.376  22.434   2.604  1.00  0.00    +0.000 C 
BRANCH   34   32
ATOM     33  O7  UNL A   1      18.630  24.115   2.126  1.00  0.00    +0.000 O 
ATOM     32  C20 UNL A   1      19.674  23.897   1.522  1.00  0.00    +0.000 C 
BRANCH   32   31
ATOM    130  H26 UNL A   1      20.248  24.928  -0.108  1.00  0.00    +0.000 H 
ATOM     31  N5  UNL A   1      20.327  24.930   0.873  1.00  0.00    +0.000 N 
BRANCH   31   30
ATOM    129  H25 UNL A   1      21.603  25.641   2.307  1.00  0.00    +0.000 H 
ATOM     30  C19 UNL A   1      21.113  26.019   1.433  1.00  0.00    +0.000 C 
ATOM    128  H24 UNL A   1      20.455  26.831   1.662  1.00  0.00    +0.000 H 
BRANCH   30   29
ATOM     29  C18 UNL A   1      22.192  26.522   0.492  1.00  0.00    +0.000 C 
ATOM    126  H22 UNL A   1      22.274  27.582   0.613  1.00  0.00    +0.000 H 
ATOM    127  H23 UNL A   1      23.090  26.002   0.752  1.00  0.00    +0.000 H 
BRANCH   29   28
ATOM    124  H20 UNL A   1      22.874  26.085  -1.463  1.00  0.00    +0.000 H 
ATOM     28  C17 UNL A   1      21.928  26.228  -0.984  1.00  0.00    +0.000 C 
ATOM    125  H21 UNL A   1      21.296  25.366  -0.997  1.00  0.00    +0.000 H 
BRANCH   28   27
ATOM    122  H18 UNL A   1      20.695  27.955  -1.052  1.00  0.00    +0.000 H 
ATOM     27  C16 UNL A   1      21.167  27.311  -1.762  1.00  0.00    +0.000 C 
ATOM    123  H19 UNL A   1      21.898  27.798  -2.373  1.00  0.00    +0.000 H 
BRANCH   27   26
ATOM    121  H17 UNL A   1      20.414  25.844  -3.066  1.00  0.00    +0.000 H 
ATOM     26  C15 UNL A   1      20.091  26.806  -2.725  1.00  0.00    +0.000 C 
ATOM    120  H16 UNL A   1      19.992  27.517  -3.518  1.00  0.00    +0.000 H 
BRANCH   26   25
ATOM     25  C14 UNL A   1      18.724  26.607  -2.089  1.00  0.00    +0.000 C 
ATOM    118  H14 UNL A   1      18.724  27.074  -1.126  1.00  0.00    +0.000 H 
ATOM    119  H15 UNL A   1      18.001  27.041  -2.747  1.00  0.00    +0.000 H 
BRANCH   25   24
ATOM    117  H13 UNL A   1      19.051  24.647  -1.499  1.00  0.00    +0.000 H 
ATOM     24  N4  UNL A   1      18.370  25.217  -1.923  1.00  0.00    +0.000 N 
BRANCH   24   22
ATOM     22  C13 UNL A   1      17.209  24.593  -2.281  1.00  0.00    +0.000 C 
ATOM     23  O6  UNL A   1      16.270  25.303  -2.653  1.00  0.00    +0.000 O 
BRANCH   22   21
ATOM    115  H11 UNL A   1      16.115  22.795  -2.607  1.00  0.00    +0.000 H 
ATOM    116  H12 UNL A   1      17.894  22.617  -2.513  1.00  0.00    +0.000 H 
ATOM     21  C12 UNL A   1      17.017  23.074  -2.105  1.00  0.00    +0.000 C 
BRANCH   21   20
ATOM    114  H10 UNL A   1      17.790  22.537  -0.263  1.00  0.00    +0.000 H 
ATOM     20  N3  UNL A   1      16.927  22.613  -0.728  1.00  0.00    +0.000 N 
BRANCH   20   18
ATOM     18  C11 UNL A   1      15.842  22.267   0.022  1.00  0.00    +0.000 C 
ATOM     19  O5  UNL A   1      14.728  22.374  -0.498  1.00  0.00    +0.000 O 
BRANCH   18   17
ATOM     17  C10 UNL A   1      15.987  21.767   1.469  1.00  0.00    +0.000 C 
ATOM    113  H9  UNL A   1      17.009  21.476   1.584  1.00  0.00    +0.000 H 
ATOM    112  H8  UNL A   1      15.298  20.961   1.612  1.00  0.00    +0.000 H 
BRANCH   17   16
ATOM    111  H7  UNL A   1      15.712  23.699   2.164  1.00  0.00    +0.000 H 
ATOM     16  N2  UNL A   1      15.728  22.774   2.501  1.00  0.00    +0.000 N 
BRANCH   16   14
ATOM     14  C9  UNL A   1      15.502  22.663   3.859  1.00  0.00    +0.000 C 
ATOM     15  O4  UNL A   1      16.404  22.975   4.630  1.00  0.00    +0.000 O 
BRANCH   14   12
ATOM     12  C8  UNL A   1      14.145  22.155   4.393  1.00  0.00    +0.000 C 
ATOM     13  O3  UNL A   1      14.030  20.946   4.564  1.00  0.00    +0.000 O 
BRANCH   12   11
ATOM     97  C65 UNL A   1      12.835  23.746   5.944  1.00  0.00    +0.000 C 
ATOM     98  C66 UNL A   1      13.594  23.810   7.136  1.00  0.00    +0.000 C 
ATOM     99  C67 UNL A   1      13.190  24.638   8.183  1.00  0.00    +0.000 C 
ATOM    100  C68 UNL A   1      12.031  25.392   8.072  1.00  0.00    +0.000 C 
ATOM    101  C69 UNL A   1      11.240  25.331   6.921  1.00  0.00    +0.000 C 
ATOM    102  C70 UNL A   1      11.663  24.508   5.861  1.00  0.00    +0.000 C 
ATOM      9  N1  UNL A   1      11.153  24.274   4.602  1.00  0.00    +0.000 N 
ATOM     10  C6  UNL A   1      11.943  23.394   3.897  1.00  0.00    +0.000 C 
ATOM     11  C7  UNL A   1      13.014  23.041   4.699  1.00  0.00    +0.000 C 
ATOM    110  H6  UNL A   1      11.768  23.057   2.938  1.00  0.00    +0.000 H 
ATOM    145  H41 UNL A   1      14.450  23.242   7.229  1.00  0.00    +0.000 H 
ATOM    146  H42 UNL A   1      13.757  24.690   9.044  1.00  0.00    +0.000 H 
ATOM    147  H43 UNL A   1      11.747  26.005   8.852  1.00  0.00    +0.000 H 
ATOM    148  H44 UNL A   1      10.368  25.879   6.849  1.00  0.00    +0.000 H 
BRANCH    9    6
ATOM      6  S1  UNL A   1       9.784  25.057   3.951  1.00  0.00    +0.000 S 
ATOM      7  O1  UNL A   1       8.892  25.257   5.071  1.00  0.00    +0.000 O 
ATOM      8  O2  UNL A   1       9.399  24.271   2.787  1.00  0.00    +0.000 O 
BRANCH    6    5
ATOM      2  C2  UNL A   1      11.135  29.228   2.646  1.00  0.00    +0.000 C 
ATOM      3  C3  UNL A   1      10.286  29.044   3.744  1.00  0.00    +0.000 C 
ATOM      4  C4  UNL A   1       9.870  27.763   4.108  1.00  0.00    +0.000 C 
ATOM      5  C5  UNL A   1      10.290  26.653   3.364  1.00  0.00    +0.000 C 
ATOM    103  C71 UNL A   1      11.103  26.830   2.243  1.00  0.00    +0.000 C 
ATOM    104  C72 UNL A   1      11.532  28.115   1.896  1.00  0.00    +0.000 C 
ATOM    108  H4  UNL A   1       9.967  29.861   4.288  1.00  0.00    +0.000 H 
ATOM    109  H5  UNL A   1       9.252  27.633   4.924  1.00  0.00    +0.000 H 
ATOM    149  H45 UNL A   1      11.386  26.016   1.674  1.00  0.00    +0.000 H 
ATOM    150  H46 UNL A   1      12.147  28.244   1.078  1.00  0.00    +0.000 H 
BRANCH    2    1
ATOM      1  C1  UNL A   1      11.605  30.607   2.285  1.00  0.00    +0.000 C 
ATOM    106  H2  UNL A   1      11.644  31.213   3.165  1.00  0.00    +0.000 H 
ATOM    107  H3  UNL A   1      10.927  31.043   1.581  1.00  0.00    +0.000 H 
ATOM    105  H1  UNL A   1      12.581  30.548   1.849  1.00  0.00    +0.000 H 
ENDBRANCH    2    1
ENDBRANCH    6    5
ENDBRANCH    9    6
ENDBRANCH   12   11
ENDBRANCH   14   12
ENDBRANCH   16   14
ENDBRANCH   17   16
ENDBRANCH   18   17
ENDBRANCH   20   18
ENDBRANCH   21   20
ENDBRANCH   22   21
ENDBRANCH   24   22
ENDBRANCH   25   24
ENDBRANCH   26   25
ENDBRANCH   27   26
ENDBRANCH   28   27
ENDBRANCH   29   28
ENDBRANCH   30   29
ENDBRANCH   31   30
ENDBRANCH   32   31
ENDBRANCH   34   32
ENDBRANCH   38   37
BRANCH   42   43
ATOM     43  C29 UNL A   1      16.689  17.954   8.572  1.00  0.00    +0.000 C 
ATOM     44  C30 UNL A   1      16.373  18.524   9.827  1.00  0.00    +0.000 C 
ATOM     45  F1  UNL A   1      17.222  19.345  10.458  1.00  0.00    +0.000 F 
ATOM     46  C31 UNL A   1      15.167  18.279  10.488  1.00  0.00    +0.000 C 
ATOM     47  F2  UNL A   1      14.939  18.843  11.681  1.00  0.00    +0.000 F 
ATOM     48  C32 UNL A   1      14.218  17.454   9.924  1.00  0.00    +0.000 C 
ATOM     49  F3  UNL A   1      13.071  17.200  10.566  1.00  0.00    +0.000 F 
ATOM     50  C33 UNL A   1      14.458  16.919   8.675  1.00  0.00    +0.000 C 
ATOM     51  F4  UNL A   1      13.535  16.133   8.101  1.00  0.00    +0.000 F 
ATOM     52  C34 UNL A   1      15.651  17.195   7.998  1.00  0.00    +0.000 C 
ATOM     53  F5  UNL A   1      15.723  16.742   6.743  1.00  0.00    +0.000 F 
ENDBRANCH   42   43
BRANCH   59   60
ATOM     65  C43 UNL A   1      23.550  17.001  12.974  1.00  0.00    +0.000 C 
ATOM     66  F8  UNL A   1      23.765  17.018  14.296  1.00  0.00    +0.000 F 
ATOM     67  C44 UNL A   1      23.572  15.811  12.283  1.00  0.00    +0.000 C 
ATOM     68  F9  UNL A   1      23.759  14.656  12.936  1.00  0.00    +0.000 F 
ATOM     69  C45 UNL A   1      23.382  15.802  10.902  1.00  0.00    +0.000 C 
ATOM     70  F10 UNL A   1      23.459  14.595  10.324  1.00  0.00    +0.000 F 
ATOM     60  C40 UNL A   1      23.091  16.976  10.160  1.00  0.00    +0.000 C 
ATOM     61  C41 UNL A   1      23.005  18.152  10.922  1.00  0.00    +0.000 C 
ATOM     62  F6  UNL A   1      22.593  19.309  10.388  1.00  0.00    +0.000 F 
ATOM     63  C42 UNL A   1      23.279  18.170  12.293  1.00  0.00    +0.000 C 
ATOM     64  F7  UNL A   1      23.247  19.336  12.957  1.00  0.00    +0.000 F 
ENDBRANCH   59   60
BRANCH   74   75
ATOM     75  C49 UNL A   1      24.881  18.381   3.320  1.00  0.00    +0.000 C 
ATOM     76  C50 UNL A   1      24.993  19.633   3.961  1.00  0.00    +0.000 C 
ATOM     77  F11 UNL A   1      24.155  19.948   4.963  1.00  0.00    +0.000 F 
ATOM     78  C51 UNL A   1      26.048  20.498   3.680  1.00  0.00    +0.000 C 
ATOM     79  F12 UNL A   1      26.216  21.607   4.414  1.00  0.00    +0.000 F 
ATOM     80  C52 UNL A   1      26.974  20.162   2.707  1.00  0.00    +0.000 C 
ATOM     81  F13 UNL A   1      28.050  20.935   2.510  1.00  0.00    +0.000 F 
ATOM     82  C53 UNL A   1      26.799  19.001   1.965  1.00  0.00    +0.000 C 
ATOM     83  F14 UNL A   1      27.697  18.680   1.021  1.00  0.00    +0.000 F 
ATOM     84  C54 UNL A   1      25.761  18.116   2.264  1.00  0.00    +0.000 C 
ATOM     85  F15 UNL A   1      25.698  16.951   1.604  1.00  0.00    +0.000 F 
ENDBRANCH   74   75
TORSDOF 25
ENDMDL
MODEL 3
REMARK VINA RESULT:      -7.7     14.157     21.359
ROOT
ATOM    133  H29 UNL A   1      19.897  14.935   6.851  1.00  0.00    +0.000 H 
ATOM    134  H30 UNL A   1      22.386  14.676   7.652  1.00  0.00    +0.000 H 
ATOM    135  H31 UNL A   1      20.916  18.263   9.101  1.00  0.00    +0.000 H 
ATOM    136  H32 UNL A   1      24.072  15.201   5.095  1.00  0.00    +0.000 H 
ATOM    137  H33 UNL A   1      21.765  16.313   5.024  1.00  0.00    +0.000 H 
ATOM    138  H34 UNL A   1      24.444  18.599   2.831  1.00  0.00    +0.000 H 
ATOM    139  H35 UNL A   1      27.615  17.232   7.615  1.00  0.00    +0.000 H 
ATOM    140  H36 UNL A   1      26.242  16.831   9.755  1.00  0.00    +0.000 H 
ATOM    141  H37 UNL A   1      17.718  19.884   5.717  1.00  0.00    +0.000 H 
ATOM    142  H38 UNL A   1      19.410  20.547   3.895  1.00  0.00    +0.000 H 
ATOM     38  C25 UNL A   1      21.955  19.122   4.244  1.00  0.00    +0.000 C 
ATOM     39  C26 UNL A   1      20.741  19.147   5.069  1.00  0.00    +0.000 C 
ATOM     40  N6  UNL A   1      20.627  18.565   6.206  1.00  0.00    +0.000 N 
ATOM     41  C27 UNL A   1      19.290  18.593   6.544  1.00  0.00    +0.000 C 
ATOM     42  C28 UNL A   1      18.837  17.667   7.436  1.00  0.00    +0.000 C 
ATOM     54  C35 UNL A   1      19.954  16.835   7.878  1.00  0.00    +0.000 C 
ATOM     55  C36 UNL A   1      20.427  15.618   7.415  1.00  0.00    +0.000 C 
ATOM     56  C37 UNL A   1      21.766  15.476   7.853  1.00  0.00    +0.000 C 
ATOM     57  C38 UNL A   1      22.099  16.596   8.597  1.00  0.00    +0.000 C 
ATOM     58  N7  UNL A   1      20.979  17.404   8.622  1.00  0.00    +0.000 N 
ATOM     59  C39 UNL A   1      23.304  16.960   9.325  1.00  0.00    +0.000 C 
ATOM     71  C46 UNL A   1      24.421  17.090   8.549  1.00  0.00    +0.000 C 
ATOM     72  N8  UNL A   1      24.347  17.341   7.203  1.00  0.00    +0.000 N 
ATOM     73  C47 UNL A   1      25.553  17.413   6.710  1.00  0.00    +0.000 C 
ATOM     74  C48 UNL A   1      25.845  17.644   5.248  1.00  0.00    +0.000 C 
ATOM     86  C55 UNL A   1      24.839  17.189   4.443  1.00  0.00    +0.000 C 
ATOM     87  C56 UNL A   1      23.868  16.174   4.817  1.00  0.00    +0.000 C 
ATOM     88  C57 UNL A   1      22.655  16.745   4.732  1.00  0.00    +0.000 C 
ATOM     89  C58 UNL A   1      22.805  18.076   4.159  1.00  0.00    +0.000 C 
ATOM     90  N9  UNL A   1      24.115  18.090   3.607  1.00  0.00    +0.000 N 
ATOM     91  C59 UNL A   1      26.588  17.218   7.718  1.00  0.00    +0.000 C 
ATOM     92  C60 UNL A   1      25.845  17.017   8.820  1.00  0.00    +0.000 C 
ATOM     93  C61 UNL A   1      18.687  19.537   5.640  1.00  0.00    +0.000 C 
ATOM     94  C62 UNL A   1      19.549  19.902   4.688  1.00  0.00    +0.000 C 
ENDROOT
BRANCH   38   37
ATOM     34  C21 UNL A   1      21.975  22.457   1.822  1.00  0.00    +0.000 C 
ATOM     35  C22 UNL A   1      21.891  21.216   1.173  1.00  0.00    +0.000 C 
ATOM     36  C23 UNL A   1      21.994  20.057   1.925  1.00  0.00    +0.000 C 
ATOM    131  H27 UNL A   1      21.755  21.167   0.152  1.00  0.00    +0.000 H 
ATOM    132  H28 UNL A   1      21.979  19.126   1.481  1.00  0.00    +0.000 H 
ATOM     37  C24 UNL A   1      22.119  20.200   3.300  1.00  0.00    +0.000 C 
ATOM    143  H39 UNL A   1      22.630  21.485   4.900  1.00  0.00    +0.000 H 
ATOM    144  H40 UNL A   1      22.893  23.431   3.462  1.00  0.00    +0.000 H 
ATOM     95  C63 UNL A   1      22.437  21.426   3.887  1.00  0.00    +0.000 C 
ATOM     96  C64 UNL A   1      22.488  22.550   3.109  1.00  0.00    +0.000 C 
BRANCH   34   32
ATOM     33  O7  UNL A   1      19.869  23.399   1.394  1.00  0.00    +0.000 O 
ATOM     32  C20 UNL A   1      21.085  23.516   1.291  1.00  0.00    +0.000 C 
BRANCH   32   31
ATOM    130  H26 UNL A   1      21.981  24.727  -0.045  1.00  0.00    +0.000 H 
ATOM     31  N5  UNL A   1      21.633  24.717   0.877  1.00  0.00    +0.000 N 
BRANCH   31   30
ATOM    129  H25 UNL A   1      21.711  25.734   2.651  1.00  0.00    +0.000 H 
ATOM     30  C19 UNL A   1      21.769  25.968   1.608  1.00  0.00    +0.000 C 
ATOM    128  H24 UNL A   1      20.985  26.628   1.300  1.00  0.00    +0.000 H 
BRANCH   30   29
ATOM     29  C18 UNL A   1      23.101  26.656   1.373  1.00  0.00    +0.000 C 
ATOM    126  H22 UNL A   1      23.547  26.854   2.325  1.00  0.00    +0.000 H 
ATOM    127  H23 UNL A   1      23.684  25.994   0.768  1.00  0.00    +0.000 H 
BRANCH   29   28
ATOM    124  H20 UNL A   1      23.997  28.323   0.428  1.00  0.00    +0.000 H 
ATOM     28  C17 UNL A   1      23.002  27.974   0.606  1.00  0.00    +0.000 C 
ATOM    125  H21 UNL A   1      22.450  27.750  -0.282  1.00  0.00    +0.000 H 
BRANCH   28   27
ATOM    122  H18 UNL A   1      21.890  28.735   2.247  1.00  0.00    +0.000 H 
ATOM     27  C16 UNL A   1      22.226  29.103   1.301  1.00  0.00    +0.000 C 
ATOM    123  H19 UNL A   1      22.909  29.924   1.371  1.00  0.00    +0.000 H 
BRANCH   27   26
ATOM    121  H17 UNL A   1      20.583  28.804   0.025  1.00  0.00    +0.000 H 
ATOM     26  C15 UNL A   1      21.009  29.637   0.545  1.00  0.00    +0.000 C 
ATOM    120  H16 UNL A   1      21.337  30.415  -0.111  1.00  0.00    +0.000 H 
BRANCH   26   25
ATOM     25  C14 UNL A   1      19.913  30.198   1.439  1.00  0.00    +0.000 C 
ATOM    118  H14 UNL A   1      20.051  29.815   2.429  1.00  0.00    +0.000 H 
ATOM    119  H15 UNL A   1      19.991  31.264   1.406  1.00  0.00    +0.000 H 
BRANCH   25   24
ATOM    117  H13 UNL A   1      18.227  28.997   1.327  1.00  0.00    +0.000 H 
ATOM     24  N4  UNL A   1      18.583  29.852   0.995  1.00  0.00    +0.000 N 
BRANCH   24   22
ATOM     22  C13 UNL A   1      17.758  30.563   0.171  1.00  0.00    +0.000 C 
ATOM     23  O6  UNL A   1      17.239  31.586   0.625  1.00  0.00    +0.000 O 
BRANCH   22   21
ATOM    115  H11 UNL A   1      17.490  30.854  -1.922  1.00  0.00    +0.000 H 
ATOM    116  H12 UNL A   1      18.017  29.216  -1.426  1.00  0.00    +0.000 H 
ATOM     21  C12 UNL A   1      17.372  30.048  -1.229  1.00  0.00    +0.000 C 
BRANCH   21   20
ATOM    114  H10 UNL A   1      15.933  28.564  -1.297  1.00  0.00    +0.000 H 
ATOM     20  N3  UNL A   1      16.014  29.542  -1.356  1.00  0.00    +0.000 N 
BRANCH   20   18
ATOM     18  C11 UNL A   1      14.836  30.203  -1.543  1.00  0.00    +0.000 C 
ATOM     19  O5  UNL A   1      14.602  30.650  -2.669  1.00  0.00    +0.000 O 
BRANCH   18   17
ATOM     17  C10 UNL A   1      13.828  30.398  -0.397  1.00  0.00    +0.000 C 
ATOM    113  H9  UNL A   1      14.121  29.721   0.377  1.00  0.00    +0.000 H 
ATOM    112  H8  UNL A   1      12.848  30.207  -0.782  1.00  0.00    +0.000 H 
BRANCH   17   16
ATOM    111  H7  UNL A   1      14.479  31.846   0.934  1.00  0.00    +0.000 H 
ATOM     16  N2  UNL A   1      13.828  31.734   0.205  1.00  0.00    +0.000 N 
BRANCH   16   14
ATOM     14  C9  UNL A   1      13.079  32.863  -0.064  1.00  0.00    +0.000 C 
ATOM     15  O4  UNL A   1      13.539  33.701  -0.833  1.00  0.00    +0.000 O 
BRANCH   14   12
ATOM     12  C8  UNL A   1      11.696  33.065   0.591  1.00  0.00    +0.000 C 
ATOM     13  O3  UNL A   1      11.616  33.910   1.477  1.00  0.00    +0.000 O 
BRANCH   12   11
ATOM     97  C65 UNL A   1       9.564  32.710  -0.819  1.00  0.00    +0.000 C 
ATOM     98  C66 UNL A   1       9.497  33.831  -1.679  1.00  0.00    +0.000 C 
ATOM     99  C67 UNL A   1       8.479  33.930  -2.626  1.00  0.00    +0.000 C 
ATOM    100  C68 UNL A   1       7.511  32.941  -2.720  1.00  0.00    +0.000 C 
ATOM    101  C69 UNL A   1       7.529  31.834  -1.867  1.00  0.00    +0.000 C 
ATOM    102  C70 UNL A   1       8.570  31.730  -0.926  1.00  0.00    +0.000 C 
ATOM      9  N1  UNL A   1       8.898  30.761  -0.001  1.00  0.00    +0.000 N 
ATOM     10  C6  UNL A   1      10.042  31.093   0.687  1.00  0.00    +0.000 C 
ATOM     11  C7  UNL A   1      10.499  32.307   0.202  1.00  0.00    +0.000 C 
ATOM    110  H6  UNL A   1      10.484  30.536   1.435  1.00  0.00    +0.000 H 
ATOM    145  H41 UNL A   1      10.207  34.577  -1.604  1.00  0.00    +0.000 H 
ATOM    146  H42 UNL A   1       8.445  34.745  -3.259  1.00  0.00    +0.000 H 
ATOM    147  H43 UNL A   1       6.767  33.024  -3.429  1.00  0.00    +0.000 H 
ATOM    148  H44 UNL A   1       6.796  31.108  -1.927  1.00  0.00    +0.000 H 
BRANCH    9    6
ATOM      6  S1  UNL A   1       8.063  29.286   0.192  1.00  0.00    +0.000 S 
ATOM      7  O1  UNL A   1       8.490  28.460  -0.914  1.00  0.00    +0.000 O 
ATOM      8  O2  UNL A   1       6.666  29.649   0.390  1.00  0.00    +0.000 O 
BRANCH    6    5
ATOM      2  C2  UNL A   1       9.717  27.301   3.966  1.00  0.00    +0.000 C 
ATOM      3  C3  UNL A   1       9.951  26.764   2.695  1.00  0.00    +0.000 C 
ATOM      4  C4  UNL A   1       9.416  27.376   1.560  1.00  0.00    +0.000 C 
ATOM      5  C5  UNL A   1       8.628  28.526   1.692  1.00  0.00    +0.000 C 
ATOM    103  C71 UNL A   1       8.355  29.044   2.959  1.00  0.00    +0.000 C 
ATOM    104  C72 UNL A   1       8.910  28.438   4.089  1.00  0.00    +0.000 C 
ATOM    108  H4  UNL A   1      10.524  25.911   2.595  1.00  0.00    +0.000 H 
ATOM    109  H5  UNL A   1       9.600  26.981   0.625  1.00  0.00    +0.000 H 
ATOM    149  H45 UNL A   1       7.746  29.873   3.060  1.00  0.00    +0.000 H 
ATOM    150  H46 UNL A   1       8.723  28.832   5.024  1.00  0.00    +0.000 H 
BRANCH    2    1
ATOM      1  C1  UNL A   1      10.327  26.655   5.176  1.00  0.00    +0.000 C 
ATOM    106  H2  UNL A   1      11.393  26.689   5.100  1.00  0.00    +0.000 H 
ATOM    107  H3  UNL A   1      10.006  25.635   5.237  1.00  0.00    +0.000 H 
ATOM    105  H1  UNL A   1      10.015  27.180   6.056  1.00  0.00    +0.000 H 
ENDBRANCH    2    1
ENDBRANCH    6    5
ENDBRANCH    9    6
ENDBRANCH   12   11
ENDBRANCH   14   12
ENDBRANCH   16   14
ENDBRANCH   17   16
ENDBRANCH   18   17
ENDBRANCH   20   18
ENDBRANCH   21   20
ENDBRANCH   22   21
ENDBRANCH   24   22
ENDBRANCH   25   24
ENDBRANCH   26   25
ENDBRANCH   27   26
ENDBRANCH   28   27
ENDBRANCH   29   28
ENDBRANCH   30   29
ENDBRANCH   31   30
ENDBRANCH   32   31
ENDBRANCH   34   32
ENDBRANCH   38   37
BRANCH   42   43
ATOM     43  C29 UNL A   1      17.390  17.286   7.658  1.00  0.00    +0.000 C 
ATOM     44  C30 UNL A   1      16.675  17.838   8.747  1.00  0.00    +0.000 C 
ATOM     45  F1  UNL A   1      17.207  18.788   9.526  1.00  0.00    +0.000 F 
ATOM     46  C31 UNL A   1      15.379  17.439   9.082  1.00  0.00    +0.000 C 
ATOM     47  F2  UNL A   1      14.766  17.995  10.135  1.00  0.00    +0.000 F 
ATOM     48  C32 UNL A   1      14.734  16.472   8.342  1.00  0.00    +0.000 C 
ATOM     49  F3  UNL A   1      13.500  16.073   8.675  1.00  0.00    +0.000 F 
ATOM     50  C33 UNL A   1      15.369  15.945   7.237  1.00  0.00    +0.000 C 
ATOM     51  F4  UNL A   1      14.746  15.020   6.492  1.00  0.00    +0.000 F 
ATOM     52  C34 UNL A   1      16.653  16.372   6.880  1.00  0.00    +0.000 C 
ATOM     53  F5  UNL A   1      17.119  15.902   5.720  1.00  0.00    +0.000 F 
ENDBRANCH   42   43
BRANCH   59   60
ATOM     65  C43 UNL A   1      22.965  17.047  13.673  1.00  0.00    +0.000 C 
ATOM     66  F8  UNL A   1      22.832  17.055  15.005  1.00  0.00    +0.000 F 
ATOM     67  C44 UNL A   1      23.288  15.882  13.014  1.00  0.00    +0.000 C 
ATOM     68  F9  UNL A   1      23.420  14.737  13.698  1.00  0.00    +0.000 F 
ATOM     69  C45 UNL A   1      23.458  15.885  11.631  1.00  0.00    +0.000 C 
ATOM     70  F10 UNL A   1      23.806  14.706  11.096  1.00  0.00    +0.000 F 
ATOM     60  C40 UNL A   1      23.247  17.041  10.835  1.00  0.00    +0.000 C 
ATOM     61  C41 UNL A   1      22.846  18.184  11.545  1.00  0.00    +0.000 C 
ATOM     62  F6  UNL A   1      22.466  19.305  10.919  1.00  0.00    +0.000 F 
ATOM     63  C42 UNL A   1      22.757  18.198  12.940  1.00  0.00    +0.000 C 
ATOM     64  F7  UNL A   1      22.435  19.338  13.569  1.00  0.00    +0.000 F 
ENDBRANCH   59   60
BRANCH   74   75
ATOM     75  C49 UNL A   1      26.531  18.837   4.675  1.00  0.00    +0.000 C 
ATOM     76  C50 UNL A   1      27.489  18.609   3.664  1.00  0.00    +0.000 C 
ATOM     77  F11 UNL A   1      28.088  17.410   3.569  1.00  0.00    +0.000 F 
ATOM     78  C51 UNL A   1      27.724  19.550   2.664  1.00  0.00    +0.000 C 
ATOM     79  F12 UNL A   1      28.522  19.244   1.632  1.00  0.00    +0.000 F 
ATOM     80  C52 UNL A   1      27.060  20.765   2.692  1.00  0.00    +0.000 C 
ATOM     81  F13 UNL A   1      27.198  21.628   1.677  1.00  0.00    +0.000 F 
ATOM     82  C53 UNL A   1      26.222  21.065   3.758  1.00  0.00    +0.000 C 
ATOM     83  F14 UNL A   1      25.582  22.244   3.783  1.00  0.00    +0.000 F 
ATOM     84  C54 UNL A   1      25.959  20.112   4.745  1.00  0.00    +0.000 C 
ATOM     85  F15 UNL A   1      25.053  20.399   5.691  1.00  0.00    +0.000 F 
ENDBRANCH   74   75
TORSDOF 25
ENDMDL
MODEL 4
REMARK VINA RESULT:      -7.6     55.636     60.811
ROOT
ATOM    133  H29 UNL A   1      18.664  37.636  45.633  1.00  0.00    +0.000 H 
ATOM    134  H30 UNL A   1      20.013  36.217  43.881  1.00  0.00    +0.000 H 
ATOM    135  H31 UNL A   1      19.007  33.758  47.053  1.00  0.00    +0.000 H 
ATOM    136  H32 UNL A   1      22.948  37.186  44.207  1.00  0.00    +0.000 H 
ATOM    137  H33 UNL A   1      21.535  37.527  46.318  1.00  0.00    +0.000 H 
ATOM    138  H34 UNL A   1      25.484  36.885  47.415  1.00  0.00    +0.000 H 
ATOM    139  H35 UNL A   1      24.702  32.835  43.196  1.00  0.00    +0.000 H 
ATOM    140  H36 UNL A   1      22.284  31.989  42.933  1.00  0.00    +0.000 H 
ATOM    141  H37 UNL A   1      19.012  36.636  51.055  1.00  0.00    +0.000 H 
ATOM    142  H38 UNL A   1      21.553  36.980  51.262  1.00  0.00    +0.000 H 
ATOM     38  C25 UNL A   1      22.898  36.510  48.694  1.00  0.00    +0.000 C 
ATOM     39  C26 UNL A   1      21.495  36.351  49.092  1.00  0.00    +0.000 C 
ATOM     40  N6  UNL A   1      20.579  35.863  48.338  1.00  0.00    +0.000 N 
ATOM     41  C27 UNL A   1      19.370  36.112  48.953  1.00  0.00    +0.000 C 
ATOM     42  C28 UNL A   1      18.249  36.126  48.178  1.00  0.00    +0.000 C 
ATOM     54  C35 UNL A   1      18.613  35.817  46.797  1.00  0.00    +0.000 C 
ATOM     55  C36 UNL A   1      18.918  36.640  45.725  1.00  0.00    +0.000 C 
ATOM     56  C37 UNL A   1      19.639  35.872  44.779  1.00  0.00    +0.000 C 
ATOM     57  C38 UNL A   1      19.755  34.580  45.265  1.00  0.00    +0.000 C 
ATOM     58  N7  UNL A   1      19.106  34.556  46.485  1.00  0.00    +0.000 N 
ATOM     59  C39 UNL A   1      20.339  33.375  44.702  1.00  0.00    +0.000 C 
ATOM     71  C46 UNL A   1      21.683  33.451  44.462  1.00  0.00    +0.000 C 
ATOM     72  N8  UNL A   1      22.489  34.347  45.115  1.00  0.00    +0.000 N 
ATOM     73  C47 UNL A   1      23.716  34.208  44.696  1.00  0.00    +0.000 C 
ATOM     74  C48 UNL A   1      24.864  35.061  45.178  1.00  0.00    +0.000 C 
ATOM     86  C55 UNL A   1      24.453  36.297  45.589  1.00  0.00    +0.000 C 
ATOM     87  C56 UNL A   1      23.219  36.944  45.173  1.00  0.00    +0.000 C 
ATOM     88  C57 UNL A   1      22.501  37.166  46.287  1.00  0.00    +0.000 C 
ATOM     89  C58 UNL A   1      23.313  36.812  47.444  1.00  0.00    +0.000 C 
ATOM     90  N9  UNL A   1      24.639  36.710  46.942  1.00  0.00    +0.000 N 
ATOM     91  C59 UNL A   1      23.856  33.163  43.689  1.00  0.00    +0.000 C 
ATOM     92  C60 UNL A   1      22.585  32.738  43.577  1.00  0.00    +0.000 C 
ATOM     93  C61 UNL A   1      19.700  36.507  50.297  1.00  0.00    +0.000 C 
ATOM     94  C62 UNL A   1      21.017  36.685  50.432  1.00  0.00    +0.000 C 
ENDROOT
BRANCH   38   37
ATOM     34  C21 UNL A   1      26.016  36.960  51.351  1.00  0.00    +0.000 C 
ATOM     35  C22 UNL A   1      25.558  35.650  51.143  1.00  0.00    +0.000 C 
ATOM     36  C23 UNL A   1      24.441  35.447  50.350  1.00  0.00    +0.000 C 
ATOM    131  H27 UNL A   1      26.046  34.850  51.574  1.00  0.00    +0.000 H 
ATOM    132  H28 UNL A   1      24.049  34.504  50.205  1.00  0.00    +0.000 H 
ATOM     37  C24 UNL A   1      23.872  36.565  49.757  1.00  0.00    +0.000 C 
ATOM    143  H39 UNL A   1      23.677  38.671  49.785  1.00  0.00    +0.000 H 
ATOM    144  H40 UNL A   1      25.344  38.959  51.536  1.00  0.00    +0.000 H 
ATOM     95  C63 UNL A   1      24.193  37.861  50.165  1.00  0.00    +0.000 C 
ATOM     96  C64 UNL A   1      25.199  38.047  51.074  1.00  0.00    +0.000 C 
BRANCH   34   32
ATOM     33  O7  UNL A   1      28.013  37.588  52.408  1.00  0.00    +0.000 O 
ATOM     32  C20 UNL A   1      27.487  37.121  51.404  1.00  0.00    +0.000 C 
BRANCH   32   31
ATOM    130  H26 UNL A   1      28.209  35.570  50.344  1.00  0.00    +0.000 H 
ATOM     31  N5  UNL A   1      28.268  36.551  50.415  1.00  0.00    +0.000 N 
BRANCH   31   30
ATOM    129  H25 UNL A   1      29.353  36.487  48.681  1.00  0.00    +0.000 H 
ATOM     30  C19 UNL A   1      29.163  37.192  49.464  1.00  0.00    +0.000 C 
ATOM    128  H24 UNL A   1      30.059  37.473  49.976  1.00  0.00    +0.000 H 
BRANCH   30   29
ATOM     29  C18 UNL A   1      28.565  38.430  48.821  1.00  0.00    +0.000 C 
ATOM    126  H22 UNL A   1      28.031  38.127  47.944  1.00  0.00    +0.000 H 
ATOM    127  H23 UNL A   1      27.935  38.882  49.558  1.00  0.00    +0.000 H 
BRANCH   29   28
ATOM    124  H20 UNL A   1      30.119  39.785  49.297  1.00  0.00    +0.000 H 
ATOM     28  C17 UNL A   1      29.591  39.487  48.415  1.00  0.00    +0.000 C 
ATOM    125  H21 UNL A   1      30.204  39.022  47.673  1.00  0.00    +0.000 H 
BRANCH   28   27
ATOM    122  H18 UNL A   1      28.041  40.910  48.130  1.00  0.00    +0.000 H 
ATOM     27  C16 UNL A   1      29.030  40.754  47.753  1.00  0.00    +0.000 C 
ATOM    123  H19 UNL A   1      29.716  41.538  47.997  1.00  0.00    +0.000 H 
BRANCH   27   26
ATOM    121  H17 UNL A   1      29.312  39.768  45.919  1.00  0.00    +0.000 H 
ATOM     26  C15 UNL A   1      28.952  40.729  46.227  1.00  0.00    +0.000 C 
ATOM    120  H16 UNL A   1      29.542  41.536  45.848  1.00  0.00    +0.000 H 
BRANCH   26   25
ATOM     25  C14 UNL A   1      27.543  40.865  45.668  1.00  0.00    +0.000 C 
ATOM    118  H14 UNL A   1      27.199  41.862  45.851  1.00  0.00    +0.000 H 
ATOM    119  H15 UNL A   1      27.593  40.643  44.623  1.00  0.00    +0.000 H 
BRANCH   25   24
ATOM    117  H13 UNL A   1      26.911  39.009  46.338  1.00  0.00    +0.000 H 
ATOM     24  N4  UNL A   1      26.605  39.940  46.258  1.00  0.00    +0.000 N 
BRANCH   24   22
ATOM     22  C13 UNL A   1      25.344  40.197  46.717  1.00  0.00    +0.000 C 
ATOM     23  O6  UNL A   1      24.403  40.006  45.941  1.00  0.00    +0.000 O 
BRANCH   22   21
ATOM    115  H11 UNL A   1      24.856  40.043  48.785  1.00  0.00    +0.000 H 
ATOM    116  H12 UNL A   1      25.999  41.351  48.351  1.00  0.00    +0.000 H 
ATOM     21  C12 UNL A   1      25.099  40.829  48.101  1.00  0.00    +0.000 C 
BRANCH   21   20
ATOM    114  H10 UNL A   1      23.124  41.442  48.148  1.00  0.00    +0.000 H 
ATOM     20  N3  UNL A   1      24.033  41.818  48.155  1.00  0.00    +0.000 N 
BRANCH   20   18
ATOM     18  C11 UNL A   1      24.088  43.179  48.211  1.00  0.00    +0.000 C 
ATOM     19  O5  UNL A   1      23.203  43.764  48.841  1.00  0.00    +0.000 O 
BRANCH   18   17
ATOM     17  C10 UNL A   1      25.207  43.971  47.513  1.00  0.00    +0.000 C 
ATOM    113  H9  UNL A   1      25.075  43.813  46.464  1.00  0.00    +0.000 H 
ATOM    112  H8  UNL A   1      26.145  43.615  47.882  1.00  0.00    +0.000 H 
BRANCH   17   16
ATOM    111  H7  UNL A   1      24.637  45.906  47.037  1.00  0.00    +0.000 H 
ATOM     16  N2  UNL A   1      25.158  45.421  47.718  1.00  0.00    +0.000 N 
BRANCH   16   14
ATOM     14  C9  UNL A   1      25.710  46.232  48.691  1.00  0.00    +0.000 C 
ATOM     15  O4  UNL A   1      25.858  47.424  48.445  1.00  0.00    +0.000 O 
BRANCH   14   12
ATOM     12  C8  UNL A   1      26.133  45.647  50.056  1.00  0.00    +0.000 C 
ATOM     13  O3  UNL A   1      25.347  45.783  50.989  1.00  0.00    +0.000 O 
BRANCH   12   11
ATOM     97  C65 UNL A   1      27.529  43.587  50.736  1.00  0.00    +0.000 C 
ATOM     98  C66 UNL A   1      26.583  42.596  51.084  1.00  0.00    +0.000 C 
ATOM     99  C67 UNL A   1      27.005  41.320  51.455  1.00  0.00    +0.000 C 
ATOM    100  C68 UNL A   1      28.358  41.016  51.503  1.00  0.00    +0.000 C 
ATOM    101  C69 UNL A   1      29.322  41.979  51.194  1.00  0.00    +0.000 C 
ATOM    102  C70 UNL A   1      28.889  43.260  50.804  1.00  0.00    +0.000 C 
ATOM      9  N1  UNL A   1      29.566  44.388  50.392  1.00  0.00    +0.000 N 
ATOM     10  C6  UNL A   1      28.697  45.409  50.081  1.00  0.00    +0.000 C 
ATOM     11  C7  UNL A   1      27.406  44.948  50.277  1.00  0.00    +0.000 C 
ATOM    110  H6  UNL A   1      28.960  46.352  49.758  1.00  0.00    +0.000 H 
ATOM    145  H41 UNL A   1      25.575  42.819  51.063  1.00  0.00    +0.000 H 
ATOM    146  H42 UNL A   1      26.307  40.597  51.694  1.00  0.00    +0.000 H 
ATOM    147  H43 UNL A   1      28.656  40.066  51.773  1.00  0.00    +0.000 H 
ATOM    148  H44 UNL A   1      30.329  41.756  51.250  1.00  0.00    +0.000 H 
BRANCH    9    6
ATOM      6  S1  UNL A   1      31.257  44.479  50.182  1.00  0.00    +0.000 S 
ATOM      7  O1  UNL A   1      31.821  43.927  51.392  1.00  0.00    +0.000 O 
ATOM      8  O2  UNL A   1      31.526  45.846  49.757  1.00  0.00    +0.000 O 
BRANCH    6    5
ATOM      2  C2  UNL A   1      32.480  41.908  46.602  1.00  0.00    +0.000 C 
ATOM      3  C3  UNL A   1      31.790  43.114  46.435  1.00  0.00    +0.000 C 
ATOM      4  C4  UNL A   1      31.407  43.868  47.544  1.00  0.00    +0.000 C 
ATOM      5  C5  UNL A   1      31.702  43.413  48.835  1.00  0.00    +0.000 C 
ATOM    103  C71 UNL A   1      32.353  42.191  49.013  1.00  0.00    +0.000 C 
ATOM    104  C72 UNL A   1      32.751  41.450  47.897  1.00  0.00    +0.000 C 
ATOM    108  H4  UNL A   1      31.563  43.447  45.484  1.00  0.00    +0.000 H 
ATOM    109  H5  UNL A   1      30.907  44.762  47.414  1.00  0.00    +0.000 H 
ATOM    149  H45 UNL A   1      32.541  41.838  49.965  1.00  0.00    +0.000 H 
ATOM    150  H46 UNL A   1      33.249  40.556  48.028  1.00  0.00    +0.000 H 
BRANCH    2    1
ATOM      1  C1  UNL A   1      32.918  41.122  45.401  1.00  0.00    +0.000 C 
ATOM    106  H2  UNL A   1      32.623  41.635  44.510  1.00  0.00    +0.000 H 
ATOM    107  H3  UNL A   1      32.462  40.153  45.422  1.00  0.00    +0.000 H 
ATOM    105  H1  UNL A   1      33.983  41.014  45.413  1.00  0.00    +0.000 H 
ENDBRANCH    2    1
ENDBRANCH    6    5
ENDBRANCH    9    6
ENDBRANCH   12   11
ENDBRANCH   14   12
ENDBRANCH   16   14
ENDBRANCH   17   16
ENDBRANCH   18   17
ENDBRANCH   20   18
ENDBRANCH   21   20
ENDBRANCH   22   21
ENDBRANCH   24   22
ENDBRANCH   25   24
ENDBRANCH   26   25
ENDBRANCH   27   26
ENDBRANCH   28   27
ENDBRANCH   29   28
ENDBRANCH   30   29
ENDBRANCH   31   30
ENDBRANCH   32   31
ENDBRANCH   34   32
ENDBRANCH   38   37
BRANCH   42   43
ATOM     43  C29 UNL A   1      16.915  36.726  48.562  1.00  0.00    +0.000 C 
ATOM     44  C30 UNL A   1      16.866  37.821  49.457  1.00  0.00    +0.000 C 
ATOM     45  F1  UNL A   1      17.981  38.426  49.886  1.00  0.00    +0.000 F 
ATOM     46  C31 UNL A   1      15.668  38.344  49.949  1.00  0.00    +0.000 C 
ATOM     47  F2  UNL A   1      15.696  39.374  50.805  1.00  0.00    +0.000 F 
ATOM     48  C32 UNL A   1      14.461  37.800  49.567  1.00  0.00    +0.000 C 
ATOM     49  F3  UNL A   1      13.312  38.286  50.054  1.00  0.00    +0.000 F 
ATOM     50  C33 UNL A   1      14.455  36.768  48.652  1.00  0.00    +0.000 C 
ATOM     51  F4  UNL A   1      13.288  36.244  48.251  1.00  0.00    +0.000 F 
ATOM     52  C34 UNL A   1      15.655  36.269  48.132  1.00  0.00    +0.000 C 
ATOM     53  F5  UNL A   1      15.531  35.367  47.154  1.00  0.00    +0.000 F 
ENDBRANCH   42   43
BRANCH   59   60
ATOM     65  C43 UNL A   1      17.886  29.960  43.542  1.00  0.00    +0.000 C 
ATOM     66  F8  UNL A   1      17.160  28.898  43.168  1.00  0.00    +0.000 F 
ATOM     67  C44 UNL A   1      18.901  29.818  44.461  1.00  0.00    +0.000 C 
ATOM     68  F9  UNL A   1      19.202  28.608  44.950  1.00  0.00    +0.000 F 
ATOM     69  C45 UNL A   1      19.631  30.932  44.872  1.00  0.00    +0.000 C 
ATOM     70  F10 UNL A   1      20.571  30.688  45.797  1.00  0.00    +0.000 F 
ATOM     60  C40 UNL A   1      19.425  32.227  44.330  1.00  0.00    +0.000 C 
ATOM     61  C41 UNL A   1      18.431  32.304  43.342  1.00  0.00    +0.000 C 
ATOM     62  F6  UNL A   1      18.226  33.423  42.635  1.00  0.00    +0.000 F 
ATOM     63  C42 UNL A   1      17.644  31.203  42.992  1.00  0.00    +0.000 C 
ATOM     64  F7  UNL A   1      16.663  31.353  42.090  1.00  0.00    +0.000 F 
ENDBRANCH   59   60
BRANCH   74   75
ATOM     75  C49 UNL A   1      26.047  34.575  45.945  1.00  0.00    +0.000 C 
ATOM     76  C50 UNL A   1      25.836  33.524  46.864  1.00  0.00    +0.000 C 
ATOM     77  F11 UNL A   1      24.607  33.311  47.364  1.00  0.00    +0.000 F 
ATOM     78  C51 UNL A   1      26.840  32.604  47.153  1.00  0.00    +0.000 C 
ATOM     79  F12 UNL A   1      26.565  31.529  47.906  1.00  0.00    +0.000 F 
ATOM     80  C52 UNL A   1      28.095  32.754  46.588  1.00  0.00    +0.000 C 
ATOM     81  F13 UNL A   1      29.031  31.814  46.775  1.00  0.00    +0.000 F 
ATOM     82  C53 UNL A   1      28.364  33.862  45.797  1.00  0.00    +0.000 C 
ATOM     83  F14 UNL A   1      29.582  34.005  45.252  1.00  0.00    +0.000 F 
ATOM     84  C54 UNL A   1      27.351  34.770  45.478  1.00  0.00    +0.000 C 
ATOM     85  F15 UNL A   1      27.622  35.759  44.614  1.00  0.00    +0.000 F 
ENDBRANCH   74   75
TORSDOF 25
ENDMDL
MODEL 5
REMARK VINA RESULT:      -7.6     14.201     21.212
ROOT
ATOM    133  H29 UNL A   1      19.250  15.243   7.151  1.00  0.00    +0.000 H 
ATOM    134  H30 UNL A   1      21.854  14.910   7.254  1.00  0.00    +0.000 H 
ATOM    135  H31 UNL A   1      20.945  18.599   8.894  1.00  0.00    +0.000 H 
ATOM    136  H32 UNL A   1      22.791  15.281   4.315  1.00  0.00    +0.000 H 
ATOM    137  H33 UNL A   1      20.587  16.483   4.828  1.00  0.00    +0.000 H 
ATOM    138  H34 UNL A   1      22.630  18.586   1.892  1.00  0.00    +0.000 H 
ATOM    139  H35 UNL A   1      26.948  17.250   5.684  1.00  0.00    +0.000 H 
ATOM    140  H36 UNL A   1      26.201  16.974   8.133  1.00  0.00    +0.000 H 
ATOM    141  H37 UNL A   1      16.993  20.236   6.443  1.00  0.00    +0.000 H 
ATOM    142  H38 UNL A   1      18.141  20.770   4.203  1.00  0.00    +0.000 H 
ATOM     38  C25 UNL A   1      20.640  19.255   3.906  1.00  0.00    +0.000 C 
ATOM     39  C26 UNL A   1      19.700  19.356   5.028  1.00  0.00    +0.000 C 
ATOM     40  N6  UNL A   1      19.884  18.818   6.177  1.00  0.00    +0.000 N 
ATOM     41  C27 UNL A   1      18.693  18.910   6.865  1.00  0.00    +0.000 C 
ATOM     42  C28 UNL A   1      18.473  18.033   7.885  1.00  0.00    +0.000 C 
ATOM     54  C35 UNL A   1      19.643  17.171   8.041  1.00  0.00    +0.000 C 
ATOM     55  C36 UNL A   1      19.934  15.922   7.519  1.00  0.00    +0.000 C 
ATOM     56  C37 UNL A   1      21.337  15.741   7.582  1.00  0.00    +0.000 C 
ATOM     57  C38 UNL A   1      21.895  16.870   8.159  1.00  0.00    +0.000 C 
ATOM     58  N7  UNL A   1      20.849  17.723   8.454  1.00  0.00    +0.000 N 
ATOM     59  C39 UNL A   1      23.263  17.209   8.515  1.00  0.00    +0.000 C 
ATOM     71  C46 UNL A   1      24.129  17.268   7.458  1.00  0.00    +0.000 C 
ATOM     72  N8  UNL A   1      23.696  17.477   6.174  1.00  0.00    +0.000 N 
ATOM     73  C47 UNL A   1      24.723  17.484   5.369  1.00  0.00    +0.000 C 
ATOM     74  C48 UNL A   1      24.610  17.654   3.875  1.00  0.00    +0.000 C 
ATOM     86  C55 UNL A   1      23.410  17.214   3.394  1.00  0.00    +0.000 C 
ATOM     87  C56 UNL A   1      22.548  16.252   4.061  1.00  0.00    +0.000 C 
ATOM     88  C57 UNL A   1      21.376  16.869   4.286  1.00  0.00    +0.000 C 
ATOM     89  C58 UNL A   1      21.403  18.173   3.637  1.00  0.00    +0.000 C 
ATOM     90  N9  UNL A   1      22.511  18.116   2.749  1.00  0.00    +0.000 N 
ATOM     91  C59 UNL A   1      25.988  17.281   6.064  1.00  0.00    +0.000 C 
ATOM     92  C60 UNL A   1      25.570  17.146   7.335  1.00  0.00    +0.000 C 
ATOM     93  C61 UNL A   1      17.893  19.847   6.120  1.00  0.00    +0.000 C 
ATOM     94  C62 UNL A   1      18.473  20.146   4.955  1.00  0.00    +0.000 C 
ENDROOT
BRANCH   38   37
ATOM     34  C21 UNL A   1      20.315  22.583   1.496  1.00  0.00    +0.000 C 
ATOM     35  C22 UNL A   1      19.535  21.474   1.136  1.00  0.00    +0.000 C 
ATOM     36  C23 UNL A   1      19.686  20.290   1.839  1.00  0.00    +0.000 C 
ATOM    131  H27 UNL A   1      18.859  21.539   0.359  1.00  0.00    +0.000 H 
ATOM    132  H28 UNL A   1      19.161  19.440   1.579  1.00  0.00    +0.000 H 
ATOM     37  C24 UNL A   1      20.571  20.294   2.907  1.00  0.00    +0.000 C 
ATOM    143  H39 UNL A   1      22.217  21.249   3.831  1.00  0.00    +0.000 H 
ATOM    144  H40 UNL A   1      22.212  23.116   2.269  1.00  0.00    +0.000 H 
ATOM     95  C63 UNL A   1      21.498  21.322   3.093  1.00  0.00    +0.000 C 
ATOM     96  C64 UNL A   1      21.444  22.427   2.288  1.00  0.00    +0.000 C 
BRANCH   34   32
ATOM     33  O7  UNL A   1      18.514  24.034   1.886  1.00  0.00    +0.000 O 
ATOM     32  C20 UNL A   1      19.635  23.896   1.409  1.00  0.00    +0.000 C 
BRANCH   32   31
ATOM    130  H26 UNL A   1      20.382  25.134   0.009  1.00  0.00    +0.000 H 
ATOM     31  N5  UNL A   1      20.348  25.003   0.984  1.00  0.00    +0.000 N 
BRANCH   31   30
ATOM    129  H25 UNL A   1      21.029  25.678   2.793  1.00  0.00    +0.000 H 
ATOM     30  C19 UNL A   1      21.055  26.001   1.772  1.00  0.00    +0.000 C 
ATOM    128  H24 UNL A   1      20.571  26.946   1.638  1.00  0.00    +0.000 H 
BRANCH   30   29
ATOM     29  C18 UNL A   1      22.514  26.146   1.382  1.00  0.00    +0.000 C 
ATOM    126  H22 UNL A   1      23.101  26.154   2.278  1.00  0.00    +0.000 H 
ATOM    127  H23 UNL A   1      22.743  25.320   0.742  1.00  0.00    +0.000 H 
BRANCH   29   28
ATOM    124  H20 UNL A   1      23.893  27.463   0.466  1.00  0.00    +0.000 H 
ATOM     28  C17 UNL A   1      22.832  27.414   0.590  1.00  0.00    +0.000 C 
ATOM    125  H21 UNL A   1      22.287  27.325  -0.325  1.00  0.00    +0.000 H 
BRANCH   28   27
ATOM    122  H18 UNL A   1      22.047  28.529   2.218  1.00  0.00    +0.000 H 
ATOM     27  C16 UNL A   1      22.370  28.736   1.220  1.00  0.00    +0.000 C 
ATOM    123  H19 UNL A   1      23.212  29.395   1.163  1.00  0.00    +0.000 H 
BRANCH   27   26
ATOM    121  H17 UNL A   1      20.738  28.719  -0.104  1.00  0.00    +0.000 H 
ATOM     26  C15 UNL A   1      21.231  29.455   0.497  1.00  0.00    +0.000 C 
ATOM    120  H16 UNL A   1      21.650  30.252  -0.080  1.00  0.00    +0.000 H 
BRANCH   26   25
ATOM     25  C14 UNL A   1      20.173  30.040   1.421  1.00  0.00    +0.000 C 
ATOM    118  H14 UNL A   1      20.319  29.640   2.403  1.00  0.00    +0.000 H 
ATOM    119  H15 UNL A   1      20.285  31.104   1.399  1.00  0.00    +0.000 H 
BRANCH   25   24
ATOM    117  H13 UNL A   1      18.436  28.911   1.355  1.00  0.00    +0.000 H 
ATOM     24  N4  UNL A   1      18.823  29.744   1.002  1.00  0.00    +0.000 N 
BRANCH   24   22
ATOM     22  C13 UNL A   1      18.018  30.475   0.175  1.00  0.00    +0.000 C 
ATOM     23  O6  UNL A   1      17.517  31.507   0.630  1.00  0.00    +0.000 O 
BRANCH   22   21
ATOM    115  H11 UNL A   1      17.783  30.775  -1.921  1.00  0.00    +0.000 H 
ATOM    116  H12 UNL A   1      18.250  29.120  -1.420  1.00  0.00    +0.000 H 
ATOM     21  C12 UNL A   1      17.631  29.972  -1.230  1.00  0.00    +0.000 C 
BRANCH   21   20
ATOM    114  H10 UNL A   1      16.148  28.534  -1.349  1.00  0.00    +0.000 H 
ATOM     20  N3  UNL A   1      16.258  29.512  -1.371  1.00  0.00    +0.000 N 
BRANCH   20   18
ATOM     18  C11 UNL A   1      15.099  30.213  -1.531  1.00  0.00    +0.000 C 
ATOM     19  O5  UNL A   1      14.806  30.584  -2.670  1.00  0.00    +0.000 O 
BRANCH   18   17
ATOM     17  C10 UNL A   1      14.185  30.544  -0.339  1.00  0.00    +0.000 C 
ATOM    113  H9  UNL A   1      14.489  29.900   0.459  1.00  0.00    +0.000 H 
ATOM    112  H8  UNL A   1      13.171  30.389  -0.646  1.00  0.00    +0.000 H 
BRANCH   17   16
ATOM    111  H7  UNL A   1      15.054  32.048   0.790  1.00  0.00    +0.000 H 
ATOM     16  N2  UNL A   1      14.302  31.912   0.169  1.00  0.00    +0.000 N 
BRANCH   16   14
ATOM     14  C9  UNL A   1      13.550  33.047  -0.062  1.00  0.00    +0.000 C 
ATOM     15  O4  UNL A   1      13.991  33.896  -0.830  1.00  0.00    +0.000 O 
BRANCH   14   12
ATOM     12  C8  UNL A   1      12.184  33.242   0.632  1.00  0.00    +0.000 C 
ATOM     13  O3  UNL A   1      12.134  34.062   1.543  1.00  0.00    +0.000 O 
BRANCH   12   11
ATOM     97  C65 UNL A   1      10.469  31.339   0.936  1.00  0.00    +0.000 C 
ATOM     98  C66 UNL A   1      10.921  30.609   2.060  1.00  0.00    +0.000 C 
ATOM     99  C67 UNL A   1      10.183  29.527   2.538  1.00  0.00    +0.000 C 
ATOM    100  C68 UNL A   1       9.009  29.146   1.905  1.00  0.00    +0.000 C 
ATOM    101  C69 UNL A   1       8.548  29.825   0.774  1.00  0.00    +0.000 C 
ATOM    102  C70 UNL A   1       9.288  30.927   0.307  1.00  0.00    +0.000 C 
ATOM      9  N1  UNL A   1       9.080  31.821  -0.722  1.00  0.00    +0.000 N 
ATOM     10  C6  UNL A   1      10.081  32.765  -0.775  1.00  0.00    +0.000 C 
ATOM     11  C7  UNL A   1      10.972  32.505   0.252  1.00  0.00    +0.000 C 
ATOM    110  H6  UNL A   1      10.154  33.533  -1.460  1.00  0.00    +0.000 H 
ATOM    145  H41 UNL A   1      11.801  30.880   2.527  1.00  0.00    +0.000 H 
ATOM    146  H42 UNL A   1      10.512  29.008   3.367  1.00  0.00    +0.000 H 
ATOM    147  H43 UNL A   1       8.470  28.347   2.273  1.00  0.00    +0.000 H 
ATOM    148  H44 UNL A   1       7.684  29.527   0.294  1.00  0.00    +0.000 H 
BRANCH    9    6
ATOM      6  S1  UNL A   1       7.705  31.832  -1.731  1.00  0.00    +0.000 S 
ATOM      7  O1  UNL A   1       6.673  32.488  -0.961  1.00  0.00    +0.000 O 
ATOM      8  O2  UNL A   1       7.560  30.464  -2.210  1.00  0.00    +0.000 O 
BRANCH    6    5
ATOM      2  C2  UNL A   1       8.566  34.284  -5.495  1.00  0.00    +0.000 C 
ATOM      3  C3  UNL A   1       8.977  32.951  -5.381  1.00  0.00    +0.000 C 
ATOM      4  C4  UNL A   1       8.722  32.231  -4.212  1.00  0.00    +0.000 C 
ATOM      5  C5  UNL A   1       8.065  32.848  -3.141  1.00  0.00    +0.000 C 
ATOM    103  C71 UNL A   1       7.689  34.189  -3.230  1.00  0.00    +0.000 C 
ATOM    104  C72 UNL A   1       7.929  34.898  -4.410  1.00  0.00    +0.000 C 
ATOM    108  H4  UNL A   1       9.470  32.497  -6.166  1.00  0.00    +0.000 H 
ATOM    109  H5  UNL A   1       9.019  31.246  -4.138  1.00  0.00    +0.000 H 
ATOM    149  H45 UNL A   1       7.234  34.654  -2.428  1.00  0.00    +0.000 H 
ATOM    150  H46 UNL A   1       7.635  35.884  -4.483  1.00  0.00    +0.000 H 
BRANCH    2    1
ATOM      1  C1  UNL A   1       8.814  35.038  -6.769  1.00  0.00    +0.000 C 
ATOM    106  H2  UNL A   1       7.879  35.345  -7.190  1.00  0.00    +0.000 H 
ATOM    107  H3  UNL A   1       9.327  34.406  -7.464  1.00  0.00    +0.000 H 
ATOM    105  H1  UNL A   1       9.413  35.901  -6.562  1.00  0.00    +0.000 H 
ENDBRANCH    2    1
ENDBRANCH    6    5
ENDBRANCH    9    6
ENDBRANCH   12   11
ENDBRANCH   14   12
ENDBRANCH   16   14
ENDBRANCH   17   16
ENDBRANCH   18   17
ENDBRANCH   20   18
ENDBRANCH   21   20
ENDBRANCH   22   21
ENDBRANCH   24   22
ENDBRANCH   25   24
ENDBRANCH   26   25
ENDBRANCH   27   26
ENDBRANCH   28   27
ENDBRANCH   29   28
ENDBRANCH   30   29
ENDBRANCH   31   30
ENDBRANCH   32   31
ENDBRANCH   34   32
ENDBRANCH   38   37
BRANCH   42   43
ATOM     43  C29 UNL A   1      17.131  17.719   8.509  1.00  0.00    +0.000 C 
ATOM     44  C30 UNL A   1      16.675  18.473   9.616  1.00  0.00    +0.000 C 
ATOM     45  F1  UNL A   1      17.345  19.545  10.059  1.00  0.00    +0.000 F 
ATOM     46  C31 UNL A   1      15.507  18.160  10.315  1.00  0.00    +0.000 C 
ATOM     47  F2  UNL A   1      15.141  18.911  11.363  1.00  0.00    +0.000 F 
ATOM     48  C32 UNL A   1      14.737  17.081   9.940  1.00  0.00    +0.000 C 
ATOM     49  F3  UNL A   1      13.629  16.766  10.623  1.00  0.00    +0.000 F 
ATOM     50  C33 UNL A   1      15.111  16.349   8.832  1.00  0.00    +0.000 C 
ATOM     51  F4  UNL A   1      14.361  15.310   8.438  1.00  0.00    +0.000 F 
ATOM     52  C34 UNL A   1      16.262  16.686   8.110  1.00  0.00    +0.000 C 
ATOM     53  F5  UNL A   1      16.457  16.002   6.979  1.00  0.00    +0.000 F 
ENDBRANCH   42   43
BRANCH   59   60
ATOM     65  C43 UNL A   1      24.086  17.550  12.784  1.00  0.00    +0.000 C 
ATOM     66  F8  UNL A   1      24.304  17.653  14.102  1.00  0.00    +0.000 F 
ATOM     67  C44 UNL A   1      23.645  16.363  12.245  1.00  0.00    +0.000 C 
ATOM     68  F9  UNL A   1      23.382  15.318  13.041  1.00  0.00    +0.000 F 
ATOM     69  C45 UNL A   1      23.452  16.251  10.869  1.00  0.00    +0.000 C 
ATOM     70  F10 UNL A   1      23.056  15.041  10.446  1.00  0.00    +0.000 F 
ATOM     60  C40 UNL A   1      23.624  17.341   9.978  1.00  0.00    +0.000 C 
ATOM     61  C41 UNL A   1      24.002  18.549  10.587  1.00  0.00    +0.000 C 
ATOM     62  F6  UNL A   1      24.057  19.697   9.900  1.00  0.00    +0.000 F 
ATOM     63  C42 UNL A   1      24.276  18.637  11.955  1.00  0.00    +0.000 C 
ATOM     64  F7  UNL A   1      24.698  19.801  12.469  1.00  0.00    +0.000 F 
ENDBRANCH   59   60
BRANCH   74   75
ATOM     75  C49 UNL A   1      25.149  18.799   3.085  1.00  0.00    +0.000 C 
ATOM     76  C50 UNL A   1      25.015  20.089   3.641  1.00  0.00    +0.000 C 
ATOM     77  F11 UNL A   1      24.060  20.326   4.557  1.00  0.00    +0.000 F 
ATOM     78  C51 UNL A   1      25.945  21.091   3.377  1.00  0.00    +0.000 C 
ATOM     79  F12 UNL A   1      25.881  22.255   4.039  1.00  0.00    +0.000 F 
ATOM     80  C52 UNL A   1      26.987  20.849   2.498  1.00  0.00    +0.000 C 
ATOM     81  F13 UNL A   1      27.945  21.769   2.324  1.00  0.00    +0.000 F 
ATOM     82  C53 UNL A   1      27.053  19.634   1.830  1.00  0.00    +0.000 C 
ATOM     83  F14 UNL A   1      28.063  19.403   0.977  1.00  0.00    +0.000 F 
ATOM     84  C54 UNL A   1      26.142  18.615   2.116  1.00  0.00    +0.000 C 
ATOM     85  F15 UNL A   1      26.312  17.417   1.538  1.00  0.00    +0.000 F 
ENDBRANCH   74   75
TORSDOF 25
ENDMDL
MODEL 6
REMARK VINA RESULT:      -7.6     15.566     20.573
ROOT
ATOM    133  H29 UNL A   1      12.539  32.667   1.783  1.00  0.00    +0.000 H 
ATOM    134  H30 UNL A   1      10.287  31.612   2.630  1.00  0.00    +0.000 H 
ATOM    135  H31 UNL A   1      12.243  28.808   0.300  1.00  0.00    +0.000 H 
ATOM    136  H32 UNL A   1       8.096  33.024   0.938  1.00  0.00    +0.000 H 
ATOM    137  H33 UNL A   1      10.385  32.983  -0.213  1.00  0.00    +0.000 H 
ATOM    138  H34 UNL A   1       7.409  32.921  -3.104  1.00  0.00    +0.000 H 
ATOM    139  H35 UNL A   1       5.335  29.099   0.884  1.00  0.00    +0.000 H 
ATOM    140  H36 UNL A   1       7.133  27.889   2.272  1.00  0.00    +0.000 H 
ATOM    141  H37 UNL A   1      14.675  31.365  -3.143  1.00  0.00    +0.000 H 
ATOM    142  H38 UNL A   1      12.653  32.105  -4.552  1.00  0.00    +0.000 H 
ATOM     38  C25 UNL A   1      10.179  32.040  -2.971  1.00  0.00    +0.000 C 
ATOM     39  C26 UNL A   1      11.547  31.626  -2.640  1.00  0.00    +0.000 C 
ATOM     40  N6  UNL A   1      11.884  31.048  -1.546  1.00  0.00    +0.000 N 
ATOM     41  C27 UNL A   1      13.262  31.054  -1.490  1.00  0.00    +0.000 C 
ATOM     42  C28 UNL A   1      13.854  30.937  -0.268  1.00  0.00    +0.000 C 
ATOM     54  C35 UNL A   1      12.822  30.788   0.756  1.00  0.00    +0.000 C 
ATOM     55  C36 UNL A   1      12.190  31.722   1.560  1.00  0.00    +0.000 C 
ATOM     56  C37 UNL A   1      10.979  31.150   2.021  1.00  0.00    +0.000 C 
ATOM     57  C38 UNL A   1      10.886  29.864   1.515  1.00  0.00    +0.000 C 
ATOM     58  N7  UNL A   1      12.026  29.649   0.764  1.00  0.00    +0.000 N 
ATOM     59  C39 UNL A   1       9.900  28.812   1.700  1.00  0.00    +0.000 C 
ATOM     71  C46 UNL A   1       8.644  29.124   1.258  1.00  0.00    +0.000 C 
ATOM     72  N8  UNL A   1       8.425  30.092   0.312  1.00  0.00    +0.000 N 
ATOM     73  C47 UNL A   1       7.145  30.186   0.080  1.00  0.00    +0.000 C 
ATOM     74  C48 UNL A   1       6.542  31.179  -0.883  1.00  0.00    +0.000 C 
ATOM     86  C55 UNL A   1       7.312  32.299  -1.018  1.00  0.00    +0.000 C 
ATOM     87  C56 UNL A   1       8.285  32.764  -0.043  1.00  0.00    +0.000 C 
ATOM     88  C57 UNL A   1       9.477  32.787  -0.663  1.00  0.00    +0.000 C 
ATOM     89  C58 UNL A   1       9.275  32.492  -2.075  1.00  0.00    +0.000 C 
ATOM     90  N9  UNL A   1       7.877  32.644  -2.283  1.00  0.00    +0.000 N 
ATOM     91  C59 UNL A   1       6.356  29.249   0.871  1.00  0.00    +0.000 C 
ATOM     92  C60 UNL A   1       7.317  28.631   1.578  1.00  0.00    +0.000 C 
ATOM     93  C61 UNL A   1      13.696  31.403  -2.818  1.00  0.00    +0.000 C 
ATOM     94  C62 UNL A   1      12.662  31.785  -3.572  1.00  0.00    +0.000 C 
ENDROOT
BRANCH   38   37
ATOM     34  C21 UNL A   1       9.750  32.102  -7.069  1.00  0.00    +0.000 C 
ATOM     35  C22 UNL A   1       9.806  33.349  -6.430  1.00  0.00    +0.000 C 
ATOM     36  C23 UNL A   1       9.835  33.393  -5.045  1.00  0.00    +0.000 C 
ATOM    131  H27 UNL A   1       9.824  34.220  -6.982  1.00  0.00    +0.000 H 
ATOM    132  H28 UNL A   1       9.835  34.291  -4.537  1.00  0.00    +0.000 H 
ATOM     37  C24 UNL A   1       9.865  32.180  -4.372  1.00  0.00    +0.000 C 
ATOM    143  H39 UNL A   1       9.493  30.101  -4.466  1.00  0.00    +0.000 H 
ATOM    144  H40 UNL A   1       8.990  30.138  -6.847  1.00  0.00    +0.000 H 
ATOM     95  C63 UNL A   1       9.570  30.975  -5.011  1.00  0.00    +0.000 C 
ATOM     96  C64 UNL A   1       9.386  30.962  -6.366  1.00  0.00    +0.000 C 
BRANCH   34   32
ATOM     33  O7  UNL A   1      10.584  32.947  -9.092  1.00  0.00    +0.000 O 
ATOM     32  C20 UNL A   1      10.530  31.993  -8.324  1.00  0.00    +0.000 C 
BRANCH   32   31
ATOM    130  H26 UNL A   1      11.118  30.317  -9.271  1.00  0.00    +0.000 H 
ATOM     31  N5  UNL A   1      11.358  30.901  -8.516  1.00  0.00    +0.000 N 
BRANCH   31   30
ATOM    129  H25 UNL A   1      12.367  30.769  -6.740  1.00  0.00    +0.000 H 
ATOM     30  C19 UNL A   1      12.533  30.493  -7.761  1.00  0.00    +0.000 C 
ATOM    128  H24 UNL A   1      13.390  30.982  -8.175  1.00  0.00    +0.000 H 
BRANCH   30   29
ATOM     29  C18 UNL A   1      12.770  28.995  -7.790  1.00  0.00    +0.000 C 
ATOM    126  H22 UNL A   1      12.319  28.601  -8.677  1.00  0.00    +0.000 H 
ATOM    127  H23 UNL A   1      13.830  28.853  -7.763  1.00  0.00    +0.000 H 
BRANCH   29   28
ATOM    124  H20 UNL A   1      11.133  28.344  -6.617  1.00  0.00    +0.000 H 
ATOM     28  C17 UNL A   1      12.198  28.243  -6.589  1.00  0.00    +0.000 C 
ATOM    125  H21 UNL A   1      12.546  27.237  -6.687  1.00  0.00    +0.000 H 
BRANCH   28   27
ATOM    122  H18 UNL A   1      13.715  28.470  -5.120  1.00  0.00    +0.000 H 
ATOM     27  C16 UNL A   1      12.677  28.713  -5.207  1.00  0.00    +0.000 C 
ATOM    123  H19 UNL A   1      12.472  29.762  -5.170  1.00  0.00    +0.000 H 
BRANCH   27   26
ATOM    121  H17 UNL A   1      10.924  28.402  -4.090  1.00  0.00    +0.000 H 
ATOM     26  C15 UNL A   1      11.950  28.104  -4.008  1.00  0.00    +0.000 C 
ATOM    120  H16 UNL A   1      12.418  28.462  -3.116  1.00  0.00    +0.000 H 
BRANCH   26   25
ATOM     25  C14 UNL A   1      11.959  26.583  -3.974  1.00  0.00    +0.000 C 
ATOM    118  H14 UNL A   1      10.973  26.231  -4.200  1.00  0.00    +0.000 H 
ATOM    119  H15 UNL A   1      12.678  26.254  -4.695  1.00  0.00    +0.000 H 
BRANCH   25   24
ATOM    117  H13 UNL A   1      11.625  25.772  -2.097  1.00  0.00    +0.000 H 
ATOM     24  N4  UNL A   1      12.357  26.044  -2.696  1.00  0.00    +0.000 N 
BRANCH   24   22
ATOM     22  C13 UNL A   1      13.622  25.865  -2.213  1.00  0.00    +0.000 C 
ATOM     23  O6  UNL A   1      13.753  25.706  -0.996  1.00  0.00    +0.000 O 
BRANCH   22   21
ATOM    115  H11 UNL A   1      14.768  26.895  -3.684  1.00  0.00    +0.000 H 
ATOM    116  H12 UNL A   1      15.709  25.973  -2.469  1.00  0.00    +0.000 H 
ATOM     21  C12 UNL A   1      14.861  25.989  -3.122  1.00  0.00    +0.000 C 
BRANCH   21   20
ATOM    114  H10 UNL A   1      15.507  25.148  -4.898  1.00  0.00    +0.000 H 
ATOM     20  N3  UNL A   1      15.056  24.895  -4.062  1.00  0.00    +0.000 N 
BRANCH   20   18
ATOM     18  C11 UNL A   1      14.714  23.578  -3.973  1.00  0.00    +0.000 C 
ATOM     19  O5  UNL A   1      13.655  23.224  -4.496  1.00  0.00    +0.000 O 
BRANCH   18   17
ATOM     17  C10 UNL A   1      15.606  22.560  -3.242  1.00  0.00    +0.000 C 
ATOM    113  H9  UNL A   1      16.614  22.885  -3.390  1.00  0.00    +0.000 H 
ATOM    112  H8  UNL A   1      15.407  21.592  -3.651  1.00  0.00    +0.000 H 
BRANCH   17   16
ATOM    111  H7  UNL A   1      14.531  22.128  -1.524  1.00  0.00    +0.000 H 
ATOM     16  N2  UNL A   1      15.405  22.491  -1.792  1.00  0.00    +0.000 N 
BRANCH   16   14
ATOM     14  C9  UNL A   1      16.219  22.844  -0.733  1.00  0.00    +0.000 C 
ATOM     15  O4  UNL A   1      16.572  24.014  -0.630  1.00  0.00    +0.000 O 
BRANCH   14   12
ATOM     12  C8  UNL A   1      16.675  21.787   0.295  1.00  0.00    +0.000 C 
ATOM     13  O3  UNL A   1      17.597  21.048  -0.035  1.00  0.00    +0.000 O 
BRANCH   12   11
ATOM     97  C65 UNL A   1      14.656  21.454   1.866  1.00  0.00    +0.000 C 
ATOM     98  C66 UNL A   1      13.532  21.372   1.012  1.00  0.00    +0.000 C 
ATOM     99  C67 UNL A   1      12.263  21.136   1.541  1.00  0.00    +0.000 C 
ATOM    100  C68 UNL A   1      12.090  20.998   2.910  1.00  0.00    +0.000 C 
ATOM    101  C69 UNL A   1      13.173  21.102   3.786  1.00  0.00    +0.000 C 
ATOM    102  C70 UNL A   1      14.454  21.323   3.245  1.00  0.00    +0.000 C 
ATOM      9  N1  UNL A   1      15.705  21.417   3.818  1.00  0.00    +0.000 N 
ATOM     10  C6  UNL A   1      16.678  21.612   2.865  1.00  0.00    +0.000 C 
ATOM     11  C7  UNL A   1      16.066  21.636   1.623  1.00  0.00    +0.000 C 
ATOM    110  H6  UNL A   1      17.688  21.721   3.043  1.00  0.00    +0.000 H 
ATOM    145  H41 UNL A   1      13.652  21.488  -0.007  1.00  0.00    +0.000 H 
ATOM    146  H42 UNL A   1      11.450  21.064   0.909  1.00  0.00    +0.000 H 
ATOM    147  H43 UNL A   1      11.147  20.817   3.287  1.00  0.00    +0.000 H 
ATOM    148  H44 UNL A   1      13.038  21.018   4.807  1.00  0.00    +0.000 H 
BRANCH    9    6
ATOM      6  S1  UNL A   1      16.026  21.204   5.480  1.00  0.00    +0.000 S 
ATOM      7  O1  UNL A   1      17.379  21.677   5.669  1.00  0.00    +0.000 O 
ATOM      8  O2  UNL A   1      15.637  19.834   5.782  1.00  0.00    +0.000 O 
BRANCH    6    5
ATOM      2  C2  UNL A   1      13.181  24.062   7.639  1.00  0.00    +0.000 C 
ATOM      3  C3  UNL A   1      14.116  24.526   6.707  1.00  0.00    +0.000 C 
ATOM      4  C4  UNL A   1      14.989  23.637   6.079  1.00  0.00    +0.000 C 
ATOM      5  C5  UNL A   1      14.941  22.272   6.391  1.00  0.00    +0.000 C 
ATOM    103  C71 UNL A   1      14.041  21.806   7.350  1.00  0.00    +0.000 C 
ATOM    104  C72 UNL A   1      13.157  22.699   7.961  1.00  0.00    +0.000 C 
ATOM    108  H4  UNL A   1      14.159  25.533   6.482  1.00  0.00    +0.000 H 
ATOM    109  H5  UNL A   1      15.669  23.984   5.385  1.00  0.00    +0.000 H 
ATOM    149  H45 UNL A   1      14.028  20.805   7.606  1.00  0.00    +0.000 H 
ATOM    150  H46 UNL A   1      12.479  22.352   8.657  1.00  0.00    +0.000 H 
BRANCH    2    1
ATOM      1  C1  UNL A   1      12.224  25.022   8.283  1.00  0.00    +0.000 C 
ATOM    106  H2  UNL A   1      12.172  25.918   7.702  1.00  0.00    +0.000 H 
ATOM    107  H3  UNL A   1      12.563  25.256   9.271  1.00  0.00    +0.000 H 
ATOM    105  H1  UNL A   1      11.252  24.575   8.337  1.00  0.00    +0.000 H 
ENDBRANCH    2    1
ENDBRANCH    6    5
ENDBRANCH    9    6
ENDBRANCH   12   11
ENDBRANCH   14   12
ENDBRANCH   16   14
ENDBRANCH   17   16
ENDBRANCH   18   17
ENDBRANCH   20   18
ENDBRANCH   21   20
ENDBRANCH   22   21
ENDBRANCH   24   22
ENDBRANCH   25   24
ENDBRANCH   26   25
ENDBRANCH   27   26
ENDBRANCH   28   27
ENDBRANCH   29   28
ENDBRANCH   30   29
ENDBRANCH   31   30
ENDBRANCH   32   31
ENDBRANCH   34   32
ENDBRANCH   38   37
BRANCH   42   43
ATOM     43  C29 UNL A   1      15.290  31.283   0.057  1.00  0.00    +0.000 C 
ATOM     44  C30 UNL A   1      16.340  30.482  -0.451  1.00  0.00    +0.000 C 
ATOM     45  F1  UNL A   1      16.108  29.488  -1.317  1.00  0.00    +0.000 F 
ATOM     46  C31 UNL A   1      17.677  30.670  -0.093  1.00  0.00    +0.000 C 
ATOM     47  F2  UNL A   1      18.619  29.865  -0.603  1.00  0.00    +0.000 F 
ATOM     48  C32 UNL A   1      18.029  31.670   0.787  1.00  0.00    +0.000 C 
ATOM     49  F3  UNL A   1      19.308  31.838   1.149  1.00  0.00    +0.000 F 
ATOM     50  C33 UNL A   1      17.048  32.513   1.265  1.00  0.00    +0.000 C 
ATOM     51  F4  UNL A   1      17.376  33.506   2.104  1.00  0.00    +0.000 F 
ATOM     52  C34 UNL A   1      15.713  32.346   0.877  1.00  0.00    +0.000 C 
ATOM     53  F5  UNL A   1      14.868  33.296   1.287  1.00  0.00    +0.000 F 
ENDBRANCH   42   43
BRANCH   59   60
ATOM     65  C43 UNL A   1      11.200  25.328   3.978  1.00  0.00    +0.000 C 
ATOM     66  F8  UNL A   1      11.624  24.278   4.693  1.00  0.00    +0.000 F 
ATOM     67  C44 UNL A   1      10.539  26.366   4.595  1.00  0.00    +0.000 C 
ATOM     68  F9  UNL A   1      10.362  26.357   5.923  1.00  0.00    +0.000 F 
ATOM     69  C45 UNL A   1      10.071  27.441   3.842  1.00  0.00    +0.000 C 
ATOM     70  F10 UNL A   1       9.411  28.379   4.536  1.00  0.00    +0.000 F 
ATOM     60  C40 UNL A   1      10.302  27.559   2.447  1.00  0.00    +0.000 C 
ATOM     61  C41 UNL A   1      11.045  26.511   1.879  1.00  0.00    +0.000 C 
ATOM     62  F6  UNL A   1      11.469  26.556   0.610  1.00  0.00    +0.000 F 
ATOM     63  C42 UNL A   1      11.441  25.395   2.621  1.00  0.00    +0.000 C 
ATOM     64  F7  UNL A   1      12.090  24.393   2.009  1.00  0.00    +0.000 F 
ENDBRANCH   59   60
BRANCH   74   75
ATOM     75  C49 UNL A   1       5.811  30.841  -2.138  1.00  0.00    +0.000 C 
ATOM     76  C50 UNL A   1       6.315  29.776  -2.915  1.00  0.00    +0.000 C 
ATOM     77  F11 UNL A   1       7.605  29.419  -2.801  1.00  0.00    +0.000 F 
ATOM     78  C51 UNL A   1       5.472  28.984  -3.690  1.00  0.00    +0.000 C 
ATOM     79  F12 UNL A   1       5.952  27.887  -4.292  1.00  0.00    +0.000 F 
ATOM     80  C52 UNL A   1       4.121  29.281  -3.762  1.00  0.00    +0.000 C 
ATOM     81  F13 UNL A   1       3.288  28.461  -4.416  1.00  0.00    +0.000 F 
ATOM     82  C53 UNL A   1       3.632  30.411  -3.121  1.00  0.00    +0.000 C 
ATOM     83  F14 UNL A   1       2.323  30.697  -3.194  1.00  0.00    +0.000 F 
ATOM     84  C54 UNL A   1       4.467  31.190  -2.316  1.00  0.00    +0.000 C 
ATOM     85  F15 UNL A   1       3.930  32.201  -1.619  1.00  0.00    +0.000 F 
ENDBRANCH   74   75
TORSDOF 25
ENDMDL
MODEL 7
REMARK VINA RESULT:      -7.5     55.738     61.533
ROOT
ATOM    133  H29 UNL A   1      18.416  37.672  45.667  1.00  0.00    +0.000 H 
ATOM    134  H30 UNL A   1      19.812  36.300  43.914  1.00  0.00    +0.000 H 
ATOM    135  H31 UNL A   1      18.757  33.765  47.009  1.00  0.00    +0.000 H 
ATOM    136  H32 UNL A   1      22.732  37.282  44.324  1.00  0.00    +0.000 H 
ATOM    137  H33 UNL A   1      21.273  37.567  46.410  1.00  0.00    +0.000 H 
ATOM    138  H34 UNL A   1      25.203  36.927  47.577  1.00  0.00    +0.000 H 
ATOM    139  H35 UNL A   1      24.538  32.966  43.255  1.00  0.00    +0.000 H 
ATOM    140  H36 UNL A   1      22.133  32.110  42.922  1.00  0.00    +0.000 H 
ATOM    141  H37 UNL A   1      18.657  36.555  51.073  1.00  0.00    +0.000 H 
ATOM    142  H38 UNL A   1      21.191  36.911  51.341  1.00  0.00    +0.000 H 
ATOM     38  C25 UNL A   1      22.593  36.507  48.792  1.00  0.00    +0.000 C 
ATOM     39  C26 UNL A   1      21.183  36.329  49.157  1.00  0.00    +0.000 C 
ATOM     40  N6  UNL A   1      20.287  35.852  48.373  1.00  0.00    +0.000 N 
ATOM     41  C27 UNL A   1      19.063  36.080  48.967  1.00  0.00    +0.000 C 
ATOM     42  C28 UNL A   1      17.959  36.103  48.169  1.00  0.00    +0.000 C 
ATOM     54  C35 UNL A   1      18.354  35.827  46.790  1.00  0.00    +0.000 C 
ATOM     55  C36 UNL A   1      18.675  36.676  45.743  1.00  0.00    +0.000 C 
ATOM     56  C37 UNL A   1      19.422  35.934  44.796  1.00  0.00    +0.000 C 
ATOM     57  C38 UNL A   1      19.536  34.632  45.256  1.00  0.00    +0.000 C 
ATOM     58  N7  UNL A   1      18.862  34.577  46.461  1.00  0.00    +0.000 N 
ATOM     59  C39 UNL A   1      20.141  33.443  44.679  1.00  0.00    +0.000 C 
ATOM     71  C46 UNL A   1      21.489  33.533  44.470  1.00  0.00    +0.000 C 
ATOM     72  N8  UNL A   1      22.274  34.420  45.159  1.00  0.00    +0.000 N 
ATOM     73  C47 UNL A   1      23.512  34.299  44.763  1.00  0.00    +0.000 C 
ATOM     74  C48 UNL A   1      24.643  35.148  45.288  1.00  0.00    +0.000 C 
ATOM     86  C55 UNL A   1      24.214  36.372  45.717  1.00  0.00    +0.000 C 
ATOM     87  C56 UNL A   1      22.986  37.020  45.289  1.00  0.00    +0.000 C 
ATOM     88  C57 UNL A   1      22.242  37.213  46.393  1.00  0.00    +0.000 C 
ATOM     89  C58 UNL A   1      23.032  36.839  47.558  1.00  0.00    +0.000 C 
ATOM     90  N9  UNL A   1      24.369  36.757  47.082  1.00  0.00    +0.000 N 
ATOM     91  C59 UNL A   1      23.679  33.276  43.737  1.00  0.00    +0.000 C 
ATOM     92  C60 UNL A   1      22.415  32.846  43.589  1.00  0.00    +0.000 C 
ATOM     93  C61 UNL A   1      19.362  36.448  50.327  1.00  0.00    +0.000 C 
ATOM     94  C62 UNL A   1      20.674  36.631  50.493  1.00  0.00    +0.000 C 
ENDROOT
BRANCH   38   37
ATOM     34  C21 UNL A   1      25.653  36.915  51.523  1.00  0.00    +0.000 C 
ATOM     35  C22 UNL A   1      25.201  35.608  51.283  1.00  0.00    +0.000 C 
ATOM     36  C23 UNL A   1      24.101  35.417  50.463  1.00  0.00    +0.000 C 
ATOM    131  H27 UNL A   1      25.680  34.801  51.712  1.00  0.00    +0.000 H 
ATOM    132  H28 UNL A   1      23.713  34.476  50.295  1.00  0.00    +0.000 H 
ATOM     37  C24 UNL A   1      23.543  36.545  49.877  1.00  0.00    +0.000 C 
ATOM    143  H39 UNL A   1      23.347  38.650  49.935  1.00  0.00    +0.000 H 
ATOM    144  H40 UNL A   1      24.975  38.910  51.726  1.00  0.00    +0.000 H 
ATOM     95  C63 UNL A   1      23.855  37.834  50.313  1.00  0.00    +0.000 C 
ATOM     96  C64 UNL A   1      24.841  38.006  51.246  1.00  0.00    +0.000 C 
BRANCH   34   32
ATOM     33  O7  UNL A   1      27.668  37.108  52.708  1.00  0.00    +0.000 O 
ATOM     32  C20 UNL A   1      27.123  37.075  51.610  1.00  0.00    +0.000 C 
BRANCH   32   31
ATOM    130  H26 UNL A   1      28.021  36.058  50.124  1.00  0.00    +0.000 H 
ATOM     31  N5  UNL A   1      27.885  36.973  50.461  1.00  0.00    +0.000 N 
BRANCH   31   30
ATOM    129  H25 UNL A   1      29.535  37.737  49.520  1.00  0.00    +0.000 H 
ATOM     30  C19 UNL A   1      28.516  38.025  49.678  1.00  0.00    +0.000 C 
ATOM    128  H24 UNL A   1      28.439  38.945  50.218  1.00  0.00    +0.000 H 
BRANCH   30   29
ATOM     29  C18 UNL A   1      27.884  38.214  48.311  1.00  0.00    +0.000 C 
ATOM    126  H22 UNL A   1      28.609  38.667  47.667  1.00  0.00    +0.000 H 
ATOM    127  H23 UNL A   1      27.580  37.243  47.979  1.00  0.00    +0.000 H 
BRANCH   29   28
ATOM    124  H20 UNL A   1      25.801  38.470  48.580  1.00  0.00    +0.000 H 
ATOM     28  C17 UNL A   1      26.631  39.089  48.311  1.00  0.00    +0.000 C 
ATOM    125  H21 UNL A   1      26.833  39.878  49.003  1.00  0.00    +0.000 H 
BRANCH   28   27
ATOM    122  H18 UNL A   1      25.310  39.467  46.692  1.00  0.00    +0.000 H 
ATOM     27  C16 UNL A   1      26.291  39.780  46.983  1.00  0.00    +0.000 C 
ATOM    123  H19 UNL A   1      26.373  40.830  47.172  1.00  0.00    +0.000 H 
BRANCH   27   26
ATOM    121  H17 UNL A   1      26.776  38.728  45.229  1.00  0.00    +0.000 H 
ATOM     26  C15 UNL A   1      27.240  39.491  45.820  1.00  0.00    +0.000 C 
ATOM    120  H16 UNL A   1      28.183  39.190  46.224  1.00  0.00    +0.000 H 
BRANCH   26   25
ATOM     25  C14 UNL A   1      27.475  40.675  44.893  1.00  0.00    +0.000 C 
ATOM    118  H14 UNL A   1      27.574  40.310  43.892  1.00  0.00    +0.000 H 
ATOM    119  H15 UNL A   1      26.638  41.333  45.000  1.00  0.00    +0.000 H 
BRANCH   25   24
ATOM    117  H13 UNL A   1      29.431  41.305  44.627  1.00  0.00    +0.000 H 
ATOM     24  N4  UNL A   1      28.659  41.432  45.224  1.00  0.00    +0.000 N 
BRANCH   24   22
ATOM     22  C13 UNL A   1      28.842  42.300  46.263  1.00  0.00    +0.000 C 
ATOM     23  O6  UNL A   1      29.702  42.016  47.101  1.00  0.00    +0.000 O 
BRANCH   22   21
ATOM    115  H11 UNL A   1      28.502  44.403  46.268  1.00  0.00    +0.000 H 
ATOM    116  H12 UNL A   1      27.102  43.389  45.798  1.00  0.00    +0.000 H 
ATOM     21  C12 UNL A   1      27.926  43.523  46.467  1.00  0.00    +0.000 C 
BRANCH   21   20
ATOM    114  H10 UNL A   1      27.742  43.061  48.475  1.00  0.00    +0.000 H 
ATOM     20  N3  UNL A   1      27.349  43.654  47.796  1.00  0.00    +0.000 N 
BRANCH   20   18
ATOM     18  C11 UNL A   1      26.351  44.463  48.253  1.00  0.00    +0.000 C 
ATOM     19  O5  UNL A   1      25.577  44.944  47.422  1.00  0.00    +0.000 O 
BRANCH   18   17
ATOM     17  C10 UNL A   1      26.190  44.779  49.750  1.00  0.00    +0.000 C 
ATOM    113  H9  UNL A   1      25.792  45.769  49.806  1.00  0.00    +0.000 H 
ATOM    112  H8  UNL A   1      27.149  44.679  50.215  1.00  0.00    +0.000 H 
BRANCH   17   16
ATOM    111  H7  UNL A   1      24.625  43.426  49.879  1.00  0.00    +0.000 H 
ATOM     16  N2  UNL A   1      25.246  43.916  50.465  1.00  0.00    +0.000 N 
BRANCH   16   14
ATOM     14  C9  UNL A   1      25.068  43.666  51.812  1.00  0.00    +0.000 C 
ATOM     15  O4  UNL A   1      26.060  43.505  52.514  1.00  0.00    +0.000 O 
BRANCH   14   12
ATOM     12  C8  UNL A   1      23.650  43.589  52.418  1.00  0.00    +0.000 C 
ATOM     13  O3  UNL A   1      23.178  44.628  52.869  1.00  0.00    +0.000 O 
BRANCH   12   11
ATOM     97  C65 UNL A   1      22.135  41.788  51.359  1.00  0.00    +0.000 C 
ATOM     98  C66 UNL A   1      21.965  42.190  50.015  1.00  0.00    +0.000 C 
ATOM     99  C67 UNL A   1      21.231  41.399  49.132  1.00  0.00    +0.000 C 
ATOM    100  C68 UNL A   1      20.647  40.219  49.569  1.00  0.00    +0.000 C 
ATOM    101  C69 UNL A   1      20.770  39.805  50.898  1.00  0.00    +0.000 C 
ATOM    102  C70 UNL A   1      21.526  40.599  51.780  1.00  0.00    +0.000 C 
ATOM      9  N1  UNL A   1      21.878  40.446  53.104  1.00  0.00    +0.000 N 
ATOM     10  C6  UNL A   1      22.667  41.488  53.536  1.00  0.00    +0.000 C 
ATOM     11  C7  UNL A   1      22.860  42.351  52.472  1.00  0.00    +0.000 C 
ATOM    110  H6  UNL A   1      23.049  41.605  54.487  1.00  0.00    +0.000 H 
ATOM    145  H41 UNL A   1      22.386  43.074  49.687  1.00  0.00    +0.000 H 
ATOM    146  H42 UNL A   1      21.123  41.693  48.148  1.00  0.00    +0.000 H 
ATOM    147  H43 UNL A   1      20.112  39.640  48.904  1.00  0.00    +0.000 H 
ATOM    148  H44 UNL A   1      20.317  38.936  51.225  1.00  0.00    +0.000 H 
BRANCH    9    6
ATOM      6  S1  UNL A   1      21.485  39.088  54.059  1.00  0.00    +0.000 S 
ATOM      7  O1  UNL A   1      21.905  39.430  55.398  1.00  0.00    +0.000 O 
ATOM      8  O2  UNL A   1      22.028  37.939  53.347  1.00  0.00    +0.000 O 
BRANCH    6    5
ATOM      2  C2  UNL A   1      16.918  38.834  53.976  1.00  0.00    +0.000 C 
ATOM      3  C3  UNL A   1      17.579  40.012  54.342  1.00  0.00    +0.000 C 
ATOM      4  C4  UNL A   1      18.973  40.057  54.382  1.00  0.00    +0.000 C 
ATOM      5  C5  UNL A   1      19.719  38.914  54.068  1.00  0.00    +0.000 C 
ATOM    103  C71 UNL A   1      19.068  37.723  53.742  1.00  0.00    +0.000 C 
ATOM    104  C72 UNL A   1      17.672  37.691  53.685  1.00  0.00    +0.000 C 
ATOM    108  H4  UNL A   1      17.031  40.853  54.584  1.00  0.00    +0.000 H 
ATOM    109  H5  UNL A   1      19.454  40.932  54.644  1.00  0.00    +0.000 H 
ATOM    149  H45 UNL A   1      19.616  36.871  53.543  1.00  0.00    +0.000 H 
ATOM    150  H46 UNL A   1      17.192  36.815  53.427  1.00  0.00    +0.000 H 
BRANCH    2    1
ATOM      1  C1  UNL A   1      15.419  38.806  53.903  1.00  0.00    +0.000 C 
ATOM    106  H2  UNL A   1      15.109  38.942  52.888  1.00  0.00    +0.000 H 
ATOM    107  H3  UNL A   1      15.017  39.594  54.506  1.00  0.00    +0.000 H 
ATOM    105  H1  UNL A   1      15.062  37.863  54.262  1.00  0.00    +0.000 H 
ENDBRANCH    2    1
ENDBRANCH    6    5
ENDBRANCH    9    6
ENDBRANCH   12   11
ENDBRANCH   14   12
ENDBRANCH   16   14
ENDBRANCH   17   16
ENDBRANCH   18   17
ENDBRANCH   20   18
ENDBRANCH   21   20
ENDBRANCH   22   21
ENDBRANCH   24   22
ENDBRANCH   25   24
ENDBRANCH   26   25
ENDBRANCH   27   26
ENDBRANCH   28   27
ENDBRANCH   29   28
ENDBRANCH   30   29
ENDBRANCH   31   30
ENDBRANCH   32   31
ENDBRANCH   34   32
ENDBRANCH   38   37
BRANCH   42   43
ATOM     43  C29 UNL A   1      16.613  36.686  48.538  1.00  0.00    +0.000 C 
ATOM     44  C30 UNL A   1      16.534  37.734  49.485  1.00  0.00    +0.000 C 
ATOM     45  F1  UNL A   1      17.634  38.315  49.982  1.00  0.00    +0.000 F 
ATOM     46  C31 UNL A   1      15.320  38.234  49.962  1.00  0.00    +0.000 C 
ATOM     47  F2  UNL A   1      15.320  39.220  50.869  1.00  0.00    +0.000 F 
ATOM     48  C32 UNL A   1      14.126  37.713  49.512  1.00  0.00    +0.000 C 
ATOM     49  F3  UNL A   1      12.962  38.177  49.985  1.00  0.00    +0.000 F 
ATOM     50  C33 UNL A   1      14.151  36.729  48.547  1.00  0.00    +0.000 C 
ATOM     51  F4  UNL A   1      12.998  36.228  48.080  1.00  0.00    +0.000 F 
ATOM     52  C34 UNL A   1      15.368  36.254  48.043  1.00  0.00    +0.000 C 
ATOM     53  F5  UNL A   1      15.277  35.403  47.017  1.00  0.00    +0.000 F 
ENDBRANCH   42   43
BRANCH   59   60
ATOM     65  C43 UNL A   1      17.737  30.039  43.392  1.00  0.00    +0.000 C 
ATOM     66  F8  UNL A   1      17.027  28.981  42.980  1.00  0.00    +0.000 F 
ATOM     67  C44 UNL A   1      18.735  29.883  44.328  1.00  0.00    +0.000 C 
ATOM     68  F9  UNL A   1      19.036  28.663  44.794  1.00  0.00    +0.000 F 
ATOM     69  C45 UNL A   1      19.449  30.992  44.778  1.00  0.00    +0.000 C 
ATOM     70  F10 UNL A   1      20.373  30.733  45.715  1.00  0.00    +0.000 F 
ATOM     60  C40 UNL A   1      19.243  32.298  44.263  1.00  0.00    +0.000 C 
ATOM     61  C41 UNL A   1      18.268  32.391  43.258  1.00  0.00    +0.000 C 
ATOM     62  F6  UNL A   1      18.068  33.525  42.573  1.00  0.00    +0.000 F 
ATOM     63  C42 UNL A   1      17.496  31.293  42.868  1.00  0.00    +0.000 C 
ATOM     64  F7  UNL A   1      16.531  31.457  41.950  1.00  0.00    +0.000 F 
ENDBRANCH   59   60
BRANCH   74   75
ATOM     75  C49 UNL A   1      25.812  34.653  46.070  1.00  0.00    +0.000 C 
ATOM     76  C50 UNL A   1      25.633  33.478  46.831  1.00  0.00    +0.000 C 
ATOM     77  F11 UNL A   1      24.397  33.112  47.212  1.00  0.00    +0.000 F 
ATOM     78  C51 UNL A   1      26.689  32.604  47.073  1.00  0.00    +0.000 C 
ATOM     79  F12 UNL A   1      26.458  31.422  47.662  1.00  0.00    +0.000 F 
ATOM     80  C52 UNL A   1      27.960  32.917  46.621  1.00  0.00    +0.000 C 
ATOM     81  F13 UNL A   1      28.956  32.032  46.753  1.00  0.00    +0.000 F 
ATOM     82  C53 UNL A   1      28.185  34.136  45.996  1.00  0.00    +0.000 C 
ATOM     83  F14 UNL A   1      29.418  34.439  45.561  1.00  0.00    +0.000 F 
ATOM     84  C54 UNL A   1      27.123  35.002  45.723  1.00  0.00    +0.000 C 
ATOM     85  F15 UNL A   1      27.364  36.113  45.013  1.00  0.00    +0.000 F 
ENDBRANCH   74   75
TORSDOF 25
ENDMDL
MODEL 8
REMARK VINA RESULT:      -7.5     30.039     36.813
ROOT
ATOM    133  H29 UNL A   1      52.478  14.518   6.518  1.00  0.00    +0.000 H 
ATOM    134  H30 UNL A   1      50.801  15.716   8.147  1.00  0.00    +0.000 H 
ATOM    135  H31 UNL A   1      51.637  18.287   5.015  1.00  0.00    +0.000 H 
ATOM    136  H32 UNL A   1      52.537  16.478  10.609  1.00  0.00    +0.000 H 
ATOM    137  H33 UNL A   1      53.900  16.237   8.453  1.00  0.00    +0.000 H 
ATOM    138  H34 UNL A   1      55.715  19.052  10.901  1.00  0.00    +0.000 H 
ATOM    139  H35 UNL A   1      50.012  20.483  11.393  1.00  0.00    +0.000 H 
ATOM    140  H36 UNL A   1      48.561  19.896   9.349  1.00  0.00    +0.000 H 
ATOM    141  H37 UNL A   1      56.293  17.345   3.693  1.00  0.00    +0.000 H 
ATOM    142  H38 UNL A   1      57.474  18.377   5.733  1.00  0.00    +0.000 H 
ATOM     38  C25 UNL A   1      55.662  18.531   8.039  1.00  0.00    +0.000 C 
ATOM     39  C26 UNL A   1      55.426  18.112   6.653  1.00  0.00    +0.000 C 
ATOM     40  N6  UNL A   1      54.277  17.800   6.177  1.00  0.00    +0.000 N 
ATOM     41  C27 UNL A   1      54.491  17.221   4.944  1.00  0.00    +0.000 C 
ATOM     42  C28 UNL A   1      53.525  16.399   4.446  1.00  0.00    +0.000 C 
ATOM     54  C35 UNL A   1      52.402  16.353   5.381  1.00  0.00    +0.000 C 
ATOM     55  C36 UNL A   1      52.104  15.473   6.408  1.00  0.00    +0.000 C 
ATOM     56  C37 UNL A   1      51.195  16.118   7.282  1.00  0.00    +0.000 C 
ATOM     57  C38 UNL A   1      50.926  17.379   6.775  1.00  0.00    +0.000 C 
ATOM     58  N7  UNL A   1      51.651  17.500   5.605  1.00  0.00    +0.000 N 
ATOM     59  C39 UNL A   1      50.038  18.440   7.220  1.00  0.00    +0.000 C 
ATOM     71  C46 UNL A   1      50.333  18.951   8.453  1.00  0.00    +0.000 C 
ATOM     72  N8  UNL A   1      51.585  18.847   9.003  1.00  0.00    +0.000 N 
ATOM     73  C47 UNL A   1      51.588  19.413  10.179  1.00  0.00    +0.000 C 
ATOM     74  C48 UNL A   1      52.795  19.452  11.083  1.00  0.00    +0.000 C 
ATOM     86  C55 UNL A   1      53.638  18.399  10.865  1.00  0.00    +0.000 C 
ATOM     87  C56 UNL A   1      53.251  17.135  10.259  1.00  0.00    +0.000 C 
ATOM     88  C57 UNL A   1      54.002  16.988   9.154  1.00  0.00    +0.000 C 
ATOM     89  C58 UNL A   1      54.984  18.063   9.110  1.00  0.00    +0.000 C 
ATOM     90  N9  UNL A   1      54.975  18.619  10.418  1.00  0.00    +0.000 N 
ATOM     91  C59 UNL A   1      50.292  19.977  10.538  1.00  0.00    +0.000 C 
ATOM     92  C60 UNL A   1      49.561  19.661   9.456  1.00  0.00    +0.000 C 
ATOM     93  C61 UNL A   1      55.859  17.524   4.612  1.00  0.00    +0.000 C 
ATOM     94  C62 UNL A   1      56.492  18.069   5.655  1.00  0.00    +0.000 C 
ENDROOT
BRANCH   38   37
ATOM     34  C21 UNL A   1      59.021  20.571   9.281  1.00  0.00    +0.000 C 
ATOM     35  C22 UNL A   1      57.986  21.347   8.738  1.00  0.00    +0.000 C 
ATOM     36  C23 UNL A   1      56.880  20.709   8.199  1.00  0.00    +0.000 C 
ATOM    131  H27 UNL A   1      58.047  22.377   8.739  1.00  0.00    +0.000 H 
ATOM    132  H28 UNL A   1      56.117  21.242   7.754  1.00  0.00    +0.000 H 
ATOM     37  C24 UNL A   1      56.842  19.325   8.285  1.00  0.00    +0.000 C 
ATOM    143  H39 UNL A   1      57.947  17.543   8.559  1.00  0.00    +0.000 H 
ATOM    144  H40 UNL A   1      60.019  18.718   9.057  1.00  0.00    +0.000 H 
ATOM     95  C63 UNL A   1      57.973  18.574   8.608  1.00  0.00    +0.000 C 
ATOM     96  C64 UNL A   1      59.118  19.218   8.990  1.00  0.00    +0.000 C 
BRANCH   34   32
ATOM     33  O7  UNL A   1      60.882  21.061  10.622  1.00  0.00    +0.000 O 
ATOM     32  C20 UNL A   1      59.665  21.126  10.494  1.00  0.00    +0.000 C 
BRANCH   32   31
ATOM    130  H26 UNL A   1      58.461  22.670  10.962  1.00  0.00    +0.000 H 
ATOM     31  N5  UNL A   1      58.917  21.897  11.367  1.00  0.00    +0.000 N 
BRANCH   31   30
ATOM    129  H25 UNL A   1      58.856  22.685  13.255  1.00  0.00    +0.000 H 
ATOM     30  C19 UNL A   1      58.708  21.729  12.797  1.00  0.00    +0.000 C 
ATOM    128  H24 UNL A   1      59.402  20.999  13.159  1.00  0.00    +0.000 H 
BRANCH   30   29
ATOM     29  C18 UNL A   1      57.304  21.274  13.146  1.00  0.00    +0.000 C 
ATOM    126  H22 UNL A   1      57.150  21.435  14.193  1.00  0.00    +0.000 H 
ATOM    127  H23 UNL A   1      56.637  21.844  12.534  1.00  0.00    +0.000 H 
BRANCH   29   28
ATOM    124  H20 UNL A   1      56.085  19.746  12.333  1.00  0.00    +0.000 H 
ATOM     28  C17 UNL A   1      57.024  19.802  12.843  1.00  0.00    +0.000 C 
ATOM    125  H21 UNL A   1      57.858  19.465  12.266  1.00  0.00    +0.000 H 
BRANCH   28   27
ATOM    122  H18 UNL A   1      57.935  18.470  14.223  1.00  0.00    +0.000 H 
ATOM     27  C16 UNL A   1      56.955  18.864  14.057  1.00  0.00    +0.000 C 
ATOM    123  H19 UNL A   1      56.584  19.461  14.865  1.00  0.00    +0.000 H 
BRANCH   27   26
ATOM    121  H17 UNL A   1      55.049  18.092  13.624  1.00  0.00    +0.000 H 
ATOM     26  C15 UNL A   1      55.989  17.685  13.934  1.00  0.00    +0.000 C 
ATOM    120  H16 UNL A   1      55.939  17.193  14.882  1.00  0.00    +0.000 H 
BRANCH   26   25
ATOM     25  C14 UNL A   1      56.385  16.658  12.883  1.00  0.00    +0.000 C 
ATOM    118  H14 UNL A   1      55.746  15.805  12.984  1.00  0.00    +0.000 H 
ATOM    119  H15 UNL A   1      56.283  17.126  11.927  1.00  0.00    +0.000 H 
BRANCH   25   24
ATOM    117  H13 UNL A   1      58.285  16.650  13.712  1.00  0.00    +0.000 H 
ATOM     24  N4  UNL A   1      57.756  16.221  13.002  1.00  0.00    +0.000 N 
BRANCH   24   22
ATOM     22  C13 UNL A   1      58.411  15.286  12.251  1.00  0.00    +0.000 C 
ATOM     23  O6  UNL A   1      58.168  15.252  11.042  1.00  0.00    +0.000 O 
BRANCH   22   21
ATOM    115  H11 UNL A   1      58.706  13.587  13.502  1.00  0.00    +0.000 H 
ATOM    116  H12 UNL A   1      59.796  13.709  12.086  1.00  0.00    +0.000 H 
ATOM     21  C12 UNL A   1      59.319  14.221  12.896  1.00  0.00    +0.000 C 
BRANCH   21   20
ATOM    114  H10 UNL A   1      60.137  14.915  14.665  1.00  0.00    +0.000 H 
ATOM     20  N3  UNL A   1      60.392  14.739  13.731  1.00  0.00    +0.000 N 
BRANCH   20   18
ATOM     18  C11 UNL A   1      61.691  15.023  13.431  1.00  0.00    +0.000 C 
ATOM     19  O5  UNL A   1      62.246  14.330  12.575  1.00  0.00    +0.000 O 
BRANCH   18   17
ATOM     17  C10 UNL A   1      62.452  16.161  14.133  1.00  0.00    +0.000 C 
ATOM    113  H9  UNL A   1      62.531  16.953  13.419  1.00  0.00    +0.000 H 
ATOM    112  H8  UNL A   1      63.399  15.779  14.451  1.00  0.00    +0.000 H 
BRANCH   17   16
ATOM    111  H7  UNL A   1      60.795  16.775  15.215  1.00  0.00    +0.000 H 
ATOM     16  N2  UNL A   1      61.775  16.729  15.301  1.00  0.00    +0.000 N 
BRANCH   16   14
ATOM     14  C9  UNL A   1      62.260  17.211  16.501  1.00  0.00    +0.000 C 
ATOM     15  O4  UNL A   1      63.070  18.132  16.478  1.00  0.00    +0.000 O 
BRANCH   14   12
ATOM     12  C8  UNL A   1      61.794  16.602  17.841  1.00  0.00    +0.000 C 
ATOM     13  O3  UNL A   1      61.879  15.384  17.960  1.00  0.00    +0.000 O 
BRANCH   12   11
ATOM     97  C65 UNL A   1      61.587  17.194  20.343  1.00  0.00    +0.000 C 
ATOM     98  C66 UNL A   1      62.413  16.264  21.014  1.00  0.00    +0.000 C 
ATOM     99  C67 UNL A   1      62.575  16.336  22.397  1.00  0.00    +0.000 C 
ATOM    100  C68 UNL A   1      61.912  17.310  23.130  1.00  0.00    +0.000 C 
ATOM    101  C69 UNL A   1      61.065  18.228  22.504  1.00  0.00    +0.000 C 
ATOM    102  C70 UNL A   1      60.919  18.161  21.106  1.00  0.00    +0.000 C 
ATOM      9  N1  UNL A   1      60.221  18.934  20.202  1.00  0.00    +0.000 N 
ATOM     10  C6  UNL A   1      60.410  18.490  18.913  1.00  0.00    +0.000 C 
ATOM     11  C7  UNL A   1      61.266  17.403  18.953  1.00  0.00    +0.000 C 
ATOM    110  H6  UNL A   1      59.987  18.897  18.065  1.00  0.00    +0.000 H 
ATOM    145  H41 UNL A   1      62.899  15.528  20.476  1.00  0.00    +0.000 H 
ATOM    146  H42 UNL A   1      63.191  15.661  22.878  1.00  0.00    +0.000 H 
ATOM    147  H43 UNL A   1      62.046  17.356  24.152  1.00  0.00    +0.000 H 
ATOM    148  H44 UNL A   1      60.557  18.939  23.054  1.00  0.00    +0.000 H 
BRANCH    9    6
ATOM      6  S1  UNL A   1      59.329  20.329  20.610  1.00  0.00    +0.000 S 
ATOM      7  O1  UNL A   1      60.217  21.439  20.350  1.00  0.00    +0.000 O 
ATOM      8  O2  UNL A   1      58.782  20.071  21.936  1.00  0.00    +0.000 O 
BRANCH    6    5
ATOM      2  C2  UNL A   1      55.898  20.504  17.591  1.00  0.00    +0.000 C 
ATOM      3  C3  UNL A   1      57.234  20.592  17.185  1.00  0.00    +0.000 C 
ATOM      4  C4  UNL A   1      58.262  20.560  18.128  1.00  0.00    +0.000 C 
ATOM      5  C5  UNL A   1      57.958  20.452  19.491  1.00  0.00    +0.000 C 
ATOM    103  C71 UNL A   1      56.627  20.406  19.908  1.00  0.00    +0.000 C 
ATOM    104  C72 UNL A   1      55.603  20.420  18.957  1.00  0.00    +0.000 C 
ATOM    108  H4  UNL A   1      57.461  20.681  16.182  1.00  0.00    +0.000 H 
ATOM    109  H5  UNL A   1      59.246  20.615  17.822  1.00  0.00    +0.000 H 
ATOM    149  H45 UNL A   1      56.400  20.361  20.915  1.00  0.00    +0.000 H 
ATOM    150  H46 UNL A   1      54.619  20.367  19.264  1.00  0.00    +0.000 H 
BRANCH    2    1
ATOM      1  C1  UNL A   1      54.801  20.505  16.565  1.00  0.00    +0.000 C 
ATOM    106  H2  UNL A   1      55.221  20.352  15.593  1.00  0.00    +0.000 H 
ATOM    107  H3  UNL A   1      54.290  21.445  16.589  1.00  0.00    +0.000 H 
ATOM    105  H1  UNL A   1      54.109  19.717  16.782  1.00  0.00    +0.000 H 
ENDBRANCH    2    1
ENDBRANCH    6    5
ENDBRANCH    9    6
ENDBRANCH   12   11
ENDBRANCH   14   12
ENDBRANCH   16   14
ENDBRANCH   17   16
ENDBRANCH   18   17
ENDBRANCH   20   18
ENDBRANCH   21   20
ENDBRANCH   22   21
ENDBRANCH   24   22
ENDBRANCH   25   24
ENDBRANCH   26   25
ENDBRANCH   27   26
ENDBRANCH   28   27
ENDBRANCH   29   28
ENDBRANCH   30   29
ENDBRANCH   31   30
ENDBRANCH   32   31
ENDBRANCH   34   32
ENDBRANCH   38   37
BRANCH   42   43
ATOM     43  C29 UNL A   1      53.705  15.398   3.326  1.00  0.00    +0.000 C 
ATOM     44  C30 UNL A   1      54.982  14.847   3.072  1.00  0.00    +0.000 C 
ATOM     45  F1  UNL A   1      56.025  15.094   3.875  1.00  0.00    +0.000 F 
ATOM     46  C31 UNL A   1      55.245  14.015   1.981  1.00  0.00    +0.000 C 
ATOM     47  F2  UNL A   1      56.483  13.538   1.794  1.00  0.00    +0.000 F 
ATOM     48  C32 UNL A   1      54.241  13.690   1.095  1.00  0.00    +0.000 C 
ATOM     49  F3  UNL A   1      54.496  12.910   0.037  1.00  0.00    +0.000 F 
ATOM     50  C33 UNL A   1      52.966  14.158   1.332  1.00  0.00    +0.000 C 
ATOM     51  F4  UNL A   1      51.972  13.832   0.492  1.00  0.00    +0.000 F 
ATOM     52  C34 UNL A   1      52.696  14.962   2.446  1.00  0.00    +0.000 C 
ATOM     53  F5  UNL A   1      51.408  15.245   2.657  1.00  0.00    +0.000 F 
ENDBRANCH   42   43
BRANCH   59   60
ATOM     65  C43 UNL A   1      46.508  19.591   4.931  1.00  0.00    +0.000 C 
ATOM     66  F8  UNL A   1      45.413  19.962   4.255  1.00  0.00    +0.000 F 
ATOM     67  C44 UNL A   1      47.480  20.516   5.240  1.00  0.00    +0.000 C 
ATOM     68  F9  UNL A   1      47.312  21.804   4.912  1.00  0.00    +0.000 F 
ATOM     69  C45 UNL A   1      48.633  20.118   5.913  1.00  0.00    +0.000 C 
ATOM     70  F10 UNL A   1      49.530  21.091   6.132  1.00  0.00    +0.000 F 
ATOM     60  C40 UNL A   1      48.836  18.790   6.369  1.00  0.00    +0.000 C 
ATOM     61  C41 UNL A   1      47.784  17.903   6.095  1.00  0.00    +0.000 C 
ATOM     62  F6  UNL A   1      47.764  16.659   6.590  1.00  0.00    +0.000 F 
ATOM     63  C42 UNL A   1      46.666  18.284   5.347  1.00  0.00    +0.000 C 
ATOM     64  F7  UNL A   1      45.723  17.375   5.058  1.00  0.00    +0.000 F 
ENDBRANCH   59   60
BRANCH   74   75
ATOM     75  C49 UNL A   1      53.525  20.680  11.507  1.00  0.00    +0.000 C 
ATOM     76  C50 UNL A   1      53.696  21.698  10.545  1.00  0.00    +0.000 C 
ATOM     77  F11 UNL A   1      53.644  21.396   9.236  1.00  0.00    +0.000 F 
ATOM     78  C51 UNL A   1      53.768  23.039  10.914  1.00  0.00    +0.000 C 
ATOM     79  F12 UNL A   1      53.772  23.993   9.972  1.00  0.00    +0.000 F 
ATOM     80  C52 UNL A   1      53.742  23.387  12.254  1.00  0.00    +0.000 C 
ATOM     81  F13 UNL A   1      53.700  24.677  12.611  1.00  0.00    +0.000 F 
ATOM     82  C53 UNL A   1      53.721  22.391  13.221  1.00  0.00    +0.000 C 
ATOM     83  F14 UNL A   1      53.698  22.731  14.519  1.00  0.00    +0.000 F 
ATOM     84  C54 UNL A   1      53.616  21.047  12.855  1.00  0.00    +0.000 C 
ATOM     85  F15 UNL A   1      53.478  20.126  13.820  1.00  0.00    +0.000 F 
ENDBRANCH   74   75
TORSDOF 25
ENDMDL
MODEL 9
REMARK VINA RESULT:      -7.5     55.627     60.868
ROOT
ATOM    133  H29 UNL A   1      18.603  37.717  45.715  1.00  0.00    +0.000 H 
ATOM    134  H30 UNL A   1      19.963  36.330  43.945  1.00  0.00    +0.000 H 
ATOM    135  H31 UNL A   1      18.910  33.805  47.049  1.00  0.00    +0.000 H 
ATOM    136  H32 UNL A   1      22.899  37.275  44.324  1.00  0.00    +0.000 H 
ATOM    137  H33 UNL A   1      21.466  37.576  46.427  1.00  0.00    +0.000 H 
ATOM    138  H34 UNL A   1      25.400  36.886  47.551  1.00  0.00    +0.000 H 
ATOM    139  H35 UNL A   1      24.640  32.939  43.231  1.00  0.00    +0.000 H 
ATOM    140  H36 UNL A   1      22.221  32.113  42.924  1.00  0.00    +0.000 H 
ATOM    141  H37 UNL A   1      18.888  36.590  51.116  1.00  0.00    +0.000 H 
ATOM    142  H38 UNL A   1      21.429  36.914  51.358  1.00  0.00    +0.000 H 
ATOM     38  C25 UNL A   1      22.798  36.496  48.793  1.00  0.00    +0.000 C 
ATOM     39  C26 UNL A   1      21.390  36.336  49.173  1.00  0.00    +0.000 C 
ATOM     40  N6  UNL A   1      20.480  35.871  48.398  1.00  0.00    +0.000 N 
ATOM     41  C27 UNL A   1      19.266  36.113  49.006  1.00  0.00    +0.000 C 
ATOM     42  C28 UNL A   1      18.153  36.151  48.220  1.00  0.00    +0.000 C 
ATOM     54  C35 UNL A   1      18.530  35.871  46.836  1.00  0.00    +0.000 C 
ATOM     55  C36 UNL A   1      18.851  36.717  45.787  1.00  0.00    +0.000 C 
ATOM     56  C37 UNL A   1      19.578  35.968  44.830  1.00  0.00    +0.000 C 
ATOM     57  C38 UNL A   1      19.681  34.664  45.288  1.00  0.00    +0.000 C 
ATOM     58  N7  UNL A   1      19.020  34.615  46.500  1.00  0.00    +0.000 N 
ATOM     59  C39 UNL A   1      20.265  33.468  44.703  1.00  0.00    +0.000 C 
ATOM     71  C46 UNL A   1      21.611  33.542  44.479  1.00  0.00    +0.000 C 
ATOM     72  N8  UNL A   1      22.415  34.419  45.162  1.00  0.00    +0.000 N 
ATOM     73  C47 UNL A   1      23.647  34.282  44.752  1.00  0.00    +0.000 C 
ATOM     74  C48 UNL A   1      24.794  35.117  45.265  1.00  0.00    +0.000 C 
ATOM     86  C55 UNL A   1      24.385  36.345  45.701  1.00  0.00    +0.000 C 
ATOM     87  C56 UNL A   1      23.160  37.009  45.287  1.00  0.00    +0.000 C 
ATOM     88  C57 UNL A   1      22.431  37.210  46.398  1.00  0.00    +0.000 C 
ATOM     89  C58 UNL A   1      23.228  36.825  47.555  1.00  0.00    +0.000 C 
ATOM     90  N9  UNL A   1      24.559  36.727  47.065  1.00  0.00    +0.000 N 
ATOM     91  C59 UNL A   1      23.791  33.259  43.723  1.00  0.00    +0.000 C 
ATOM     92  C60 UNL A   1      22.519  32.844  43.588  1.00  0.00    +0.000 C 
ATOM     93  C61 UNL A   1      19.584  36.475  50.363  1.00  0.00    +0.000 C 
ATOM     94  C62 UNL A   1      20.900  36.642  50.515  1.00  0.00    +0.000 C 
ENDROOT
BRANCH   38   37
ATOM     34  C21 UNL A   1      25.912  36.815  51.475  1.00  0.00    +0.000 C 
ATOM     35  C22 UNL A   1      25.352  35.538  51.318  1.00  0.00    +0.000 C 
ATOM     36  C23 UNL A   1      24.231  35.389  50.518  1.00  0.00    +0.000 C 
ATOM    131  H27 UNL A   1      25.769  34.722  51.792  1.00  0.00    +0.000 H 
ATOM    132  H28 UNL A   1      23.766  34.475  50.410  1.00  0.00    +0.000 H 
ATOM     37  C24 UNL A   1      23.761  36.521  49.867  1.00  0.00    +0.000 C 
ATOM    143  H39 UNL A   1      23.737  38.635  49.799  1.00  0.00    +0.000 H 
ATOM    144  H40 UNL A   1      25.401  38.867  51.560  1.00  0.00    +0.000 H 
ATOM     95  C63 UNL A   1      24.181  37.804  50.223  1.00  0.00    +0.000 C 
ATOM     96  C64 UNL A   1      25.188  37.950  51.137  1.00  0.00    +0.000 C 
BRANCH   34   32
ATOM     33  O7  UNL A   1      27.963  36.533  52.577  1.00  0.00    +0.000 O 
ATOM     32  C20 UNL A   1      27.391  36.859  51.543  1.00  0.00    +0.000 C 
BRANCH   32   31
ATOM    130  H26 UNL A   1      28.151  36.293  49.767  1.00  0.00    +0.000 H 
ATOM     31  N5  UNL A   1      28.117  37.061  50.383  1.00  0.00    +0.000 N 
BRANCH   31   30
ATOM    129  H25 UNL A   1      29.762  37.915  49.515  1.00  0.00    +0.000 H 
ATOM     30  C19 UNL A   1      28.839  38.246  49.943  1.00  0.00    +0.000 C 
ATOM    128  H24 UNL A   1      28.994  38.883  50.788  1.00  0.00    +0.000 H 
BRANCH   30   29
ATOM     29  C18 UNL A   1      28.102  39.031  48.874  1.00  0.00    +0.000 C 
ATOM    126  H22 UNL A   1      27.051  38.889  49.019  1.00  0.00    +0.000 H 
ATOM    127  H23 UNL A   1      28.404  40.052  48.982  1.00  0.00    +0.000 H 
BRANCH   29   28
ATOM    124  H20 UNL A   1      29.190  39.301  47.079  1.00  0.00    +0.000 H 
ATOM     28  C17 UNL A   1      28.447  38.623  47.442  1.00  0.00    +0.000 C 
ATOM    125  H21 UNL A   1      28.773  37.607  47.504  1.00  0.00    +0.000 H 
BRANCH   28   27
ATOM    122  H18 UNL A   1      27.504  37.906  45.679  1.00  0.00    +0.000 H 
ATOM     27  C16 UNL A   1      27.283  38.623  46.441  1.00  0.00    +0.000 C 
ATOM    123  H19 UNL A   1      26.408  38.393  47.013  1.00  0.00    +0.000 H 
BRANCH   27   26
ATOM    121  H17 UNL A   1      26.876  39.749  44.714  1.00  0.00    +0.000 H 
ATOM     26  C15 UNL A   1      26.993  39.959  45.757  1.00  0.00    +0.000 C 
ATOM    120  H16 UNL A   1      27.806  40.623  45.960  1.00  0.00    +0.000 H 
BRANCH   26   25
ATOM     25  C14 UNL A   1      25.705  40.630  46.212  1.00  0.00    +0.000 C 
ATOM    118  H14 UNL A   1      25.242  41.090  45.363  1.00  0.00    +0.000 H 
ATOM    119  H15 UNL A   1      25.088  39.872  46.646  1.00  0.00    +0.000 H 
BRANCH   25   24
ATOM    117  H13 UNL A   1      26.798  41.638  47.656  1.00  0.00    +0.000 H 
ATOM     24  N4  UNL A   1      25.915  41.640  47.222  1.00  0.00    +0.000 N 
BRANCH   24   22
ATOM     22  C13 UNL A   1      25.040  42.598  47.652  1.00  0.00    +0.000 C 
ATOM     23  O6  UNL A   1      25.343  43.778  47.457  1.00  0.00    +0.000 O 
BRANCH   22   21
ATOM    115  H11 UNL A   1      22.927  42.418  47.856  1.00  0.00    +0.000 H 
ATOM    116  H12 UNL A   1      23.901  41.214  48.756  1.00  0.00    +0.000 H 
ATOM     21  C12 UNL A   1      23.785  42.239  48.470  1.00  0.00    +0.000 C 
BRANCH   21   20
ATOM    114  H10 UNL A   1      22.939  43.698  49.668  1.00  0.00    +0.000 H 
ATOM     20  N3  UNL A   1      23.614  42.984  49.708  1.00  0.00    +0.000 N 
BRANCH   20   18
ATOM     18  C11 UNL A   1      24.237  42.855  50.914  1.00  0.00    +0.000 C 
ATOM     19  O5  UNL A   1      23.807  42.000  51.693  1.00  0.00    +0.000 O 
BRANCH   18   17
ATOM     17  C10 UNL A   1      25.431  43.742  51.305  1.00  0.00    +0.000 C 
ATOM    113  H9  UNL A   1      25.029  44.713  51.504  1.00  0.00    +0.000 H 
ATOM    112  H8  UNL A   1      26.131  43.731  50.496  1.00  0.00    +0.000 H 
BRANCH   17   16
ATOM    111  H7  UNL A   1      25.740  43.680  53.353  1.00  0.00    +0.000 H 
ATOM     16  N2  UNL A   1      26.136  43.331  52.521  1.00  0.00    +0.000 N 
BRANCH   16   14
ATOM     14  C9  UNL A   1      27.254  42.543  52.715  1.00  0.00    +0.000 C 
ATOM     15  O4  UNL A   1      27.108  41.432  53.213  1.00  0.00    +0.000 O 
BRANCH   14   12
ATOM     12  C8  UNL A   1      28.655  43.054  52.316  1.00  0.00    +0.000 C 
ATOM     13  O3  UNL A   1      29.247  43.754  53.131  1.00  0.00    +0.000 O 
BRANCH   12   11
ATOM     97  C65 UNL A   1      30.311  41.735  50.841  1.00  0.00    +0.000 C 
ATOM     98  C66 UNL A   1      30.952  40.832  51.719  1.00  0.00    +0.000 C 
ATOM     99  C67 UNL A   1      31.885  39.918  51.231  1.00  0.00    +0.000 C 
ATOM    100  C68 UNL A   1      32.205  39.899  49.881  1.00  0.00    +0.000 C 
ATOM    101  C69 UNL A   1      31.613  40.796  48.988  1.00  0.00    +0.000 C 
ATOM    102  C70 UNL A   1      30.660  41.704  49.485  1.00  0.00    +0.000 C 
ATOM      9  N1  UNL A   1      29.872  42.657  48.874  1.00  0.00    +0.000 N 
ATOM     10  C6  UNL A   1      29.057  43.291  49.783  1.00  0.00    +0.000 C 
ATOM     11  C7  UNL A   1      29.293  42.739  51.031  1.00  0.00    +0.000 C 
ATOM    110  H6  UNL A   1      28.385  44.045  49.572  1.00  0.00    +0.000 H 
ATOM    145  H41 UNL A   1      30.728  40.851  52.727  1.00  0.00    +0.000 H 
ATOM    146  H42 UNL A   1      32.338  39.253  51.877  1.00  0.00    +0.000 H 
ATOM    147  H43 UNL A   1      32.893  39.213  49.532  1.00  0.00    +0.000 H 
ATOM    148  H44 UNL A   1      31.868  40.792  47.988  1.00  0.00    +0.000 H 
BRANCH    9    6
ATOM      6  S1  UNL A   1      29.827  42.940  47.192  1.00  0.00    +0.000 S 
ATOM      7  O1  UNL A   1      28.886  44.022  47.014  1.00  0.00    +0.000 O 
ATOM      8  O2  UNL A   1      29.627  41.633  46.580  1.00  0.00    +0.000 O 
BRANCH    6    5
ATOM      2  C2  UNL A   1      33.920  44.330  45.697  1.00  0.00    +0.000 C 
ATOM      3  C3  UNL A   1      33.486  43.012  45.520  1.00  0.00    +0.000 C 
ATOM      4  C4  UNL A   1      32.242  42.606  46.006  1.00  0.00    +0.000 C 
ATOM      5  C5  UNL A   1      31.427  43.518  46.688  1.00  0.00    +0.000 C 
ATOM    103  C71 UNL A   1      31.869  44.824  46.906  1.00  0.00    +0.000 C 
ATOM    104  C72 UNL A   1      33.108  45.228  46.400  1.00  0.00    +0.000 C 
ATOM    108  H4  UNL A   1      34.089  42.335  45.025  1.00  0.00    +0.000 H 
ATOM    109  H5  UNL A   1      31.923  41.635  45.863  1.00  0.00    +0.000 H 
ATOM    149  H45 UNL A   1      31.284  45.487  47.438  1.00  0.00    +0.000 H 
ATOM    150  H46 UNL A   1      33.427  46.198  46.545  1.00  0.00    +0.000 H 
BRANCH    2    1
ATOM      1  C1  UNL A   1      35.244  44.764  45.140  1.00  0.00    +0.000 C 
ATOM    106  H2  UNL A   1      36.012  44.588  45.863  1.00  0.00    +0.000 H 
ATOM    107  H3  UNL A   1      35.208  45.808  44.905  1.00  0.00    +0.000 H 
ATOM    105  H1  UNL A   1      35.457  44.207  44.251  1.00  0.00    +0.000 H 
ENDBRANCH    2    1
ENDBRANCH    6    5
ENDBRANCH    9    6
ENDBRANCH   12   11
ENDBRANCH   14   12
ENDBRANCH   16   14
ENDBRANCH   17   16
ENDBRANCH   18   17
ENDBRANCH   20   18
ENDBRANCH   21   20
ENDBRANCH   22   21
ENDBRANCH   24   22
ENDBRANCH   25   24
ENDBRANCH   26   25
ENDBRANCH   27   26
ENDBRANCH   28   27
ENDBRANCH   29   28
ENDBRANCH   30   29
ENDBRANCH   31   30
ENDBRANCH   32   31
ENDBRANCH   34   32
ENDBRANCH   38   37
BRANCH   42   43
ATOM     43  C29 UNL A   1      16.818  36.750  48.604  1.00  0.00    +0.000 C 
ATOM     44  C30 UNL A   1      16.768  37.838  49.506  1.00  0.00    +0.000 C 
ATOM     45  F1  UNL A   1      17.881  38.439  49.944  1.00  0.00    +0.000 F 
ATOM     46  C31 UNL A   1      15.569  38.359  49.998  1.00  0.00    +0.000 C 
ATOM     47  F2  UNL A   1      15.595  39.383  50.861  1.00  0.00    +0.000 F 
ATOM     48  C32 UNL A   1      14.362  37.820  49.608  1.00  0.00    +0.000 C 
ATOM     49  F3  UNL A   1      13.212  38.303  50.095  1.00  0.00    +0.000 F 
ATOM     50  C33 UNL A   1      14.358  36.794  48.686  1.00  0.00    +0.000 C 
ATOM     51  F4  UNL A   1      13.192  36.273  48.277  1.00  0.00    +0.000 F 
ATOM     52  C34 UNL A   1      15.559  36.297  48.166  1.00  0.00    +0.000 C 
ATOM     53  F5  UNL A   1      15.438  35.402  47.181  1.00  0.00    +0.000 F 
ENDBRANCH   42   43
BRANCH   59   60
ATOM     65  C43 UNL A   1      17.806  30.093  43.444  1.00  0.00    +0.000 C 
ATOM     66  F8  UNL A   1      17.079  29.043  43.041  1.00  0.00    +0.000 F 
ATOM     67  C44 UNL A   1      18.792  29.932  44.391  1.00  0.00    +0.000 C 
ATOM     68  F9  UNL A   1      19.065  28.713  44.877  1.00  0.00    +0.000 F 
ATOM     69  C45 UNL A   1      19.523  31.033  44.832  1.00  0.00    +0.000 C 
ATOM     70  F10 UNL A   1      20.434  30.770  45.781  1.00  0.00    +0.000 F 
ATOM     60  C40 UNL A   1      19.349  32.335  44.295  1.00  0.00    +0.000 C 
ATOM     61  C41 UNL A   1      18.384  32.432  43.280  1.00  0.00    +0.000 C 
ATOM     62  F6  UNL A   1      18.213  33.559  42.577  1.00  0.00    +0.000 F 
ATOM     63  C42 UNL A   1      17.595  31.343  42.898  1.00  0.00    +0.000 C 
ATOM     64  F7  UNL A   1      16.642  31.513  41.970  1.00  0.00    +0.000 F 
ENDBRANCH   59   60
BRANCH   74   75
ATOM     75  C49 UNL A   1      25.965  34.607  46.034  1.00  0.00    +0.000 C 
ATOM     76  C50 UNL A   1      25.742  33.525  46.913  1.00  0.00    +0.000 C 
ATOM     77  F11 UNL A   1      24.507  33.294  47.387  1.00  0.00    +0.000 F 
ATOM     78  C51 UNL A   1      26.744  32.597  47.187  1.00  0.00    +0.000 C 
ATOM     79  F12 UNL A   1      26.459  31.497  47.898  1.00  0.00    +0.000 F 
ATOM     80  C52 UNL A   1      28.007  32.767  46.646  1.00  0.00    +0.000 C 
ATOM     81  F13 UNL A   1      28.942  31.822  46.815  1.00  0.00    +0.000 F 
ATOM     82  C53 UNL A   1      28.286  33.901  45.896  1.00  0.00    +0.000 C 
ATOM     83  F14 UNL A   1      29.511  34.064  45.375  1.00  0.00    +0.000 F 
ATOM     84  C54 UNL A   1      27.276  34.819  45.593  1.00  0.00    +0.000 C 
ATOM     85  F15 UNL A   1      27.559  35.837  44.767  1.00  0.00    +0.000 F 
ENDBRANCH   74   75
TORSDOF 25
ENDMDL
MODEL 10
REMARK VINA RESULT:      -7.4     55.851     61.816
ROOT
ATOM    133  H29 UNL A   1      18.489  37.984  45.951  1.00  0.00    +0.000 H 
ATOM    134  H30 UNL A   1      19.960  36.702  44.192  1.00  0.00    +0.000 H 
ATOM    135  H31 UNL A   1      19.075  34.105  47.289  1.00  0.00    +0.000 H 
ATOM    136  H32 UNL A   1      22.816  37.862  44.592  1.00  0.00    +0.000 H 
ATOM    137  H33 UNL A   1      21.349  38.055  46.684  1.00  0.00    +0.000 H 
ATOM    138  H34 UNL A   1      25.315  37.658  47.836  1.00  0.00    +0.000 H 
ATOM    139  H35 UNL A   1      24.881  33.666  43.514  1.00  0.00    +0.000 H 
ATOM    140  H36 UNL A   1      22.532  32.663  43.189  1.00  0.00    +0.000 H 
ATOM    141  H37 UNL A   1      18.817  36.881  51.355  1.00  0.00    +0.000 H 
ATOM    142  H38 UNL A   1      21.325  37.393  51.615  1.00  0.00    +0.000 H 
ATOM     38  C25 UNL A   1      22.740  37.077  49.060  1.00  0.00    +0.000 C 
ATOM     39  C26 UNL A   1      21.345  36.813  49.430  1.00  0.00    +0.000 C 
ATOM     40  N6  UNL A   1      20.477  36.282  48.649  1.00  0.00    +0.000 N 
ATOM     41  C27 UNL A   1      19.244  36.434  49.247  1.00  0.00    +0.000 C 
ATOM     42  C28 UNL A   1      18.137  36.389  48.453  1.00  0.00    +0.000 C 
ATOM     54  C35 UNL A   1      18.544  36.138  47.072  1.00  0.00    +0.000 C 
ATOM     55  C36 UNL A   1      18.809  37.006  46.025  1.00  0.00    +0.000 C 
ATOM     56  C37 UNL A   1      19.596  36.312  45.074  1.00  0.00    +0.000 C 
ATOM     57  C38 UNL A   1      19.793  35.020  45.534  1.00  0.00    +0.000 C 
ATOM     58  N7  UNL A   1      19.128  34.922  46.741  1.00  0.00    +0.000 N 
ATOM     59  C39 UNL A   1      20.468  33.870  44.954  1.00  0.00    +0.000 C 
ATOM     71  C46 UNL A   1      21.807  34.044  44.739  1.00  0.00    +0.000 C 
ATOM     72  N8  UNL A   1      22.538  34.977  45.427  1.00  0.00    +0.000 N 
ATOM     73  C47 UNL A   1      23.779  34.932  45.026  1.00  0.00    +0.000 C 
ATOM     74  C48 UNL A   1      24.858  35.849  45.548  1.00  0.00    +0.000 C 
ATOM     86  C55 UNL A   1      24.356  37.044  45.980  1.00  0.00    +0.000 C 
ATOM     87  C56 UNL A   1      23.088  37.616  45.557  1.00  0.00    +0.000 C 
ATOM     88  C57 UNL A   1      22.338  37.762  46.663  1.00  0.00    +0.000 C 
ATOM     89  C58 UNL A   1      23.153  37.437  47.825  1.00  0.00    +0.000 C 
ATOM     90  N9  UNL A   1      24.491  37.437  47.345  1.00  0.00    +0.000 N 
ATOM     91  C59 UNL A   1      24.006  33.923  43.999  1.00  0.00    +0.000 C 
ATOM     92  C60 UNL A   1      22.770  33.415  43.855  1.00  0.00    +0.000 C 
ATOM     93  C61 UNL A   1      19.524  36.818  50.606  1.00  0.00    +0.000 C 
ATOM     94  C62 UNL A   1      20.824  37.082  50.768  1.00  0.00    +0.000 C 
ENDROOT
BRANCH   38   37
ATOM     34  C21 UNL A   1      25.771  37.686  51.786  1.00  0.00    +0.000 C 
ATOM     35  C22 UNL A   1      25.428  36.351  51.523  1.00  0.00    +0.000 C 
ATOM     36  C23 UNL A   1      24.343  36.085  50.703  1.00  0.00    +0.000 C 
ATOM    131  H27 UNL A   1      25.975  35.579  51.934  1.00  0.00    +0.000 H 
ATOM    132  H28 UNL A   1      24.034  35.119  50.518  1.00  0.00    +0.000 H 
ATOM     37  C24 UNL A   1      23.690  37.173  50.141  1.00  0.00    +0.000 C 
ATOM    143  H39 UNL A   1      23.320  39.253  50.242  1.00  0.00    +0.000 H 
ATOM    144  H40 UNL A   1      24.931  39.613  52.031  1.00  0.00    +0.000 H 
ATOM     95  C63 UNL A   1      23.896  38.475  50.602  1.00  0.00    +0.000 C 
ATOM     96  C64 UNL A   1      24.869  38.711  51.534  1.00  0.00    +0.000 C 
BRANCH   34   32
ATOM     33  O7  UNL A   1      27.884  37.486  52.785  1.00  0.00    +0.000 O 
ATOM     32  C20 UNL A   1      27.223  37.966  51.871  1.00  0.00    +0.000 C 
BRANCH   32   31
ATOM    130  H26 UNL A   1      27.313  38.688  49.994  1.00  0.00    +0.000 H 
ATOM     31  N5  UNL A   1      27.856  38.586  50.809  1.00  0.00    +0.000 N 
BRANCH   31   30
ATOM    129  H25 UNL A   1      29.428  39.265  49.687  1.00  0.00    +0.000 H 
ATOM     30  C19 UNL A   1      29.211  39.110  50.724  1.00  0.00    +0.000 C 
ATOM    128  H24 UNL A   1      29.878  38.404  51.171  1.00  0.00    +0.000 H 
BRANCH   30   29
ATOM     29  C18 UNL A   1      29.381  40.446  51.424  1.00  0.00    +0.000 C 
ATOM    126  H22 UNL A   1      28.412  40.802  51.705  1.00  0.00    +0.000 H 
ATOM    127  H23 UNL A   1      30.020  40.271  52.264  1.00  0.00    +0.000 H 
BRANCH   29   28
ATOM    124  H20 UNL A   1      31.005  41.138  50.259  1.00  0.00    +0.000 H 
ATOM     28  C17 UNL A   1      30.058  41.521  50.576  1.00  0.00    +0.000 C 
ATOM    125  H21 UNL A   1      29.378  41.727  49.777  1.00  0.00    +0.000 H 
BRANCH   28   27
ATOM    122  H18 UNL A   1      31.214  43.277  50.877  1.00  0.00    +0.000 H 
ATOM     27  C16 UNL A   1      30.305  42.870  51.267  1.00  0.00    +0.000 C 
ATOM    123  H19 UNL A   1      29.440  43.465  51.061  1.00  0.00    +0.000 H 
BRANCH   27   26
ATOM    121  H17 UNL A   1      31.328  43.345  53.040  1.00  0.00    +0.000 H 
ATOM     26  C15 UNL A   1      30.426  42.825  52.790  1.00  0.00    +0.000 C 
ATOM    120  H16 UNL A   1      30.437  41.800  53.095  1.00  0.00    +0.000 H 
BRANCH   26   25
ATOM     25  C14 UNL A   1      29.299  43.531  53.530  1.00  0.00    +0.000 C 
ATOM    118  H14 UNL A   1      29.700  44.394  54.019  1.00  0.00    +0.000 H 
ATOM    119  H15 UNL A   1      28.555  43.788  52.805  1.00  0.00    +0.000 H 
BRANCH   25   24
ATOM    117  H13 UNL A   1      29.252  42.305  55.200  1.00  0.00    +0.000 H 
ATOM     24  N4  UNL A   1      28.659  42.699  54.521  1.00  0.00    +0.000 N 
BRANCH   24   22
ATOM     22  C13 UNL A   1      27.333  42.390  54.634  1.00  0.00    +0.000 C 
ATOM     23  O6  UNL A   1      26.727  42.822  55.618  1.00  0.00    +0.000 O 
BRANCH   22   21
ATOM    115  H11 UNL A   1      27.399  40.892  53.121  1.00  0.00    +0.000 H 
ATOM    116  H12 UNL A   1      26.008  40.802  54.244  1.00  0.00    +0.000 H 
ATOM     21  C12 UNL A   1      26.639  41.428  53.650  1.00  0.00    +0.000 C 
BRANCH   21   20
ATOM    114  H10 UNL A   1      24.866  41.678  52.614  1.00  0.00    +0.000 H 
ATOM     20  N3  UNL A   1      25.770  42.061  52.669  1.00  0.00    +0.000 N 
BRANCH   20   18
ATOM     18  C11 UNL A   1      26.006  43.095  51.812  1.00  0.00    +0.000 C 
ATOM     19  O5  UNL A   1      25.682  44.227  52.177  1.00  0.00    +0.000 O 
BRANCH   18   17
ATOM     17  C10 UNL A   1      26.645  42.869  50.431  1.00  0.00    +0.000 C 
ATOM    113  H9  UNL A   1      27.702  42.848  50.591  1.00  0.00    +0.000 H 
ATOM    112  H8  UNL A   1      26.329  43.662  49.786  1.00  0.00    +0.000 H 
BRANCH   17   16
ATOM    111  H7  UNL A   1      25.950  40.917  50.410  1.00  0.00    +0.000 H 
ATOM     16  N2  UNL A   1      26.301  41.598  49.790  1.00  0.00    +0.000 N 
BRANCH   16   14
ATOM     14  C9  UNL A   1      26.380  41.179  48.476  1.00  0.00    +0.000 C 
ATOM     15  O4  UNL A   1      27.472  40.838  48.034  1.00  0.00    +0.000 O 
BRANCH   14   12
ATOM     12  C8  UNL A   1      25.119  41.142  47.585  1.00  0.00    +0.000 C 
ATOM     13  O3  UNL A   1      25.252  40.698  46.449  1.00  0.00    +0.000 O 
BRANCH   12   11
ATOM     97  C65 UNL A   1      23.417  42.987  48.179  1.00  0.00    +0.000 C 
ATOM     98  C66 UNL A   1      24.102  44.205  47.967  1.00  0.00    +0.000 C 
ATOM     99  C67 UNL A   1      23.444  45.422  48.146  1.00  0.00    +0.000 C 
ATOM    100  C68 UNL A   1      22.118  45.448  48.552  1.00  0.00    +0.000 C 
ATOM    101  C69 UNL A   1      21.418  44.264  48.799  1.00  0.00    +0.000 C 
ATOM    102  C70 UNL A   1      22.082  43.039  48.600  1.00  0.00    +0.000 C 
ATOM      9  N1  UNL A   1      21.669  41.727  48.699  1.00  0.00    +0.000 N 
ATOM     10  C6  UNL A   1      22.684  40.857  48.372  1.00  0.00    +0.000 C 
ATOM     11  C7  UNL A   1      23.799  41.604  48.033  1.00  0.00    +0.000 C 
ATOM    110  H6  UNL A   1      22.625  39.827  48.378  1.00  0.00    +0.000 H 
ATOM    145  H41 UNL A   1      25.092  44.193  47.677  1.00  0.00    +0.000 H 
ATOM    146  H42 UNL A   1      23.947  46.307  47.975  1.00  0.00    +0.000 H 
ATOM    147  H43 UNL A   1      21.642  46.355  48.675  1.00  0.00    +0.000 H 
ATOM    148  H44 UNL A   1      20.437  44.286  49.121  1.00  0.00    +0.000 H 
BRANCH    9    6
ATOM      6  S1  UNL A   1      20.077  41.240  49.067  1.00  0.00    +0.000 S 
ATOM      7  O1  UNL A   1      19.932  39.930  48.473  1.00  0.00    +0.000 O 
ATOM      8  O2  UNL A   1      19.226  42.359  48.685  1.00  0.00    +0.000 O 
BRANCH    6    5
ATOM      2  C2  UNL A   1      19.549  40.681  53.576  1.00  0.00    +0.000 C 
ATOM      3  C3  UNL A   1      18.520  41.190  52.777  1.00  0.00    +0.000 C 
ATOM      4  C4  UNL A   1      18.713  41.373  51.407  1.00  0.00    +0.000 C 
ATOM      5  C5  UNL A   1      19.949  41.059  50.827  1.00  0.00    +0.000 C 
ATOM    103  C71 UNL A   1      20.995  40.590  51.623  1.00  0.00    +0.000 C 
ATOM    104  C72 UNL A   1      20.788  40.391  52.991  1.00  0.00    +0.000 C 
ATOM    108  H4  UNL A   1      17.611  41.431  53.203  1.00  0.00    +0.000 H 
ATOM    109  H5  UNL A   1      17.947  41.740  50.821  1.00  0.00    +0.000 H 
ATOM    149  H45 UNL A   1      21.917  40.391  51.203  1.00  0.00    +0.000 H 
ATOM    150  H46 UNL A   1      21.556  40.027  53.576  1.00  0.00    +0.000 H 
BRANCH    2    1
ATOM      1  C1  UNL A   1      19.319  40.455  55.042  1.00  0.00    +0.000 C 
ATOM    106  H2  UNL A   1      18.802  41.295  55.456  1.00  0.00    +0.000 H 
ATOM    107  H3  UNL A   1      20.260  40.336  55.537  1.00  0.00    +0.000 H 
ATOM    105  H1  UNL A   1      18.730  39.571  55.178  1.00  0.00    +0.000 H 
ENDBRANCH    2    1
ENDBRANCH    6    5
ENDBRANCH    9    6
ENDBRANCH   12   11
ENDBRANCH   14   12
ENDBRANCH   16   14
ENDBRANCH   17   16
ENDBRANCH   18   17
ENDBRANCH   20   18
ENDBRANCH   21   20
ENDBRANCH   22   21
ENDBRANCH   24   22
ENDBRANCH   25   24
ENDBRANCH   26   25
ENDBRANCH   27   26
ENDBRANCH   28   27
ENDBRANCH   29   28
ENDBRANCH   30   29
ENDBRANCH   31   30
ENDBRANCH   32   31
ENDBRANCH   34   32
ENDBRANCH   38   37
BRANCH   42   43
ATOM     43  C29 UNL A   1      16.759  36.888  48.827  1.00  0.00    +0.000 C 
ATOM     44  C30 UNL A   1      16.621  37.964  49.735  1.00  0.00    +0.000 C 
ATOM     45  F1  UNL A   1      17.684  38.642  50.185  1.00  0.00    +0.000 F 
ATOM     46  C31 UNL A   1      15.383  38.394  50.217  1.00  0.00    +0.000 C 
ATOM     47  F2  UNL A   1      15.327  39.413  51.085  1.00  0.00    +0.000 F 
ATOM     48  C32 UNL A   1      14.223  37.771  49.812  1.00  0.00    +0.000 C 
ATOM     49  F3  UNL A   1      13.036  38.167  50.291  1.00  0.00    +0.000 F 
ATOM     50  C33 UNL A   1      14.302  36.752  48.886  1.00  0.00    +0.000 C 
ATOM     51  F4  UNL A   1      13.180  36.151  48.463  1.00  0.00    +0.000 F 
ATOM     52  C34 UNL A   1      15.541  36.347  48.375  1.00  0.00    +0.000 C 
ATOM     53  F5  UNL A   1      15.493  35.451  47.385  1.00  0.00    +0.000 F 
ENDBRANCH   42   43
BRANCH   59   60
ATOM     65  C43 UNL A   1      18.275  30.322  43.679  1.00  0.00    +0.000 C 
ATOM     66  F8  UNL A   1      17.631  29.221  43.272  1.00  0.00    +0.000 F 
ATOM     67  C44 UNL A   1      19.259  30.235  44.637  1.00  0.00    +0.000 C 
ATOM     68  F9  UNL A   1      19.615  29.041  45.131  1.00  0.00    +0.000 F 
ATOM     69  C45 UNL A   1      19.904  31.387  45.083  1.00  0.00    +0.000 C 
ATOM     70  F10 UNL A   1      20.820  31.194  46.043  1.00  0.00    +0.000 F 
ATOM     60  C40 UNL A   1      19.641  32.672  44.540  1.00  0.00    +0.000 C 
ATOM     61  C41 UNL A   1      18.683  32.696  43.513  1.00  0.00    +0.000 C 
ATOM     62  F6  UNL A   1      18.438  33.806  42.805  1.00  0.00    +0.000 F 
ATOM     63  C42 UNL A   1      17.979  31.552  43.127  1.00  0.00    +0.000 C 
ATOM     64  F7  UNL A   1      17.027  31.649  42.188  1.00  0.00    +0.000 F 
ENDBRANCH   59   60
BRANCH   74   75
ATOM     75  C49 UNL A   1      26.058  35.427  46.325  1.00  0.00    +0.000 C 
ATOM     76  C50 UNL A   1      25.915  34.319  47.187  1.00  0.00    +0.000 C 
ATOM     77  F11 UNL A   1      24.697  33.979  47.642  1.00  0.00    +0.000 F 
ATOM     78  C51 UNL A   1      26.987  33.473  47.462  1.00  0.00    +0.000 C 
ATOM     79  F12 UNL A   1      26.786  32.344  48.156  1.00  0.00    +0.000 F 
ATOM     80  C52 UNL A   1      28.238  33.755  46.940  1.00  0.00    +0.000 C 
ATOM     81  F13 UNL A   1      29.246  32.888  47.109  1.00  0.00    +0.000 F 
ATOM     82  C53 UNL A   1      28.431  34.919  46.209  1.00  0.00    +0.000 C 
ATOM     83  F14 UNL A   1      29.645  35.190  45.706  1.00  0.00    +0.000 F 
ATOM     84  C54 UNL A   1      27.353  35.753  45.904  1.00  0.00    +0.000 C 
ATOM     85  F15 UNL A   1      27.559  36.803  45.096  1.00  0.00    +0.000 F 
ENDBRANCH   74   75
TORSDOF 25
ENDMDL
