MODEL 1
REMARK VINA RESULT:      -9.2      0.000      0.000
ROOT
ATOM    129  H36 UNL A   1      10.931   2.162  28.751  1.00  0.00    +0.000 H 
ATOM    130  H37 UNL A   1       9.274   1.084  27.124  1.00  0.00    +0.000 H 
ATOM     29  C25 UNL A   1       7.479   2.938  25.919  1.00  0.00    +0.000 C 
ATOM     30  C26 UNL A   1       8.642   3.240  26.822  1.00  0.00    +0.000 C 
ATOM     31  N3  UNL A   1       9.085   4.398  27.245  1.00  0.00    +0.000 N 
ATOM     32  C27 UNL A   1      10.153   4.111  28.084  1.00  0.00    +0.000 C 
ATOM     33  C28 UNL A   1      10.979   4.971  28.725  1.00  0.00    +0.000 C 
ATOM     45  C35 UNL A   1      10.885   6.405  28.637  1.00  0.00    +0.000 C 
ATOM     46  C36 UNL A   1      11.703   7.362  29.213  1.00  0.00    +0.000 C 
ATOM     47  C37 UNL A   1      11.203   8.625  28.876  1.00  0.00    +0.000 C 
ATOM     48  C38 UNL A   1      10.098   8.455  28.057  1.00  0.00    +0.000 C 
ATOM     49  N4  UNL A   1       9.910   7.087  27.925  1.00  0.00    +0.000 N 
ATOM     50  C39 UNL A   1       9.275   9.462  27.442  1.00  0.00    +0.000 C 
ATOM     62  C46 UNL A   1       8.203   9.214  26.650  1.00  0.00    +0.000 C 
ATOM     63  N5  UNL A   1       7.677   7.993  26.251  1.00  0.00    +0.000 N 
ATOM     64  C47 UNL A   1       6.640   8.276  25.500  1.00  0.00    +0.000 C 
ATOM     65  C48 UNL A   1       5.710   7.343  24.775  1.00  0.00    +0.000 C 
ATOM     77  C55 UNL A   1       5.919   6.014  24.851  1.00  0.00    +0.000 C 
ATOM     78  C56 UNL A   1       5.105   4.990  24.202  1.00  0.00    +0.000 C 
ATOM     79  C57 UNL A   1       5.578   3.779  24.536  1.00  0.00    +0.000 C 
ATOM     80  C58 UNL A   1       6.751   3.943  25.396  1.00  0.00    +0.000 C 
ATOM     81  N6  UNL A   1       6.884   5.303  25.522  1.00  0.00    +0.000 N 
ATOM     82  C59 UNL A   1       6.374   9.715  25.363  1.00  0.00    +0.000 C 
ATOM     83  C60 UNL A   1       7.377  10.241  26.049  1.00  0.00    +0.000 C 
ATOM     84  C61 UNL A   1      10.262   2.669  28.150  1.00  0.00    +0.000 C 
ATOM     85  C62 UNL A   1       9.392   2.086  27.338  1.00  0.00    +0.000 C 
ATOM    121  H28 UNL A   1      12.537   7.176  29.790  1.00  0.00    +0.000 H 
ATOM    122  H29 UNL A   1      11.592   9.529  29.184  1.00  0.00    +0.000 H 
ATOM    123  H30 UNL A   1       9.191   6.664  27.403  1.00  0.00    +0.000 H 
ATOM    124  H31 UNL A   1       4.297   5.169  23.586  1.00  0.00    +0.000 H 
ATOM    125  H32 UNL A   1       5.179   2.876  24.234  1.00  0.00    +0.000 H 
ATOM    126  H33 UNL A   1       7.601   5.729  26.044  1.00  0.00    +0.000 H 
ATOM    127  H34 UNL A   1       5.606  10.190  24.862  1.00  0.00    +0.000 H 
ATOM    128  H35 UNL A   1       7.549  11.254  26.143  1.00  0.00    +0.000 H 
ENDROOT
BRANCH   29   28
ATOM    131  H38 UNL A   1       5.874   1.365  27.375  1.00  0.00    +0.000 H 
ATOM    132  H39 UNL A   1       5.301  -0.962  27.020  1.00  0.00    +0.000 H 
ATOM    120  H27 UNL A   1       8.223   1.310  23.879  1.00  0.00    +0.000 H 
ATOM     86  C63 UNL A   1       6.235   0.868  26.547  1.00  0.00    +0.000 C 
ATOM     87  C64 UNL A   1       5.872  -0.460  26.324  1.00  0.00    +0.000 C 
ATOM    119  H26 UNL A   1       7.486  -0.958  23.424  1.00  0.00    +0.000 H 
ATOM     25  C21 UNL A   1       6.282  -1.108  25.155  1.00  0.00    +0.000 C 
ATOM     26  C22 UNL A   1       7.151  -0.465  24.267  1.00  0.00    +0.000 C 
ATOM     27  C23 UNL A   1       7.564   0.845  24.523  1.00  0.00    +0.000 C 
ATOM     28  C24 UNL A   1       7.088   1.531  25.652  1.00  0.00    +0.000 C 
BRANCH   25   23
ATOM     23  C20 UNL A   1       5.857  -2.496  24.859  1.00  0.00    +0.000 C 
ATOM     24  O2  UNL A   1       4.861  -2.693  24.174  1.00  0.00    +0.000 O 
BRANCH   23   22
ATOM    118  H25 UNL A   1       6.252  -3.928  26.204  1.00  0.00    +0.000 H 
ATOM     22  N2  UNL A   1       6.574  -3.560  25.348  1.00  0.00    +0.000 N 
BRANCH   22   21
ATOM    117  H24 UNL A   1       7.624  -4.254  23.724  1.00  0.00    +0.000 H 
ATOM    116  H23 UNL A   1       7.807  -5.210  25.198  1.00  0.00    +0.000 H 
ATOM     21  C19 UNL A   1       7.741  -4.225  24.788  1.00  0.00    +0.000 C 
BRANCH   21   20
ATOM    114  H21 UNL A   1       9.854  -4.134  24.914  1.00  0.00    +0.000 H 
ATOM    115  H22 UNL A   1       9.036  -2.607  24.469  1.00  0.00    +0.000 H 
ATOM     20  C18 UNL A   1       9.033  -3.473  25.098  1.00  0.00    +0.000 C 
BRANCH   20   19
ATOM    113  H20 UNL A   1       9.694  -3.710  27.072  1.00  0.00    +0.000 H 
ATOM     19  C17 UNL A   1       9.151  -2.959  26.537  1.00  0.00    +0.000 C 
ATOM    112  H19 UNL A   1       8.162  -2.792  26.909  1.00  0.00    +0.000 H 
BRANCH   19   18
ATOM     18  C16 UNL A   1       9.948  -1.660  26.717  1.00  0.00    +0.000 C 
ATOM    110  H17 UNL A   1      10.347  -1.383  25.763  1.00  0.00    +0.000 H 
ATOM    111  H18 UNL A   1       9.262  -0.945  27.120  1.00  0.00    +0.000 H 
BRANCH   18   17
ATOM     17  C15 UNL A   1      11.112  -1.737  27.712  1.00  0.00    +0.000 C 
ATOM    108  H15 UNL A   1      11.393  -0.740  27.978  1.00  0.00    +0.000 H 
ATOM    109  H16 UNL A   1      10.766  -2.306  28.549  1.00  0.00    +0.000 H 
BRANCH   17   16
ATOM    106  H13 UNL A   1      13.187  -2.219  27.790  1.00  0.00    +0.000 H 
ATOM    107  H14 UNL A   1      12.148  -3.507  27.172  1.00  0.00    +0.000 H 
ATOM     16  C14 UNL A   1      12.349  -2.456  27.168  1.00  0.00    +0.000 C 
BRANCH   16   15
ATOM    105  H12 UNL A   1      12.000  -2.379  25.140  1.00  0.00    +0.000 H 
ATOM     15  N1  UNL A   1      12.652  -2.065  25.807  1.00  0.00    +0.000 N 
BRANCH   15   13
ATOM     13  C13 UNL A   1      13.680  -1.336  25.289  1.00  0.00    +0.000 C 
ATOM     14  O1  UNL A   1      14.632  -1.980  24.830  1.00  0.00    +0.000 O 
BRANCH   13   11
ATOM     11  C11 UNL A   1      13.716   0.199  25.274  1.00  0.00    +0.000 C 
ATOM    101  H8  UNL A   1      14.700   0.460  24.943  1.00  0.00    +0.000 H 
BRANCH   11   10
ATOM     99  H6  UNL A   1      12.692   1.667  20.976  1.00  0.00    +0.000 H 
ATOM    100  H7  UNL A   1      14.075   0.498  22.561  1.00  0.00    +0.000 H 
ATOM    133  H40 UNL A   1      11.260   1.269  25.570  1.00  0.00    +0.000 H 
ATOM    134  H41 UNL A   1       9.797   2.294  23.943  1.00  0.00    +0.000 H 
ATOM      7  C7  UNL A   1      11.112   2.088  22.306  1.00  0.00    +0.000 C 
ATOM      8  C8  UNL A   1      12.366   1.566  21.951  1.00  0.00    +0.000 C 
ATOM      9  C9  UNL A   1      13.184   0.913  22.875  1.00  0.00    +0.000 C 
ATOM     10  C10 UNL A   1      12.814   0.815  24.217  1.00  0.00    +0.000 C 
ATOM     88  C65 UNL A   1      11.565   1.336  24.587  1.00  0.00    +0.000 C 
ATOM     89  C66 UNL A   1      10.722   1.944  23.645  1.00  0.00    +0.000 C 
BRANCH    7    6
ATOM     97  H4  UNL A   1       8.323   6.679  21.311  1.00  0.00    +0.000 H 
ATOM      2  C2  UNL A   1       7.482   5.997  19.449  1.00  0.00    +0.000 C 
ATOM      3  C3  UNL A   1       8.247   5.940  20.594  1.00  0.00    +0.000 C 
ATOM      4  C4  UNL A   1       8.912   4.687  20.611  1.00  0.00    +0.000 C 
ATOM      5  C5  UNL A   1       9.796   4.068  21.514  1.00  0.00    +0.000 C 
ATOM     98  H5  UNL A   1      10.108   4.582  22.353  1.00  0.00    +0.000 H 
ATOM      6  C6  UNL A   1      10.265   2.756  21.292  1.00  0.00    +0.000 C 
ATOM    136  H43 UNL A   1       8.740   2.230  18.304  1.00  0.00    +0.000 H 
ATOM    137  H44 UNL A   1       7.269   4.598  17.899  1.00  0.00    +0.000 H 
ATOM    135  H42 UNL A   1      10.211   1.155  19.922  1.00  0.00    +0.000 H 
ATOM     90  C67 UNL A   1       9.865   2.110  20.109  1.00  0.00    +0.000 C 
ATOM     91  C68 UNL A   1       9.010   2.715  19.173  1.00  0.00    +0.000 C 
ATOM     92  C69 UNL A   1       8.539   4.000  19.462  1.00  0.00    +0.000 C 
ATOM     93  N7  UNL A   1       7.682   4.821  18.765  1.00  0.00    +0.000 N 
BRANCH    2    1
ATOM      1  C1  UNL A   1       6.583   7.061  18.943  1.00  0.00    +0.000 C 
ATOM     94  H1  UNL A   1       5.926   6.652  18.203  1.00  0.00    +0.000 H 
ATOM     95  H2  UNL A   1       7.166   7.845  18.508  1.00  0.00    +0.000 H 
ATOM     96  H3  UNL A   1       6.005   7.455  19.753  1.00  0.00    +0.000 H 
ENDBRANCH    2    1
ENDBRANCH    7    6
ENDBRANCH   11   10
BRANCH   11   12
ATOM     12  C12 UNL A   1      13.656   0.841  26.661  1.00  0.00    +0.000 C 
ATOM    102  H9  UNL A   1      13.699   0.078  27.410  1.00  0.00    +0.000 H 
ATOM    103  H10 UNL A   1      12.741   1.388  26.762  1.00  0.00    +0.000 H 
ATOM    104  H11 UNL A   1      14.485   1.507  26.783  1.00  0.00    +0.000 H 
ENDBRANCH   11   12
ENDBRANCH   13   11
ENDBRANCH   15   13
ENDBRANCH   16   15
ENDBRANCH   17   16
ENDBRANCH   18   17
ENDBRANCH   19   18
ENDBRANCH   20   19
ENDBRANCH   21   20
ENDBRANCH   22   21
ENDBRANCH   23   22
ENDBRANCH   25   23
ENDBRANCH   29   28
BRANCH   33   34
ATOM     34  C29 UNL A   1      12.068   4.382  29.575  1.00  0.00    +0.000 C 
ATOM     35  C30 UNL A   1      11.942   4.297  30.969  1.00  0.00    +0.000 C 
ATOM     36  F1  UNL A   1      10.853   4.785  31.580  1.00  0.00    +0.000 F 
ATOM     37  C31 UNL A   1      12.955   3.741  31.746  1.00  0.00    +0.000 C 
ATOM     38  F2  UNL A   1      12.834   3.713  33.081  1.00  0.00    +0.000 F 
ATOM     39  C32 UNL A   1      14.095   3.232  31.144  1.00  0.00    +0.000 C 
ATOM     40  F3  UNL A   1      15.067   2.693  31.893  1.00  0.00    +0.000 F 
ATOM     41  C33 UNL A   1      14.232   3.286  29.765  1.00  0.00    +0.000 C 
ATOM     42  F4  UNL A   1      15.327   2.784  29.181  1.00  0.00    +0.000 F 
ATOM     43  C34 UNL A   1      13.232   3.866  28.986  1.00  0.00    +0.000 C 
ATOM     44  F5  UNL A   1      13.399   3.917  27.657  1.00  0.00    +0.000 F 
ENDBRANCH   33   34
BRANCH   50   51
ATOM     51  C40 UNL A   1       9.638  10.899  27.674  1.00  0.00    +0.000 C 
ATOM     52  C41 UNL A   1      10.689  11.513  26.977  1.00  0.00    +0.000 C 
ATOM     53  F6  UNL A   1      11.434  10.802  26.116  1.00  0.00    +0.000 F 
ATOM     54  C42 UNL A   1      11.003  12.852  27.195  1.00  0.00    +0.000 C 
ATOM     55  F7  UNL A   1      12.039  13.407  26.551  1.00  0.00    +0.000 F 
ATOM     56  C43 UNL A   1      10.255  13.607  28.084  1.00  0.00    +0.000 C 
ATOM     57  F8  UNL A   1      10.556  14.898  28.287  1.00  0.00    +0.000 F 
ATOM     58  C44 UNL A   1       9.200  13.024  28.771  1.00  0.00    +0.000 C 
ATOM     59  F9  UNL A   1       8.469  13.757  29.623  1.00  0.00    +0.000 F 
ATOM     60  C45 UNL A   1       8.900  11.680  28.576  1.00  0.00    +0.000 C 
ATOM     61  F10 UNL A   1       7.882  11.139  29.263  1.00  0.00    +0.000 F 
ENDBRANCH   50   51
BRANCH   65   66
ATOM     66  C49 UNL A   1       4.590   7.872  23.956  1.00  0.00    +0.000 C 
ATOM     67  C50 UNL A   1       4.753   8.099  22.582  1.00  0.00    +0.000 C 
ATOM     68  F11 UNL A   1       5.936   7.853  21.999  1.00  0.00    +0.000 F 
ATOM     69  C51 UNL A   1       3.716   8.618  21.811  1.00  0.00    +0.000 C 
ATOM     70  F12 UNL A   1       3.912   8.866  20.509  1.00  0.00    +0.000 F 
ATOM     71  C52 UNL A   1       2.488   8.893  22.392  1.00  0.00    +0.000 C 
ATOM     72  F13 UNL A   1       1.489   9.391  21.649  1.00  0.00    +0.000 F 
ATOM     73  C53 UNL A   1       2.298   8.660  23.746  1.00  0.00    +0.000 C 
ATOM     74  F14 UNL A   1       1.107   8.913  24.308  1.00  0.00    +0.000 F 
ATOM     75  C54 UNL A   1       3.342   8.164  24.524  1.00  0.00    +0.000 C 
ATOM     76  F15 UNL A   1       3.135   7.960  25.833  1.00  0.00    +0.000 F 
ENDBRANCH   65   66
TORSDOF 19
ENDMDL
MODEL 2
REMARK VINA RESULT:      -9.2     54.616     61.436
ROOT
ATOM    129  H36 UNL A   1      45.921  54.243  15.121  1.00  0.00    +0.000 H 
ATOM    130  H37 UNL A   1      44.890  52.135  16.145  1.00  0.00    +0.000 H 
ATOM     29  C25 UNL A   1      46.543  50.882  18.097  1.00  0.00    +0.000 C 
ATOM     30  C26 UNL A   1      46.784  52.187  17.391  1.00  0.00    +0.000 C 
ATOM     31  N3  UNL A   1      47.783  53.025  17.514  1.00  0.00    +0.000 N 
ATOM     32  C27 UNL A   1      47.535  54.045  16.605  1.00  0.00    +0.000 C 
ATOM     33  C28 UNL A   1      48.247  55.177  16.391  1.00  0.00    +0.000 C 
ATOM     45  C35 UNL A   1      49.443  55.532  17.109  1.00  0.00    +0.000 C 
ATOM     46  C36 UNL A   1      50.210  56.679  16.996  1.00  0.00    +0.000 C 
ATOM     47  C37 UNL A   1      51.295  56.567  17.873  1.00  0.00    +0.000 C 
ATOM     48  C38 UNL A   1      51.182  55.370  18.561  1.00  0.00    +0.000 C 
ATOM     49  N4  UNL A   1      50.044  54.742  18.076  1.00  0.00    +0.000 N 
ATOM     50  C39 UNL A   1      52.045  54.837  19.582  1.00  0.00    +0.000 C 
ATOM     62  C46 UNL A   1      51.865  53.650  20.211  1.00  0.00    +0.000 C 
ATOM     63  N5  UNL A   1      50.852  52.717  20.040  1.00  0.00    +0.000 N 
ATOM     64  C47 UNL A   1      51.123  51.736  20.867  1.00  0.00    +0.000 C 
ATOM     65  C48 UNL A   1      50.350  50.473  21.127  1.00  0.00    +0.000 C 
ATOM     77  C55 UNL A   1      49.198  50.256  20.463  1.00  0.00    +0.000 C 
ATOM     78  C56 UNL A   1      48.342  49.083  20.612  1.00  0.00    +0.000 C 
ATOM     79  C57 UNL A   1      47.307  49.186  19.762  1.00  0.00    +0.000 C 
ATOM     80  C58 UNL A   1      47.411  50.450  19.032  1.00  0.00    +0.000 C 
ATOM     81  N6  UNL A   1      48.559  51.023  19.520  1.00  0.00    +0.000 N 
ATOM     82  C59 UNL A   1      52.361  51.925  21.636  1.00  0.00    +0.000 C 
ATOM     83  C60 UNL A   1      52.752  53.123  21.227  1.00  0.00    +0.000 C 
ATOM     84  C61 UNL A   1      46.318  53.699  15.903  1.00  0.00    +0.000 C 
ATOM     85  C62 UNL A   1      45.781  52.592  16.395  1.00  0.00    +0.000 C 
ATOM    121  H28 UNL A   1      50.015  57.478  16.374  1.00  0.00    +0.000 H 
ATOM    122  H29 UNL A   1      52.052  57.260  17.987  1.00  0.00    +0.000 H 
ATOM    123  H30 UNL A   1      49.712  53.865  18.376  1.00  0.00    +0.000 H 
ATOM    124  H31 UNL A   1      48.505  48.302  21.266  1.00  0.00    +0.000 H 
ATOM    125  H32 UNL A   1      46.559  48.486  19.643  1.00  0.00    +0.000 H 
ATOM    126  H33 UNL A   1      48.893  51.900  19.222  1.00  0.00    +0.000 H 
ATOM    127  H34 UNL A   1      52.808  51.290  22.317  1.00  0.00    +0.000 H 
ATOM    128  H35 UNL A   1      53.582  53.619  21.589  1.00  0.00    +0.000 H 
ENDROOT
BRANCH   29   28
ATOM    131  H38 UNL A   1      44.024  51.038  18.992  1.00  0.00    +0.000 H 
ATOM    132  H39 UNL A   1      42.140  49.603  18.477  1.00  0.00    +0.000 H 
ATOM    120  H27 UNL A   1      46.441  48.782  16.382  1.00  0.00    +0.000 H 
ATOM     86  C63 UNL A   1      44.134  50.269  18.313  1.00  0.00    +0.000 C 
ATOM     87  C64 UNL A   1      43.038  49.470  17.989  1.00  0.00    +0.000 C 
ATOM    119  H26 UNL A   1      44.504  47.477  15.722  1.00  0.00    +0.000 H 
ATOM     25  C21 UNL A   1      43.159  48.488  17.001  1.00  0.00    +0.000 C 
ATOM     26  C22 UNL A   1      44.406  48.229  16.422  1.00  0.00    +0.000 C 
ATOM     27  C23 UNL A   1      45.518  48.989  16.793  1.00  0.00    +0.000 C 
ATOM     28  C24 UNL A   1      45.384  50.033  17.722  1.00  0.00    +0.000 C 
BRANCH   25   23
ATOM     23  C20 UNL A   1      41.996  47.669  16.589  1.00  0.00    +0.000 C 
ATOM     24  O2  UNL A   1      41.249  48.076  15.708  1.00  0.00    +0.000 O 
BRANCH   23   22
ATOM    118  H25 UNL A   1      41.418  46.504  18.113  1.00  0.00    +0.000 H 
ATOM     22  N2  UNL A   1      41.754  46.456  17.188  1.00  0.00    +0.000 N 
BRANCH   22   21
ATOM    117  H24 UNL A   1      41.671  45.137  15.615  1.00  0.00    +0.000 H 
ATOM    116  H23 UNL A   1      41.276  44.447  17.192  1.00  0.00    +0.000 H 
ATOM     21  C19 UNL A   1      41.920  45.113  16.656  1.00  0.00    +0.000 C 
BRANCH   21   20
ATOM    114  H21 UNL A   1      43.361  43.560  16.632  1.00  0.00    +0.000 H 
ATOM    115  H22 UNL A   1      43.927  45.154  16.052  1.00  0.00    +0.000 H 
ATOM     20  C18 UNL A   1      43.359  44.619  16.785  1.00  0.00    +0.000 C 
BRANCH   20   19
ATOM    113  H20 UNL A   1      44.124  45.970  18.191  1.00  0.00    +0.000 H 
ATOM     19  C17 UNL A   1      44.022  44.906  18.137  1.00  0.00    +0.000 C 
ATOM    112  H19 UNL A   1      44.952  44.379  18.165  1.00  0.00    +0.000 H 
BRANCH   19   18
ATOM     18  C16 UNL A   1      43.211  44.501  19.375  1.00  0.00    +0.000 C 
ATOM    110  H17 UNL A   1      43.794  44.735  20.242  1.00  0.00    +0.000 H 
ATOM    111  H18 UNL A   1      42.291  45.044  19.317  1.00  0.00    +0.000 H 
BRANCH   18   17
ATOM     17  C15 UNL A   1      42.825  43.020  19.450  1.00  0.00    +0.000 C 
ATOM    108  H15 UNL A   1      42.106  42.820  18.684  1.00  0.00    +0.000 H 
ATOM    109  H16 UNL A   1      43.727  42.458  19.326  1.00  0.00    +0.000 H 
BRANCH   17   16
ATOM    106  H13 UNL A   1      41.162  42.522  20.688  1.00  0.00    +0.000 H 
ATOM    107  H14 UNL A   1      42.656  41.661  21.070  1.00  0.00    +0.000 H 
ATOM     16  C14 UNL A   1      42.224  42.600  20.794  1.00  0.00    +0.000 C 
BRANCH   16   15
ATOM    105  H12 UNL A   1      41.956  44.360  21.829  1.00  0.00    +0.000 H 
ATOM     15  N1  UNL A   1      42.519  43.554  21.843  1.00  0.00    +0.000 N 
BRANCH   15   13
ATOM     13  C13 UNL A   1      43.440  43.529  22.847  1.00  0.00    +0.000 C 
ATOM     14  O1  UNL A   1      43.118  44.092  23.901  1.00  0.00    +0.000 O 
BRANCH   13   11
ATOM     11  C11 UNL A   1      44.824  42.875  22.722  1.00  0.00    +0.000 C 
ATOM    101  H8  UNL A   1      44.657  41.942  22.225  1.00  0.00    +0.000 H 
BRANCH   11   10
ATOM     99  H6  UNL A   1      46.932  46.664  21.029  1.00  0.00    +0.000 H 
ATOM    100  H7  UNL A   1      45.605  45.513  22.674  1.00  0.00    +0.000 H 
ATOM    133  H40 UNL A   1      46.224  41.904  20.633  1.00  0.00    +0.000 H 
ATOM    134  H41 UNL A   1      47.691  43.032  19.079  1.00  0.00    +0.000 H 
ATOM      7  C7  UNL A   1      47.441  44.959  19.901  1.00  0.00    +0.000 C 
ATOM      8  C8  UNL A   1      46.806  45.643  20.949  1.00  0.00    +0.000 C 
ATOM      9  C9  UNL A   1      46.011  44.982  21.888  1.00  0.00    +0.000 C 
ATOM     10  C10 UNL A   1      45.759  43.614  21.779  1.00  0.00    +0.000 C 
ATOM     88  C65 UNL A   1      46.384  42.919  20.733  1.00  0.00    +0.000 C 
ATOM     89  C66 UNL A   1      47.225  43.576  19.822  1.00  0.00    +0.000 C 
BRANCH    7    6
ATOM     97  H4  UNL A   1      47.418  47.233  14.933  1.00  0.00    +0.000 H 
ATOM      2  C2  UNL A   1      49.514  47.728  14.935  1.00  0.00    +0.000 C 
ATOM      3  C3  UNL A   1      48.323  47.241  15.429  1.00  0.00    +0.000 C 
ATOM      4  C4  UNL A   1      48.563  46.752  16.739  1.00  0.00    +0.000 C 
ATOM      5  C5  UNL A   1      47.752  46.138  17.711  1.00  0.00    +0.000 C 
ATOM     98  H5  UNL A   1      46.744  46.012  17.526  1.00  0.00    +0.000 H 
ATOM      6  C6  UNL A   1      48.292  45.693  18.936  1.00  0.00    +0.000 C 
ATOM    136  H43 UNL A   1      51.479  46.756  18.439  1.00  0.00    +0.000 H 
ATOM    137  H44 UNL A   1      51.404  47.841  15.841  1.00  0.00    +0.000 H 
ATOM    135  H42 UNL A   1      50.065  45.629  20.073  1.00  0.00    +0.000 H 
ATOM     90  C67 UNL A   1      49.656  45.934  19.176  1.00  0.00    +0.000 C 
ATOM     91  C68 UNL A   1      50.483  46.574  18.238  1.00  0.00    +0.000 C 
ATOM     92  C69 UNL A   1      49.908  46.956  17.022  1.00  0.00    +0.000 C 
ATOM     93  N7  UNL A   1      50.462  47.564  15.918  1.00  0.00    +0.000 N 
BRANCH    2    1
ATOM      1  C1  UNL A   1      49.836  48.335  13.621  1.00  0.00    +0.000 C 
ATOM     94  H1  UNL A   1      50.847  48.103  13.359  1.00  0.00    +0.000 H 
ATOM     95  H2  UNL A   1      49.718  49.397  13.680  1.00  0.00    +0.000 H 
ATOM     96  H3  UNL A   1      49.176  47.944  12.876  1.00  0.00    +0.000 H 
ENDBRANCH    2    1
ENDBRANCH    7    6
ENDBRANCH   11   10
BRANCH   11   12
ATOM     12  C12 UNL A   1      45.431  42.431  24.054  1.00  0.00    +0.000 C 
ATOM    102  H9  UNL A   1      45.575  41.371  24.046  1.00  0.00    +0.000 H 
ATOM    103  H10 UNL A   1      44.769  42.694  24.853  1.00  0.00    +0.000 H 
ATOM    104  H11 UNL A   1      46.373  42.918  24.198  1.00  0.00    +0.000 H 
ENDBRANCH   11   12
ENDBRANCH   13   11
ENDBRANCH   15   13
ENDBRANCH   16   15
ENDBRANCH   17   16
ENDBRANCH   18   17
ENDBRANCH   19   18
ENDBRANCH   20   19
ENDBRANCH   21   20
ENDBRANCH   22   21
ENDBRANCH   23   22
ENDBRANCH   25   23
ENDBRANCH   29   28
BRANCH   33   34
ATOM     34  C29 UNL A   1      47.743  56.122  15.338  1.00  0.00    +0.000 C 
ATOM     35  C30 UNL A   1      47.014  57.271  15.675  1.00  0.00    +0.000 C 
ATOM     36  F1  UNL A   1      46.711  57.527  16.955  1.00  0.00    +0.000 F 
ATOM     37  C31 UNL A   1      46.558  58.144  14.690  1.00  0.00    +0.000 C 
ATOM     38  F2  UNL A   1      45.823  59.211  15.030  1.00  0.00    +0.000 F 
ATOM     39  C32 UNL A   1      46.851  57.903  13.356  1.00  0.00    +0.000 C 
ATOM     40  F3  UNL A   1      46.417  58.747  12.410  1.00  0.00    +0.000 F 
ATOM     41  C33 UNL A   1      47.590  56.784  13.002  1.00  0.00    +0.000 C 
ATOM     42  F4  UNL A   1      47.884  56.556  11.715  1.00  0.00    +0.000 F 
ATOM     43  C34 UNL A   1      48.023  55.894  13.982  1.00  0.00    +0.000 C 
ATOM     44  F5  UNL A   1      48.723  54.813  13.608  1.00  0.00    +0.000 F 
ENDBRANCH   33   34
BRANCH   50   51
ATOM     51  C40 UNL A   1      53.223  55.665  20.002  1.00  0.00    +0.000 C 
ATOM     52  C41 UNL A   1      53.104  56.677  20.966  1.00  0.00    +0.000 C 
ATOM     53  F6  UNL A   1      51.906  56.964  21.499  1.00  0.00    +0.000 F 
ATOM     54  C42 UNL A   1      54.211  57.426  21.355  1.00  0.00    +0.000 C 
ATOM     55  F7  UNL A   1      54.067  58.418  22.244  1.00  0.00    +0.000 F 
ATOM     56  C43 UNL A   1      55.459  57.156  20.815  1.00  0.00    +0.000 C 
ATOM     57  F8  UNL A   1      56.525  57.874  21.195  1.00  0.00    +0.000 F 
ATOM     58  C44 UNL A   1      55.603  56.147  19.873  1.00  0.00    +0.000 C 
ATOM     59  F9  UNL A   1      56.810  55.878  19.358  1.00  0.00    +0.000 F 
ATOM     60  C45 UNL A   1      54.493  55.415  19.462  1.00  0.00    +0.000 C 
ATOM     61  F10 UNL A   1      54.659  54.453  18.541  1.00  0.00    +0.000 F 
ENDBRANCH   50   51
BRANCH   65   66
ATOM     66  C49 UNL A   1      50.826  49.483  22.127  1.00  0.00    +0.000 C 
ATOM     67  C50 UNL A   1      51.729  48.474  21.761  1.00  0.00    +0.000 C 
ATOM     68  F11 UNL A   1      52.158  48.387  20.493  1.00  0.00    +0.000 F 
ATOM     69  C51 UNL A   1      52.161  47.527  22.686  1.00  0.00    +0.000 C 
ATOM     70  F12 UNL A   1      52.990  46.547  22.301  1.00  0.00    +0.000 F 
ATOM     71  C52 UNL A   1      51.723  47.587  24.000  1.00  0.00    +0.000 C 
ATOM     72  F13 UNL A   1      52.141  46.676  24.891  1.00  0.00    +0.000 F 
ATOM     73  C53 UNL A   1      50.843  48.586  24.388  1.00  0.00    +0.000 C 
ATOM     74  F14 UNL A   1      50.427  48.655  25.661  1.00  0.00    +0.000 F 
ATOM     75  C54 UNL A   1      50.390  49.519  23.458  1.00  0.00    +0.000 C 
ATOM     76  F15 UNL A   1      49.530  50.468  23.858  1.00  0.00    +0.000 F 
ENDBRANCH   65   66
TORSDOF 19
ENDMDL
MODEL 3
REMARK VINA RESULT:      -9.1      4.381      9.468
ROOT
ATOM    129  H36 UNL A   1       7.849   4.404  24.548  1.00  0.00    +0.000 H 
ATOM    130  H37 UNL A   1       9.629   2.644  24.011  1.00  0.00    +0.000 H 
ATOM     29  C25 UNL A   1      10.826   2.968  21.447  1.00  0.00    +0.000 C 
ATOM     30  C26 UNL A   1       9.841   3.880  22.123  1.00  0.00    +0.000 C 
ATOM     31  N3  UNL A   1       9.326   5.006  21.696  1.00  0.00    +0.000 N 
ATOM     32  C27 UNL A   1       8.444   5.419  22.686  1.00  0.00    +0.000 C 
ATOM     33  C28 UNL A   1       7.707   6.553  22.744  1.00  0.00    +0.000 C 
ATOM     45  C35 UNL A   1       7.716   7.578  21.733  1.00  0.00    +0.000 C 
ATOM     46  C36 UNL A   1       7.039   8.786  21.721  1.00  0.00    +0.000 C 
ATOM     47  C37 UNL A   1       7.330   9.439  20.518  1.00  0.00    +0.000 C 
ATOM     48  C38 UNL A   1       8.219   8.657  19.799  1.00  0.00    +0.000 C 
ATOM     49  N4  UNL A   1       8.442   7.515  20.553  1.00  0.00    +0.000 N 
ATOM     50  C39 UNL A   1       8.821   8.928  18.520  1.00  0.00    +0.000 C 
ATOM     62  C46 UNL A   1       9.687   8.107  17.877  1.00  0.00    +0.000 C 
ATOM     63  N5  UNL A   1      10.186   6.877  18.282  1.00  0.00    +0.000 N 
ATOM     64  C47 UNL A   1      10.978   6.475  17.318  1.00  0.00    +0.000 C 
ATOM     65  C48 UNL A   1      11.809   5.225  17.231  1.00  0.00    +0.000 C 
ATOM     77  C55 UNL A   1      11.800   4.354  18.258  1.00  0.00    +0.000 C 
ATOM     78  C56 UNL A   1      12.553   3.105  18.318  1.00  0.00    +0.000 C 
ATOM     79  C57 UNL A   1      12.265   2.475  19.467  1.00  0.00    +0.000 C 
ATOM     80  C58 UNL A   1      11.330   3.293  20.241  1.00  0.00    +0.000 C 
ATOM     81  N6  UNL A   1      11.117   4.393  19.449  1.00  0.00    +0.000 N 
ATOM     82  C59 UNL A   1      11.046   7.396  16.174  1.00  0.00    +0.000 C 
ATOM     83  C60 UNL A   1      10.273   8.391  16.584  1.00  0.00    +0.000 C 
ATOM     84  C61 UNL A   1       8.457   4.399  23.714  1.00  0.00    +0.000 C 
ATOM     85  C62 UNL A   1       9.350   3.458  23.443  1.00  0.00    +0.000 C 
ATOM    121  H28 UNL A   1       6.426   9.143  22.470  1.00  0.00    +0.000 H 
ATOM    122  H29 UNL A   1       6.947  10.348  20.217  1.00  0.00    +0.000 H 
ATOM    123  H30 UNL A   1       9.029   6.769  20.290  1.00  0.00    +0.000 H 
ATOM    124  H31 UNL A   1      13.204   2.763  17.594  1.00  0.00    +0.000 H 
ATOM    125  H32 UNL A   1      12.642   1.559  19.759  1.00  0.00    +0.000 H 
ATOM    126  H33 UNL A   1      10.530   5.140  19.709  1.00  0.00    +0.000 H 
ATOM    127  H34 UNL A   1      11.561   7.294  15.286  1.00  0.00    +0.000 H 
ATOM    128  H35 UNL A   1      10.110   9.259  16.049  1.00  0.00    +0.000 H 
ENDROOT
BRANCH   29   28
ATOM    131  H38 UNL A   1      12.974   2.418  22.948  1.00  0.00    +0.000 H 
ATOM    132  H39 UNL A   1      13.658   0.295  23.897  1.00  0.00    +0.000 H 
ATOM    120  H27 UNL A   1       9.541   0.580  21.340  1.00  0.00    +0.000 H 
ATOM     86  C63 UNL A   1      12.379   1.584  22.825  1.00  0.00    +0.000 C 
ATOM     87  C64 UNL A   1      12.755   0.373  23.406  1.00  0.00    +0.000 C 
ATOM    119  H26 UNL A   1      10.130  -1.492  22.461  1.00  0.00    +0.000 H 
ATOM     25  C21 UNL A   1      11.906  -0.734  23.321  1.00  0.00    +0.000 C 
ATOM     26  C22 UNL A   1      10.737  -0.662  22.556  1.00  0.00    +0.000 C 
ATOM     27  C23 UNL A   1      10.392   0.535  21.923  1.00  0.00    +0.000 C 
ATOM     28  C24 UNL A   1      11.197   1.675  22.075  1.00  0.00    +0.000 C 
BRANCH   25   23
ATOM     23  C20 UNL A   1      12.248  -2.014  23.984  1.00  0.00    +0.000 C 
ATOM     24  O2  UNL A   1      13.201  -2.063  24.753  1.00  0.00    +0.000 O 
BRANCH   23   22
ATOM    118  H25 UNL A   1      11.481  -3.439  22.803  1.00  0.00    +0.000 H 
ATOM     22  N2  UNL A   1      11.502  -3.142  23.742  1.00  0.00    +0.000 N 
BRANCH   22   21
ATOM    117  H24 UNL A   1      11.434  -4.502  25.280  1.00  0.00    +0.000 H 
ATOM    116  H23 UNL A   1      10.117  -4.628  24.110  1.00  0.00    +0.000 H 
ATOM     21  C19 UNL A   1      10.740  -3.962  24.670  1.00  0.00    +0.000 C 
BRANCH   21   20
ATOM    114  H21 UNL A   1       9.982  -3.484  26.590  1.00  0.00    +0.000 H 
ATOM    115  H22 UNL A   1      10.180  -2.106  25.468  1.00  0.00    +0.000 H 
ATOM     20  C18 UNL A   1       9.861  -3.120  25.592  1.00  0.00    +0.000 C 
BRANCH   20   19
ATOM    113  H20 UNL A   1       7.927  -2.346  25.820  1.00  0.00    +0.000 H 
ATOM     19  C17 UNL A   1       8.365  -3.143  25.255  1.00  0.00    +0.000 C 
ATOM    112  H19 UNL A   1       7.987  -4.112  25.507  1.00  0.00    +0.000 H 
BRANCH   19   18
ATOM     18  C16 UNL A   1       8.008  -2.861  23.790  1.00  0.00    +0.000 C 
ATOM    110  H17 UNL A   1       8.743  -2.193  23.394  1.00  0.00    +0.000 H 
ATOM    111  H18 UNL A   1       7.985  -3.813  23.303  1.00  0.00    +0.000 H 
BRANCH   18   17
ATOM     17  C15 UNL A   1       6.628  -2.235  23.561  1.00  0.00    +0.000 C 
ATOM    108  H15 UNL A   1       5.978  -2.989  23.168  1.00  0.00    +0.000 H 
ATOM    109  H16 UNL A   1       6.298  -1.858  24.506  1.00  0.00    +0.000 H 
BRANCH   17   16
ATOM    106  H13 UNL A   1       7.631  -0.670  22.518  1.00  0.00    +0.000 H 
ATOM    107  H14 UNL A   1       6.284  -1.401  21.641  1.00  0.00    +0.000 H 
ATOM     16  C14 UNL A   1       6.634  -1.052  22.590  1.00  0.00    +0.000 C 
BRANCH   16   15
ATOM    105  H12 UNL A   1       4.862  -0.002  22.612  1.00  0.00    +0.000 H 
ATOM     15  N1  UNL A   1       5.756   0.014  23.025  1.00  0.00    +0.000 N 
BRANCH   15   13
ATOM     13  C13 UNL A   1       5.949   1.034  23.907  1.00  0.00    +0.000 C 
ATOM     14  O1  UNL A   1       5.933   2.178  23.434  1.00  0.00    +0.000 O 
BRANCH   13   11
ATOM     11  C11 UNL A   1       6.201   0.830  25.408  1.00  0.00    +0.000 C 
ATOM    101  H8  UNL A   1       6.189  -0.229  25.560  1.00  0.00    +0.000 H 
BRANCH   11   10
ATOM     99  H6  UNL A   1      10.805   0.253  25.787  1.00  0.00    +0.000 H 
ATOM    100  H7  UNL A   1       8.646  -0.323  24.891  1.00  0.00    +0.000 H 
ATOM    133  H40 UNL A   1       6.954   2.948  26.895  1.00  0.00    +0.000 H 
ATOM    134  H41 UNL A   1       9.147   3.620  27.656  1.00  0.00    +0.000 H 
ATOM      7  C7  UNL A   1      10.183   1.992  26.802  1.00  0.00    +0.000 C 
ATOM      8  C8  UNL A   1       9.992   0.849  26.010  1.00  0.00    +0.000 C 
ATOM      9  C9  UNL A   1       8.735   0.496  25.514  1.00  0.00    +0.000 C 
ATOM     10  C10 UNL A   1       7.599   1.234  25.846  1.00  0.00    +0.000 C 
ATOM     88  C65 UNL A   1       7.775   2.377  26.641  1.00  0.00    +0.000 C 
ATOM     89  C66 UNL A   1       9.047   2.759  27.095  1.00  0.00    +0.000 C 
BRANCH    7    6
ATOM     97  H4  UNL A   1      15.402   0.380  26.699  1.00  0.00    +0.000 H 
ATOM      2  C2  UNL A   1      16.099   1.883  28.075  1.00  0.00    +0.000 C 
ATOM      3  C3  UNL A   1      15.195   1.200  27.290  1.00  0.00    +0.000 C 
ATOM      4  C4  UNL A   1      13.929   1.824  27.439  1.00  0.00    +0.000 C 
ATOM      5  C5  UNL A   1      12.651   1.569  26.910  1.00  0.00    +0.000 C 
ATOM     98  H5  UNL A   1      12.527   0.803  26.230  1.00  0.00    +0.000 H 
ATOM      6  C6  UNL A   1      11.535   2.344  27.293  1.00  0.00    +0.000 C 
ATOM    136  H43 UNL A   1      13.169   4.515  29.330  1.00  0.00    +0.000 H 
ATOM    137  H44 UNL A   1      15.824   3.576  29.285  1.00  0.00    +0.000 H 
ATOM    135  H42 UNL A   1      10.953   4.002  28.455  1.00  0.00    +0.000 H 
ATOM     90  C67 UNL A   1      11.755   3.415  28.176  1.00  0.00    +0.000 C 
ATOM     91  C68 UNL A   1      13.026   3.714  28.695  1.00  0.00    +0.000 C 
ATOM     92  C69 UNL A   1      14.090   2.889  28.318  1.00  0.00    +0.000 C 
ATOM     93  N7  UNL A   1      15.418   2.914  28.679  1.00  0.00    +0.000 N 
BRANCH    2    1
ATOM      1  C1  UNL A   1      17.545   1.652  28.304  1.00  0.00    +0.000 C 
ATOM     94  H1  UNL A   1      18.041   1.535  27.362  1.00  0.00    +0.000 H 
ATOM     95  H2  UNL A   1      17.676   0.766  28.889  1.00  0.00    +0.000 H 
ATOM     96  H3  UNL A   1      17.962   2.488  28.824  1.00  0.00    +0.000 H 
ENDBRANCH    2    1
ENDBRANCH    7    6
ENDBRANCH   11   10
BRANCH   11   12
ATOM     12  C12 UNL A   1       5.056   1.303  26.306  1.00  0.00    +0.000 C 
ATOM    102  H9  UNL A   1       4.696   0.481  26.888  1.00  0.00    +0.000 H 
ATOM    103  H10 UNL A   1       4.260   1.684  25.699  1.00  0.00    +0.000 H 
ATOM    104  H11 UNL A   1       5.408   2.075  26.958  1.00  0.00    +0.000 H 
ENDBRANCH   11   12
ENDBRANCH   13   11
ENDBRANCH   15   13
ENDBRANCH   16   15
ENDBRANCH   17   16
ENDBRANCH   18   17
ENDBRANCH   19   18
ENDBRANCH   20   19
ENDBRANCH   21   20
ENDBRANCH   22   21
ENDBRANCH   23   22
ENDBRANCH   25   23
ENDBRANCH   29   28
BRANCH   33   34
ATOM     34  C29 UNL A   1       6.832   6.750  23.947  1.00  0.00    +0.000 C 
ATOM     35  C30 UNL A   1       5.543   6.201  24.012  1.00  0.00    +0.000 C 
ATOM     36  F1  UNL A   1       5.047   5.518  22.971  1.00  0.00    +0.000 F 
ATOM     37  C31 UNL A   1       4.743   6.384  25.137  1.00  0.00    +0.000 C 
ATOM     38  F2  UNL A   1       3.497   5.890  25.159  1.00  0.00    +0.000 F 
ATOM     39  C32 UNL A   1       5.226   7.089  26.229  1.00  0.00    +0.000 C 
ATOM     40  F3  UNL A   1       4.457   7.260  27.313  1.00  0.00    +0.000 F 
ATOM     41  C33 UNL A   1       6.506   7.623  26.195  1.00  0.00    +0.000 C 
ATOM     42  F4  UNL A   1       6.979   8.294  27.253  1.00  0.00    +0.000 F 
ATOM     43  C34 UNL A   1       7.299   7.465  25.061  1.00  0.00    +0.000 C 
ATOM     44  F5  UNL A   1       8.527   8.005  25.052  1.00  0.00    +0.000 F 
ENDBRANCH   33   34
BRANCH   50   51
ATOM     51  C40 UNL A   1       8.484  10.228  17.852  1.00  0.00    +0.000 C 
ATOM     52  C41 UNL A   1       7.388  10.347  16.985  1.00  0.00    +0.000 C 
ATOM     53  F6  UNL A   1       6.640   9.272  16.692  1.00  0.00    +0.000 F 
ATOM     54  C42 UNL A   1       7.081  11.565  16.385  1.00  0.00    +0.000 C 
ATOM     55  F7  UNL A   1       6.056  11.647  15.526  1.00  0.00    +0.000 F 
ATOM     56  C43 UNL A   1       7.841  12.691  16.665  1.00  0.00    +0.000 C 
ATOM     57  F8  UNL A   1       7.540  13.863  16.090  1.00  0.00    +0.000 F 
ATOM     58  C44 UNL A   1       8.920  12.599  17.533  1.00  0.00    +0.000 C 
ATOM     59  F9  UNL A   1       9.649  13.689  17.811  1.00  0.00    +0.000 F 
ATOM     60  C45 UNL A   1       9.246  11.378  18.113  1.00  0.00    +0.000 C 
ATOM     61  F10 UNL A   1      10.302  11.316  18.939  1.00  0.00    +0.000 F 
ENDBRANCH   50   51
BRANCH   65   66
ATOM     66  C49 UNL A   1      12.660   4.959  16.042  1.00  0.00    +0.000 C 
ATOM     67  C50 UNL A   1      12.145   4.274  14.932  1.00  0.00    +0.000 C 
ATOM     68  F11 UNL A   1      10.877   3.837  14.945  1.00  0.00    +0.000 F 
ATOM     69  C51 UNL A   1      12.943   3.999  13.824  1.00  0.00    +0.000 C 
ATOM     70  F12 UNL A   1      12.439   3.304  12.795  1.00  0.00    +0.000 F 
ATOM     71  C52 UNL A   1      14.260   4.428  13.792  1.00  0.00    +0.000 C 
ATOM     72  F13 UNL A   1      15.027   4.165  12.724  1.00  0.00    +0.000 F 
ATOM     73  C53 UNL A   1      14.786   5.123  14.871  1.00  0.00    +0.000 C 
ATOM     74  F14 UNL A   1      16.057   5.550  14.838  1.00  0.00    +0.000 F 
ATOM     75  C54 UNL A   1      13.997   5.376  15.991  1.00  0.00    +0.000 C 
ATOM     76  F15 UNL A   1      14.534   6.039  17.026  1.00  0.00    +0.000 F 
ENDBRANCH   65   66
TORSDOF 19
ENDMDL
MODEL 4
REMARK VINA RESULT:      -9.1     45.594     52.354
ROOT
ATOM    129  H36 UNL A   1      11.988  49.987   5.939  1.00  0.00    +0.000 H 
ATOM    130  H37 UNL A   1      12.100  52.502   6.403  1.00  0.00    +0.000 H 
ATOM     29  C25 UNL A   1      13.968  53.889   4.761  1.00  0.00    +0.000 C 
ATOM     30  C26 UNL A   1      13.567  52.443   4.676  1.00  0.00    +0.000 C 
ATOM     31  N3  UNL A   1      13.974  51.517   3.844  1.00  0.00    +0.000 N 
ATOM     32  C27 UNL A   1      13.324  50.352   4.227  1.00  0.00    +0.000 C 
ATOM     33  C28 UNL A   1      13.366  49.130   3.646  1.00  0.00    +0.000 C 
ATOM     45  C35 UNL A   1      14.134  48.817   2.468  1.00  0.00    +0.000 C 
ATOM     46  C36 UNL A   1      14.206  47.620   1.776  1.00  0.00    +0.000 C 
ATOM     47  C37 UNL A   1      15.105  47.782   0.716  1.00  0.00    +0.000 C 
ATOM     48  C38 UNL A   1      15.560  49.090   0.722  1.00  0.00    +0.000 C 
ATOM     49  N4  UNL A   1      14.962  49.712   1.808  1.00  0.00    +0.000 N 
ATOM     50  C39 UNL A   1      16.473  49.727  -0.190  1.00  0.00    +0.000 C 
ATOM     62  C46 UNL A   1      16.873  51.020  -0.116  1.00  0.00    +0.000 C 
ATOM     63  N5  UNL A   1      16.508  51.994   0.803  1.00  0.00    +0.000 N 
ATOM     64  C47 UNL A   1      17.166  53.076   0.462  1.00  0.00    +0.000 C 
ATOM     65  C48 UNL A   1      17.135  54.443   1.086  1.00  0.00    +0.000 C 
ATOM     77  C55 UNL A   1      16.328  54.668   2.141  1.00  0.00    +0.000 C 
ATOM     78  C56 UNL A   1      16.190  55.938   2.847  1.00  0.00    +0.000 C 
ATOM     79  C57 UNL A   1      15.336  55.778   3.871  1.00  0.00    +0.000 C 
ATOM     80  C58 UNL A   1      14.842  54.401   3.872  1.00  0.00    +0.000 C 
ATOM     81  N6  UNL A   1      15.478  53.818   2.806  1.00  0.00    +0.000 N 
ATOM     82  C59 UNL A   1      18.050  52.898  -0.699  1.00  0.00    +0.000 C 
ATOM     83  C60 UNL A   1      17.804  51.640  -1.036  1.00  0.00    +0.000 C 
ATOM     84  C61 UNL A   1      12.532  50.675   5.395  1.00  0.00    +0.000 C 
ATOM     85  C62 UNL A   1      12.599  51.968   5.675  1.00  0.00    +0.000 C 
ATOM    121  H28 UNL A   1      13.687  46.758   2.003  1.00  0.00    +0.000 H 
ATOM    122  H29 UNL A   1      15.381  47.050   0.043  1.00  0.00    +0.000 H 
ATOM    123  H30 UNL A   1      15.103  50.651   2.070  1.00  0.00    +0.000 H 
ATOM    124  H31 UNL A   1      16.670  56.817   2.598  1.00  0.00    +0.000 H 
ATOM    125  H32 UNL A   1      15.071  56.510   4.549  1.00  0.00    +0.000 H 
ATOM    126  H33 UNL A   1      15.338  52.880   2.541  1.00  0.00    +0.000 H 
ATOM    127  H34 UNL A   1      18.694  53.576  -1.138  1.00  0.00    +0.000 H 
ATOM    128  H35 UNL A   1      18.221  51.164  -1.850  1.00  0.00    +0.000 H 
ENDROOT
BRANCH   29   28
ATOM    131  H38 UNL A   1      11.707  55.323   4.822  1.00  0.00    +0.000 H 
ATOM    132  H39 UNL A   1      10.897  56.804   6.560  1.00  0.00    +0.000 H 
ATOM    120  H27 UNL A   1      15.080  54.419   7.180  1.00  0.00    +0.000 H 
ATOM     86  C63 UNL A   1      12.242  55.428   5.698  1.00  0.00    +0.000 C 
ATOM     87  C64 UNL A   1      11.753  56.249   6.713  1.00  0.00    +0.000 C 
ATOM    119  H26 UNL A   1      14.162  55.746   8.993  1.00  0.00    +0.000 H 
ATOM     25  C21 UNL A   1      12.424  56.321   7.937  1.00  0.00    +0.000 C 
ATOM     26  C22 UNL A   1      13.646  55.661   8.103  1.00  0.00    +0.000 C 
ATOM     27  C23 UNL A   1      14.167  54.887   7.063  1.00  0.00    +0.000 C 
ATOM     28  C24 UNL A   1      13.455  54.743   5.862  1.00  0.00    +0.000 C 
BRANCH   25   23
ATOM     23  C20 UNL A   1      11.893  57.133   9.056  1.00  0.00    +0.000 C 
ATOM     24  O2  UNL A   1      12.056  58.348   9.054  1.00  0.00    +0.000 O 
BRANCH   23   22
ATOM    118  H25 UNL A   1      11.057  57.107  10.876  1.00  0.00    +0.000 H 
ATOM     22  N2  UNL A   1      11.219  56.533  10.092  1.00  0.00    +0.000 N 
BRANCH   22   21
ATOM    117  H24 UNL A   1      10.620  54.777   9.211  1.00  0.00    +0.000 H 
ATOM    116  H23 UNL A   1       9.763  55.200  10.696  1.00  0.00    +0.000 H 
ATOM     21  C19 UNL A   1      10.711  55.175  10.200  1.00  0.00    +0.000 C 
BRANCH   21   20
ATOM    114  H21 UNL A   1      12.515  54.844  11.261  1.00  0.00    +0.000 H 
ATOM    115  H22 UNL A   1      11.098  53.911  11.827  1.00  0.00    +0.000 H 
ATOM     20  C18 UNL A   1      11.656  54.269  10.986  1.00  0.00    +0.000 C 
BRANCH   20   19
ATOM    113  H20 UNL A   1      12.613  53.391   9.343  1.00  0.00    +0.000 H 
ATOM     19  C17 UNL A   1      12.137  53.026  10.229  1.00  0.00    +0.000 C 
ATOM    112  H19 UNL A   1      11.286  52.406  10.041  1.00  0.00    +0.000 H 
BRANCH   19   18
ATOM     18  C16 UNL A   1      13.192  52.175  10.949  1.00  0.00    +0.000 C 
ATOM    110  H17 UNL A   1      12.850  51.999  11.947  1.00  0.00    +0.000 H 
ATOM    111  H18 UNL A   1      13.299  51.283  10.368  1.00  0.00    +0.000 H 
BRANCH   18   17
ATOM     17  C15 UNL A   1      14.591  52.797  11.032  1.00  0.00    +0.000 C 
ATOM    108  H15 UNL A   1      15.111  52.577  10.123  1.00  0.00    +0.000 H 
ATOM    109  H16 UNL A   1      14.454  53.847  11.185  1.00  0.00    +0.000 H 
BRANCH   17   16
ATOM    106  H13 UNL A   1      16.267  52.938  12.340  1.00  0.00    +0.000 H 
ATOM    107  H14 UNL A   1      14.809  52.263  13.072  1.00  0.00    +0.000 H 
ATOM     16  C14 UNL A   1      15.432  52.284  12.203  1.00  0.00    +0.000 C 
BRANCH   16   15
ATOM    105  H12 UNL A   1      15.368  50.232  12.372  1.00  0.00    +0.000 H 
ATOM     15  N1  UNL A   1      15.923  50.941  11.973  1.00  0.00    +0.000 N 
BRANCH   15   13
ATOM     13  C13 UNL A   1      17.017  50.486  11.301  1.00  0.00    +0.000 C 
ATOM     14  O1  UNL A   1      18.109  50.634  11.865  1.00  0.00    +0.000 O 
BRANCH   13   11
ATOM     11  C11 UNL A   1      16.957  49.843   9.908  1.00  0.00    +0.000 C 
ATOM    101  H8  UNL A   1      17.550  48.955   9.975  1.00  0.00    +0.000 H 
BRANCH   11   10
ATOM     99  H6  UNL A   1      12.842  50.026   7.737  1.00  0.00    +0.000 H 
ATOM    100  H7  UNL A   1      15.092  50.790   8.118  1.00  0.00    +0.000 H 
ATOM    133  H40 UNL A   1      15.686  47.655  10.837  1.00  0.00    +0.000 H 
ATOM    134  H41 UNL A   1      13.487  46.793  10.327  1.00  0.00    +0.000 H 
ATOM      7  C7  UNL A   1      12.951  48.336   8.991  1.00  0.00    +0.000 C 
ATOM      8  C8  UNL A   1      13.451  49.498   8.383  1.00  0.00    +0.000 C 
ATOM      9  C9  UNL A   1      14.746  49.961   8.626  1.00  0.00    +0.000 C 
ATOM     10  C10 UNL A   1      15.577  49.319   9.543  1.00  0.00    +0.000 C 
ATOM     88  C65 UNL A   1      15.090  48.157  10.161  1.00  0.00    +0.000 C 
ATOM     89  C66 UNL A   1      13.807  47.665   9.876  1.00  0.00    +0.000 C 
BRANCH    7    6
ATOM     97  H4  UNL A   1       8.377  49.686   6.327  1.00  0.00    +0.000 H 
ATOM      2  C2  UNL A   1       7.229  48.012   7.048  1.00  0.00    +0.000 C 
ATOM      3  C3  UNL A   1       8.334  48.819   6.886  1.00  0.00    +0.000 C 
ATOM      4  C4  UNL A   1       9.403  48.247   7.623  1.00  0.00    +0.000 C 
ATOM      5  C5  UNL A   1      10.742  48.621   7.844  1.00  0.00    +0.000 C 
ATOM     98  H5  UNL A   1      11.118  49.460   7.376  1.00  0.00    +0.000 H 
ATOM      6  C6  UNL A   1      11.579  47.867   8.693  1.00  0.00    +0.000 C 
ATOM    136  H43 UNL A   1       9.358  45.413   9.454  1.00  0.00    +0.000 H 
ATOM    137  H44 UNL A   1       7.016  46.216   8.113  1.00  0.00    +0.000 H 
ATOM    135  H42 UNL A   1      11.650  46.125   9.878  1.00  0.00    +0.000 H 
ATOM     90  C67 UNL A   1      11.047  46.698   9.266  1.00  0.00    +0.000 C 
ATOM     91  C68 UNL A   1       9.725  46.282   9.037  1.00  0.00    +0.000 C 
ATOM     92  C69 UNL A   1       8.924  47.088   8.222  1.00  0.00    +0.000 C 
ATOM     93  N7  UNL A   1       7.606  46.958   7.847  1.00  0.00    +0.000 N 
BRANCH    2    1
ATOM      1  C1  UNL A   1       5.852  48.146   6.516  1.00  0.00    +0.000 C 
ATOM     94  H1  UNL A   1       5.877  48.686   5.592  1.00  0.00    +0.000 H 
ATOM     95  H2  UNL A   1       5.246  48.674   7.221  1.00  0.00    +0.000 H 
ATOM     96  H3  UNL A   1       5.439  47.173   6.348  1.00  0.00    +0.000 H 
ENDBRANCH    2    1
ENDBRANCH    7    6
ENDBRANCH   11   10
BRANCH   11   12
ATOM     12  C12 UNL A   1      17.680  50.637   8.818  1.00  0.00    +0.000 C 
ATOM    102  H9  UNL A   1      18.427  51.258   9.266  1.00  0.00    +0.000 H 
ATOM    103  H10 UNL A   1      16.974  51.250   8.295  1.00  0.00    +0.000 H 
ATOM    104  H11 UNL A   1      18.143  49.961   8.130  1.00  0.00    +0.000 H 
ENDBRANCH   11   12
ENDBRANCH   13   11
ENDBRANCH   15   13
ENDBRANCH   16   15
ENDBRANCH   17   16
ENDBRANCH   18   17
ENDBRANCH   19   18
ENDBRANCH   20   19
ENDBRANCH   21   20
ENDBRANCH   22   21
ENDBRANCH   23   22
ENDBRANCH   25   23
ENDBRANCH   29   28
BRANCH   33   34
ATOM     34  C29 UNL A   1      12.550  48.036   4.272  1.00  0.00    +0.000 C 
ATOM     35  C30 UNL A   1      11.249  47.751   3.833  1.00  0.00    +0.000 C 
ATOM     36  F1  UNL A   1      10.687  48.486   2.863  1.00  0.00    +0.000 F 
ATOM     37  C31 UNL A   1      10.504  46.729   4.417  1.00  0.00    +0.000 C 
ATOM     38  F2  UNL A   1       9.246  46.504   4.013  1.00  0.00    +0.000 F 
ATOM     39  C32 UNL A   1      11.056  45.954   5.425  1.00  0.00    +0.000 C 
ATOM     40  F3  UNL A   1      10.340  44.968   5.983  1.00  0.00    +0.000 F 
ATOM     41  C33 UNL A   1      12.349  46.205   5.861  1.00  0.00    +0.000 C 
ATOM     42  F4  UNL A   1      12.888  45.450   6.827  1.00  0.00    +0.000 F 
ATOM     43  C34 UNL A   1      13.087  47.244   5.298  1.00  0.00    +0.000 C 
ATOM     44  F5  UNL A   1      14.329  47.472   5.750  1.00  0.00    +0.000 F 
ENDBRANCH   33   34
BRANCH   50   51
ATOM     51  C40 UNL A   1      17.010  48.907  -1.326  1.00  0.00    +0.000 C 
ATOM     52  C41 UNL A   1      18.142  48.093  -1.173  1.00  0.00    +0.000 C 
ATOM     53  F6  UNL A   1      18.806  48.071  -0.008  1.00  0.00    +0.000 F 
ATOM     54  C42 UNL A   1      18.618  47.327  -2.234  1.00  0.00    +0.000 C 
ATOM     55  F7  UNL A   1      19.726  46.590  -2.081  1.00  0.00    +0.000 F 
ATOM     56  C43 UNL A   1      17.955  47.336  -3.452  1.00  0.00    +0.000 C 
ATOM     57  F8  UNL A   1      18.412  46.593  -4.470  1.00  0.00    +0.000 F 
ATOM     58  C44 UNL A   1      16.824  48.121  -3.619  1.00  0.00    +0.000 C 
ATOM     59  F9  UNL A   1      16.176  48.122  -4.793  1.00  0.00    +0.000 F 
ATOM     60  C45 UNL A   1      16.361  48.908  -2.570  1.00  0.00    +0.000 C 
ATOM     61  F10 UNL A   1      15.271  49.667  -2.763  1.00  0.00    +0.000 F 
ENDBRANCH   50   51
BRANCH   65   66
ATOM     66  C49 UNL A   1      17.956  55.550   0.532  1.00  0.00    +0.000 C 
ATOM     67  C50 UNL A   1      17.526  56.267  -0.592  1.00  0.00    +0.000 C 
ATOM     68  F11 UNL A   1      16.368  55.945  -1.189  1.00  0.00    +0.000 F 
ATOM     69  C51 UNL A   1      18.301  57.290  -1.133  1.00  0.00    +0.000 C 
ATOM     70  F12 UNL A   1      17.887  57.931  -2.235  1.00  0.00    +0.000 F 
ATOM     71  C52 UNL A   1      19.508  57.634  -0.543  1.00  0.00    +0.000 C 
ATOM     72  F13 UNL A   1      20.253  58.620  -1.063  1.00  0.00    +0.000 F 
ATOM     73  C53 UNL A   1      19.946  56.950   0.581  1.00  0.00    +0.000 C 
ATOM     74  F14 UNL A   1      21.106  57.288   1.161  1.00  0.00    +0.000 F 
ATOM     75  C54 UNL A   1      19.183  55.909   1.108  1.00  0.00    +0.000 C 
ATOM     76  F15 UNL A   1      19.637  55.256   2.187  1.00  0.00    +0.000 F 
ENDBRANCH   65   66
TORSDOF 19
ENDMDL
MODEL 5
REMARK VINA RESULT:      -9.1      1.077      2.206
ROOT
ATOM    129  H36 UNL A   1      11.065   1.997  28.795  1.00  0.00    +0.000 H 
ATOM    130  H37 UNL A   1       9.468   0.876  27.138  1.00  0.00    +0.000 H 
ATOM     29  C25 UNL A   1       7.645   2.682  25.901  1.00  0.00    +0.000 C 
ATOM     30  C26 UNL A   1       8.783   3.014  26.826  1.00  0.00    +0.000 C 
ATOM     31  N3  UNL A   1       9.186   4.183  27.258  1.00  0.00    +0.000 N 
ATOM     32  C27 UNL A   1      10.246   3.925  28.116  1.00  0.00    +0.000 C 
ATOM     33  C28 UNL A   1      11.037   4.806  28.773  1.00  0.00    +0.000 C 
ATOM     45  C35 UNL A   1      10.904   6.237  28.685  1.00  0.00    +0.000 C 
ATOM     46  C36 UNL A   1      11.686   7.215  29.276  1.00  0.00    +0.000 C 
ATOM     47  C37 UNL A   1      11.158   8.464  28.931  1.00  0.00    +0.000 C 
ATOM     48  C38 UNL A   1      10.073   8.266  28.092  1.00  0.00    +0.000 C 
ATOM     49  N4  UNL A   1       9.924   6.893  27.956  1.00  0.00    +0.000 N 
ATOM     50  C39 UNL A   1       9.233   9.251  27.463  1.00  0.00    +0.000 C 
ATOM     62  C46 UNL A   1       8.184   8.975  26.651  1.00  0.00    +0.000 C 
ATOM     63  N5  UNL A   1       7.698   7.740  26.242  1.00  0.00    +0.000 N 
ATOM     64  C47 UNL A   1       6.668   7.995  25.472  1.00  0.00    +0.000 C 
ATOM     65  C48 UNL A   1       5.778   7.038  24.730  1.00  0.00    +0.000 C 
ATOM     77  C55 UNL A   1       6.021   5.715  24.808  1.00  0.00    +0.000 C 
ATOM     78  C56 UNL A   1       5.248   4.671  24.144  1.00  0.00    +0.000 C 
ATOM     79  C57 UNL A   1       5.748   3.472  24.485  1.00  0.00    +0.000 C 
ATOM     80  C58 UNL A   1       6.900   3.668  25.366  1.00  0.00    +0.000 C 
ATOM     81  N6  UNL A   1       6.993   5.030  25.496  1.00  0.00    +0.000 N 
ATOM     82  C59 UNL A   1       6.365   9.426  25.331  1.00  0.00    +0.000 C 
ATOM     83  C60 UNL A   1       7.341   9.979  26.037  1.00  0.00    +0.000 C 
ATOM     84  C61 UNL A   1      10.394   2.486  28.183  1.00  0.00    +0.000 C 
ATOM     85  C62 UNL A   1       9.555   1.880  27.355  1.00  0.00    +0.000 C 
ATOM    121  H28 UNL A   1      12.514   7.051  29.868  1.00  0.00    +0.000 H 
ATOM    122  H29 UNL A   1      11.516   9.379  29.247  1.00  0.00    +0.000 H 
ATOM    123  H30 UNL A   1       9.227   6.451  27.420  1.00  0.00    +0.000 H 
ATOM    124  H31 UNL A   1       4.447   4.828  23.512  1.00  0.00    +0.000 H 
ATOM    125  H32 UNL A   1       5.379   2.560  24.174  1.00  0.00    +0.000 H 
ATOM    126  H33 UNL A   1       7.689   5.476  26.031  1.00  0.00    +0.000 H 
ATOM    127  H34 UNL A   1       5.594   9.881  24.817  1.00  0.00    +0.000 H 
ATOM    128  H35 UNL A   1       7.484  10.997  26.135  1.00  0.00    +0.000 H 
ENDROOT
BRANCH   29   28
ATOM    131  H38 UNL A   1       8.532   1.120  23.915  1.00  0.00    +0.000 H 
ATOM    132  H39 UNL A   1       7.903  -1.159  23.381  1.00  0.00    +0.000 H 
ATOM    120  H27 UNL A   1       5.946   1.043  27.240  1.00  0.00    +0.000 H 
ATOM     86  C63 UNL A   1       7.866   0.616  24.520  1.00  0.00    +0.000 C 
ATOM     87  C64 UNL A   1       7.536  -0.709  24.233  1.00  0.00    +0.000 C 
ATOM    119  H26 UNL A   1       5.475  -1.300  26.814  1.00  0.00    +0.000 H 
ATOM     25  C21 UNL A   1       6.709  -1.426  25.103  1.00  0.00    +0.000 C 
ATOM     26  C22 UNL A   1       6.118  -0.782  26.195  1.00  0.00    +0.000 C 
ATOM     27  C23 UNL A   1       6.400   0.563  26.446  1.00  0.00    +0.000 C 
ATOM     28  C24 UNL A   1       7.297   1.265  25.626  1.00  0.00    +0.000 C 
BRANCH   25   23
ATOM     23  C20 UNL A   1       6.395  -2.852  24.859  1.00  0.00    +0.000 C 
ATOM     24  O2  UNL A   1       5.975  -3.547  25.778  1.00  0.00    +0.000 O 
BRANCH   23   22
ATOM    118  H25 UNL A   1       6.605  -2.751  22.870  1.00  0.00    +0.000 H 
ATOM     22  N2  UNL A   1       6.570  -3.399  23.611  1.00  0.00    +0.000 N 
BRANCH   22   21
ATOM    117  H24 UNL A   1       5.882  -5.046  22.595  1.00  0.00    +0.000 H 
ATOM    116  H23 UNL A   1       6.724  -5.397  24.107  1.00  0.00    +0.000 H 
ATOM     21  C19 UNL A   1       6.710  -4.793  23.224  1.00  0.00    +0.000 C 
BRANCH   21   20
ATOM    114  H21 UNL A   1       8.660  -5.605  23.053  1.00  0.00    +0.000 H 
ATOM    115  H22 UNL A   1       7.702  -5.562  21.544  1.00  0.00    +0.000 H 
ATOM     20  C18 UNL A   1       7.993  -5.043  22.434  1.00  0.00    +0.000 C 
BRANCH   20   19
ATOM    113  H20 UNL A   1       8.074  -2.961  22.214  1.00  0.00    +0.000 H 
ATOM     19  C17 UNL A   1       8.724  -3.777  21.973  1.00  0.00    +0.000 C 
ATOM    112  H19 UNL A   1       8.926  -3.876  20.927  1.00  0.00    +0.000 H 
BRANCH   19   18
ATOM     18  C16 UNL A   1      10.051  -3.478  22.685  1.00  0.00    +0.000 C 
ATOM    110  H17 UNL A   1      10.838  -3.571  21.967  1.00  0.00    +0.000 H 
ATOM    111  H18 UNL A   1       9.953  -2.492  23.090  1.00  0.00    +0.000 H 
BRANCH   18   17
ATOM     17  C15 UNL A   1      10.380  -4.392  23.870  1.00  0.00    +0.000 C 
ATOM    108  H15 UNL A   1       9.850  -5.313  23.742  1.00  0.00    +0.000 H 
ATOM    109  H16 UNL A   1      11.441  -4.524  23.873  1.00  0.00    +0.000 H 
BRANCH   17   16
ATOM    106  H13 UNL A   1       8.958  -3.570  25.229  1.00  0.00    +0.000 H 
ATOM    107  H14 UNL A   1      10.232  -4.535  25.981  1.00  0.00    +0.000 H 
ATOM     16  C14 UNL A   1      10.002  -3.806  25.232  1.00  0.00    +0.000 C 
BRANCH   16   15
ATOM    105  H12 UNL A   1      10.195  -1.805  25.680  1.00  0.00    +0.000 H 
ATOM     15  N1  UNL A   1      10.751  -2.604  25.534  1.00  0.00    +0.000 N 
BRANCH   15   13
ATOM     13  C13 UNL A   1      12.090  -2.386  25.654  1.00  0.00    +0.000 C 
ATOM     14  O1  UNL A   1      12.621  -2.789  26.697  1.00  0.00    +0.000 O 
BRANCH   13   11
ATOM     11  C11 UNL A   1      12.936  -1.663  24.595  1.00  0.00    +0.000 C 
ATOM    101  H8  UNL A   1      13.039  -2.356  23.787  1.00  0.00    +0.000 H 
BRANCH   11   10
ATOM     99  H6  UNL A   1      11.226   0.762  21.008  1.00  0.00    +0.000 H 
ATOM    100  H7  UNL A   1      12.169  -1.223  21.989  1.00  0.00    +0.000 H 
ATOM    133  H40 UNL A   1      12.031   0.590  25.766  1.00  0.00    +0.000 H 
ATOM    134  H41 UNL A   1      10.932   2.515  24.805  1.00  0.00    +0.000 H 
ATOM      7  C7  UNL A   1      10.985   1.826  22.812  1.00  0.00    +0.000 C 
ATOM      8  C8  UNL A   1      11.372   0.726  22.030  1.00  0.00    +0.000 C 
ATOM      9  C9  UNL A   1      11.947  -0.416  22.592  1.00  0.00    +0.000 C 
ATOM     10  C10 UNL A   1      12.225  -0.480  23.958  1.00  0.00    +0.000 C 
ATOM     88  C65 UNL A   1      11.847   0.613  24.751  1.00  0.00    +0.000 C 
ATOM     89  C66 UNL A   1      11.222   1.738  24.191  1.00  0.00    +0.000 C 
BRANCH    7    6
ATOM     97  H4  UNL A   1      11.209   5.015  18.382  1.00  0.00    +0.000 H 
ATOM      2  C2  UNL A   1       9.741   6.426  19.082  1.00  0.00    +0.000 C 
ATOM      3  C3  UNL A   1      10.538   5.303  19.111  1.00  0.00    +0.000 C 
ATOM      4  C4  UNL A   1      10.274   4.612  20.322  1.00  0.00    +0.000 C 
ATOM      5  C5  UNL A   1      10.782   3.435  20.902  1.00  0.00    +0.000 C 
ATOM     98  H5  UNL A   1      11.475   2.872  20.383  1.00  0.00    +0.000 H 
ATOM      6  C6  UNL A   1      10.361   3.010  22.180  1.00  0.00    +0.000 C 
ATOM    136  H43 UNL A   1       8.088   5.468  22.748  1.00  0.00    +0.000 H 
ATOM    137  H44 UNL A   1       8.316   7.105  20.467  1.00  0.00    +0.000 H 
ATOM    135  H42 UNL A   1       9.042   3.466  23.758  1.00  0.00    +0.000 H 
ATOM     90  C67 UNL A   1       9.374   3.771  22.829  1.00  0.00    +0.000 C 
ATOM     91  C68 UNL A   1       8.823   4.931  22.261  1.00  0.00    +0.000 C 
ATOM     92  C69 UNL A   1       9.306   5.334  21.013  1.00  0.00    +0.000 C 
ATOM     93  N7  UNL A   1       8.988   6.423  20.233  1.00  0.00    +0.000 N 
BRANCH    2    1
ATOM      1  C1  UNL A   1       9.624   7.499  18.067  1.00  0.00    +0.000 C 
ATOM     94  H1  UNL A   1      10.574   7.978  17.942  1.00  0.00    +0.000 H 
ATOM     95  H2  UNL A   1       8.902   8.219  18.388  1.00  0.00    +0.000 H 
ATOM     96  H3  UNL A   1       9.314   7.076  17.134  1.00  0.00    +0.000 H 
ENDBRANCH    2    1
ENDBRANCH    7    6
ENDBRANCH   11   10
BRANCH   11   12
ATOM     12  C12 UNL A   1      14.389  -1.425  25.009  1.00  0.00    +0.000 C 
ATOM    102  H9  UNL A   1      15.018  -2.153  24.540  1.00  0.00    +0.000 H 
ATOM    103  H10 UNL A   1      14.477  -1.512  26.073  1.00  0.00    +0.000 H 
ATOM    104  H11 UNL A   1      14.692  -0.444  24.706  1.00  0.00    +0.000 H 
ENDBRANCH   11   12
ENDBRANCH   13   11
ENDBRANCH   15   13
ENDBRANCH   16   15
ENDBRANCH   17   16
ENDBRANCH   18   17
ENDBRANCH   19   18
ENDBRANCH   20   19
ENDBRANCH   21   20
ENDBRANCH   22   21
ENDBRANCH   23   22
ENDBRANCH   25   23
ENDBRANCH   29   28
BRANCH   33   34
ATOM     34  C29 UNL A   1      12.125   4.246  29.642  1.00  0.00    +0.000 C 
ATOM     35  C30 UNL A   1      13.280   3.671  29.090  1.00  0.00    +0.000 C 
ATOM     36  F1  UNL A   1      13.414   3.572  27.760  1.00  0.00    +0.000 F 
ATOM     37  C31 UNL A   1      14.286   3.161  29.906  1.00  0.00    +0.000 C 
ATOM     38  F2  UNL A   1      15.359   2.575  29.357  1.00  0.00    +0.000 F 
ATOM     39  C32 UNL A   1      14.174   3.246  31.286  1.00  0.00    +0.000 C 
ATOM     40  F3  UNL A   1      15.145   2.759  32.070  1.00  0.00    +0.000 F 
ATOM     41  C33 UNL A   1      13.050   3.828  31.853  1.00  0.00    +0.000 C 
ATOM     42  F4  UNL A   1      12.945   3.921  33.185  1.00  0.00    +0.000 F 
ATOM     43  C34 UNL A   1      12.029   4.315  31.040  1.00  0.00    +0.000 C 
ATOM     44  F5  UNL A   1      10.948   4.860  31.618  1.00  0.00    +0.000 F 
ENDBRANCH   33   34
BRANCH   50   51
ATOM     51  C40 UNL A   1       9.553  10.696  27.703  1.00  0.00    +0.000 C 
ATOM     52  C41 UNL A   1      10.594  11.342  27.019  1.00  0.00    +0.000 C 
ATOM     53  F6  UNL A   1      11.368  10.656  26.165  1.00  0.00    +0.000 F 
ATOM     54  C42 UNL A   1      10.867  12.689  27.244  1.00  0.00    +0.000 C 
ATOM     55  F7  UNL A   1      11.894  13.275  26.614  1.00  0.00    +0.000 F 
ATOM     56  C43 UNL A   1      10.088  13.420  28.127  1.00  0.00    +0.000 C 
ATOM     57  F8  UNL A   1      10.349  14.718  28.337  1.00  0.00    +0.000 F 
ATOM     58  C44 UNL A   1       9.042  12.805  28.800  1.00  0.00    +0.000 C 
ATOM     59  F9  UNL A   1       8.281  13.514  29.646  1.00  0.00    +0.000 F 
ATOM     60  C45 UNL A   1       8.783  11.453  28.599  1.00  0.00    +0.000 C 
ATOM     61  F10 UNL A   1       7.773  10.882  29.273  1.00  0.00    +0.000 F 
ENDBRANCH   50   51
BRANCH   65   66
ATOM     66  C49 UNL A   1       4.658   7.537  23.890  1.00  0.00    +0.000 C 
ATOM     67  C50 UNL A   1       3.459   7.965  24.477  1.00  0.00    +0.000 C 
ATOM     68  F11 UNL A   1       3.309   7.910  25.809  1.00  0.00    +0.000 F 
ATOM     69  C51 UNL A   1       2.395   8.411  23.696  1.00  0.00    +0.000 C 
ATOM     70  F12 UNL A   1       1.245   8.773  24.279  1.00  0.00    +0.000 F 
ATOM     71  C52 UNL A   1       2.520   8.465  22.317  1.00  0.00    +0.000 C 
ATOM     72  F13 UNL A   1       1.497   8.896  21.565  1.00  0.00    +0.000 F 
ATOM     73  C53 UNL A   1       3.704   8.063  21.715  1.00  0.00    +0.000 C 
ATOM     74  F14 UNL A   1       3.833   8.127  20.382  1.00  0.00    +0.000 F 
ATOM     75  C54 UNL A   1       4.760   7.593  22.493  1.00  0.00    +0.000 C 
ATOM     76  F15 UNL A   1       5.888   7.199  21.885  1.00  0.00    +0.000 F 
ENDBRANCH   65   66
TORSDOF 19
ENDMDL
MODEL 6
REMARK VINA RESULT:      -9.0     54.895     61.688
ROOT
ATOM    129  H36 UNL A   1      45.902  53.975  15.000  1.00  0.00    +0.000 H 
ATOM    130  H37 UNL A   1      44.800  51.950  16.111  1.00  0.00    +0.000 H 
ATOM     29  C25 UNL A   1      46.383  50.763  18.160  1.00  0.00    +0.000 C 
ATOM     30  C26 UNL A   1      46.670  52.022  17.391  1.00  0.00    +0.000 C 
ATOM     31  N3  UNL A   1      47.687  52.841  17.491  1.00  0.00    +0.000 N 
ATOM     32  C27 UNL A   1      47.483  53.818  16.525  1.00  0.00    +0.000 C 
ATOM     33  C28 UNL A   1      48.226  54.919  16.265  1.00  0.00    +0.000 C 
ATOM     45  C35 UNL A   1      49.417  55.283  16.988  1.00  0.00    +0.000 C 
ATOM     46  C36 UNL A   1      50.215  56.404  16.830  1.00  0.00    +0.000 C 
ATOM     47  C37 UNL A   1      51.280  56.312  17.734  1.00  0.00    +0.000 C 
ATOM     48  C38 UNL A   1      51.124  55.157  18.481  1.00  0.00    +0.000 C 
ATOM     49  N4  UNL A   1      49.980  54.531  18.008  1.00  0.00    +0.000 N 
ATOM     50  C39 UNL A   1      51.953  54.658  19.546  1.00  0.00    +0.000 C 
ATOM     62  C46 UNL A   1      51.732  53.510  20.233  1.00  0.00    +0.000 C 
ATOM     63  N5  UNL A   1      50.700  52.594  20.091  1.00  0.00    +0.000 N 
ATOM     64  C47 UNL A   1      50.929  51.652  20.973  1.00  0.00    +0.000 C 
ATOM     65  C48 UNL A   1      50.120  50.423  21.284  1.00  0.00    +0.000 C 
ATOM     77  C55 UNL A   1      48.976  50.199  20.609  1.00  0.00    +0.000 C 
ATOM     78  C56 UNL A   1      48.088  49.057  20.802  1.00  0.00    +0.000 C 
ATOM     79  C57 UNL A   1      47.073  49.140  19.927  1.00  0.00    +0.000 C 
ATOM     80  C58 UNL A   1      47.222  50.361  19.134  1.00  0.00    +0.000 C 
ATOM     81  N6  UNL A   1      48.374  50.931  19.614  1.00  0.00    +0.000 N 
ATOM     82  C59 UNL A   1      52.157  51.852  21.757  1.00  0.00    +0.000 C 
ATOM     83  C60 UNL A   1      52.586  53.017  21.294  1.00  0.00    +0.000 C 
ATOM     84  C61 UNL A   1      46.271  53.464  15.816  1.00  0.00    +0.000 C 
ATOM     85  C62 UNL A   1      45.697  52.398  16.355  1.00  0.00    +0.000 C 
ATOM    121  H28 UNL A   1      50.052  57.173  16.163  1.00  0.00    +0.000 H 
ATOM    122  H29 UNL A   1      52.052  56.991  17.827  1.00  0.00    +0.000 H 
ATOM    123  H30 UNL A   1      49.621  53.679  18.346  1.00  0.00    +0.000 H 
ATOM    124  H31 UNL A   1      48.219  48.308  21.499  1.00  0.00    +0.000 H 
ATOM    125  H32 UNL A   1      46.309  48.452  19.829  1.00  0.00    +0.000 H 
ATOM    126  H33 UNL A   1      48.736  51.782  19.277  1.00  0.00    +0.000 H 
ATOM    127  H34 UNL A   1      52.575  51.243  22.479  1.00  0.00    +0.000 H 
ATOM    128  H35 UNL A   1      53.421  53.510  21.645  1.00  0.00    +0.000 H 
ENDROOT
BRANCH   29   28
ATOM    131  H38 UNL A   1      43.874  50.961  19.076  1.00  0.00    +0.000 H 
ATOM    132  H39 UNL A   1      41.969  49.543  18.597  1.00  0.00    +0.000 H 
ATOM    120  H27 UNL A   1      46.240  48.642  16.473  1.00  0.00    +0.000 H 
ATOM     86  C63 UNL A   1      43.969  50.182  18.406  1.00  0.00    +0.000 C 
ATOM     87  C64 UNL A   1      42.861  49.393  18.102  1.00  0.00    +0.000 C 
ATOM    119  H26 UNL A   1      44.281  47.353  15.848  1.00  0.00    +0.000 H 
ATOM     25  C21 UNL A   1      42.960  48.397  17.126  1.00  0.00    +0.000 C 
ATOM     26  C22 UNL A   1      44.199  48.115  16.539  1.00  0.00    +0.000 C 
ATOM     27  C23 UNL A   1      45.323  48.866  16.890  1.00  0.00    +0.000 C 
ATOM     28  C24 UNL A   1      45.211  49.924  17.807  1.00  0.00    +0.000 C 
BRANCH   25   23
ATOM     23  C20 UNL A   1      41.784  47.586  16.735  1.00  0.00    +0.000 C 
ATOM     24  O2  UNL A   1      41.122  47.910  15.756  1.00  0.00    +0.000 O 
BRANCH   23   22
ATOM    118  H25 UNL A   1      40.465  46.328  17.565  1.00  0.00    +0.000 H 
ATOM     22  N2  UNL A   1      41.433  46.475  17.463  1.00  0.00    +0.000 N 
BRANCH   22   21
ATOM    117  H24 UNL A   1      42.530  45.845  19.081  1.00  0.00    +0.000 H 
ATOM    116  H23 UNL A   1      43.161  45.345  17.509  1.00  0.00    +0.000 H 
ATOM     21  C19 UNL A   1      42.283  45.484  18.104  1.00  0.00    +0.000 C 
BRANCH   21   20
ATOM    114  H21 UNL A   1      40.618  44.319  18.703  1.00  0.00    +0.000 H 
ATOM    115  H22 UNL A   1      41.521  43.711  17.285  1.00  0.00    +0.000 H 
ATOM     20  C18 UNL A   1      41.576  44.140  18.264  1.00  0.00    +0.000 C 
BRANCH   20   19
ATOM    113  H20 UNL A   1      43.027  42.646  18.493  1.00  0.00    +0.000 H 
ATOM     19  C17 UNL A   1      42.317  43.121  19.138  1.00  0.00    +0.000 C 
ATOM    112  H19 UNL A   1      41.591  42.453  19.551  1.00  0.00    +0.000 H 
BRANCH   19   18
ATOM     18  C16 UNL A   1      43.134  43.707  20.297  1.00  0.00    +0.000 C 
ATOM    110  H17 UNL A   1      44.171  43.572  20.072  1.00  0.00    +0.000 H 
ATOM    111  H18 UNL A   1      42.841  44.733  20.376  1.00  0.00    +0.000 H 
BRANCH   18   17
ATOM     17  C15 UNL A   1      42.863  43.083  21.671  1.00  0.00    +0.000 C 
ATOM    108  H15 UNL A   1      41.974  43.524  22.071  1.00  0.00    +0.000 H 
ATOM    109  H16 UNL A   1      42.768  42.029  21.518  1.00  0.00    +0.000 H 
BRANCH   17   16
ATOM    106  H13 UNL A   1      43.619  43.838  23.515  1.00  0.00    +0.000 H 
ATOM    107  H14 UNL A   1      44.345  42.320  22.981  1.00  0.00    +0.000 H 
ATOM     16  C14 UNL A   1      43.995  43.285  22.680  1.00  0.00    +0.000 C 
BRANCH   16   15
ATOM    105  H12 UNL A   1      44.871  44.865  21.690  1.00  0.00    +0.000 H 
ATOM     15  N1  UNL A   1      45.113  44.007  22.108  1.00  0.00    +0.000 N 
BRANCH   15   13
ATOM     13  C13 UNL A   1      46.440  43.707  22.047  1.00  0.00    +0.000 C 
ATOM     14  O1  UNL A   1      47.087  43.865  23.090  1.00  0.00    +0.000 O 
BRANCH   13   11
ATOM     11  C11 UNL A   1      47.149  43.222  20.774  1.00  0.00    +0.000 C 
ATOM    101  H8  UNL A   1      46.414  42.667  20.229  1.00  0.00    +0.000 H 
BRANCH   11   10
ATOM     99  H6  UNL A   1      46.392  46.109  17.201  1.00  0.00    +0.000 H 
ATOM    100  H7  UNL A   1      45.676  44.469  18.812  1.00  0.00    +0.000 H 
ATOM    133  H40 UNL A   1      49.468  44.584  20.597  1.00  0.00    +0.000 H 
ATOM    134  H41 UNL A   1      50.129  46.350  19.085  1.00  0.00    +0.000 H 
ATOM      7  C7  UNL A   1      48.325  46.389  17.991  1.00  0.00    +0.000 C 
ATOM      8  C8  UNL A   1      47.049  45.807  17.938  1.00  0.00    +0.000 C 
ATOM      9  C9  UNL A   1      46.641  44.833  18.853  1.00  0.00    +0.000 C 
ATOM     10  C10 UNL A   1      47.519  44.347  19.822  1.00  0.00    +0.000 C 
ATOM     88  C65 UNL A   1      48.800  44.917  19.884  1.00  0.00    +0.000 C 
ATOM     89  C66 UNL A   1      49.189  45.933  18.997  1.00  0.00    +0.000 C 
BRANCH    7    6
ATOM     97  H4  UNL A   1      51.092  51.074  17.504  1.00  0.00    +0.000 H 
ATOM      2  C2  UNL A   1      50.533  51.419  15.453  1.00  0.00    +0.000 C 
ATOM      3  C3  UNL A   1      50.594  50.755  16.659  1.00  0.00    +0.000 C 
ATOM      4  C4  UNL A   1      49.850  49.553  16.532  1.00  0.00    +0.000 C 
ATOM      5  C5  UNL A   1      49.547  48.499  17.413  1.00  0.00    +0.000 C 
ATOM     98  H5  UNL A   1      49.942  48.505  18.367  1.00  0.00    +0.000 H 
ATOM      6  C6  UNL A   1      48.713  47.433  17.015  1.00  0.00    +0.000 C 
ATOM    136  H43 UNL A   1      48.212  48.422  13.806  1.00  0.00    +0.000 H 
ATOM    137  H44 UNL A   1      49.598  50.869  13.656  1.00  0.00    +0.000 H 
ATOM    135  H42 UNL A   1      47.643  46.649  15.378  1.00  0.00    +0.000 H 
ATOM     90  C67 UNL A   1      48.242  47.430  15.691  1.00  0.00    +0.000 C 
ATOM     91  C68 UNL A   1      48.555  48.451  14.779  1.00  0.00    +0.000 C 
ATOM     92  C69 UNL A   1      49.349  49.507  15.236  1.00  0.00    +0.000 C 
ATOM     93  N7  UNL A   1      49.789  50.643  14.595  1.00  0.00    +0.000 N 
BRANCH    2    1
ATOM      1  C1  UNL A   1      51.115  52.718  15.038  1.00  0.00    +0.000 C 
ATOM     94  H1  UNL A   1      50.476  53.514  15.358  1.00  0.00    +0.000 H 
ATOM     95  H2  UNL A   1      51.211  52.742  13.973  1.00  0.00    +0.000 H 
ATOM     96  H3  UNL A   1      52.080  52.835  15.485  1.00  0.00    +0.000 H 
ENDBRANCH    2    1
ENDBRANCH    7    6
ENDBRANCH   11   10
BRANCH   11   12
ATOM     12  C12 UNL A   1      48.234  42.172  21.022  1.00  0.00    +0.000 C 
ATOM    102  H9  UNL A   1      48.125  41.373  20.318  1.00  0.00    +0.000 H 
ATOM    103  H10 UNL A   1      48.137  41.786  22.016  1.00  0.00    +0.000 H 
ATOM    104  H11 UNL A   1      49.199  42.620  20.906  1.00  0.00    +0.000 H 
ENDBRANCH   11   12
ENDBRANCH   13   11
ENDBRANCH   15   13
ENDBRANCH   16   15
ENDBRANCH   17   16
ENDBRANCH   18   17
ENDBRANCH   19   18
ENDBRANCH   20   19
ENDBRANCH   21   20
ENDBRANCH   22   21
ENDBRANCH   23   22
ENDBRANCH   25   23
ENDBRANCH   29   28
BRANCH   33   34
ATOM     34  C29 UNL A   1      47.767  55.818  15.154  1.00  0.00    +0.000 C 
ATOM     35  C30 UNL A   1      48.048  55.524  13.812  1.00  0.00    +0.000 C 
ATOM     36  F1  UNL A   1      48.777  54.445  13.495  1.00  0.00    +0.000 F 
ATOM     37  C31 UNL A   1      47.610  56.363  12.789  1.00  0.00    +0.000 C 
ATOM     38  F2  UNL A   1      47.930  56.087  11.517  1.00  0.00    +0.000 F 
ATOM     39  C32 UNL A   1      46.858  57.489  13.085  1.00  0.00    +0.000 C 
ATOM     40  F3  UNL A   1      46.434  58.292  12.100  1.00  0.00    +0.000 F 
ATOM     41  C33 UNL A   1      46.551  57.788  14.405  1.00  0.00    +0.000 C 
ATOM     42  F4  UNL A   1      45.814  58.869  14.691  1.00  0.00    +0.000 F 
ATOM     43  C34 UNL A   1      47.010  56.967  15.432  1.00  0.00    +0.000 C 
ATOM     44  F5  UNL A   1      46.709  57.289  16.698  1.00  0.00    +0.000 F 
ENDBRANCH   33   34
BRANCH   50   51
ATOM     51  C40 UNL A   1      53.144  55.477  19.946  1.00  0.00    +0.000 C 
ATOM     52  C41 UNL A   1      54.402  55.282  19.358  1.00  0.00    +0.000 C 
ATOM     53  F6  UNL A   1      54.579  54.309  18.450  1.00  0.00    +0.000 F 
ATOM     54  C42 UNL A   1      55.493  56.063  19.731  1.00  0.00    +0.000 C 
ATOM     55  F7  UNL A   1      56.696  55.831  19.188  1.00  0.00    +0.000 F 
ATOM     56  C43 UNL A   1      55.340  57.070  20.670  1.00  0.00    +0.000 C 
ATOM     57  F8  UNL A   1      56.391  57.824  21.023  1.00  0.00    +0.000 F 
ATOM     58  C44 UNL A   1      54.100  57.292  21.252  1.00  0.00    +0.000 C 
ATOM     59  F9  UNL A   1      53.949  58.272  22.154  1.00  0.00    +0.000 F 
ATOM     60  C45 UNL A   1      53.014  56.496  20.902  1.00  0.00    +0.000 C 
ATOM     61  F10 UNL A   1      51.830  56.725  21.490  1.00  0.00    +0.000 F 
ENDBRANCH   50   51
BRANCH   65   66
ATOM     66  C49 UNL A   1      50.553  49.476  22.344  1.00  0.00    +0.000 C 
ATOM     67  C50 UNL A   1      51.279  48.322  22.019  1.00  0.00    +0.000 C 
ATOM     68  F11 UNL A   1      51.575  48.056  20.739  1.00  0.00    +0.000 F 
ATOM     69  C51 UNL A   1      51.666  47.416  23.004  1.00  0.00    +0.000 C 
ATOM     70  F12 UNL A   1      52.322  46.299  22.662  1.00  0.00    +0.000 F 
ATOM     71  C52 UNL A   1      51.361  47.661  24.334  1.00  0.00    +0.000 C 
ATOM     72  F13 UNL A   1      51.736  46.791  25.282  1.00  0.00    +0.000 F 
ATOM     73  C53 UNL A   1      50.658  48.806  24.680  1.00  0.00    +0.000 C 
ATOM     74  F14 UNL A   1      50.372  49.053  25.967  1.00  0.00    +0.000 F 
ATOM     75  C54 UNL A   1      50.248  49.700  23.694  1.00  0.00    +0.000 C 
ATOM     76  F15 UNL A   1      49.559  50.793  24.055  1.00  0.00    +0.000 F 
ENDBRANCH   65   66
TORSDOF 19
ENDMDL
MODEL 7
REMARK VINA RESULT:      -8.9     48.643     55.147
ROOT
ATOM    129  H36 UNL A   1      15.196  56.773   3.638  1.00  0.00    +0.000 H 
ATOM    130  H37 UNL A   1      16.877  56.762   1.707  1.00  0.00    +0.000 H 
ATOM     29  C25 UNL A   1      17.281  54.189   0.553  1.00  0.00    +0.000 C 
ATOM     30  C26 UNL A   1      16.289  54.574   1.615  1.00  0.00    +0.000 C 
ATOM     31  N3  UNL A   1      15.404  53.831   2.231  1.00  0.00    +0.000 N 
ATOM     32  C27 UNL A   1      14.776  54.669   3.143  1.00  0.00    +0.000 C 
ATOM     33  C28 UNL A   1      13.749  54.389   3.980  1.00  0.00    +0.000 C 
ATOM     45  C35 UNL A   1      13.099  53.107   4.068  1.00  0.00    +0.000 C 
ATOM     46  C36 UNL A   1      12.020  52.737   4.852  1.00  0.00    +0.000 C 
ATOM     47  C37 UNL A   1      11.760  51.380   4.625  1.00  0.00    +0.000 C 
ATOM     48  C38 UNL A   1      12.650  50.917   3.671  1.00  0.00    +0.000 C 
ATOM     49  N4  UNL A   1      13.471  51.985   3.343  1.00  0.00    +0.000 N 
ATOM     50  C39 UNL A   1      12.747  49.599   3.100  1.00  0.00    +0.000 C 
ATOM     62  C46 UNL A   1      13.652  49.220   2.165  1.00  0.00    +0.000 C 
ATOM     63  N5  UNL A   1      14.644  49.976   1.555  1.00  0.00    +0.000 N 
ATOM     64  C47 UNL A   1      15.262  49.163   0.732  1.00  0.00    +0.000 C 
ATOM     65  C48 UNL A   1      16.400  49.448  -0.208  1.00  0.00    +0.000 C 
ATOM     77  C55 UNL A   1      16.898  50.697  -0.281  1.00  0.00    +0.000 C 
ATOM     78  C56 UNL A   1      17.995  51.123  -1.145  1.00  0.00    +0.000 C 
ATOM     79  C57 UNL A   1      18.251  52.421  -0.919  1.00  0.00    +0.000 C 
ATOM     80  C58 UNL A   1      17.313  52.927   0.084  1.00  0.00    +0.000 C 
ATOM     81  N6  UNL A   1      16.542  51.836   0.399  1.00  0.00    +0.000 N 
ATOM     82  C59 UNL A   1      14.748  47.786   0.752  1.00  0.00    +0.000 C 
ATOM     83  C60 UNL A   1      13.744  47.886   1.611  1.00  0.00    +0.000 C 
ATOM     84  C61 UNL A   1      15.413  55.964   3.035  1.00  0.00    +0.000 C 
ATOM     85  C62 UNL A   1      16.311  55.975   2.061  1.00  0.00    +0.000 C 
ATOM    121  H28 UNL A   1      11.498  53.354   5.491  1.00  0.00    +0.000 H 
ATOM    122  H29 UNL A   1      11.028  50.821   5.090  1.00  0.00    +0.000 H 
ATOM    123  H30 UNL A   1      14.209  51.952   2.691  1.00  0.00    +0.000 H 
ATOM    124  H31 UNL A   1      18.491  50.523  -1.822  1.00  0.00    +0.000 H 
ATOM    125  H32 UNL A   1      18.991  52.974  -1.378  1.00  0.00    +0.000 H 
ATOM    126  H33 UNL A   1      15.804  51.866   1.050  1.00  0.00    +0.000 H 
ATOM    127  H34 UNL A   1      15.082  46.959   0.233  1.00  0.00    +0.000 H 
ATOM    128  H35 UNL A   1      13.108  47.110   1.854  1.00  0.00    +0.000 H 
ENDROOT
BRANCH   29   28
ATOM    131  H38 UNL A   1      19.678  54.778   1.592  1.00  0.00    +0.000 H 
ATOM    132  H39 UNL A   1      21.269  56.460   0.877  1.00  0.00    +0.000 H 
ATOM    120  H27 UNL A   1      17.118  55.871  -1.571  1.00  0.00    +0.000 H 
ATOM     86  C63 UNL A   1      19.480  55.351   0.757  1.00  0.00    +0.000 C 
ATOM     87  C64 UNL A   1      20.415  56.290   0.324  1.00  0.00    +0.000 C 
ATOM    119  H26 UNL A   1      18.802  57.412  -2.396  1.00  0.00    +0.000 H 
ATOM     25  C21 UNL A   1      20.193  57.002  -0.858  1.00  0.00    +0.000 C 
ATOM     26  C22 UNL A   1      18.983  56.857  -1.545  1.00  0.00    +0.000 C 
ATOM     27  C23 UNL A   1      18.020  55.960  -1.076  1.00  0.00    +0.000 C 
ATOM     28  C24 UNL A   1      18.272  55.180   0.064  1.00  0.00    +0.000 C 
BRANCH   25   23
ATOM     23  C20 UNL A   1      21.198  57.958  -1.377  1.00  0.00    +0.000 C 
ATOM     24  O2  UNL A   1      20.832  59.033  -1.839  1.00  0.00    +0.000 O 
BRANCH   23   22
ATOM    118  H25 UNL A   1      22.763  56.822  -0.854  1.00  0.00    +0.000 H 
ATOM     22  N2  UNL A   1      22.536  57.647  -1.341  1.00  0.00    +0.000 N 
BRANCH   22   21
ATOM    117  H24 UNL A   1      24.462  58.346  -1.202  1.00  0.00    +0.000 H 
ATOM    116  H23 UNL A   1      23.365  59.359  -2.145  1.00  0.00    +0.000 H 
ATOM     21  C19 UNL A   1      23.666  58.359  -1.917  1.00  0.00    +0.000 C 
BRANCH   21   20
ATOM    114  H21 UNL A   1      23.904  58.316  -4.022  1.00  0.00    +0.000 H 
ATOM    115  H22 UNL A   1      25.229  57.578  -3.076  1.00  0.00    +0.000 H 
ATOM     20  C18 UNL A   1      24.172  57.693  -3.195  1.00  0.00    +0.000 C 
BRANCH   20   19
ATOM    113  H20 UNL A   1      22.552  56.406  -3.526  1.00  0.00    +0.000 H 
ATOM     19  C17 UNL A   1      23.614  56.289  -3.456  1.00  0.00    +0.000 C 
ATOM    112  H19 UNL A   1      23.928  55.656  -2.653  1.00  0.00    +0.000 H 
BRANCH   19   18
ATOM     18  C16 UNL A   1      24.049  55.634  -4.774  1.00  0.00    +0.000 C 
ATOM    110  H17 UNL A   1      24.541  56.377  -5.365  1.00  0.00    +0.000 H 
ATOM    111  H18 UNL A   1      24.680  54.813  -4.502  1.00  0.00    +0.000 H 
BRANCH   18   17
ATOM     17  C15 UNL A   1      22.915  55.035  -5.614  1.00  0.00    +0.000 C 
ATOM    108  H15 UNL A   1      22.707  55.704  -6.423  1.00  0.00    +0.000 H 
ATOM    109  H16 UNL A   1      23.251  54.076  -5.948  1.00  0.00    +0.000 H 
BRANCH   17   16
ATOM    106  H13 UNL A   1      21.861  54.596  -3.815  1.00  0.00    +0.000 H 
ATOM    107  H14 UNL A   1      21.021  55.688  -4.918  1.00  0.00    +0.000 H 
ATOM     16  C14 UNL A   1      21.618  54.805  -4.835  1.00  0.00    +0.000 C 
BRANCH   16   15
ATOM    105  H12 UNL A   1      21.208  53.325  -6.208  1.00  0.00    +0.000 H 
ATOM     15  N1  UNL A   1      20.853  53.697  -5.369  1.00  0.00    +0.000 N 
BRANCH   15   13
ATOM     13  C13 UNL A   1      19.727  53.080  -4.913  1.00  0.00    +0.000 C 
ATOM     14  O1  UNL A   1      19.872  52.319  -3.947  1.00  0.00    +0.000 O 
BRANCH   13   11
ATOM     11  C11 UNL A   1      18.338  53.262  -5.542  1.00  0.00    +0.000 C 
ATOM    101  H8  UNL A   1      18.239  52.471  -6.255  1.00  0.00    +0.000 H 
BRANCH   11   10
ATOM     99  H6  UNL A   1      15.041  50.655  -3.541  1.00  0.00    +0.000 H 
ATOM    100  H7  UNL A   1      16.976  50.947  -4.942  1.00  0.00    +0.000 H 
ATOM    133  H40 UNL A   1      17.121  54.999  -3.879  1.00  0.00    +0.000 H 
ATOM    134  H41 UNL A   1      15.283  54.665  -2.346  1.00  0.00    +0.000 H 
ATOM      7  C7  UNL A   1      14.980  52.629  -2.807  1.00  0.00    +0.000 C 
ATOM      8  C8  UNL A   1      15.494  51.581  -3.588  1.00  0.00    +0.000 C 
ATOM      9  C9  UNL A   1      16.598  51.756  -4.425  1.00  0.00    +0.000 C 
ATOM     10  C10 UNL A   1      17.197  53.007  -4.571  1.00  0.00    +0.000 C 
ATOM     88  C65 UNL A   1      16.692  54.065  -3.799  1.00  0.00    +0.000 C 
ATOM     89  C66 UNL A   1      15.615  53.874  -2.920  1.00  0.00    +0.000 C 
BRANCH    7    6
ATOM     97  H4  UNL A   1      11.761  55.083   0.862  1.00  0.00    +0.000 H 
ATOM      2  C2  UNL A   1      10.652  53.306   1.369  1.00  0.00    +0.000 C 
ATOM      3  C3  UNL A   1      11.585  54.077   0.708  1.00  0.00    +0.000 C 
ATOM      4  C4  UNL A   1      12.259  53.244  -0.221  1.00  0.00    +0.000 C 
ATOM      5  C5  UNL A   1      13.298  53.459  -1.145  1.00  0.00    +0.000 C 
ATOM     98  H5  UNL A   1      13.686  54.409  -1.261  1.00  0.00    +0.000 H 
ATOM      6  C6  UNL A   1      13.819  52.399  -1.917  1.00  0.00    +0.000 C 
ATOM    136  H43 UNL A   1      11.734  49.961  -0.804  1.00  0.00    +0.000 H 
ATOM    137  H44 UNL A   1      10.166  51.279   1.129  1.00  0.00    +0.000 H 
ATOM    135  H42 UNL A   1      13.585  50.349  -2.342  1.00  0.00    +0.000 H 
ATOM     90  C67 UNL A   1      13.227  51.133  -1.773  1.00  0.00    +0.000 C 
ATOM     91  C68 UNL A   1      12.166  50.895  -0.884  1.00  0.00    +0.000 C 
ATOM     92  C69 UNL A   1      11.716  51.969  -0.111  1.00  0.00    +0.000 C 
ATOM     93  N7  UNL A   1      10.732  52.035   0.850  1.00  0.00    +0.000 N 
BRANCH    2    1
ATOM      1  C1  UNL A   1       9.694  53.663   2.441  1.00  0.00    +0.000 C 
ATOM     94  H1  UNL A   1       9.574  54.726   2.474  1.00  0.00    +0.000 H 
ATOM     95  H2  UNL A   1      10.066  53.317   3.382  1.00  0.00    +0.000 H 
ATOM     96  H3  UNL A   1       8.748  53.203   2.242  1.00  0.00    +0.000 H 
ENDBRANCH    2    1
ENDBRANCH    7    6
ENDBRANCH   11   10
BRANCH   11   12
ATOM     12  C12 UNL A   1      18.205  54.510  -6.417  1.00  0.00    +0.000 C 
ATOM    102  H9  UNL A   1      17.314  55.039  -6.151  1.00  0.00    +0.000 H 
ATOM    103  H10 UNL A   1      18.154  54.221  -7.446  1.00  0.00    +0.000 H 
ATOM    104  H11 UNL A   1      19.055  55.144  -6.267  1.00  0.00    +0.000 H 
ENDBRANCH   11   12
ENDBRANCH   13   11
ENDBRANCH   15   13
ENDBRANCH   16   15
ENDBRANCH   17   16
ENDBRANCH   18   17
ENDBRANCH   19   18
ENDBRANCH   20   19
ENDBRANCH   21   20
ENDBRANCH   22   21
ENDBRANCH   23   22
ENDBRANCH   25   23
ENDBRANCH   29   28
BRANCH   33   34
ATOM     34  C29 UNL A   1      13.256  55.497   4.866  1.00  0.00    +0.000 C 
ATOM     35  C30 UNL A   1      12.267  56.392   4.436  1.00  0.00    +0.000 C 
ATOM     36  F1  UNL A   1      11.767  56.302   3.195  1.00  0.00    +0.000 F 
ATOM     37  C31 UNL A   1      11.812  57.411   5.269  1.00  0.00    +0.000 C 
ATOM     38  F2  UNL A   1      10.900  58.285   4.821  1.00  0.00    +0.000 F 
ATOM     39  C32 UNL A   1      12.313  57.534   6.556  1.00  0.00    +0.000 C 
ATOM     40  F3  UNL A   1      11.871  58.512   7.359  1.00  0.00    +0.000 F 
ATOM     41  C33 UNL A   1      13.277  56.646   7.010  1.00  0.00    +0.000 C 
ATOM     42  F4  UNL A   1      13.753  56.756   8.257  1.00  0.00    +0.000 F 
ATOM     43  C34 UNL A   1      13.754  55.642   6.170  1.00  0.00    +0.000 C 
ATOM     44  F5  UNL A   1      14.696  54.808   6.632  1.00  0.00    +0.000 F 
ENDBRANCH   33   34
BRANCH   50   51
ATOM     51  C40 UNL A   1      11.759  48.566   3.555  1.00  0.00    +0.000 C 
ATOM     52  C41 UNL A   1      11.992  47.778   4.692  1.00  0.00    +0.000 C 
ATOM     53  F6  UNL A   1      13.142  47.897   5.372  1.00  0.00    +0.000 F 
ATOM     54  C42 UNL A   1      11.056  46.834   5.109  1.00  0.00    +0.000 C 
ATOM     55  F7  UNL A   1      11.317  46.061   6.171  1.00  0.00    +0.000 F 
ATOM     56  C43 UNL A   1       9.863  46.685   4.420  1.00  0.00    +0.000 C 
ATOM     57  F8  UNL A   1       8.962  45.780   4.827  1.00  0.00    +0.000 F 
ATOM     58  C44 UNL A   1       9.605  47.467   3.303  1.00  0.00    +0.000 C 
ATOM     59  F9  UNL A   1       8.447  47.330   2.643  1.00  0.00    +0.000 F 
ATOM     60  C45 UNL A   1      10.549  48.391   2.868  1.00  0.00    +0.000 C 
ATOM     61  F10 UNL A   1      10.278  49.126   1.777  1.00  0.00    +0.000 F 
ENDBRANCH   50   51
BRANCH   65   66
ATOM     66  C49 UNL A   1      16.955  48.377  -1.076  1.00  0.00    +0.000 C 
ATOM     67  C50 UNL A   1      16.302  48.005  -2.259  1.00  0.00    +0.000 C 
ATOM     68  F11 UNL A   1      15.156  48.607  -2.609  1.00  0.00    +0.000 F 
ATOM     69  C51 UNL A   1      16.801  46.985  -3.066  1.00  0.00    +0.000 C 
ATOM     70  F12 UNL A   1      16.135  46.619  -4.169  1.00  0.00    +0.000 F 
ATOM     71  C52 UNL A   1      17.977  46.338  -2.719  1.00  0.00    +0.000 C 
ATOM     72  F13 UNL A   1      18.459  45.357  -3.497  1.00  0.00    +0.000 F 
ATOM     73  C53 UNL A   1      18.650  46.701  -1.562  1.00  0.00    +0.000 C 
ATOM     74  F14 UNL A   1      19.794  46.085  -1.231  1.00  0.00    +0.000 F 
ATOM     75  C54 UNL A   1      18.138  47.703  -0.741  1.00  0.00    +0.000 C 
ATOM     76  F15 UNL A   1      18.802  48.026   0.379  1.00  0.00    +0.000 F 
ENDBRANCH   65   66
TORSDOF 19
ENDMDL
MODEL 8
REMARK VINA RESULT:      -8.9     12.762     19.328
ROOT
ATOM    129  H36 UNL A   1      -2.180  11.104  36.586  1.00  0.00    +0.000 H 
ATOM    130  H37 UNL A   1      -0.187  12.461  37.444  1.00  0.00    +0.000 H 
ATOM     29  C25 UNL A   1       2.143  10.895  37.928  1.00  0.00    +0.000 C 
ATOM     30  C26 UNL A   1       0.845  10.446  37.317  1.00  0.00    +0.000 C 
ATOM     31  N3  UNL A   1       0.502   9.262  36.876  1.00  0.00    +0.000 N 
ATOM     32  C27 UNL A   1      -0.815   9.382  36.454  1.00  0.00    +0.000 C 
ATOM     33  C28 UNL A   1      -1.603   8.450  35.867  1.00  0.00    +0.000 C 
ATOM     45  C35 UNL A   1      -1.184   7.107  35.564  1.00  0.00    +0.000 C 
ATOM     46  C36 UNL A   1      -1.894   6.102  34.929  1.00  0.00    +0.000 C 
ATOM     47  C37 UNL A   1      -1.089   4.958  34.886  1.00  0.00    +0.000 C 
ATOM     48  C38 UNL A   1       0.136   5.261  35.458  1.00  0.00    +0.000 C 
ATOM     49  N4  UNL A   1       0.061   6.582  35.876  1.00  0.00    +0.000 N 
ATOM     50  C39 UNL A   1       1.289   4.413  35.613  1.00  0.00    +0.000 C 
ATOM     62  C46 UNL A   1       2.458   4.786  36.187  1.00  0.00    +0.000 C 
ATOM     63  N5  UNL A   1       2.812   6.016  36.726  1.00  0.00    +0.000 N 
ATOM     64  C47 UNL A   1       4.039   5.876  37.165  1.00  0.00    +0.000 C 
ATOM     65  C48 UNL A   1       4.936   6.893  37.816  1.00  0.00    +0.000 C 
ATOM     77  C55 UNL A   1       4.488   8.151  37.992  1.00  0.00    +0.000 C 
ATOM     78  C56 UNL A   1       5.241   9.241  38.604  1.00  0.00    +0.000 C 
ATOM     79  C57 UNL A   1       4.465  10.335  38.655  1.00  0.00    +0.000 C 
ATOM     80  C58 UNL A   1       3.168  10.030  38.048  1.00  0.00    +0.000 C 
ATOM     81  N6  UNL A   1       3.276   8.714  37.675  1.00  0.00    +0.000 N 
ATOM     82  C59 UNL A   1       4.592   4.527  36.982  1.00  0.00    +0.000 C 
ATOM     83  C60 UNL A   1       3.603   3.915  36.347  1.00  0.00    +0.000 C 
ATOM     84  C61 UNL A   1      -1.227  10.741  36.736  1.00  0.00    +0.000 C 
ATOM     85  C62 UNL A   1      -0.218  11.457  37.211  1.00  0.00    +0.000 C 
ATOM    121  H28 UNL A   1      -2.850   6.183  34.552  1.00  0.00    +0.000 H 
ATOM    122  H29 UNL A   1      -1.362   4.043  34.495  1.00  0.00    +0.000 H 
ATOM    123  H30 UNL A   1       0.785   7.073  36.327  1.00  0.00    +0.000 H 
ATOM    124  H31 UNL A   1       6.215   9.181  38.941  1.00  0.00    +0.000 H 
ATOM    125  H32 UNL A   1       4.738  11.245  39.057  1.00  0.00    +0.000 H 
ATOM    126  H33 UNL A   1       2.554   8.220  37.224  1.00  0.00    +0.000 H 
ATOM    127  H34 UNL A   1       5.510   4.154  37.271  1.00  0.00    +0.000 H 
ATOM    128  H35 UNL A   1       3.644   2.941  36.008  1.00  0.00    +0.000 H 
ENDROOT
BRANCH   29   28
ATOM    131  H38 UNL A   1       2.642  13.149  36.569  1.00  0.00    +0.000 H 
ATOM    132  H39 UNL A   1       2.972  15.393  37.423  1.00  0.00    +0.000 H 
ATOM    120  H27 UNL A   1       1.988  11.765  40.494  1.00  0.00    +0.000 H 
ATOM     86  C63 UNL A   1       2.552  13.332  37.581  1.00  0.00    +0.000 C 
ATOM     87  C64 UNL A   1       2.703  14.632  38.064  1.00  0.00    +0.000 C 
ATOM    119  H26 UNL A   1       2.122  14.045  41.316  1.00  0.00    +0.000 H 
ATOM     25  C21 UNL A   1       2.490  14.901  39.419  1.00  0.00    +0.000 C 
ATOM     26  C22 UNL A   1       2.240  13.851  40.309  1.00  0.00    +0.000 C 
ATOM     27  C23 UNL A   1       2.150  12.541  39.833  1.00  0.00    +0.000 C 
ATOM     28  C24 UNL A   1       2.279  12.275  38.461  1.00  0.00    +0.000 C 
BRANCH   25   23
ATOM     23  C20 UNL A   1       2.578  16.281  39.949  1.00  0.00    +0.000 C 
ATOM     24  O2  UNL A   1       3.124  17.153  39.283  1.00  0.00    +0.000 O 
BRANCH   23   22
ATOM    118  H25 UNL A   1       2.671  16.489  41.940  1.00  0.00    +0.000 H 
ATOM     22  N2  UNL A   1       2.051  16.587  41.180  1.00  0.00    +0.000 N 
BRANCH   22   21
ATOM    117  H24 UNL A   1       0.060  16.187  41.488  1.00  0.00    +0.000 H 
ATOM    116  H23 UNL A   1       0.409  17.789  40.831  1.00  0.00    +0.000 H 
ATOM     21  C19 UNL A   1       0.712  17.035  41.527  1.00  0.00    +0.000 C 
BRANCH   21   20
ATOM    114  H21 UNL A   1       0.586  18.677  42.860  1.00  0.00    +0.000 H 
ATOM    115  H22 UNL A   1      -0.210  17.172  43.405  1.00  0.00    +0.000 H 
ATOM     20  C18 UNL A   1       0.647  17.612  42.940  1.00  0.00    +0.000 C 
BRANCH   20   19
ATOM    113  H20 UNL A   1       2.435  16.572  43.273  1.00  0.00    +0.000 H 
ATOM     19  C17 UNL A   1       1.845  17.269  43.832  1.00  0.00    +0.000 C 
ATOM    112  H19 UNL A   1       1.467  16.877  44.753  1.00  0.00    +0.000 H 
BRANCH   19   18
ATOM     18  C16 UNL A   1       2.784  18.437  44.165  1.00  0.00    +0.000 C 
ATOM    110  H17 UNL A   1       2.905  19.025  43.280  1.00  0.00    +0.000 H 
ATOM    111  H18 UNL A   1       2.323  18.965  44.973  1.00  0.00    +0.000 H 
BRANCH   18   17
ATOM     17  C15 UNL A   1       4.178  18.036  44.661  1.00  0.00    +0.000 C 
ATOM    108  H15 UNL A   1       4.463  17.131  44.167  1.00  0.00    +0.000 H 
ATOM    109  H16 UNL A   1       4.832  18.852  44.438  1.00  0.00    +0.000 H 
BRANCH   17   16
ATOM    106  H13 UNL A   1       5.226  18.103  46.516  1.00  0.00    +0.000 H 
ATOM    107  H14 UNL A   1       3.487  18.383  46.636  1.00  0.00    +0.000 H 
ATOM     16  C14 UNL A   1       4.258  17.805  46.172  1.00  0.00    +0.000 C 
BRANCH   16   15
ATOM    105  H12 UNL A   1       3.441  16.277  47.286  1.00  0.00    +0.000 H 
ATOM     15  N1  UNL A   1       4.046  16.416  46.522  1.00  0.00    +0.000 N 
BRANCH   15   13
ATOM     13  C13 UNL A   1       4.535  15.267  45.978  1.00  0.00    +0.000 C 
ATOM     14  O1  UNL A   1       5.700  14.971  46.275  1.00  0.00    +0.000 O 
BRANCH   13   11
ATOM     11  C11 UNL A   1       3.738  14.366  45.024  1.00  0.00    +0.000 C 
ATOM    101  H8  UNL A   1       2.911  14.958  44.692  1.00  0.00    +0.000 H 
BRANCH   11   10
ATOM     99  H6  UNL A   1       5.878  15.451  41.035  1.00  0.00    +0.000 H 
ATOM    100  H7  UNL A   1       4.897  16.023  43.156  1.00  0.00    +0.000 H 
ATOM    133  H40 UNL A   1       4.316  11.952  43.973  1.00  0.00    +0.000 H 
ATOM    134  H41 UNL A   1       5.452  11.375  41.920  1.00  0.00    +0.000 H 
ATOM      7  C7  UNL A   1       5.762  13.361  41.276  1.00  0.00    +0.000 C 
ATOM      8  C8  UNL A   1       5.569  14.695  41.666  1.00  0.00    +0.000 C 
ATOM      9  C9  UNL A   1       4.972  15.030  42.884  1.00  0.00    +0.000 C 
ATOM     10  C10 UNL A   1       4.479  14.043  43.736  1.00  0.00    +0.000 C 
ATOM     88  C65 UNL A   1       4.662  12.704  43.357  1.00  0.00    +0.000 C 
ATOM     89  C66 UNL A   1       5.309  12.370  42.158  1.00  0.00    +0.000 C 
BRANCH    7    6
ATOM     97  H4  UNL A   1       5.480  14.331  35.907  1.00  0.00    +0.000 H 
ATOM      2  C2  UNL A   1       7.059  12.965  35.378  1.00  0.00    +0.000 C 
ATOM      3  C3  UNL A   1       6.203  13.658  36.206  1.00  0.00    +0.000 C 
ATOM      4  C4  UNL A   1       6.494  13.284  37.544  1.00  0.00    +0.000 C 
ATOM      5  C5  UNL A   1       5.952  13.640  38.793  1.00  0.00    +0.000 C 
ATOM     98  H5  UNL A   1       5.202  14.348  38.838  1.00  0.00    +0.000 H 
ATOM      6  C6  UNL A   1       6.417  13.046  39.986  1.00  0.00    +0.000 C 
ATOM    136  H43 UNL A   1       8.850  11.116  38.612  1.00  0.00    +0.000 H 
ATOM    137  H44 UNL A   1       8.591  11.610  35.851  1.00  0.00    +0.000 H 
ATOM    135  H42 UNL A   1       7.842  11.697  40.753  1.00  0.00    +0.000 H 
ATOM     90  C67 UNL A   1       7.478  12.130  39.889  1.00  0.00    +0.000 C 
ATOM     91  C68 UNL A   1       8.061  11.780  38.660  1.00  0.00    +0.000 C 
ATOM     92  C69 UNL A   1       7.535  12.364  37.504  1.00  0.00    +0.000 C 
ATOM     93  N7  UNL A   1       7.871  12.197  36.180  1.00  0.00    +0.000 N 
BRANCH    2    1
ATOM      1  C1  UNL A   1       7.181  12.965  33.901  1.00  0.00    +0.000 C 
ATOM     94  H1  UNL A   1       8.178  12.693  33.624  1.00  0.00    +0.000 H 
ATOM     95  H2  UNL A   1       6.960  13.942  33.524  1.00  0.00    +0.000 H 
ATOM     96  H3  UNL A   1       6.491  12.260  33.486  1.00  0.00    +0.000 H 
ENDBRANCH    2    1
ENDBRANCH    7    6
ENDBRANCH   11   10
BRANCH   11   12
ATOM     12  C12 UNL A   1       3.042  13.188  45.708  1.00  0.00    +0.000 C 
ATOM    102  H9  UNL A   1       2.462  12.649  44.989  1.00  0.00    +0.000 H 
ATOM    103  H10 UNL A   1       2.399  13.553  46.483  1.00  0.00    +0.000 H 
ATOM    104  H11 UNL A   1       3.777  12.536  46.134  1.00  0.00    +0.000 H 
ENDBRANCH   11   12
ENDBRANCH   13   11
ENDBRANCH   15   13
ENDBRANCH   16   15
ENDBRANCH   17   16
ENDBRANCH   18   17
ENDBRANCH   19   18
ENDBRANCH   20   19
ENDBRANCH   21   20
ENDBRANCH   22   21
ENDBRANCH   23   22
ENDBRANCH   25   23
ENDBRANCH   29   28
BRANCH   33   34
ATOM     34  C29 UNL A   1      -3.002   8.856  35.505  1.00  0.00    +0.000 C 
ATOM     35  C30 UNL A   1      -3.296   9.444  34.265  1.00  0.00    +0.000 C 
ATOM     36  F1  UNL A   1      -2.314   9.697  33.389  1.00  0.00    +0.000 F 
ATOM     37  C31 UNL A   1      -4.599   9.809  33.937  1.00  0.00    +0.000 C 
ATOM     38  F2  UNL A   1      -4.850  10.412  32.767  1.00  0.00    +0.000 F 
ATOM     39  C32 UNL A   1      -5.636   9.565  34.825  1.00  0.00    +0.000 C 
ATOM     40  F3  UNL A   1      -6.890   9.912  34.506  1.00  0.00    +0.000 F 
ATOM     41  C33 UNL A   1      -5.371   8.966  36.048  1.00  0.00    +0.000 C 
ATOM     42  F4  UNL A   1      -6.373   8.718  36.902  1.00  0.00    +0.000 F 
ATOM     43  C34 UNL A   1      -4.065   8.623  36.391  1.00  0.00    +0.000 C 
ATOM     44  F5  UNL A   1      -3.839   8.059  37.586  1.00  0.00    +0.000 F 
ENDBRANCH   33   34
BRANCH   50   51
ATOM     51  C40 UNL A   1       1.202   3.014  35.080  1.00  0.00    +0.000 C 
ATOM     52  C41 UNL A   1       1.555   2.708  33.757  1.00  0.00    +0.000 C 
ATOM     53  F6  UNL A   1       1.931   3.684  32.916  1.00  0.00    +0.000 F 
ATOM     54  C42 UNL A   1       1.482   1.401  33.283  1.00  0.00    +0.000 C 
ATOM     55  F7  UNL A   1       1.781   1.138  32.004  1.00  0.00    +0.000 F 
ATOM     56  C43 UNL A   1       1.090   0.374  34.128  1.00  0.00    +0.000 C 
ATOM     57  F8  UNL A   1       1.027  -0.884  33.671  1.00  0.00    +0.000 F 
ATOM     58  C44 UNL A   1       0.754   0.652  35.445  1.00  0.00    +0.000 C 
ATOM     59  F9  UNL A   1       0.384  -0.341  36.266  1.00  0.00    +0.000 F 
ATOM     60  C45 UNL A   1       0.799   1.961  35.914  1.00  0.00    +0.000 C 
ATOM     61  F10 UNL A   1       0.456   2.202  37.189  1.00  0.00    +0.000 F 
ENDBRANCH   50   51
BRANCH   65   66
ATOM     66  C49 UNL A   1       6.315   6.532  38.234  1.00  0.00    +0.000 C 
ATOM     67  C50 UNL A   1       7.421   6.918  37.464  1.00  0.00    +0.000 C 
ATOM     68  F11 UNL A   1       7.236   7.606  36.327  1.00  0.00    +0.000 F 
ATOM     69  C51 UNL A   1       8.715   6.562  37.835  1.00  0.00    +0.000 C 
ATOM     70  F12 UNL A   1       9.751   6.907  37.058  1.00  0.00    +0.000 F 
ATOM     71  C52 UNL A   1       8.931   5.840  38.998  1.00  0.00    +0.000 C 
ATOM     72  F13 UNL A   1      10.178   5.500  39.357  1.00  0.00    +0.000 F 
ATOM     73  C53 UNL A   1       7.854   5.462  39.786  1.00  0.00    +0.000 C 
ATOM     74  F14 UNL A   1       8.061   4.775  40.918  1.00  0.00    +0.000 F 
ATOM     75  C54 UNL A   1       6.557   5.795  39.402  1.00  0.00    +0.000 C 
ATOM     76  F15 UNL A   1       5.532   5.406  40.176  1.00  0.00    +0.000 F 
ENDBRANCH   65   66
TORSDOF 19
ENDMDL
MODEL 9
REMARK VINA RESULT:      -8.7     48.144     52.141
ROOT
ATOM    129  H36 UNL A   1      54.426  22.219  18.639  1.00  0.00    +0.000 H 
ATOM    130  H37 UNL A   1      56.874  21.495  18.831  1.00  0.00    +0.000 H 
ATOM     29  C25 UNL A   1      57.770  19.895  16.652  1.00  0.00    +0.000 C 
ATOM     30  C26 UNL A   1      56.441  20.580  16.803  1.00  0.00    +0.000 C 
ATOM     31  N3  UNL A   1      55.420  20.599  15.982  1.00  0.00    +0.000 N 
ATOM     32  C27 UNL A   1      54.435  21.340  16.620  1.00  0.00    +0.000 C 
ATOM     33  C28 UNL A   1      53.212  21.695  16.160  1.00  0.00    +0.000 C 
ATOM     45  C35 UNL A   1      52.701  21.344  14.861  1.00  0.00    +0.000 C 
ATOM     46  C36 UNL A   1      51.492  21.694  14.284  1.00  0.00    +0.000 C 
ATOM     47  C37 UNL A   1      51.420  21.096  13.021  1.00  0.00    +0.000 C 
ATOM     48  C38 UNL A   1      52.601  20.407  12.794  1.00  0.00    +0.000 C 
ATOM     49  N4  UNL A   1      53.375  20.562  13.935  1.00  0.00    +0.000 N 
ATOM     50  C39 UNL A   1      52.995  19.662  11.627  1.00  0.00    +0.000 C 
ATOM     62  C46 UNL A   1      54.174  19.011  11.481  1.00  0.00    +0.000 C 
ATOM     63  N5  UNL A   1      55.237  18.920  12.370  1.00  0.00    +0.000 N 
ATOM     64  C47 UNL A   1      56.140  18.178  11.778  1.00  0.00    +0.000 C 
ATOM     65  C48 UNL A   1      57.504  17.773  12.264  1.00  0.00    +0.000 C 
ATOM     77  C55 UNL A   1      57.933  18.210  13.463  1.00  0.00    +0.000 C 
ATOM     78  C56 UNL A   1      59.228  17.904  14.063  1.00  0.00    +0.000 C 
ATOM     79  C57 UNL A   1      59.291  18.469  15.279  1.00  0.00    +0.000 C 
ATOM     80  C58 UNL A   1      58.052  19.206  15.530  1.00  0.00    +0.000 C 
ATOM     81  N6  UNL A   1      57.309  19.004  14.395  1.00  0.00    +0.000 N 
ATOM     82  C59 UNL A   1      55.736  17.687  10.453  1.00  0.00    +0.000 C 
ATOM     83  C60 UNL A   1      54.549  18.255  10.304  1.00  0.00    +0.000 C 
ATOM     84  C61 UNL A   1      54.961  21.714  17.917  1.00  0.00    +0.000 C 
ATOM     85  C62 UNL A   1      56.220  21.322  18.053  1.00  0.00    +0.000 C 
ATOM    121  H28 UNL A   1      50.769  22.293  14.712  1.00  0.00    +0.000 H 
ATOM    122  H29 UNL A   1      50.623  21.157  12.369  1.00  0.00    +0.000 H 
ATOM    123  H30 UNL A   1      54.270  20.175  14.067  1.00  0.00    +0.000 H 
ATOM    124  H31 UNL A   1      59.975  17.345  13.623  1.00  0.00    +0.000 H 
ATOM    125  H32 UNL A   1      60.087  18.396  15.933  1.00  0.00    +0.000 H 
ATOM    126  H33 UNL A   1      56.413  19.389  14.260  1.00  0.00    +0.000 H 
ATOM    127  H34 UNL A   1      56.245  17.062   9.807  1.00  0.00    +0.000 H 
ATOM    128  H35 UNL A   1      53.966  18.171   9.457  1.00  0.00    +0.000 H 
ENDROOT
BRANCH   29   28
ATOM    131  H38 UNL A   1      59.668  21.721  17.140  1.00  0.00    +0.000 H 
ATOM    132  H39 UNL A   1      61.349  21.733  18.886  1.00  0.00    +0.000 H 
ATOM    120  H27 UNL A   1      58.124  18.111  18.666  1.00  0.00    +0.000 H 
ATOM     86  C63 UNL A   1      59.682  20.968  17.845  1.00  0.00    +0.000 C 
ATOM     87  C64 UNL A   1      60.625  20.999  18.872  1.00  0.00    +0.000 C 
ATOM    119  H26 UNL A   1      59.681  18.235  20.525  1.00  0.00    +0.000 H 
ATOM     25  C21 UNL A   1      60.588  20.033  19.882  1.00  0.00    +0.000 C 
ATOM     26  C22 UNL A   1      59.682  18.970  19.800  1.00  0.00    +0.000 C 
ATOM     27  C23 UNL A   1      58.777  18.907  18.737  1.00  0.00    +0.000 C 
ATOM     28  C24 UNL A   1      58.753  19.920  17.766  1.00  0.00    +0.000 C 
BRANCH   25   23
ATOM     23  C20 UNL A   1      61.535  20.078  21.020  1.00  0.00    +0.000 C 
ATOM     24  O2  UNL A   1      61.503  21.023  21.799  1.00  0.00    +0.000 O 
BRANCH   23   22
ATOM    118  H25 UNL A   1      63.333  19.220  20.806  1.00  0.00    +0.000 H 
ATOM     22  N2  UNL A   1      62.445  19.066  21.206  1.00  0.00    +0.000 N 
BRANCH   22   21
ATOM    117  H24 UNL A   1      61.381  17.844  22.469  1.00  0.00    +0.000 H 
ATOM    116  H23 UNL A   1      63.136  17.657  22.548  1.00  0.00    +0.000 H 
ATOM     21  C19 UNL A   1      62.291  17.801  21.907  1.00  0.00    +0.000 C 
BRANCH   21   20
ATOM    114  H21 UNL A   1      62.579  15.754  21.442  1.00  0.00    +0.000 H 
ATOM    115  H22 UNL A   1      61.161  16.533  20.678  1.00  0.00    +0.000 H 
ATOM     20  C18 UNL A   1      62.195  16.620  20.945  1.00  0.00    +0.000 C 
BRANCH   20   19
ATOM    113  H20 UNL A   1      63.870  16.236  19.747  1.00  0.00    +0.000 H 
ATOM     19  C17 UNL A   1      62.964  16.793  19.630  1.00  0.00    +0.000 C 
ATOM    112  H19 UNL A   1      63.115  17.841  19.474  1.00  0.00    +0.000 H 
BRANCH   19   18
ATOM     18  C16 UNL A   1      62.282  16.223  18.379  1.00  0.00    +0.000 C 
ATOM    110  H17 UNL A   1      62.965  15.546  17.911  1.00  0.00    +0.000 H 
ATOM    111  H18 UNL A   1      61.381  15.758  18.720  1.00  0.00    +0.000 H 
BRANCH   18   17
ATOM     17  C15 UNL A   1      61.854  17.261  17.335  1.00  0.00    +0.000 C 
ATOM    108  H15 UNL A   1      61.868  16.794  16.372  1.00  0.00    +0.000 H 
ATOM    109  H16 UNL A   1      60.878  17.598  17.616  1.00  0.00    +0.000 H 
BRANCH   17   16
ATOM    106  H13 UNL A   1      62.150  19.353  17.054  1.00  0.00    +0.000 H 
ATOM    107  H14 UNL A   1      63.226  18.603  18.236  1.00  0.00    +0.000 H 
ATOM     16  C14 UNL A   1      62.752  18.498  17.283  1.00  0.00    +0.000 C 
BRANCH   16   15
ATOM    105  H12 UNL A   1      64.642  18.020  16.619  1.00  0.00    +0.000 H 
ATOM     15  N1  UNL A   1      63.790  18.376  16.280  1.00  0.00    +0.000 N 
BRANCH   15   13
ATOM     13  C13 UNL A   1      63.792  18.667  14.949  1.00  0.00    +0.000 C 
ATOM     14  O1  UNL A   1      63.864  17.702  14.177  1.00  0.00    +0.000 O 
BRANCH   13   11
ATOM     11  C11 UNL A   1      63.736  20.094  14.386  1.00  0.00    +0.000 C 
ATOM    101  H8  UNL A   1      64.305  20.069  13.480  1.00  0.00    +0.000 H 
BRANCH   11   10
ATOM     99  H6  UNL A   1      60.233  20.308  11.329  1.00  0.00    +0.000 H 
ATOM    100  H7  UNL A   1      62.347  19.455  12.098  1.00  0.00    +0.000 H 
ATOM    133  H40 UNL A   1      61.929  21.648  15.646  1.00  0.00    +0.000 H 
ATOM    134  H41 UNL A   1      59.733  22.369  14.945  1.00  0.00    +0.000 H 
ATOM      7  C7  UNL A   1      59.779  21.415  13.063  1.00  0.00    +0.000 C 
ATOM      8  C8  UNL A   1      60.576  20.581  12.263  1.00  0.00    +0.000 C 
ATOM      9  C9  UNL A   1      61.817  20.109  12.695  1.00  0.00    +0.000 C 
ATOM     10  C10 UNL A   1      62.349  20.507  13.921  1.00  0.00    +0.000 C 
ATOM     88  C65 UNL A   1      61.566  21.344  14.729  1.00  0.00    +0.000 C 
ATOM     89  C66 UNL A   1      60.296  21.775  14.316  1.00  0.00    +0.000 C 
BRANCH    7    6
ATOM     97  H4  UNL A   1      55.390  24.327  14.515  1.00  0.00    +0.000 H 
ATOM      2  C2  UNL A   1      54.262  23.882  12.734  1.00  0.00    +0.000 C 
ATOM      3  C3  UNL A   1      55.340  23.864  13.594  1.00  0.00    +0.000 C 
ATOM      4  C4  UNL A   1      56.368  23.096  12.988  1.00  0.00    +0.000 C 
ATOM      5  C5  UNL A   1      57.664  22.720  13.385  1.00  0.00    +0.000 C 
ATOM     98  H5  UNL A   1      58.040  23.066  14.281  1.00  0.00    +0.000 H 
ATOM      6  C6  UNL A   1      58.459  21.879  12.578  1.00  0.00    +0.000 C 
ATOM    136  H43 UNL A   1      56.297  21.568   9.978  1.00  0.00    +0.000 H 
ATOM    137  H44 UNL A   1      54.042  23.025  10.831  1.00  0.00    +0.000 H 
ATOM    135  H42 UNL A   1      58.510  20.874  10.727  1.00  0.00    +0.000 H 
ATOM     90  C67 UNL A   1      57.935  21.476  11.338  1.00  0.00    +0.000 C 
ATOM     91  C68 UNL A   1      56.658  21.863  10.899  1.00  0.00    +0.000 C 
ATOM     92  C69 UNL A   1      55.893  22.660  11.756  1.00  0.00    +0.000 C 
ATOM     93  N7  UNL A   1      54.618  23.162  11.618  1.00  0.00    +0.000 N 
BRANCH    2    1
ATOM      1  C1  UNL A   1      52.931  24.518  12.872  1.00  0.00    +0.000 C 
ATOM     94  H1  UNL A   1      53.050  25.525  13.215  1.00  0.00    +0.000 H 
ATOM     95  H2  UNL A   1      52.343  23.968  13.576  1.00  0.00    +0.000 H 
ATOM     96  H3  UNL A   1      52.438  24.522  11.922  1.00  0.00    +0.000 H 
ENDBRANCH    2    1
ENDBRANCH    7    6
ENDBRANCH   11   10
BRANCH   11   12
ATOM     12  C12 UNL A   1      64.496  21.127  15.221  1.00  0.00    +0.000 C 
ATOM    102  H9  UNL A   1      65.542  21.059  15.006  1.00  0.00    +0.000 H 
ATOM    103  H10 UNL A   1      64.333  20.936  16.261  1.00  0.00    +0.000 H 
ATOM    104  H11 UNL A   1      64.146  22.109  14.980  1.00  0.00    +0.000 H 
ENDBRANCH   11   12
ENDBRANCH   13   11
ENDBRANCH   15   13
ENDBRANCH   16   15
ENDBRANCH   17   16
ENDBRANCH   18   17
ENDBRANCH   19   18
ENDBRANCH   20   19
ENDBRANCH   21   20
ENDBRANCH   22   21
ENDBRANCH   23   22
ENDBRANCH   25   23
ENDBRANCH   29   28
BRANCH   33   34
ATOM     34  C29 UNL A   1      52.341  22.513  17.069  1.00  0.00    +0.000 C 
ATOM     35  C30 UNL A   1      52.274  23.910  16.955  1.00  0.00    +0.000 C 
ATOM     36  F1  UNL A   1      53.029  24.551  16.051  1.00  0.00    +0.000 F 
ATOM     37  C31 UNL A   1      51.457  24.658  17.799  1.00  0.00    +0.000 C 
ATOM     38  F2  UNL A   1      51.444  25.995  17.704  1.00  0.00    +0.000 F 
ATOM     39  C32 UNL A   1      50.668  24.024  18.746  1.00  0.00    +0.000 C 
ATOM     40  F3  UNL A   1      49.878  24.745  19.554  1.00  0.00    +0.000 F 
ATOM     41  C33 UNL A   1      50.703  22.642  18.862  1.00  0.00    +0.000 C 
ATOM     42  F4  UNL A   1      49.933  22.028  19.769  1.00  0.00    +0.000 F 
ATOM     43  C34 UNL A   1      51.539  21.893  18.039  1.00  0.00    +0.000 C 
ATOM     44  F5  UNL A   1      51.562  20.560  18.184  1.00  0.00    +0.000 F 
ENDBRANCH   33   34
BRANCH   50   51
ATOM     51  C40 UNL A   1      52.040  19.618  10.472  1.00  0.00    +0.000 C 
ATOM     52  C41 UNL A   1      51.775  20.754   9.693  1.00  0.00    +0.000 C 
ATOM     53  F6  UNL A   1      52.339  21.931  10.004  1.00  0.00    +0.000 F 
ATOM     54  C42 UNL A   1      50.896  20.691   8.615  1.00  0.00    +0.000 C 
ATOM     55  F7  UNL A   1      50.623  21.798   7.911  1.00  0.00    +0.000 F 
ATOM     56  C43 UNL A   1      50.294  19.489   8.276  1.00  0.00    +0.000 C 
ATOM     57  F8  UNL A   1      49.453  19.430   7.234  1.00  0.00    +0.000 F 
ATOM     58  C44 UNL A   1      50.555  18.349   9.023  1.00  0.00    +0.000 C 
ATOM     59  F9  UNL A   1      49.981  17.185   8.690  1.00  0.00    +0.000 F 
ATOM     60  C45 UNL A   1      51.411  18.415  10.117  1.00  0.00    +0.000 C 
ATOM     61  F10 UNL A   1      51.637  17.299  10.829  1.00  0.00    +0.000 F 
ENDBRANCH   50   51
BRANCH   65   66
ATOM     66  C49 UNL A   1      58.390  16.927  11.423  1.00  0.00    +0.000 C 
ATOM     67  C50 UNL A   1      58.508  15.552  11.667  1.00  0.00    +0.000 C 
ATOM     68  F11 UNL A   1      57.829  14.991  12.678  1.00  0.00    +0.000 F 
ATOM     69  C51 UNL A   1      59.355  14.755  10.900  1.00  0.00    +0.000 C 
ATOM     70  F12 UNL A   1      59.483  13.452  11.181  1.00  0.00    +0.000 F 
ATOM     71  C52 UNL A   1      60.078  15.313   9.857  1.00  0.00    +0.000 C 
ATOM     72  F13 UNL A   1      60.892  14.546   9.117  1.00  0.00    +0.000 F 
ATOM     73  C53 UNL A   1      59.964  16.669   9.586  1.00  0.00    +0.000 C 
ATOM     74  F14 UNL A   1      60.652  17.209   8.570  1.00  0.00    +0.000 F 
ATOM     75  C54 UNL A   1      59.136  17.471  10.368  1.00  0.00    +0.000 C 
ATOM     76  F15 UNL A   1      59.055  18.781  10.092  1.00  0.00    +0.000 F 
ENDBRANCH   65   66
TORSDOF 19
ENDMDL
MODEL 10
REMARK VINA RESULT:      -8.7     12.582     17.308
ROOT
ATOM    129  H36 UNL A   1       6.479   9.090  38.750  1.00  0.00    +0.000 H 
ATOM    130  H37 UNL A   1       5.106  11.217  39.128  1.00  0.00    +0.000 H 
ATOM     29  C25 UNL A   1       2.476  11.092  38.043  1.00  0.00    +0.000 C 
ATOM     30  C26 UNL A   1       3.497   9.991  38.104  1.00  0.00    +0.000 C 
ATOM     31  N3  UNL A   1       3.409   8.754  37.685  1.00  0.00    +0.000 N 
ATOM     32  C27 UNL A   1       4.644   8.177  37.945  1.00  0.00    +0.000 C 
ATOM     33  C28 UNL A   1       5.038   6.897  37.747  1.00  0.00    +0.000 C 
ATOM     45  C35 UNL A   1       4.195   5.862  37.206  1.00  0.00    +0.000 C 
ATOM     46  C36 UNL A   1       4.487   4.523  37.010  1.00  0.00    +0.000 C 
ATOM     47  C37 UNL A   1       3.370   3.913  36.429  1.00  0.00    +0.000 C 
ATOM     48  C38 UNL A   1       2.369   4.861  36.302  1.00  0.00    +0.000 C 
ATOM     49  N4  UNL A   1       2.891   6.055  36.775  1.00  0.00    +0.000 N 
ATOM     50  C39 UNL A   1       1.035   4.693  35.786  1.00  0.00    +0.000 C 
ATOM     62  C46 UNL A   1       0.108   5.677  35.692  1.00  0.00    +0.000 C 
ATOM     63  N5  UNL A   1       0.210   7.011  36.064  1.00  0.00    +0.000 N 
ATOM     64  C47 UNL A   1      -0.945   7.557  35.768  1.00  0.00    +0.000 C 
ATOM     65  C48 UNL A   1      -1.408   8.971  35.980  1.00  0.00    +0.000 C 
ATOM     77  C55 UNL A   1      -0.578   9.857  36.564  1.00  0.00    +0.000 C 
ATOM     78  C56 UNL A   1      -0.888  11.257  36.837  1.00  0.00    +0.000 C 
ATOM     79  C57 UNL A   1       0.188  11.845  37.383  1.00  0.00    +0.000 C 
ATOM     80  C58 UNL A   1       1.253  10.852  37.530  1.00  0.00    +0.000 C 
ATOM     81  N6  UNL A   1       0.706   9.699  37.026  1.00  0.00    +0.000 N 
ATOM     82  C59 UNL A   1      -1.902   6.633  35.144  1.00  0.00    +0.000 C 
ATOM     83  C60 UNL A   1      -1.225   5.494  35.158  1.00  0.00    +0.000 C 
ATOM     84  C61 UNL A   1       5.482   9.212  38.514  1.00  0.00    +0.000 C 
ATOM     85  C62 UNL A   1       4.801  10.334  38.691  1.00  0.00    +0.000 C 
ATOM    121  H28 UNL A   1       5.375   4.057  37.250  1.00  0.00    +0.000 H 
ATOM    122  H29 UNL A   1       3.304   2.923  36.144  1.00  0.00    +0.000 H 
ATOM    123  H30 UNL A   1       2.408   6.912  36.803  1.00  0.00    +0.000 H 
ATOM    124  H31 UNL A   1      -1.789  11.719  36.642  1.00  0.00    +0.000 H 
ATOM    125  H32 UNL A   1       0.254  12.838  37.656  1.00  0.00    +0.000 H 
ATOM    126  H33 UNL A   1       1.187   8.841  36.997  1.00  0.00    +0.000 H 
ATOM    127  H34 UNL A   1      -2.853   6.822  34.789  1.00  0.00    +0.000 H 
ATOM    128  H35 UNL A   1      -1.601   4.590  34.830  1.00  0.00    +0.000 H 
ENDROOT
BRANCH   29   28
ATOM    131  H38 UNL A   1       1.779  12.324  40.317  1.00  0.00    +0.000 H 
ATOM    132  H39 UNL A   1       2.254  14.594  41.019  1.00  0.00    +0.000 H 
ATOM    120  H27 UNL A   1       3.943  12.983  36.762  1.00  0.00    +0.000 H 
ATOM     86  C63 UNL A   1       2.356  12.936  39.720  1.00  0.00    +0.000 C 
ATOM     87  C64 UNL A   1       2.662  14.228  40.145  1.00  0.00    +0.000 C 
ATOM    119  H26 UNL A   1       4.580  15.184  37.563  1.00  0.00    +0.000 H 
ATOM     25  C21 UNL A   1       3.520  15.028  39.385  1.00  0.00    +0.000 C 
ATOM     26  C22 UNL A   1       3.979  14.577  38.143  1.00  0.00    +0.000 C 
ATOM     27  C23 UNL A   1       3.622  13.305  37.689  1.00  0.00    +0.000 C 
ATOM     28  C24 UNL A   1       2.830  12.464  38.486  1.00  0.00    +0.000 C 
BRANCH   25   23
ATOM     23  C20 UNL A   1       3.914  16.380  39.844  1.00  0.00    +0.000 C 
ATOM     24  O2  UNL A   1       3.089  17.286  39.845  1.00  0.00    +0.000 O 
BRANCH   23   22
ATOM    118  H25 UNL A   1       5.617  17.433  39.901  1.00  0.00    +0.000 H 
ATOM     22  N2  UNL A   1       5.198  16.622  40.270  1.00  0.00    +0.000 N 
BRANCH   22   21
ATOM    117  H24 UNL A   1       5.380  15.299  41.831  1.00  0.00    +0.000 H 
ATOM    116  H23 UNL A   1       6.642  16.532  41.743  1.00  0.00    +0.000 H 
ATOM     21  C19 UNL A   1       6.028  15.856  41.186  1.00  0.00    +0.000 C 
BRANCH   21   20
ATOM    114  H21 UNL A   1       6.809  15.023  39.401  1.00  0.00    +0.000 H 
ATOM    115  H22 UNL A   1       7.922  15.045  40.800  1.00  0.00    +0.000 H 
ATOM     20  C18 UNL A   1       6.927  14.863  40.452  1.00  0.00    +0.000 C 
BRANCH   20   19
ATOM    113  H20 UNL A   1       7.563  12.961  41.057  1.00  0.00    +0.000 H 
ATOM     19  C17 UNL A   1       6.632  13.387  40.745  1.00  0.00    +0.000 C 
ATOM    112  H19 UNL A   1       6.232  12.950  39.854  1.00  0.00    +0.000 H 
BRANCH   19   18
ATOM     18  C16 UNL A   1       5.645  13.119  41.889  1.00  0.00    +0.000 C 
ATOM    110  H17 UNL A   1       6.150  13.314  42.812  1.00  0.00    +0.000 H 
ATOM    111  H18 UNL A   1       4.807  13.761  41.713  1.00  0.00    +0.000 H 
BRANCH   18   17
ATOM     17  C15 UNL A   1       5.082  11.695  41.949  1.00  0.00    +0.000 C 
ATOM    108  H15 UNL A   1       4.888  11.368  40.949  1.00  0.00    +0.000 H 
ATOM    109  H16 UNL A   1       5.815  11.094  42.444  1.00  0.00    +0.000 H 
BRANCH   17   16
ATOM    106  H13 UNL A   1       4.031  11.550  43.797  1.00  0.00    +0.000 H 
ATOM    107  H14 UNL A   1       3.169  12.411  42.519  1.00  0.00    +0.000 H 
ATOM     16  C14 UNL A   1       3.788  11.571  42.755  1.00  0.00    +0.000 C 
BRANCH   16   15
ATOM    105  H12 UNL A   1       3.611   9.563  42.331  1.00  0.00    +0.000 H 
ATOM     15  N1  UNL A   1       3.053  10.368  42.423  1.00  0.00    +0.000 N 
BRANCH   15   13
ATOM     13  C13 UNL A   1       1.723  10.155  42.217  1.00  0.00    +0.000 C 
ATOM     14  O1  UNL A   1       0.970  10.429  43.161  1.00  0.00    +0.000 O 
BRANCH   13   11
ATOM     11  C11 UNL A   1       1.141   9.586  40.915  1.00  0.00    +0.000 C 
ATOM    101  H8  UNL A   1       1.693  10.051  40.125  1.00  0.00    +0.000 H 
BRANCH   11   10
ATOM     99  H6  UNL A   1       3.821   5.782  41.057  1.00  0.00    +0.000 H 
ATOM    100  H7  UNL A   1       3.350   8.084  41.577  1.00  0.00    +0.000 H 
ATOM    133  H40 UNL A   1      -0.448   7.688  39.847  1.00  0.00    +0.000 H 
ATOM    134  H41 UNL A   1      -0.037   5.335  39.478  1.00  0.00    +0.000 H 
ATOM      7  C7  UNL A   1       1.937   5.338  40.222  1.00  0.00    +0.000 C 
ATOM      8  C8  UNL A   1       2.897   6.174  40.816  1.00  0.00    +0.000 C 
ATOM      9  C9  UNL A   1       2.637   7.518  41.091  1.00  0.00    +0.000 C 
ATOM     10  C10 UNL A   1       1.427   8.106  40.721  1.00  0.00    +0.000 C 
ATOM     88  C65 UNL A   1       0.460   7.283  40.123  1.00  0.00    +0.000 C 
ATOM     89  C66 UNL A   1       0.705   5.920  39.895  1.00  0.00    +0.000 C 
BRANCH    7    6
ATOM     97  H4  UNL A   1      -0.346   0.595  38.761  1.00  0.00    +0.000 H 
ATOM      2  C2  UNL A   1       1.444  -0.574  39.029  1.00  0.00    +0.000 C 
ATOM      3  C3  UNL A   1       0.657   0.557  39.003  1.00  0.00    +0.000 C 
ATOM      4  C4  UNL A   1       1.471   1.662  39.366  1.00  0.00    +0.000 C 
ATOM      5  C5  UNL A   1       1.228   3.038  39.526  1.00  0.00    +0.000 C 
ATOM     98  H5  UNL A   1       0.289   3.415  39.317  1.00  0.00    +0.000 H 
ATOM      6  C6  UNL A   1       2.244   3.913  39.964  1.00  0.00    +0.000 C 
ATOM    136  H43 UNL A   1       4.754   1.633  40.149  1.00  0.00    +0.000 H 
ATOM    137  H44 UNL A   1       3.487  -0.786  39.460  1.00  0.00    +0.000 H 
ATOM    135  H42 UNL A   1       4.283   4.000  40.487  1.00  0.00    +0.000 H 
ATOM     90  C67 UNL A   1       3.523   3.372  40.182  1.00  0.00    +0.000 C 
ATOM     91  C68 UNL A   1       3.804   2.008  39.999  1.00  0.00    +0.000 C 
ATOM     92  C69 UNL A   1       2.752   1.176  39.606  1.00  0.00    +0.000 C 
ATOM     93  N7  UNL A   1       2.714  -0.181  39.380  1.00  0.00    +0.000 N 
BRANCH    2    1
ATOM      1  C1  UNL A   1       1.104  -1.990  38.751  1.00  0.00    +0.000 C 
ATOM     94  H1  UNL A   1       0.174  -2.037  38.224  1.00  0.00    +0.000 H 
ATOM     95  H2  UNL A   1       1.019  -2.524  39.674  1.00  0.00    +0.000 H 
ATOM     96  H3  UNL A   1       1.875  -2.431  38.154  1.00  0.00    +0.000 H 
ENDBRANCH    2    1
ENDBRANCH    7    6
ENDBRANCH   11   10
BRANCH   11   12
ATOM     12  C12 UNL A   1      -0.292  10.033  40.620  1.00  0.00    +0.000 C 
ATOM    102  H9  UNL A   1      -0.962   9.216  40.784  1.00  0.00    +0.000 H 
ATOM    103  H10 UNL A   1      -0.364  10.354  39.601  1.00  0.00    +0.000 H 
ATOM    104  H11 UNL A   1      -0.554  10.844  41.268  1.00  0.00    +0.000 H 
ENDBRANCH   11   12
ENDBRANCH   13   11
ENDBRANCH   15   13
ENDBRANCH   16   15
ENDBRANCH   17   16
ENDBRANCH   18   17
ENDBRANCH   19   18
ENDBRANCH   20   19
ENDBRANCH   21   20
ENDBRANCH   22   21
ENDBRANCH   23   22
ENDBRANCH   25   23
ENDBRANCH   29   28
BRANCH   33   34
ATOM     34  C29 UNL A   1       6.446   6.539  38.128  1.00  0.00    +0.000 C 
ATOM     35  C30 UNL A   1       7.534   6.887  37.314  1.00  0.00    +0.000 C 
ATOM     36  F1  UNL A   1       7.331   7.514  36.147  1.00  0.00    +0.000 F 
ATOM     37  C31 UNL A   1       8.836   6.555  37.681  1.00  0.00    +0.000 C 
ATOM     38  F2  UNL A   1       9.857   6.856  36.866  1.00  0.00    +0.000 F 
ATOM     39  C32 UNL A   1       9.078   5.902  38.880  1.00  0.00    +0.000 C 
ATOM     40  F3  UNL A   1      10.331   5.588  39.233  1.00  0.00    +0.000 F 
ATOM     41  C33 UNL A   1       8.018   5.567  39.709  1.00  0.00    +0.000 C 
ATOM     42  F4  UNL A   1       8.250   4.946  40.873  1.00  0.00    +0.000 F 
ATOM     43  C34 UNL A   1       6.712   5.872  39.333  1.00  0.00    +0.000 C 
ATOM     44  F5  UNL A   1       5.707   5.522  40.150  1.00  0.00    +0.000 F 
ENDBRANCH   33   34
BRANCH   50   51
ATOM     51  C40 UNL A   1       0.628   3.322  35.335  1.00  0.00    +0.000 C 
ATOM     52  C41 UNL A   1      -0.268   2.540  36.079  1.00  0.00    +0.000 C 
ATOM     53  F6  UNL A   1      -0.744   2.989  37.251  1.00  0.00    +0.000 F 
ATOM     54  C42 UNL A   1      -0.647   1.275  35.638  1.00  0.00    +0.000 C 
ATOM     55  F7  UNL A   1      -1.469   0.526  36.386  1.00  0.00    +0.000 F 
ATOM     56  C43 UNL A   1      -0.165   0.783  34.435  1.00  0.00    +0.000 C 
ATOM     57  F8  UNL A   1      -0.535  -0.433  34.010  1.00  0.00    +0.000 F 
ATOM     58  C44 UNL A   1       0.709   1.548  33.675  1.00  0.00    +0.000 C 
ATOM     59  F9  UNL A   1       1.167   1.077  32.506  1.00  0.00    +0.000 F 
ATOM     60  C45 UNL A   1       1.111   2.801  34.125  1.00  0.00    +0.000 C 
ATOM     61  F10 UNL A   1       1.966   3.513  33.376  1.00  0.00    +0.000 F 
ENDBRANCH   50   51
BRANCH   65   66
ATOM     66  C49 UNL A   1      -2.777   9.390  35.581  1.00  0.00    +0.000 C 
ATOM     67  C50 UNL A   1      -3.855   9.247  36.466  1.00  0.00    +0.000 C 
ATOM     68  F11 UNL A   1      -3.657   8.713  37.680  1.00  0.00    +0.000 F 
ATOM     69  C51 UNL A   1      -5.145   9.614  36.092  1.00  0.00    +0.000 C 
ATOM     70  F12 UNL A   1      -6.165   9.427  36.941  1.00  0.00    +0.000 F 
ATOM     71  C52 UNL A   1      -5.378  10.156  34.838  1.00  0.00    +0.000 C 
ATOM     72  F13 UNL A   1      -6.620  10.512  34.479  1.00  0.00    +0.000 F 
ATOM     73  C53 UNL A   1      -4.324  10.323  33.952  1.00  0.00    +0.000 C 
ATOM     74  F14 UNL A   1      -4.543  10.859  32.743  1.00  0.00    +0.000 F 
ATOM     75  C54 UNL A   1      -3.036   9.933  34.315  1.00  0.00    +0.000 C 
ATOM     76  F15 UNL A   1      -2.038  10.094  33.435  1.00  0.00    +0.000 F 
ENDBRANCH   65   66
TORSDOF 19
ENDMDL
