MODEL 1
REMARK VINA RESULT:     -12.1      0.000      0.000
ROOT
ATOM    129  H36 UNL A   1      41.067  26.874  25.269  1.00  0.00    +0.000 H 
ATOM    130  H37 UNL A   1      39.497  28.618  26.263  1.00  0.00    +0.000 H 
ATOM    131  H38 UNL A   1      42.291  27.666  29.199  1.00  0.00    +0.000 H 
ATOM    132  H39 UNL A   1      44.113  24.990  29.651  1.00  0.00    +0.000 H 
ATOM    133  H40 UNL A   1      45.255  26.851  31.029  1.00  0.00    +0.000 H 
ATOM    134  H41 UNL A   1      39.319  28.015  33.564  1.00  0.00    +0.000 H 
ATOM    135  H42 UNL A   1      38.292  27.596  31.237  1.00  0.00    +0.000 H 
ATOM     32  C27 UNL A   1      39.786  28.894  29.131  1.00  0.00    +0.000 C 
ATOM     33  C28 UNL A   1      40.118  28.770  30.575  1.00  0.00    +0.000 C 
ATOM     34  N4  UNL A   1      41.098  29.345  31.191  1.00  0.00    +0.000 N 
ATOM     35  C29 UNL A   1      41.024  28.913  32.511  1.00  0.00    +0.000 C 
ATOM     36  C30 UNL A   1      42.150  28.878  33.275  1.00  0.00    +0.000 C 
ATOM     48  C37 UNL A   1      43.199  29.665  32.680  1.00  0.00    +0.000 C 
ATOM     49  C38 UNL A   1      43.575  30.988  32.636  1.00  0.00    +0.000 C 
ATOM     50  C39 UNL A   1      44.415  31.132  31.490  1.00  0.00    +0.000 C 
ATOM     51  C40 UNL A   1      44.559  29.889  30.884  1.00  0.00    +0.000 C 
ATOM     52  N5  UNL A   1      43.851  29.022  31.667  1.00  0.00    +0.000 N 
ATOM     53  C41 UNL A   1      45.029  29.448  29.594  1.00  0.00    +0.000 C 
ATOM     65  C48 UNL A   1      45.091  28.135  29.240  1.00  0.00    +0.000 C 
ATOM     66  N6  UNL A   1      44.844  27.749  27.942  1.00  0.00    +0.000 N 
ATOM     67  C49 UNL A   1      44.233  26.603  28.063  1.00  0.00    +0.000 C 
ATOM     68  C50 UNL A   1      43.219  26.126  27.098  1.00  0.00    +0.000 C 
ATOM     80  C57 UNL A   1      42.137  26.936  27.207  1.00  0.00    +0.000 C 
ATOM     81  C58 UNL A   1      41.120  27.256  26.226  1.00  0.00    +0.000 C 
ATOM     82  C59 UNL A   1      40.253  28.136  26.772  1.00  0.00    +0.000 C 
ATOM     83  C60 UNL A   1      40.553  28.299  28.193  1.00  0.00    +0.000 C 
ATOM     84  N7  UNL A   1      41.762  27.641  28.369  1.00  0.00    +0.000 N 
ATOM     85  C61 UNL A   1      44.377  25.943  29.356  1.00  0.00    +0.000 C 
ATOM     86  C62 UNL A   1      44.951  26.931  30.046  1.00  0.00    +0.000 C 
ATOM     87  C63 UNL A   1      39.740  28.282  32.661  1.00  0.00    +0.000 C 
ATOM     88  C64 UNL A   1      39.168  28.090  31.469  1.00  0.00    +0.000 C 
ATOM    126  H33 UNL A   1      43.304  31.731  33.300  1.00  0.00    +0.000 H 
ATOM    127  H34 UNL A   1      44.846  32.013  31.166  1.00  0.00    +0.000 H 
ATOM    128  H35 UNL A   1      43.814  28.049  31.519  1.00  0.00    +0.000 H 
ENDROOT
BRANCH   32   31
ATOM    136  H43 UNL A   1      39.316  31.557  29.543  1.00  0.00    +0.000 H 
ATOM    137  H44 UNL A   1      37.274  32.753  29.033  1.00  0.00    +0.000 H 
ATOM    124  H31 UNL A   1      35.649  29.289  27.320  1.00  0.00    +0.000 H 
ATOM    125  H32 UNL A   1      37.592  28.045  28.019  1.00  0.00    +0.000 H 
ATOM     89  C65 UNL A   1      38.512  31.057  29.131  1.00  0.00    +0.000 C 
ATOM     90  C66 UNL A   1      37.340  31.745  28.820  1.00  0.00    +0.000 C 
ATOM     28  C23 UNL A   1      36.244  31.096  28.221  1.00  0.00    +0.000 C 
ATOM     29  C24 UNL A   1      36.390  29.758  27.863  1.00  0.00    +0.000 C 
ATOM     30  C25 UNL A   1      37.527  29.053  28.230  1.00  0.00    +0.000 C 
ATOM     31  C26 UNL A   1      38.586  29.694  28.884  1.00  0.00    +0.000 C 
BRANCH   28   26
ATOM     26  C22 UNL A   1      34.995  31.895  28.074  1.00  0.00    +0.000 C 
ATOM     27  O2  UNL A   1      35.053  33.120  28.238  1.00  0.00    +0.000 O 
BRANCH   26   25
ATOM     25  N3  UNL A   1      33.755  31.368  27.834  1.00  0.00    +0.000 N 
ATOM    123  H30 UNL A   1      33.130  31.479  28.587  1.00  0.00    +0.000 H 
BRANCH   25   24
ATOM    121  H28 UNL A   1      32.794  31.410  26.017  1.00  0.00    +0.000 H 
ATOM    122  H29 UNL A   1      33.942  30.077  26.269  1.00  0.00    +0.000 H 
ATOM     24  C21 UNL A   1      33.171  30.679  26.702  1.00  0.00    +0.000 C 
BRANCH   24   23
ATOM    119  H26 UNL A   1      31.545  30.134  27.957  1.00  0.00    +0.000 H 
ATOM     23  C20 UNL A   1      32.024  29.738  27.085  1.00  0.00    +0.000 C 
ATOM    120  H27 UNL A   1      31.378  29.689  26.234  1.00  0.00    +0.000 H 
BRANCH   23   22
ATOM    118  H25 UNL A   1      32.402  28.187  28.450  1.00  0.00    +0.000 H 
ATOM    117  H24 UNL A   1      33.427  28.148  26.991  1.00  0.00    +0.000 H 
ATOM     22  C19 UNL A   1      32.444  28.300  27.387  1.00  0.00    +0.000 C 
BRANCH   22   21
ATOM    115  H22 UNL A   1      31.998  26.289  26.908  1.00  0.00    +0.000 H 
ATOM    116  H23 UNL A   1      30.599  27.314  27.332  1.00  0.00    +0.000 H 
ATOM     21  C18 UNL A   1      31.523  27.241  26.799  1.00  0.00    +0.000 C 
BRANCH   21   20
ATOM    113  H20 UNL A   1      30.324  26.842  25.089  1.00  0.00    +0.000 H 
ATOM    114  H21 UNL A   1      31.032  28.493  25.191  1.00  0.00    +0.000 H 
ATOM     20  C17 UNL A   1      31.183  27.441  25.310  1.00  0.00    +0.000 C 
BRANCH   20   19
ATOM     19  C16 UNL A   1      32.284  27.069  24.303  1.00  0.00    +0.000 C 
ATOM    111  H18 UNL A   1      32.544  27.953  23.757  1.00  0.00    +0.000 H 
ATOM    112  H19 UNL A   1      33.090  26.668  24.881  1.00  0.00    +0.000 H 
BRANCH   19   18
ATOM     18  N2  UNL A   1      31.927  26.035  23.340  1.00  0.00    +0.000 N 
ATOM    110  H17 UNL A   1      31.416  26.370  22.567  1.00  0.00    +0.000 H 
BRANCH   18   16
ATOM     17  O1  UNL A   1      33.125  24.292  22.646  1.00  0.00    +0.000 O 
ATOM     16  C15 UNL A   1      32.164  24.689  23.305  1.00  0.00    +0.000 C 
BRANCH   16   15
ATOM    108  H15 UNL A   1      30.363  24.272  24.280  1.00  0.00    +0.000 H 
ATOM    109  H16 UNL A   1      31.105  22.939  23.280  1.00  0.00    +0.000 H 
ATOM     15  C14 UNL A   1      31.236  23.720  24.000  1.00  0.00    +0.000 C 
BRANCH   15   12
ATOM      3  C3  UNL A   1      34.098  18.533  24.466  1.00  0.00    +0.000 C 
ATOM      4  C4  UNL A   1      35.468  18.191  24.565  1.00  0.00    +0.000 C 
ATOM      5  C5  UNL A   1      36.466  19.130  24.809  1.00  0.00    +0.000 C 
ATOM      6  C6  UNL A   1      36.133  20.461  25.004  1.00  0.00    +0.000 C 
ATOM      7  C7  UNL A   1      34.783  20.840  24.940  1.00  0.00    +0.000 C 
ATOM      8  C8  UNL A   1      34.125  22.051  25.219  1.00  0.00    +0.000 C 
ATOM      9  C9  UNL A   1      32.773  21.907  24.998  1.00  0.00    +0.000 C 
ATOM     10  N1  UNL A   1      32.585  20.590  24.634  1.00  0.00    +0.000 N 
ATOM     11  C10 UNL A   1      33.796  19.902  24.650  1.00  0.00    +0.000 C 
ATOM     12  C11 UNL A   1      31.722  22.971  25.263  1.00  0.00    +0.000 C 
ATOM    140  H47 UNL A   1      35.441  23.659  25.127  1.00  0.00    +0.000 H 
ATOM    141  H48 UNL A   1      35.185  23.001  26.731  1.00  0.00    +0.000 H 
ATOM    138  H45 UNL A   1      33.936  24.840  26.936  1.00  0.00    +0.000 H 
ATOM    139  H46 UNL A   1      33.598  24.860  25.156  1.00  0.00    +0.000 H 
ATOM     91  O3  UNL A   1      32.297  23.839  26.271  1.00  0.00    +0.000 O 
ATOM     92  C67 UNL A   1      33.645  24.294  26.063  1.00  0.00    +0.000 C 
ATOM     93  C68 UNL A   1      34.716  23.257  25.804  1.00  0.00    +0.000 C 
ATOM     99  H6  UNL A   1      35.739  17.202  24.451  1.00  0.00    +0.000 H 
ATOM    100  H7  UNL A   1      37.455  18.835  24.845  1.00  0.00    +0.000 H 
ATOM    101  H8  UNL A   1      36.866  21.163  25.191  1.00  0.00    +0.000 H 
ATOM    102  H9  UNL A   1      31.717  20.192  24.396  1.00  0.00    +0.000 H 
BRANCH    3    2
ATOM     97  H4  UNL A   1      32.134  18.005  23.940  1.00  0.00    +0.000 H 
ATOM      2  C2  UNL A   1      33.025  17.495  24.241  1.00  0.00    +0.000 C 
ATOM     98  H5  UNL A   1      33.421  16.829  23.503  1.00  0.00    +0.000 H 
BRANCH    2    1
ATOM      1  C1  UNL A   1      32.678  16.619  25.440  1.00  0.00    +0.000 C 
ATOM     94  H1  UNL A   1      32.541  17.234  26.304  1.00  0.00    +0.000 H 
ATOM     95  H2  UNL A   1      33.474  15.926  25.617  1.00  0.00    +0.000 H 
ATOM     96  H3  UNL A   1      31.775  16.081  25.238  1.00  0.00    +0.000 H 
ENDBRANCH    2    1
ENDBRANCH    3    2
BRANCH   12   13
ATOM     13  C12 UNL A   1      30.479  22.326  25.963  1.00  0.00    +0.000 C 
ATOM    103  H10 UNL A   1      30.772  21.368  26.339  1.00  0.00    +0.000 H 
ATOM    104  H11 UNL A   1      29.713  22.283  25.217  1.00  0.00    +0.000 H 
BRANCH   13   14
ATOM    105  H12 UNL A   1      30.456  22.944  28.015  1.00  0.00    +0.000 H 
ATOM    106  H13 UNL A   1      28.871  22.828  27.287  1.00  0.00    +0.000 H 
ATOM    107  H14 UNL A   1      29.916  24.172  26.894  1.00  0.00    +0.000 H 
ATOM     14  C13 UNL A   1      29.886  23.128  27.127  1.00  0.00    +0.000 C 
ENDBRANCH   13   14
ENDBRANCH   12   13
ENDBRANCH   15   12
ENDBRANCH   16   15
ENDBRANCH   18   16
ENDBRANCH   19   18
ENDBRANCH   20   19
ENDBRANCH   21   20
ENDBRANCH   22   21
ENDBRANCH   23   22
ENDBRANCH   24   23
ENDBRANCH   25   24
ENDBRANCH   26   25
ENDBRANCH   28   26
ENDBRANCH   32   31
BRANCH   36   37
ATOM     37  C31 UNL A   1      42.497  27.760  34.240  1.00  0.00    +0.000 C 
ATOM     38  C32 UNL A   1      43.040  26.562  33.729  1.00  0.00    +0.000 C 
ATOM     39  F1  UNL A   1      43.516  26.505  32.477  1.00  0.00    +0.000 F 
ATOM     40  C33 UNL A   1      43.028  25.369  34.462  1.00  0.00    +0.000 C 
ATOM     41  F2  UNL A   1      43.447  24.231  33.892  1.00  0.00    +0.000 F 
ATOM     42  C34 UNL A   1      42.521  25.342  35.748  1.00  0.00    +0.000 C 
ATOM     43  F3  UNL A   1      42.454  24.192  36.430  1.00  0.00    +0.000 F 
ATOM     44  C35 UNL A   1      42.041  26.507  36.306  1.00  0.00    +0.000 C 
ATOM     45  F4  UNL A   1      41.523  26.496  37.543  1.00  0.00    +0.000 F 
ATOM     46  C36 UNL A   1      42.011  27.687  35.563  1.00  0.00    +0.000 C 
ATOM     47  F5  UNL A   1      41.386  28.711  36.152  1.00  0.00    +0.000 F 
ENDBRANCH   36   37
BRANCH   53   54
ATOM     54  C42 UNL A   1      45.286  30.469  28.537  1.00  0.00    +0.000 C 
ATOM     55  C43 UNL A   1      44.312  30.964  27.657  1.00  0.00    +0.000 C 
ATOM     56  F6  UNL A   1      43.046  30.524  27.716  1.00  0.00    +0.000 F 
ATOM     57  C44 UNL A   1      44.627  31.957  26.731  1.00  0.00    +0.000 C 
ATOM     58  F7  UNL A   1      43.689  32.414  25.889  1.00  0.00    +0.000 F 
ATOM     59  C45 UNL A   1      45.904  32.499  26.696  1.00  0.00    +0.000 C 
ATOM     60  F8  UNL A   1      46.196  33.483  25.834  1.00  0.00    +0.000 F 
ATOM     61  C46 UNL A   1      46.874  32.037  27.570  1.00  0.00    +0.000 C 
ATOM     62  F9  UNL A   1      48.098  32.582  27.569  1.00  0.00    +0.000 F 
ATOM     63  C47 UNL A   1      46.572  31.022  28.470  1.00  0.00    +0.000 C 
ATOM     64  F10 UNL A   1      47.529  30.602  29.313  1.00  0.00    +0.000 F 
ENDBRANCH   53   54
BRANCH   68   69
ATOM     69  C51 UNL A   1      43.357  24.822  26.409  1.00  0.00    +0.000 C 
ATOM     70  C52 UNL A   1      44.283  24.656  25.363  1.00  0.00    +0.000 C 
ATOM     71  F11 UNL A   1      44.843  25.726  24.779  1.00  0.00    +0.000 F 
ATOM     72  C53 UNL A   1      44.718  23.388  24.963  1.00  0.00    +0.000 C 
ATOM     73  F12 UNL A   1      45.667  23.273  24.024  1.00  0.00    +0.000 F 
ATOM     74  C54 UNL A   1      44.227  22.253  25.585  1.00  0.00    +0.000 C 
ATOM     75  F13 UNL A   1      44.706  21.044  25.263  1.00  0.00    +0.000 F 
ATOM     76  C55 UNL A   1      43.271  22.382  26.578  1.00  0.00    +0.000 C 
ATOM     77  F14 UNL A   1      42.812  21.291  27.207  1.00  0.00    +0.000 F 
ATOM     78  C56 UNL A   1      42.838  23.646  26.980  1.00  0.00    +0.000 C 
ATOM     79  F15 UNL A   1      41.983  23.706  28.010  1.00  0.00    +0.000 F 
ENDBRANCH   68   69
TORSDOF 20
ENDMDL
MODEL 2
REMARK VINA RESULT:     -12.0      4.704      8.438
ROOT
ATOM    129  H36 UNL A   1      41.447  27.170  25.158  1.00  0.00    +0.000 H 
ATOM    130  H37 UNL A   1      39.827  28.821  26.228  1.00  0.00    +0.000 H 
ATOM    131  H38 UNL A   1      42.673  27.851  29.108  1.00  0.00    +0.000 H 
ATOM    132  H39 UNL A   1      44.585  25.221  29.446  1.00  0.00    +0.000 H 
ATOM    133  H40 UNL A   1      45.675  27.065  30.889  1.00  0.00    +0.000 H 
ATOM    134  H41 UNL A   1      39.722  27.933  33.501  1.00  0.00    +0.000 H 
ATOM    135  H42 UNL A   1      38.693  27.570  31.165  1.00  0.00    +0.000 H 
ATOM     32  C27 UNL A   1      40.127  28.997  29.102  1.00  0.00    +0.000 C 
ATOM     33  C28 UNL A   1      40.474  28.828  30.539  1.00  0.00    +0.000 C 
ATOM     34  N4  UNL A   1      41.438  29.412  31.170  1.00  0.00    +0.000 N 
ATOM     35  C29 UNL A   1      41.389  28.927  32.474  1.00  0.00    +0.000 C 
ATOM     36  C30 UNL A   1      42.520  28.900  33.229  1.00  0.00    +0.000 C 
ATOM     48  C37 UNL A   1      43.539  29.744  32.659  1.00  0.00    +0.000 C 
ATOM     49  C38 UNL A   1      43.870  31.080  32.664  1.00  0.00    +0.000 C 
ATOM     50  C39 UNL A   1      44.697  31.296  31.519  1.00  0.00    +0.000 C 
ATOM     51  C40 UNL A   1      44.877  30.082  30.864  1.00  0.00    +0.000 C 
ATOM     52  N5  UNL A   1      44.204  29.162  31.618  1.00  0.00    +0.000 N 
ATOM     53  C41 UNL A   1      45.353  29.707  29.556  1.00  0.00    +0.000 C 
ATOM     65  C48 UNL A   1      45.455  28.411  29.152  1.00  0.00    +0.000 C 
ATOM     66  N6  UNL A   1      45.213  28.067  27.840  1.00  0.00    +0.000 N 
ATOM     67  C49 UNL A   1      44.641  26.897  27.921  1.00  0.00    +0.000 C 
ATOM     68  C50 UNL A   1      43.636  26.425  26.944  1.00  0.00    +0.000 C 
ATOM     80  C57 UNL A   1      42.528  27.193  27.091  1.00  0.00    +0.000 C 
ATOM     81  C58 UNL A   1      41.495  27.516  26.129  1.00  0.00    +0.000 C 
ATOM     82  C59 UNL A   1      40.603  28.345  26.713  1.00  0.00    +0.000 C 
ATOM     83  C60 UNL A   1      40.907  28.464  28.137  1.00  0.00    +0.000 C 
ATOM     84  N7  UNL A   1      42.139  27.841  28.281  1.00  0.00    +0.000 N 
ATOM     85  C61 UNL A   1      44.816  26.194  29.187  1.00  0.00    +0.000 C 
ATOM     86  C62 UNL A   1      45.361  27.173  29.911  1.00  0.00    +0.000 C 
ATOM     87  C63 UNL A   1      40.127  28.248  32.606  1.00  0.00    +0.000 C 
ATOM     88  C64 UNL A   1      39.553  28.083  31.411  1.00  0.00    +0.000 C 
ATOM    126  H33 UNL A   1      43.579  31.787  33.358  1.00  0.00    +0.000 H 
ATOM    127  H34 UNL A   1      45.096  32.202  31.227  1.00  0.00    +0.000 H 
ATOM    128  H35 UNL A   1      44.199  28.195  31.433  1.00  0.00    +0.000 H 
ENDROOT
BRANCH   32   31
ATOM    136  H43 UNL A   1      39.624  31.661  29.457  1.00  0.00    +0.000 H 
ATOM    137  H44 UNL A   1      37.534  32.801  29.017  1.00  0.00    +0.000 H 
ATOM    124  H31 UNL A   1      35.897  29.254  27.496  1.00  0.00    +0.000 H 
ATOM    125  H32 UNL A   1      37.898  28.070  28.131  1.00  0.00    +0.000 H 
ATOM     89  C65 UNL A   1      38.810  31.134  29.103  1.00  0.00    +0.000 C 
ATOM     90  C66 UNL A   1      37.610  31.789  28.832  1.00  0.00    +0.000 C 
ATOM     28  C23 UNL A   1      36.499  31.100  28.310  1.00  0.00    +0.000 C 
ATOM     29  C24 UNL A   1      36.655  29.755  27.985  1.00  0.00    +0.000 C 
ATOM     30  C25 UNL A   1      37.823  29.083  28.314  1.00  0.00    +0.000 C 
ATOM     31  C26 UNL A   1      38.900  29.765  28.893  1.00  0.00    +0.000 C 
BRANCH   28   26
ATOM     26  C22 UNL A   1      35.227  31.870  28.203  1.00  0.00    +0.000 C 
ATOM     27  O2  UNL A   1      34.168  31.245  28.065  1.00  0.00    +0.000 O 
BRANCH   26   25
ATOM     25  N3  UNL A   1      35.141  33.235  28.179  1.00  0.00    +0.000 N 
ATOM    123  H30 UNL A   1      35.739  33.653  27.518  1.00  0.00    +0.000 H 
BRANCH   25   24
ATOM    121  H28 UNL A   1      34.852  35.140  28.896  1.00  0.00    +0.000 H 
ATOM    122  H29 UNL A   1      33.386  34.231  28.466  1.00  0.00    +0.000 H 
ATOM     24  C21 UNL A   1      34.352  34.194  28.925  1.00  0.00    +0.000 C 
BRANCH   24   23
ATOM    119  H26 UNL A   1      33.248  34.278  30.737  1.00  0.00    +0.000 H 
ATOM     23  C20 UNL A   1      34.141  33.802  30.391  1.00  0.00    +0.000 C 
ATOM    120  H27 UNL A   1      34.086  32.734  30.412  1.00  0.00    +0.000 H 
BRANCH   23   22
ATOM    118  H25 UNL A   1      34.990  35.105  31.803  1.00  0.00    +0.000 H 
ATOM    117  H24 UNL A   1      36.176  34.287  30.752  1.00  0.00    +0.000 H 
ATOM     22  C19 UNL A   1      35.282  34.191  31.332  1.00  0.00    +0.000 C 
BRANCH   22   21
ATOM    115  H22 UNL A   1      36.409  33.509  32.985  1.00  0.00    +0.000 H 
ATOM    116  H23 UNL A   1      34.657  33.169  33.048  1.00  0.00    +0.000 H 
ATOM     21  C18 UNL A   1      35.542  33.189  32.447  1.00  0.00    +0.000 C 
BRANCH   21   20
ATOM    113  H20 UNL A   1      34.852  31.215  32.065  1.00  0.00    +0.000 H 
ATOM    114  H21 UNL A   1      36.139  31.830  30.968  1.00  0.00    +0.000 H 
ATOM     20  C17 UNL A   1      35.777  31.744  31.971  1.00  0.00    +0.000 C 
BRANCH   20   19
ATOM     19  C16 UNL A   1      36.852  30.943  32.726  1.00  0.00    +0.000 C 
ATOM    111  H18 UNL A   1      36.717  31.116  33.774  1.00  0.00    +0.000 H 
ATOM    112  H19 UNL A   1      36.715  29.921  32.438  1.00  0.00    +0.000 H 
BRANCH   19   18
ATOM     18  N2  UNL A   1      38.230  31.275  32.389  1.00  0.00    +0.000 N 
ATOM    110  H17 UNL A   1      38.490  31.015  31.475  1.00  0.00    +0.000 H 
BRANCH   18   16
ATOM     17  O1  UNL A   1      39.061  32.039  34.308  1.00  0.00    +0.000 O 
ATOM     16  C15 UNL A   1      39.231  31.877  33.099  1.00  0.00    +0.000 C 
BRANCH   16   15
ATOM    108  H15 UNL A   1      41.311  32.029  32.973  1.00  0.00    +0.000 H 
ATOM    109  H16 UNL A   1      40.374  32.016  31.408  1.00  0.00    +0.000 H 
ATOM     15  C14 UNL A   1      40.475  32.384  32.408  1.00  0.00    +0.000 C 
BRANCH   15   12
ATOM      3  C3  UNL A   1      44.186  35.296  28.793  1.00  0.00    +0.000 C 
ATOM      4  C4  UNL A   1      44.042  35.839  27.494  1.00  0.00    +0.000 C 
ATOM      5  C5  UNL A   1      42.807  35.979  26.866  1.00  0.00    +0.000 C 
ATOM      6  C6  UNL A   1      41.646  35.615  27.529  1.00  0.00    +0.000 C 
ATOM      7  C7  UNL A   1      41.742  35.097  28.831  1.00  0.00    +0.000 C 
ATOM      8  C8  UNL A   1      40.770  34.771  29.793  1.00  0.00    +0.000 C 
ATOM      9  C9  UNL A   1      41.385  34.290  30.929  1.00  0.00    +0.000 C 
ATOM     10  N1  UNL A   1      42.740  34.368  30.690  1.00  0.00    +0.000 N 
ATOM     11  C10 UNL A   1      42.983  34.917  29.433  1.00  0.00    +0.000 C 
ATOM     12  C11 UNL A   1      40.674  33.906  32.216  1.00  0.00    +0.000 C 
ATOM    140  H47 UNL A   1      38.914  34.454  28.910  1.00  0.00    +0.000 H 
ATOM    141  H48 UNL A   1      39.174  36.073  29.532  1.00  0.00    +0.000 H 
ATOM    138  H45 UNL A   1      37.835  35.319  31.151  1.00  0.00    +0.000 H 
ATOM    139  H46 UNL A   1      38.390  33.615  30.876  1.00  0.00    +0.000 H 
ATOM     91  O3  UNL A   1      39.437  34.661  32.214  1.00  0.00    +0.000 O 
ATOM     92  C67 UNL A   1      38.653  34.644  31.008  1.00  0.00    +0.000 C 
ATOM     93  C68 UNL A   1      39.331  35.030  29.711  1.00  0.00    +0.000 C 
ATOM     99  H6  UNL A   1      44.888  36.143  26.989  1.00  0.00    +0.000 H 
ATOM    100  H7  UNL A   1      42.757  36.356  25.906  1.00  0.00    +0.000 H 
ATOM    101  H8  UNL A   1      40.726  35.722  27.074  1.00  0.00    +0.000 H 
ATOM    102  H9  UNL A   1      43.439  34.078  31.320  1.00  0.00    +0.000 H 
BRANCH    3    2
ATOM     97  H4  UNL A   1      45.505  35.807  30.346  1.00  0.00    +0.000 H 
ATOM      2  C2  UNL A   1      45.529  35.188  29.473  1.00  0.00    +0.000 C 
ATOM     98  H5  UNL A   1      45.664  34.146  29.677  1.00  0.00    +0.000 H 
BRANCH    2    1
ATOM      1  C1  UNL A   1      46.738  35.603  28.641  1.00  0.00    +0.000 C 
ATOM     94  H1  UNL A   1      46.577  36.583  28.243  1.00  0.00    +0.000 H 
ATOM     95  H2  UNL A   1      46.872  34.909  27.838  1.00  0.00    +0.000 H 
ATOM     96  H3  UNL A   1      47.611  35.607  29.259  1.00  0.00    +0.000 H 
ENDBRANCH    2    1
ENDBRANCH    3    2
BRANCH   12   13
ATOM     13  C12 UNL A   1      41.470  34.459  33.446  1.00  0.00    +0.000 C 
ATOM    103  H10 UNL A   1      42.174  35.179  33.086  1.00  0.00    +0.000 H 
ATOM    104  H11 UNL A   1      41.919  33.607  33.910  1.00  0.00    +0.000 H 
BRANCH   13   14
ATOM    105  H12 UNL A   1      39.597  35.149  34.225  1.00  0.00    +0.000 H 
ATOM    106  H13 UNL A   1      40.966  36.132  34.685  1.00  0.00    +0.000 H 
ATOM    107  H14 UNL A   1      40.711  34.580  35.445  1.00  0.00    +0.000 H 
ATOM     14  C13 UNL A   1      40.622  35.130  34.533  1.00  0.00    +0.000 C 
ENDBRANCH   13   14
ENDBRANCH   12   13
ENDBRANCH   15   12
ENDBRANCH   16   15
ENDBRANCH   18   16
ENDBRANCH   19   18
ENDBRANCH   20   19
ENDBRANCH   21   20
ENDBRANCH   22   21
ENDBRANCH   23   22
ENDBRANCH   24   23
ENDBRANCH   25   24
ENDBRANCH   26   25
ENDBRANCH   28   26
ENDBRANCH   32   31
BRANCH   36   37
ATOM     37  C31 UNL A   1      42.910  27.759  34.148  1.00  0.00    +0.000 C 
ATOM     38  C32 UNL A   1      43.291  26.524  33.579  1.00  0.00    +0.000 C 
ATOM     39  F1  UNL A   1      43.587  26.433  32.274  1.00  0.00    +0.000 F 
ATOM     40  C33 UNL A   1      43.289  25.335  34.317  1.00  0.00    +0.000 C 
ATOM     41  F2  UNL A   1      43.543  24.169  33.706  1.00  0.00    +0.000 F 
ATOM     42  C34 UNL A   1      42.960  25.343  35.659  1.00  0.00    +0.000 C 
ATOM     43  F3  UNL A   1      42.901  24.200  36.355  1.00  0.00    +0.000 F 
ATOM     44  C35 UNL A   1      42.647  26.539  36.268  1.00  0.00    +0.000 C 
ATOM     45  F4  UNL A   1      42.301  26.565  37.563  1.00  0.00    +0.000 F 
ATOM     46  C36 UNL A   1      42.604  27.719  35.525  1.00  0.00    +0.000 C 
ATOM     47  F5  UNL A   1      42.141  28.786  36.184  1.00  0.00    +0.000 F 
ENDBRANCH   36   37
BRANCH   53   54
ATOM     54  C42 UNL A   1      45.568  30.776  28.537  1.00  0.00    +0.000 C 
ATOM     55  C43 UNL A   1      46.827  31.230  28.117  1.00  0.00    +0.000 C 
ATOM     56  F6  UNL A   1      47.952  30.712  28.633  1.00  0.00    +0.000 F 
ATOM     57  C44 UNL A   1      46.939  32.198  27.121  1.00  0.00    +0.000 C 
ATOM     58  F7  UNL A   1      48.149  32.631  26.736  1.00  0.00    +0.000 F 
ATOM     59  C45 UNL A   1      45.802  32.697  26.502  1.00  0.00    +0.000 C 
ATOM     60  F8  UNL A   1      45.911  33.597  25.515  1.00  0.00    +0.000 F 
ATOM     61  C46 UNL A   1      44.551  32.246  26.889  1.00  0.00    +0.000 C 
ATOM     62  F9  UNL A   1      43.451  32.694  26.270  1.00  0.00    +0.000 F 
ATOM     63  C47 UNL A   1      44.435  31.307  27.907  1.00  0.00    +0.000 C 
ATOM     64  F10 UNL A   1      43.211  30.880  28.254  1.00  0.00    +0.000 F 
ENDBRANCH   53   54
BRANCH   68   69
ATOM     69  C51 UNL A   1      43.812  25.154  26.204  1.00  0.00    +0.000 C 
ATOM     70  C52 UNL A   1      44.844  25.008  25.259  1.00  0.00    +0.000 C 
ATOM     71  F11 UNL A   1      45.496  26.087  24.799  1.00  0.00    +0.000 F 
ATOM     72  C53 UNL A   1      45.284  23.748  24.841  1.00  0.00    +0.000 C 
ATOM     73  F12 UNL A   1      46.328  23.649  24.007  1.00  0.00    +0.000 F 
ATOM     74  C54 UNL A   1      44.694  22.601  25.343  1.00  0.00    +0.000 C 
ATOM     75  F13 UNL A   1      45.170  21.394  25.010  1.00  0.00    +0.000 F 
ATOM     76  C55 UNL A   1      43.637  22.712  26.230  1.00  0.00    +0.000 C 
ATOM     77  F14 UNL A   1      43.080  21.608  26.745  1.00  0.00    +0.000 F 
ATOM     78  C56 UNL A   1      43.199  23.969  26.651  1.00  0.00    +0.000 C 
ATOM     79  F15 UNL A   1      42.236  24.006  27.582  1.00  0.00    +0.000 F 
ENDBRANCH   68   69
TORSDOF 20
ENDMDL
MODEL 3
REMARK VINA RESULT:     -12.0      2.168      3.413
ROOT
ATOM    129  H36 UNL A   1      39.974  27.061  26.615  1.00  0.00    +0.000 H 
ATOM    130  H37 UNL A   1      39.051  28.853  28.175  1.00  0.00    +0.000 H 
ATOM    131  H38 UNL A   1      42.537  27.386  29.916  1.00  0.00    +0.000 H 
ATOM    132  H39 UNL A   1      44.071  24.519  29.578  1.00  0.00    +0.000 H 
ATOM    133  H40 UNL A   1      45.825  26.135  30.569  1.00  0.00    +0.000 H 
ATOM    134  H41 UNL A   1      41.276  27.633  35.049  1.00  0.00    +0.000 H 
ATOM    135  H42 UNL A   1      39.482  27.520  33.201  1.00  0.00    +0.000 H 
ATOM     32  C27 UNL A   1      40.321  28.849  30.777  1.00  0.00    +0.000 C 
ATOM     33  C28 UNL A   1      41.104  28.568  32.010  1.00  0.00    +0.000 C 
ATOM     34  N4  UNL A   1      42.295  28.991  32.277  1.00  0.00    +0.000 N 
ATOM     35  C29 UNL A   1      42.620  28.454  33.519  1.00  0.00    +0.000 C 
ATOM     36  C30 UNL A   1      43.925  28.245  33.845  1.00  0.00    +0.000 C 
ATOM     48  C37 UNL A   1      44.798  28.978  32.965  1.00  0.00    +0.000 C 
ATOM     49  C38 UNL A   1      45.292  30.258  32.859  1.00  0.00    +0.000 C 
ATOM     50  C39 UNL A   1      45.708  30.421  31.503  1.00  0.00    +0.000 C 
ATOM     51  C40 UNL A   1      45.488  29.227  30.823  1.00  0.00    +0.000 C 
ATOM     52  N5  UNL A   1      44.988  28.366  31.759  1.00  0.00    +0.000 N 
ATOM     53  C41 UNL A   1      45.440  28.858  29.430  1.00  0.00    +0.000 C 
ATOM     65  C48 UNL A   1      45.221  27.581  29.013  1.00  0.00    +0.000 C 
ATOM     66  N6  UNL A   1      44.507  27.336  27.861  1.00  0.00    +0.000 N 
ATOM     67  C49 UNL A   1      43.841  26.246  28.129  1.00  0.00    +0.000 C 
ATOM     68  C50 UNL A   1      42.511  25.955  27.550  1.00  0.00    +0.000 C 
ATOM     80  C57 UNL A   1      41.634  26.852  28.066  1.00  0.00    +0.000 C 
ATOM     81  C58 UNL A   1      40.392  27.351  27.512  1.00  0.00    +0.000 C 
ATOM     82  C59 UNL A   1      39.872  28.258  28.367  1.00  0.00    +0.000 C 
ATOM     83  C60 UNL A   1      40.650  28.268  29.603  1.00  0.00    +0.000 C 
ATOM     84  N7  UNL A   1      41.761  27.485  29.319  1.00  0.00    +0.000 N 
ATOM     85  C61 UNL A   1      44.333  25.465  29.258  1.00  0.00    +0.000 C 
ATOM     86  C62 UNL A   1      45.219  26.330  29.757  1.00  0.00    +0.000 C 
ATOM     87  C63 UNL A   1      41.396  27.938  34.071  1.00  0.00    +0.000 C 
ATOM     88  C64 UNL A   1      40.437  27.906  33.141  1.00  0.00    +0.000 C 
ATOM    126  H33 UNL A   1      45.351  30.962  33.612  1.00  0.00    +0.000 H 
ATOM    127  H34 UNL A   1      46.106  31.281  31.094  1.00  0.00    +0.000 H 
ATOM    128  H35 UNL A   1      44.788  27.418  31.584  1.00  0.00    +0.000 H 
ENDROOT
BRANCH   32   31
ATOM    136  H43 UNL A   1      37.665  28.364  31.210  1.00  0.00    +0.000 H 
ATOM    137  H44 UNL A   1      35.947  30.022  31.611  1.00  0.00    +0.000 H 
ATOM    124  H31 UNL A   1      38.842  33.054  31.598  1.00  0.00    +0.000 H 
ATOM    125  H32 UNL A   1      40.520  31.435  30.985  1.00  0.00    +0.000 H 
ATOM     89  C65 UNL A   1      37.907  29.368  31.225  1.00  0.00    +0.000 C 
ATOM     90  C66 UNL A   1      36.924  30.325  31.473  1.00  0.00    +0.000 C 
ATOM     28  C23 UNL A   1      37.234  31.696  31.539  1.00  0.00    +0.000 C 
ATOM     29  C24 UNL A   1      38.571  32.071  31.438  1.00  0.00    +0.000 C 
ATOM     30  C25 UNL A   1      39.543  31.132  31.126  1.00  0.00    +0.000 C 
ATOM     31  C26 UNL A   1      39.213  29.778  30.998  1.00  0.00    +0.000 C 
BRANCH   28   26
ATOM     26  C22 UNL A   1      36.083  32.635  31.657  1.00  0.00    +0.000 C 
ATOM     27  O2  UNL A   1      35.210  32.398  32.501  1.00  0.00    +0.000 O 
BRANCH   26   25
ATOM     25  N3  UNL A   1      35.876  33.721  30.850  1.00  0.00    +0.000 N 
ATOM    123  H30 UNL A   1      36.386  34.517  31.126  1.00  0.00    +0.000 H 
BRANCH   25   24
ATOM    121  H28 UNL A   1      34.259  34.602  29.936  1.00  0.00    +0.000 H 
ATOM    122  H29 UNL A   1      35.699  34.358  28.923  1.00  0.00    +0.000 H 
ATOM     24  C21 UNL A   1      35.060  33.942  29.674  1.00  0.00    +0.000 C 
BRANCH   24   23
ATOM    119  H26 UNL A   1      34.560  31.883  29.830  1.00  0.00    +0.000 H 
ATOM     23  C20 UNL A   1      34.460  32.656  29.097  1.00  0.00    +0.000 C 
ATOM    120  H27 UNL A   1      33.441  32.881  28.857  1.00  0.00    +0.000 H 
BRANCH   23   22
ATOM    118  H25 UNL A   1      35.309  33.040  27.214  1.00  0.00    +0.000 H 
ATOM    117  H24 UNL A   1      34.429  31.492  27.322  1.00  0.00    +0.000 H 
ATOM     22  C19 UNL A   1      35.107  32.168  27.801  1.00  0.00    +0.000 C 
BRANCH   22   21
ATOM    115  H22 UNL A   1      37.149  31.894  27.329  1.00  0.00    +0.000 H 
ATOM    116  H23 UNL A   1      36.695  31.574  29.026  1.00  0.00    +0.000 H 
ATOM     21  C18 UNL A   1      36.437  31.455  27.995  1.00  0.00    +0.000 C 
BRANCH   21   20
ATOM    113  H20 UNL A   1      36.784  29.773  26.742  1.00  0.00    +0.000 H 
ATOM    114  H21 UNL A   1      36.977  29.496  28.510  1.00  0.00    +0.000 H 
ATOM     20  C17 UNL A   1      36.398  29.939  27.727  1.00  0.00    +0.000 C 
BRANCH   20   19
ATOM     19  C16 UNL A   1      35.018  29.266  27.808  1.00  0.00    +0.000 C 
ATOM    111  H18 UNL A   1      35.127  28.355  28.359  1.00  0.00    +0.000 H 
ATOM    112  H19 UNL A   1      34.370  29.978  28.276  1.00  0.00    +0.000 H 
BRANCH   19   18
ATOM     18  N2  UNL A   1      34.403  28.945  26.527  1.00  0.00    +0.000 N 
ATOM    110  H17 UNL A   1      35.048  28.852  25.788  1.00  0.00    +0.000 H 
BRANCH   18   16
ATOM     17  O1  UNL A   1      32.265  28.605  27.045  1.00  0.00    +0.000 O 
ATOM     16  C15 UNL A   1      33.103  28.749  26.153  1.00  0.00    +0.000 C 
BRANCH   16   15
ATOM    108  H15 UNL A   1      31.798  29.175  24.578  1.00  0.00    +0.000 H 
ATOM    109  H16 UNL A   1      33.574  29.044  24.184  1.00  0.00    +0.000 H 
ATOM     15  C14 UNL A   1      32.721  28.647  24.695  1.00  0.00    +0.000 C 
BRANCH   15   12
ATOM      3  C3  UNL A   1      35.405  23.495  25.944  1.00  0.00    +0.000 C 
ATOM      4  C4  UNL A   1      35.063  22.405  26.780  1.00  0.00    +0.000 C 
ATOM      5  C5  UNL A   1      33.799  22.254  27.346  1.00  0.00    +0.000 C 
ATOM      6  C6  UNL A   1      32.801  23.173  27.069  1.00  0.00    +0.000 C 
ATOM      7  C7  UNL A   1      33.090  24.256  26.223  1.00  0.00    +0.000 C 
ATOM      8  C8  UNL A   1      32.281  25.256  25.656  1.00  0.00    +0.000 C 
ATOM      9  C9  UNL A   1      33.054  26.098  24.887  1.00  0.00    +0.000 C 
ATOM     10  N1  UNL A   1      34.334  25.588  24.935  1.00  0.00    +0.000 N 
ATOM     11  C10 UNL A   1      34.368  24.424  25.699  1.00  0.00    +0.000 C 
ATOM     12  C11 UNL A   1      32.530  27.254  24.052  1.00  0.00    +0.000 C 
ATOM    140  H47 UNL A   1      30.515  25.492  26.728  1.00  0.00    +0.000 H 
ATOM    141  H48 UNL A   1      30.402  24.431  25.338  1.00  0.00    +0.000 H 
ATOM    138  H45 UNL A   1      29.377  26.212  24.465  1.00  0.00    +0.000 H 
ATOM    139  H46 UNL A   1      30.318  27.331  25.536  1.00  0.00    +0.000 H 
ATOM     91  O3  UNL A   1      31.147  26.927  23.767  1.00  0.00    +0.000 O 
ATOM     92  C67 UNL A   1      30.327  26.496  24.867  1.00  0.00    +0.000 C 
ATOM     93  C68 UNL A   1      30.819  25.341  25.714  1.00  0.00    +0.000 C 
ATOM     99  H6  UNL A   1      35.781  21.692  26.980  1.00  0.00    +0.000 H 
ATOM    100  H7  UNL A   1      33.607  21.455  27.972  1.00  0.00    +0.000 H 
ATOM    101  H8  UNL A   1      31.860  23.065  27.479  1.00  0.00    +0.000 H 
ATOM    102  H9  UNL A   1      35.115  25.990  24.491  1.00  0.00    +0.000 H 
BRANCH    3    2
ATOM     97  H4  UNL A   1      36.993  22.691  24.830  1.00  0.00    +0.000 H 
ATOM      2  C2  UNL A   1      36.767  23.621  25.308  1.00  0.00    +0.000 C 
ATOM     98  H5  UNL A   1      36.696  24.454  24.639  1.00  0.00    +0.000 H 
BRANCH    2    1
ATOM      1  C1  UNL A   1      37.920  23.952  26.251  1.00  0.00    +0.000 C 
ATOM     94  H1  UNL A   1      38.417  24.836  25.910  1.00  0.00    +0.000 H 
ATOM     95  H2  UNL A   1      38.612  23.137  26.267  1.00  0.00    +0.000 H 
ATOM     96  H3  UNL A   1      37.537  24.116  27.237  1.00  0.00    +0.000 H 
ENDBRANCH    2    1
ENDBRANCH    3    2
BRANCH   12   13
ATOM     13  C12 UNL A   1      33.229  27.256  22.652  1.00  0.00    +0.000 C 
ATOM    103  H10 UNL A   1      32.466  27.214  21.902  1.00  0.00    +0.000 H 
ATOM    104  H11 UNL A   1      33.885  26.411  22.651  1.00  0.00    +0.000 H 
BRANCH   13   14
ATOM    105  H12 UNL A   1      34.749  28.259  21.522  1.00  0.00    +0.000 H 
ATOM    106  H13 UNL A   1      34.714  28.694  23.214  1.00  0.00    +0.000 H 
ATOM    107  H14 UNL A   1      33.496  29.316  22.127  1.00  0.00    +0.000 H 
ATOM     14  C13 UNL A   1      34.114  28.473  22.356  1.00  0.00    +0.000 C 
ENDBRANCH   13   14
ENDBRANCH   12   13
ENDBRANCH   15   12
ENDBRANCH   16   15
ENDBRANCH   18   16
ENDBRANCH   19   18
ENDBRANCH   20   19
ENDBRANCH   21   20
ENDBRANCH   22   21
ENDBRANCH   23   22
ENDBRANCH   24   23
ENDBRANCH   25   24
ENDBRANCH   26   25
ENDBRANCH   28   26
ENDBRANCH   32   31
BRANCH   36   37
ATOM     37  C31 UNL A   1      44.440  27.020  34.575  1.00  0.00    +0.000 C 
ATOM     38  C32 UNL A   1      44.201  25.744  34.020  1.00  0.00    +0.000 C 
ATOM     39  F1  UNL A   1      43.794  25.616  32.748  1.00  0.00    +0.000 F 
ATOM     40  C33 UNL A   1      44.287  24.574  34.783  1.00  0.00    +0.000 C 
ATOM     41  F2  UNL A   1      43.937  23.398  34.245  1.00  0.00    +0.000 F 
ATOM     42  C34 UNL A   1      44.666  24.630  36.111  1.00  0.00    +0.000 C 
ATOM     43  F3  UNL A   1      44.694  23.520  36.860  1.00  0.00    +0.000 F 
ATOM     44  C35 UNL A   1      44.972  25.851  36.672  1.00  0.00    +0.000 C 
ATOM     45  F4  UNL A   1      45.318  25.928  37.965  1.00  0.00    +0.000 F 
ATOM     46  C36 UNL A   1      44.844  27.023  35.927  1.00  0.00    +0.000 C 
ATOM     47  F5  UNL A   1      45.020  28.154  36.617  1.00  0.00    +0.000 F 
ENDBRANCH   36   37
BRANCH   53   54
ATOM     54  C42 UNL A   1      45.445  29.939  28.401  1.00  0.00    +0.000 C 
ATOM     55  C43 UNL A   1      44.302  30.621  27.960  1.00  0.00    +0.000 C 
ATOM     56  F6  UNL A   1      43.091  30.323  28.454  1.00  0.00    +0.000 F 
ATOM     57  C44 UNL A   1      44.404  31.655  27.030  1.00  0.00    +0.000 C 
ATOM     58  F7  UNL A   1      43.301  32.292  26.609  1.00  0.00    +0.000 F 
ATOM     59  C45 UNL A   1      45.647  32.050  26.559  1.00  0.00    +0.000 C 
ATOM     60  F8  UNL A   1      45.749  33.071  25.698  1.00  0.00    +0.000 F 
ATOM     61  C46 UNL A   1      46.790  31.401  26.999  1.00  0.00    +0.000 C 
ATOM     62  F9  UNL A   1      47.998  31.803  26.579  1.00  0.00    +0.000 F 
ATOM     63  C47 UNL A   1      46.688  30.347  27.898  1.00  0.00    +0.000 C 
ATOM     64  F10 UNL A   1      47.813  29.744  28.315  1.00  0.00    +0.000 F 
ENDBRANCH   53   54
BRANCH   68   69
ATOM     69  C51 UNL A   1      42.252  24.709  26.792  1.00  0.00    +0.000 C 
ATOM     70  C52 UNL A   1      42.954  24.430  25.605  1.00  0.00    +0.000 C 
ATOM     71  F11 UNL A   1      43.647  25.397  24.986  1.00  0.00    +0.000 F 
ATOM     72  C53 UNL A   1      43.031  23.134  25.086  1.00  0.00    +0.000 C 
ATOM     73  F12 UNL A   1      43.782  22.892  24.003  1.00  0.00    +0.000 F 
ATOM     74  C54 UNL A   1      42.396  22.085  25.729  1.00  0.00    +0.000 C 
ATOM     75  F13 UNL A   1      42.540  20.830  25.282  1.00  0.00    +0.000 F 
ATOM     76  C55 UNL A   1      41.649  22.338  26.866  1.00  0.00    +0.000 C 
ATOM     77  F14 UNL A   1      41.055  21.325  27.513  1.00  0.00    +0.000 F 
ATOM     78  C56 UNL A   1      41.573  23.630  27.388  1.00  0.00    +0.000 C 
ATOM     79  F15 UNL A   1      40.913  23.792  28.543  1.00  0.00    +0.000 F 
ENDBRANCH   68   69
TORSDOF 20
ENDMDL
MODEL 4
REMARK VINA RESULT:     -11.1     34.316     41.378
ROOT
ATOM    129  H36 UNL A   1      12.788  30.709   2.898  1.00  0.00    +0.000 H 
ATOM    130  H37 UNL A   1      10.512  29.577   3.087  1.00  0.00    +0.000 H 
ATOM    131  H38 UNL A   1      10.681  31.375  -0.664  1.00  0.00    +0.000 H 
ATOM    132  H39 UNL A   1      12.446  33.897  -1.766  1.00  0.00    +0.000 H 
ATOM    133  H40 UNL A   1      11.666  32.620  -3.871  1.00  0.00    +0.000 H 
ATOM    134  H41 UNL A   1       5.649  32.896  -1.275  1.00  0.00    +0.000 H 
ATOM    135  H42 UNL A   1       6.681  32.475   1.049  1.00  0.00    +0.000 H 
ATOM     32  C27 UNL A   1       8.673  30.382   1.001  1.00  0.00    +0.000 C 
ATOM     33  C28 UNL A   1       7.955  31.019  -0.136  1.00  0.00    +0.000 C 
ATOM     34  N4  UNL A   1       8.000  30.654  -1.374  1.00  0.00    +0.000 N 
ATOM     35  C29 UNL A   1       7.198  31.555  -2.067  1.00  0.00    +0.000 C 
ATOM     36  C30 UNL A   1       7.436  31.800  -3.384  1.00  0.00    +0.000 C 
ATOM     48  C37 UNL A   1       8.278  30.779  -3.952  1.00  0.00    +0.000 C 
ATOM     49  C38 UNL A   1       8.128  29.515  -4.475  1.00  0.00    +0.000 C 
ATOM     50  C39 UNL A   1       9.412  28.894  -4.407  1.00  0.00    +0.000 C 
ATOM     51  C40 UNL A   1      10.320  29.804  -3.877  1.00  0.00    +0.000 C 
ATOM     52  N5  UNL A   1       9.602  30.948  -3.667  1.00  0.00    +0.000 N 
ATOM     53  C41 UNL A   1      11.647  29.695  -3.323  1.00  0.00    +0.000 C 
ATOM     65  C48 UNL A   1      12.352  30.770  -2.878  1.00  0.00    +0.000 C 
ATOM     66  N6  UNL A   1      13.193  30.654  -1.794  1.00  0.00    +0.000 N 
ATOM     67  C49 UNL A   1      13.078  31.800  -1.181  1.00  0.00    +0.000 C 
ATOM     68  C50 UNL A   1      13.215  31.945   0.285  1.00  0.00    +0.000 C 
ATOM     80  C57 UNL A   1      12.163  31.310   0.860  1.00  0.00    +0.000 C 
ATOM     81  C58 UNL A   1      12.052  30.713   2.175  1.00  0.00    +0.000 C 
ATOM     82  C59 UNL A   1      10.825  30.163   2.298  1.00  0.00    +0.000 C 
ATOM     83  C60 UNL A   1      10.008  30.527   1.142  1.00  0.00    +0.000 C 
ATOM     84  N7  UNL A   1      10.901  31.121   0.261  1.00  0.00    +0.000 N 
ATOM     85  C61 UNL A   1      12.512  32.887  -1.971  1.00  0.00    +0.000 C 
ATOM     86  C62 UNL A   1      12.104  32.196  -3.038  1.00  0.00    +0.000 C 
ATOM     87  C63 UNL A   1       6.452  32.280  -1.073  1.00  0.00    +0.000 C 
ATOM     88  C64 UNL A   1       6.943  32.047   0.148  1.00  0.00    +0.000 C 
ATOM    126  H33 UNL A   1       7.258  29.097  -4.843  1.00  0.00    +0.000 H 
ATOM    127  H34 UNL A   1       9.631  27.929  -4.704  1.00  0.00    +0.000 H 
ATOM    128  H35 UNL A   1       9.994  31.794  -3.348  1.00  0.00    +0.000 H 
ENDROOT
BRANCH   32   31
ATOM    136  H43 UNL A   1       7.606  31.063   3.425  1.00  0.00    +0.000 H 
ATOM    137  H44 UNL A   1       6.106  29.717   4.766  1.00  0.00    +0.000 H 
ATOM    124  H31 UNL A   1       5.974  26.817   1.741  1.00  0.00    +0.000 H 
ATOM    125  H32 UNL A   1       7.632  28.051   0.500  1.00  0.00    +0.000 H 
ATOM     89  C65 UNL A   1       7.313  30.130   3.095  1.00  0.00    +0.000 C 
ATOM     90  C66 UNL A   1       6.436  29.358   3.856  1.00  0.00    +0.000 C 
ATOM     28  C23 UNL A   1       5.989  28.100   3.410  1.00  0.00    +0.000 C 
ATOM     29  C24 UNL A   1       6.377  27.679   2.141  1.00  0.00    +0.000 C 
ATOM     30  C25 UNL A   1       7.300  28.410   1.409  1.00  0.00    +0.000 C 
ATOM     31  C26 UNL A   1       7.788  29.631   1.891  1.00  0.00    +0.000 C 
BRANCH   28   26
ATOM     26  C22 UNL A   1       5.177  27.302   4.372  1.00  0.00    +0.000 C 
ATOM     27  O2  UNL A   1       4.533  27.901   5.242  1.00  0.00    +0.000 O 
BRANCH   26   25
ATOM     25  N3  UNL A   1       5.139  25.934   4.414  1.00  0.00    +0.000 N 
ATOM    123  H30 UNL A   1       4.253  25.561   4.200  1.00  0.00    +0.000 H 
BRANCH   25   24
ATOM    121  H28 UNL A   1       7.019  25.408   5.056  1.00  0.00    +0.000 H 
ATOM    122  H29 UNL A   1       5.709  24.273   5.446  1.00  0.00    +0.000 H 
ATOM     24  C21 UNL A   1       6.131  24.922   4.708  1.00  0.00    +0.000 C 
BRANCH   24   23
ATOM    119  H26 UNL A   1       5.662  23.418   3.283  1.00  0.00    +0.000 H 
ATOM     23  C20 UNL A   1       6.496  24.054   3.499  1.00  0.00    +0.000 C 
ATOM    120  H27 UNL A   1       6.728  24.730   2.702  1.00  0.00    +0.000 H 
BRANCH   23   22
ATOM    118  H25 UNL A   1       8.539  23.673   3.198  1.00  0.00    +0.000 H 
ATOM    117  H24 UNL A   1       7.521  22.210   3.268  1.00  0.00    +0.000 H 
ATOM     22  C19 UNL A   1       7.730  23.173   3.687  1.00  0.00    +0.000 C 
BRANCH   22   21
ATOM    115  H22 UNL A   1       8.535  23.912   5.497  1.00  0.00    +0.000 H 
ATOM    116  H23 UNL A   1       7.274  22.659   5.663  1.00  0.00    +0.000 H 
ATOM     21  C18 UNL A   1       8.147  22.982   5.138  1.00  0.00    +0.000 C 
BRANCH   21   20
ATOM    113  H20 UNL A   1       8.787  20.955   5.094  1.00  0.00    +0.000 H 
ATOM    114  H21 UNL A   1      10.051  22.191   4.758  1.00  0.00    +0.000 H 
ATOM     20  C17 UNL A   1       9.217  21.897   5.362  1.00  0.00    +0.000 C 
BRANCH   20   19
ATOM     19  C16 UNL A   1       9.772  21.770   6.790  1.00  0.00    +0.000 C 
ATOM    111  H18 UNL A   1       9.906  22.757   7.182  1.00  0.00    +0.000 H 
ATOM    112  H19 UNL A   1       9.059  21.184   7.333  1.00  0.00    +0.000 H 
BRANCH   19   18
ATOM     18  N2  UNL A   1      11.042  21.065   6.906  1.00  0.00    +0.000 N 
ATOM    110  H17 UNL A   1      11.152  20.580   7.756  1.00  0.00    +0.000 H 
BRANCH   18   16
ATOM     17  O1  UNL A   1      11.941  20.349   4.999  1.00  0.00    +0.000 O 
ATOM     16  C15 UNL A   1      12.111  20.950   6.061  1.00  0.00    +0.000 C 
BRANCH   16   15
ATOM    108  H15 UNL A   1      13.585  21.304   7.499  1.00  0.00    +0.000 H 
ATOM    109  H16 UNL A   1      14.139  20.972   5.792  1.00  0.00    +0.000 H 
ATOM     15  C14 UNL A   1      13.469  21.485   6.450  1.00  0.00    +0.000 C 
BRANCH   15   12
ATOM      3  C3  UNL A   1      10.518  25.557   3.286  1.00  0.00    +0.000 C 
ATOM      4  C4  UNL A   1       9.546  26.529   3.626  1.00  0.00    +0.000 C 
ATOM      5  C5  UNL A   1       9.245  26.866   4.943  1.00  0.00    +0.000 C 
ATOM      6  C6  UNL A   1       9.934  26.271   5.987  1.00  0.00    +0.000 C 
ATOM      7  C7  UNL A   1      10.926  25.321   5.692  1.00  0.00    +0.000 C 
ATOM      8  C8  UNL A   1      11.868  24.656   6.496  1.00  0.00    +0.000 C 
ATOM      9  C9  UNL A   1      12.626  23.809   5.718  1.00  0.00    +0.000 C 
ATOM     10  N1  UNL A   1      12.189  23.989   4.423  1.00  0.00    +0.000 N 
ATOM     11  C10 UNL A   1      11.188  24.956   4.375  1.00  0.00    +0.000 C 
ATOM     12  C11 UNL A   1      13.798  22.977   6.211  1.00  0.00    +0.000 C 
ATOM    140  H47 UNL A   1      11.283  24.649   8.491  1.00  0.00    +0.000 H 
ATOM    141  H48 UNL A   1      12.382  25.940   8.045  1.00  0.00    +0.000 H 
ATOM    138  H45 UNL A   1      13.841  24.634   9.117  1.00  0.00    +0.000 H 
ATOM    139  H46 UNL A   1      12.882  23.152   8.706  1.00  0.00    +0.000 H 
ATOM     91  O3  UNL A   1      14.290  23.663   7.389  1.00  0.00    +0.000 O 
ATOM     92  C67 UNL A   1      13.321  24.069   8.372  1.00  0.00    +0.000 C 
ATOM     93  C68 UNL A   1      12.146  24.905   7.913  1.00  0.00    +0.000 C 
ATOM     99  H6  UNL A   1       9.038  27.006   2.867  1.00  0.00    +0.000 H 
ATOM    100  H7  UNL A   1       8.508  27.562   5.141  1.00  0.00    +0.000 H 
ATOM    101  H8  UNL A   1       9.722  26.520   6.966  1.00  0.00    +0.000 H 
ATOM    102  H9  UNL A   1      12.536  23.502   3.641  1.00  0.00    +0.000 H 
BRANCH    3    2
ATOM     97  H4  UNL A   1      10.595  26.079   1.253  1.00  0.00    +0.000 H 
ATOM      2  C2  UNL A   1      10.859  25.233   1.852  1.00  0.00    +0.000 C 
ATOM     98  H5  UNL A   1      11.904  25.002   1.850  1.00  0.00    +0.000 H 
BRANCH    2    1
ATOM      1  C1  UNL A   1      10.170  24.008   1.258  1.00  0.00    +0.000 C 
ATOM     94  H1  UNL A   1       9.711  24.273   0.329  1.00  0.00    +0.000 H 
ATOM     95  H2  UNL A   1       9.423  23.656   1.938  1.00  0.00    +0.000 H 
ATOM     96  H3  UNL A   1      10.894  23.238   1.092  1.00  0.00    +0.000 H 
ENDBRANCH    2    1
ENDBRANCH    3    2
BRANCH   12   13
ATOM     13  C12 UNL A   1      14.978  23.064   5.185  1.00  0.00    +0.000 C 
ATOM    103  H10 UNL A   1      15.879  23.245   5.734  1.00  0.00    +0.000 H 
ATOM    104  H11 UNL A   1      14.719  23.849   4.507  1.00  0.00    +0.000 H 
BRANCH   13   14
ATOM    105  H12 UNL A   1      14.802  20.958   4.826  1.00  0.00    +0.000 H 
ATOM    106  H13 UNL A   1      16.242  21.679   4.148  1.00  0.00    +0.000 H 
ATOM    107  H14 UNL A   1      14.693  21.940   3.384  1.00  0.00    +0.000 H 
ATOM     14  C13 UNL A   1      15.195  21.816   4.320  1.00  0.00    +0.000 C 
ENDBRANCH   13   14
ENDBRANCH   12   13
ENDBRANCH   15   12
ENDBRANCH   16   15
ENDBRANCH   18   16
ENDBRANCH   19   18
ENDBRANCH   20   19
ENDBRANCH   21   20
ENDBRANCH   22   21
ENDBRANCH   23   22
ENDBRANCH   24   23
ENDBRANCH   25   24
ENDBRANCH   26   25
ENDBRANCH   28   26
ENDBRANCH   32   31
BRANCH   36   37
ATOM     37  C31 UNL A   1       7.374  33.173  -4.025  1.00  0.00    +0.000 C 
ATOM     38  C32 UNL A   1       8.202  34.200  -3.522  1.00  0.00    +0.000 C 
ATOM     39  F1  UNL A   1       9.225  33.915  -2.703  1.00  0.00    +0.000 F 
ATOM     40  C33 UNL A   1       7.946  35.552  -3.776  1.00  0.00    +0.000 C 
ATOM     41  F2  UNL A   1       8.688  36.496  -3.181  1.00  0.00    +0.000 F 
ATOM     42  C34 UNL A   1       6.888  35.925  -4.583  1.00  0.00    +0.000 C 
ATOM     43  F3  UNL A   1       6.604  37.219  -4.781  1.00  0.00    +0.000 F 
ATOM     44  C35 UNL A   1       6.095  34.949  -5.147  1.00  0.00    +0.000 C 
ATOM     45  F4  UNL A   1       5.048  35.292  -5.912  1.00  0.00    +0.000 F 
ATOM     46  C36 UNL A   1       6.320  33.603  -4.860  1.00  0.00    +0.000 C 
ATOM     47  F5  UNL A   1       5.399  32.760  -5.338  1.00  0.00    +0.000 F 
ENDBRANCH   36   37
BRANCH   53   54
ATOM     54  C42 UNL A   1      12.202  28.336  -3.055  1.00  0.00    +0.000 C 
ATOM     55  C43 UNL A   1      12.059  27.645  -1.843  1.00  0.00    +0.000 C 
ATOM     56  F6  UNL A   1      11.395  28.192  -0.814  1.00  0.00    +0.000 F 
ATOM     57  C44 UNL A   1      12.566  26.355  -1.694  1.00  0.00    +0.000 C 
ATOM     58  F7  UNL A   1      12.432  25.710  -0.525  1.00  0.00    +0.000 F 
ATOM     59  C45 UNL A   1      13.185  25.721  -2.761  1.00  0.00    +0.000 C 
ATOM     60  F8  UNL A   1      13.635  24.466  -2.631  1.00  0.00    +0.000 F 
ATOM     61  C46 UNL A   1      13.318  26.380  -3.972  1.00  0.00    +0.000 C 
ATOM     62  F9  UNL A   1      13.879  25.760  -5.020  1.00  0.00    +0.000 F 
ATOM     63  C47 UNL A   1      12.845  27.679  -4.112  1.00  0.00    +0.000 C 
ATOM     64  F10 UNL A   1      12.977  28.289  -5.301  1.00  0.00    +0.000 F 
ENDBRANCH   53   54
BRANCH   68   69
ATOM     69  C51 UNL A   1      14.195  32.881   0.883  1.00  0.00    +0.000 C 
ATOM     70  C52 UNL A   1      13.776  33.902   1.754  1.00  0.00    +0.000 C 
ATOM     71  F11 UNL A   1      12.479  34.235   1.831  1.00  0.00    +0.000 F 
ATOM     72  C53 UNL A   1      14.668  34.537   2.625  1.00  0.00    +0.000 C 
ATOM     73  F12 UNL A   1      14.215  35.444   3.501  1.00  0.00    +0.000 F 
ATOM     74  C54 UNL A   1      16.005  34.178   2.637  1.00  0.00    +0.000 C 
ATOM     75  F13 UNL A   1      16.844  34.722   3.529  1.00  0.00    +0.000 F 
ATOM     76  C55 UNL A   1      16.459  33.217   1.751  1.00  0.00    +0.000 C 
ATOM     77  F14 UNL A   1      17.745  32.841   1.776  1.00  0.00    +0.000 F 
ATOM     78  C56 UNL A   1      15.570  32.581   0.884  1.00  0.00    +0.000 C 
ATOM     79  F15 UNL A   1      16.055  31.593   0.118  1.00  0.00    +0.000 F 
ENDBRANCH   68   69
TORSDOF 20
ENDMDL
MODEL 5
REMARK VINA RESULT:     -11.0     37.845     44.935
ROOT
ATOM    129  H36 UNL A   1      14.554  32.819  -2.589  1.00  0.00    +0.000 H 
ATOM    130  H37 UNL A   1      13.157  32.781  -4.720  1.00  0.00    +0.000 H 
ATOM    131  H38 UNL A   1      12.457  29.193  -2.727  1.00  0.00    +0.000 H 
ATOM    132  H39 UNL A   1      14.269  27.543  -0.563  1.00  0.00    +0.000 H 
ATOM    133  H40 UNL A   1      11.866  26.636  -0.295  1.00  0.00    +0.000 H 
ATOM    134  H41 UNL A   1      11.894  25.871  -6.809  1.00  0.00    +0.000 H 
ATOM    135  H42 UNL A   1      13.178  28.096  -7.020  1.00  0.00    +0.000 H 
ATOM     32  C27 UNL A   1      12.082  30.159  -5.318  1.00  0.00    +0.000 C 
ATOM     33  C28 UNL A   1      11.729  28.716  -5.387  1.00  0.00    +0.000 C 
ATOM     34  N4  UNL A   1      10.753  28.134  -4.773  1.00  0.00    +0.000 N 
ATOM     35  C29 UNL A   1      10.834  26.788  -5.118  1.00  0.00    +0.000 C 
ATOM     36  C30 UNL A   1      10.339  25.842  -4.274  1.00  0.00    +0.000 C 
ATOM     48  C37 UNL A   1       9.457  26.433  -3.300  1.00  0.00    +0.000 C 
ATOM     49  C38 UNL A   1       8.140  26.824  -3.228  1.00  0.00    +0.000 C 
ATOM     50  C39 UNL A   1       8.053  27.760  -2.153  1.00  0.00    +0.000 C 
ATOM     51  C40 UNL A   1       9.311  27.891  -1.574  1.00  0.00    +0.000 C 
ATOM     52  N5  UNL A   1      10.118  27.031  -2.265  1.00  0.00    +0.000 N 
ATOM     53  C41 UNL A   1       9.909  28.846  -0.675  1.00  0.00    +0.000 C 
ATOM     65  C48 UNL A   1      11.190  28.738  -0.228  1.00  0.00    +0.000 C 
ATOM     66  N6  UNL A   1      11.951  29.864  -0.007  1.00  0.00    +0.000 N 
ATOM     67  C49 UNL A   1      13.155  29.506  -0.359  1.00  0.00    +0.000 C 
ATOM     68  C50 UNL A   1      14.140  30.451  -0.930  1.00  0.00    +0.000 C 
ATOM     80  C57 UNL A   1      13.685  30.830  -2.149  1.00  0.00    +0.000 C 
ATOM     81  C58 UNL A   1      13.942  32.047  -2.892  1.00  0.00    +0.000 C 
ATOM     82  C59 UNL A   1      13.248  32.002  -4.050  1.00  0.00    +0.000 C 
ATOM     83  C60 UNL A   1      12.644  30.680  -4.207  1.00  0.00    +0.000 C 
ATOM     84  N7  UNL A   1      12.849  30.059  -2.982  1.00  0.00    +0.000 N 
ATOM     85  C61 UNL A   1      13.389  28.069  -0.443  1.00  0.00    +0.000 C 
ATOM     86  C62 UNL A   1      12.133  27.633  -0.320  1.00  0.00    +0.000 C 
ATOM     87  C63 UNL A   1      11.755  26.708  -6.220  1.00  0.00    +0.000 C 
ATOM     88  C64 UNL A   1      12.406  27.864  -6.376  1.00  0.00    +0.000 C 
ATOM    126  H33 UNL A   1       7.366  26.505  -3.833  1.00  0.00    +0.000 H 
ATOM    127  H34 UNL A   1       7.199  28.256  -1.854  1.00  0.00    +0.000 H 
ATOM    128  H35 UNL A   1      11.062  26.861  -2.042  1.00  0.00    +0.000 H 
ENDROOT
BRANCH   32   31
ATOM    136  H43 UNL A   1      13.526  30.469  -7.620  1.00  0.00    +0.000 H 
ATOM    137  H44 UNL A   1      12.834  31.678  -9.600  1.00  0.00    +0.000 H 
ATOM    124  H31 UNL A   1       9.080  32.392  -7.877  1.00  0.00    +0.000 H 
ATOM    125  H32 UNL A   1       9.840  31.377  -5.826  1.00  0.00    +0.000 H 
ATOM     89  C65 UNL A   1      12.605  30.935  -7.648  1.00  0.00    +0.000 C 
ATOM     90  C66 UNL A   1      12.196  31.618  -8.792  1.00  0.00    +0.000 C 
ATOM     28  C23 UNL A   1      10.929  32.227  -8.870  1.00  0.00    +0.000 C 
ATOM     29  C24 UNL A   1      10.053  32.056  -7.801  1.00  0.00    +0.000 C 
ATOM     30  C25 UNL A   1      10.477  31.436  -6.636  1.00  0.00    +0.000 C 
ATOM     31  C26 UNL A   1      11.763  30.889  -6.545  1.00  0.00    +0.000 C 
BRANCH   28   26
ATOM     26  C22 UNL A   1      10.661  33.056 -10.079  1.00  0.00    +0.000 C 
ATOM     27  O2  UNL A   1      11.350  32.868 -11.089  1.00  0.00    +0.000 O 
BRANCH   26   25
ATOM     25  N3  UNL A   1       9.743  34.069 -10.143  1.00  0.00    +0.000 N 
ATOM    123  H30 UNL A   1       8.965  33.858 -10.708  1.00  0.00    +0.000 H 
BRANCH   25   24
ATOM    121  H28 UNL A   1      10.673  35.784  -9.494  1.00  0.00    +0.000 H 
ATOM    122  H29 UNL A   1       9.044  35.983 -10.176  1.00  0.00    +0.000 H 
ATOM     24  C21 UNL A   1       9.680  35.390  -9.552  1.00  0.00    +0.000 C 
BRANCH   24   23
ATOM    119  H26 UNL A   1       9.587  34.673  -7.554  1.00  0.00    +0.000 H 
ATOM     23  C20 UNL A   1       9.071  35.400  -8.146  1.00  0.00    +0.000 C 
ATOM    120  H27 UNL A   1       9.181  36.399  -7.778  1.00  0.00    +0.000 H 
BRANCH   23   22
ATOM    118  H25 UNL A   1       7.339  34.920  -7.059  1.00  0.00    +0.000 H 
ATOM    117  H24 UNL A   1       7.392  34.228  -8.701  1.00  0.00    +0.000 H 
ATOM     22  C19 UNL A   1       7.577  35.085  -8.088  1.00  0.00    +0.000 C 
BRANCH   22   21
ATOM    115  H22 UNL A   1       5.808  36.236  -7.947  1.00  0.00    +0.000 H 
ATOM    116  H23 UNL A   1       7.261  37.112  -8.503  1.00  0.00    +0.000 H 
ATOM     21  C18 UNL A   1       6.679  36.217  -8.568  1.00  0.00    +0.000 C 
BRANCH   21   20
ATOM    113  H20 UNL A   1       6.839  36.749 -10.620  1.00  0.00    +0.000 H 
ATOM    114  H21 UNL A   1       6.315  35.061 -10.277  1.00  0.00    +0.000 H 
ATOM     20  C17 UNL A   1       6.223  36.099 -10.033  1.00  0.00    +0.000 C 
BRANCH   20   19
ATOM     19  C16 UNL A   1       4.756  36.458 -10.323  1.00  0.00    +0.000 C 
ATOM    111  H18 UNL A   1       4.738  37.417 -10.797  1.00  0.00    +0.000 H 
ATOM    112  H19 UNL A   1       4.374  35.668 -10.936  1.00  0.00    +0.000 H 
BRANCH   19   18
ATOM     18  N2  UNL A   1       3.885  36.517  -9.155  1.00  0.00    +0.000 N 
ATOM    110  H17 UNL A   1       3.843  37.407  -8.735  1.00  0.00    +0.000 H 
BRANCH   18   16
ATOM     17  O1  UNL A   1       3.334  34.390  -8.795  1.00  0.00    +0.000 O 
ATOM     16  C15 UNL A   1       3.117  35.574  -8.532  1.00  0.00    +0.000 C 
BRANCH   16   15
ATOM    108  H15 UNL A   1       1.552  36.858  -8.015  1.00  0.00    +0.000 H 
ATOM    109  H16 UNL A   1       1.383  35.101  -7.554  1.00  0.00    +0.000 H 
ATOM     15  C14 UNL A   1       1.997  35.977  -7.602  1.00  0.00    +0.000 C 
BRANCH   15   12
ATOM      3  C3  UNL A   1       6.655  34.343  -4.295  1.00  0.00    +0.000 C 
ATOM      4  C4  UNL A   1       7.883  34.971  -3.977  1.00  0.00    +0.000 C 
ATOM      5  C5  UNL A   1       8.137  36.313  -4.247  1.00  0.00    +0.000 C 
ATOM      6  C6  UNL A   1       7.153  37.104  -4.817  1.00  0.00    +0.000 C 
ATOM      7  C7  UNL A   1       5.910  36.527  -5.124  1.00  0.00    +0.000 C 
ATOM      8  C8  UNL A   1       4.696  37.077  -5.571  1.00  0.00    +0.000 C 
ATOM      9  C9  UNL A   1       3.762  36.075  -5.726  1.00  0.00    +0.000 C 
ATOM     10  N1  UNL A   1       4.382  34.912  -5.324  1.00  0.00    +0.000 N 
ATOM     11  C10 UNL A   1       5.681  35.174  -4.893  1.00  0.00    +0.000 C 
ATOM     12  C11 UNL A   1       2.309  36.283  -6.118  1.00  0.00    +0.000 C 
ATOM    140  H47 UNL A   1       4.995  38.926  -6.474  1.00  0.00    +0.000 H 
ATOM    141  H48 UNL A   1       4.550  38.991  -4.779  1.00  0.00    +0.000 H 
ATOM    138  H45 UNL A   1       2.582  39.584  -5.649  1.00  0.00    +0.000 H 
ATOM    139  H46 UNL A   1       2.924  38.654  -7.167  1.00  0.00    +0.000 H 
ATOM     91  O3  UNL A   1       1.992  37.641  -5.723  1.00  0.00    +0.000 O 
ATOM     92  C67 UNL A   1       2.921  38.673  -6.097  1.00  0.00    +0.000 C 
ATOM     93  C68 UNL A   1       4.375  38.499  -5.713  1.00  0.00    +0.000 C 
ATOM     99  H6  UNL A   1       8.622  34.411  -3.527  1.00  0.00    +0.000 H 
ATOM    100  H7  UNL A   1       9.059  36.719  -4.021  1.00  0.00    +0.000 H 
ATOM    101  H8  UNL A   1       7.330  38.102  -5.015  1.00  0.00    +0.000 H 
ATOM    102  H9  UNL A   1       3.966  34.020  -5.338  1.00  0.00    +0.000 H 
BRANCH    3    2
ATOM     97  H4  UNL A   1       6.333  32.812  -2.893  1.00  0.00    +0.000 H 
ATOM      2  C2  UNL A   1       6.383  32.897  -3.958  1.00  0.00    +0.000 C 
ATOM     98  H5  UNL A   1       5.472  32.651  -4.462  1.00  0.00    +0.000 H 
BRANCH    2    1
ATOM      1  C1  UNL A   1       7.412  31.887  -4.458  1.00  0.00    +0.000 C 
ATOM     94  H1  UNL A   1       8.106  32.377  -5.108  1.00  0.00    +0.000 H 
ATOM     95  H2  UNL A   1       6.913  31.106  -4.993  1.00  0.00    +0.000 H 
ATOM     96  H3  UNL A   1       7.936  31.471  -3.624  1.00  0.00    +0.000 H 
ENDBRANCH    2    1
ENDBRANCH    3    2
BRANCH   12   13
ATOM     13  C12 UNL A   1       1.386  35.388  -5.225  1.00  0.00    +0.000 C 
ATOM    103  H10 UNL A   1       0.589  36.001  -4.858  1.00  0.00    +0.000 H 
ATOM    104  H11 UNL A   1       2.017  34.992  -4.457  1.00  0.00    +0.000 H 
BRANCH   13   14
ATOM    105  H12 UNL A   1       0.566  34.415  -6.950  1.00  0.00    +0.000 H 
ATOM    106  H13 UNL A   1      -0.152  33.912  -5.438  1.00  0.00    +0.000 H 
ATOM    107  H14 UNL A   1       1.442  33.349  -5.877  1.00  0.00    +0.000 H 
ATOM     14  C13 UNL A   1       0.764  34.174  -5.925  1.00  0.00    +0.000 C 
ENDBRANCH   13   14
ENDBRANCH   12   13
ENDBRANCH   15   12
ENDBRANCH   16   15
ENDBRANCH   18   16
ENDBRANCH   19   18
ENDBRANCH   20   19
ENDBRANCH   21   20
ENDBRANCH   22   21
ENDBRANCH   23   22
ENDBRANCH   24   23
ENDBRANCH   25   24
ENDBRANCH   26   25
ENDBRANCH   28   26
ENDBRANCH   32   31
BRANCH   36   37
ATOM     37  C31 UNL A   1      11.018  24.520  -3.976  1.00  0.00    +0.000 C 
ATOM     38  C32 UNL A   1      12.338  24.528  -3.475  1.00  0.00    +0.000 C 
ATOM     39  F1  UNL A   1      12.881  25.657  -2.995  1.00  0.00    +0.000 F 
ATOM     40  C33 UNL A   1      13.163  23.399  -3.537  1.00  0.00    +0.000 C 
ATOM     41  F2  UNL A   1      14.445  23.488  -3.158  1.00  0.00    +0.000 F 
ATOM     42  C34 UNL A   1      12.685  22.209  -4.051  1.00  0.00    +0.000 C 
ATOM     43  F3  UNL A   1      13.487  21.144  -4.166  1.00  0.00    +0.000 F 
ATOM     44  C35 UNL A   1      11.380  22.142  -4.490  1.00  0.00    +0.000 C 
ATOM     45  F4  UNL A   1      10.905  21.004  -5.015  1.00  0.00    +0.000 F 
ATOM     46  C36 UNL A   1      10.569  23.277  -4.471  1.00  0.00    +0.000 C 
ATOM     47  F5  UNL A   1       9.378  23.132  -5.060  1.00  0.00    +0.000 F 
ENDBRANCH   36   37
BRANCH   53   54
ATOM     54  C42 UNL A   1       9.164  30.101  -0.362  1.00  0.00    +0.000 C 
ATOM     55  C43 UNL A   1       9.255  31.285  -1.107  1.00  0.00    +0.000 C 
ATOM     56  F6  UNL A   1      10.055  31.361  -2.181  1.00  0.00    +0.000 F 
ATOM     57  C44 UNL A   1       8.484  32.398  -0.775  1.00  0.00    +0.000 C 
ATOM     58  F7  UNL A   1       8.589  33.528  -1.490  1.00  0.00    +0.000 F 
ATOM     59  C45 UNL A   1       7.582  32.332   0.278  1.00  0.00    +0.000 C 
ATOM     60  F8  UNL A   1       6.810  33.387   0.571  1.00  0.00    +0.000 F 
ATOM     61  C46 UNL A   1       7.464  31.164   1.013  1.00  0.00    +0.000 C 
ATOM     62  F9  UNL A   1       6.567  31.080   2.006  1.00  0.00    +0.000 F 
ATOM     63  C47 UNL A   1       8.257  30.066   0.706  1.00  0.00    +0.000 C 
ATOM     64  F10 UNL A   1       8.113  28.944   1.429  1.00  0.00    +0.000 F 
ENDBRANCH   53   54
BRANCH   68   69
ATOM     69  C51 UNL A   1      15.476  30.640  -0.318  1.00  0.00    +0.000 C 
ATOM     70  C52 UNL A   1      16.634  30.159  -0.956  1.00  0.00    +0.000 C 
ATOM     71  F11 UNL A   1      16.534  29.278  -1.963  1.00  0.00    +0.000 F 
ATOM     72  C53 UNL A   1      17.906  30.643  -0.631  1.00  0.00    +0.000 C 
ATOM     73  F12 UNL A   1      18.975  30.224  -1.322  1.00  0.00    +0.000 F 
ATOM     74  C54 UNL A   1      18.055  31.608   0.350  1.00  0.00    +0.000 C 
ATOM     75  F13 UNL A   1      19.261  32.135   0.602  1.00  0.00    +0.000 F 
ATOM     76  C55 UNL A   1      16.941  32.059   1.036  1.00  0.00    +0.000 C 
ATOM     77  F14 UNL A   1      17.072  33.015   1.966  1.00  0.00    +0.000 F 
ATOM     78  C56 UNL A   1      15.671  31.579   0.711  1.00  0.00    +0.000 C 
ATOM     79  F15 UNL A   1      14.625  32.125   1.346  1.00  0.00    +0.000 F 
ENDBRANCH   68   69
TORSDOF 20
ENDMDL
MODEL 6
REMARK VINA RESULT:     -10.7      4.929      9.009
ROOT
ATOM    129  H36 UNL A   1      40.968  26.244  26.653  1.00  0.00    +0.000 H 
ATOM    130  H37 UNL A   1      39.636  28.098  27.786  1.00  0.00    +0.000 H 
ATOM    131  H38 UNL A   1      42.875  27.229  30.254  1.00  0.00    +0.000 H 
ATOM    132  H39 UNL A   1      44.684  24.523  30.560  1.00  0.00    +0.000 H 
ATOM    133  H40 UNL A   1      46.092  26.423  31.597  1.00  0.00    +0.000 H 
ATOM    134  H41 UNL A   1      40.715  27.944  35.032  1.00  0.00    +0.000 H 
ATOM    135  H42 UNL A   1      39.290  27.421  32.949  1.00  0.00    +0.000 H 
ATOM     32  C27 UNL A   1      40.426  28.537  30.537  1.00  0.00    +0.000 C 
ATOM     33  C28 UNL A   1      41.001  28.489  31.908  1.00  0.00    +0.000 C 
ATOM     34  N4  UNL A   1      42.086  29.066  32.307  1.00  0.00    +0.000 N 
ATOM     35  C29 UNL A   1      42.233  28.717  33.646  1.00  0.00    +0.000 C 
ATOM     36  C30 UNL A   1      43.473  28.689  34.206  1.00  0.00    +0.000 C 
ATOM     48  C37 UNL A   1      44.421  29.402  33.389  1.00  0.00    +0.000 C 
ATOM     49  C38 UNL A   1      44.815  30.706  33.194  1.00  0.00    +0.000 C 
ATOM     50  C39 UNL A   1      45.447  30.752  31.914  1.00  0.00    +0.000 C 
ATOM     51  C40 UNL A   1      45.453  29.470  31.375  1.00  0.00    +0.000 C 
ATOM     52  N5  UNL A   1      44.871  28.676  32.323  1.00  0.00    +0.000 N 
ATOM     53  C41 UNL A   1      45.681  28.936  30.055  1.00  0.00    +0.000 C 
ATOM     65  C48 UNL A   1      45.649  27.602  29.783  1.00  0.00    +0.000 C 
ATOM     66  N6  UNL A   1      45.172  27.147  28.574  1.00  0.00    +0.000 N 
ATOM     67  C49 UNL A   1      44.565  26.032  28.873  1.00  0.00    +0.000 C 
ATOM     68  C50 UNL A   1      43.387  25.534  28.130  1.00  0.00    +0.000 C 
ATOM     80  C57 UNL A   1      42.360  26.386  28.370  1.00  0.00    +0.000 C 
ATOM     81  C58 UNL A   1      41.196  26.681  27.559  1.00  0.00    +0.000 C 
ATOM     82  C59 UNL A   1      40.458  27.622  28.187  1.00  0.00    +0.000 C 
ATOM     83  C60 UNL A   1      41.004  27.860  29.522  1.00  0.00    +0.000 C 
ATOM     84  N7  UNL A   1      42.210  27.173  29.530  1.00  0.00    +0.000 N 
ATOM     85  C61 UNL A   1      44.915  25.447  30.163  1.00  0.00    +0.000 C 
ATOM     86  C62 UNL A   1      45.623  26.455  30.678  1.00  0.00    +0.000 C 
ATOM     87  C63 UNL A   1      40.979  28.141  34.054  1.00  0.00    +0.000 C 
ATOM     88  C64 UNL A   1      40.205  27.897  32.994  1.00  0.00    +0.000 C 
ATOM    126  H33 UNL A   1      44.681  31.496  33.845  1.00  0.00    +0.000 H 
ATOM    127  H34 UNL A   1      45.835  31.595  31.464  1.00  0.00    +0.000 H 
ATOM    128  H35 UNL A   1      44.787  27.698  32.248  1.00  0.00    +0.000 H 
ENDROOT
BRANCH   32   31
ATOM    136  H43 UNL A   1      40.144  31.216  30.062  1.00  0.00    +0.000 H 
ATOM    137  H44 UNL A   1      38.059  32.435  29.895  1.00  0.00    +0.000 H 
ATOM    124  H31 UNL A   1      35.911  28.857  30.288  1.00  0.00    +0.000 H 
ATOM    125  H32 UNL A   1      37.976  27.672  30.670  1.00  0.00    +0.000 H 
ATOM     89  C65 UNL A   1      39.244  30.723  30.177  1.00  0.00    +0.000 C 
ATOM     90  C66 UNL A   1      38.041  31.418  30.065  1.00  0.00    +0.000 C 
ATOM     28  C23 UNL A   1      36.800  30.761  30.178  1.00  0.00    +0.000 C 
ATOM     29  C24 UNL A   1      36.802  29.376  30.318  1.00  0.00    +0.000 C 
ATOM     30  C25 UNL A   1      37.993  28.689  30.497  1.00  0.00    +0.000 C 
ATOM     31  C26 UNL A   1      39.221  29.361  30.448  1.00  0.00    +0.000 C 
BRANCH   28   26
ATOM     26  C22 UNL A   1      35.587  31.627  30.192  1.00  0.00    +0.000 C 
ATOM     27  O2  UNL A   1      35.043  31.901  29.115  1.00  0.00    +0.000 O 
BRANCH   26   25
ATOM     25  N3  UNL A   1      35.056  32.208  31.312  1.00  0.00    +0.000 N 
ATOM    123  H30 UNL A   1      35.022  31.602  32.088  1.00  0.00    +0.000 H 
BRANCH   25   24
ATOM    121  H28 UNL A   1      34.650  34.133  30.716  1.00  0.00    +0.000 H 
ATOM    122  H29 UNL A   1      33.506  33.408  31.868  1.00  0.00    +0.000 H 
ATOM     24  C21 UNL A   1      34.533  33.529  31.592  1.00  0.00    +0.000 C 
BRANCH   24   23
ATOM    119  H26 UNL A   1      35.160  35.285  32.609  1.00  0.00    +0.000 H 
ATOM     23  C20 UNL A   1      35.235  34.228  32.761  1.00  0.00    +0.000 C 
ATOM    120  H27 UNL A   1      34.745  33.893  33.651  1.00  0.00    +0.000 H 
BRANCH   23   22
ATOM    118  H25 UNL A   1      37.233  34.801  33.067  1.00  0.00    +0.000 H 
ATOM    117  H24 UNL A   1      37.032  33.347  32.054  1.00  0.00    +0.000 H 
ATOM     22  C19 UNL A   1      36.713  33.877  32.927  1.00  0.00    +0.000 C 
BRANCH   22   21
ATOM    115  H22 UNL A   1      37.765  33.517  34.726  1.00  0.00    +0.000 H 
ATOM    116  H23 UNL A   1      36.093  32.892  34.666  1.00  0.00    +0.000 H 
ATOM     21  C18 UNL A   1      37.019  33.017  34.145  1.00  0.00    +0.000 C 
BRANCH   21   20
ATOM    113  H20 UNL A   1      36.713  30.923  33.941  1.00  0.00    +0.000 H 
ATOM    114  H21 UNL A   1      37.916  31.660  32.824  1.00  0.00    +0.000 H 
ATOM     20  C17 UNL A   1      37.531  31.602  33.821  1.00  0.00    +0.000 C 
BRANCH   20   19
ATOM     19  C16 UNL A   1      38.698  31.085  34.679  1.00  0.00    +0.000 C 
ATOM    111  H18 UNL A   1      38.310  30.826  35.642  1.00  0.00    +0.000 H 
ATOM    112  H19 UNL A   1      39.112  30.254  34.145  1.00  0.00    +0.000 H 
BRANCH   19   18
ATOM     18  N2  UNL A   1      39.794  32.024  34.873  1.00  0.00    +0.000 N 
ATOM    110  H17 UNL A   1      39.534  32.848  35.346  1.00  0.00    +0.000 H 
BRANCH   18   16
ATOM     17  O1  UNL A   1      41.936  31.732  35.409  1.00  0.00    +0.000 O 
ATOM     16  C15 UNL A   1      41.116  31.982  34.524  1.00  0.00    +0.000 C 
BRANCH   16   15
ATOM    108  H15 UNL A   1      42.466  31.759  32.946  1.00  0.00    +0.000 H 
ATOM    109  H16 UNL A   1      40.711  32.016  32.519  1.00  0.00    +0.000 H 
ATOM     15  C14 UNL A   1      41.556  32.296  33.114  1.00  0.00    +0.000 C 
BRANCH   15   12
ATOM      3  C3  UNL A   1      45.656  34.543  29.447  1.00  0.00    +0.000 C 
ATOM      4  C4  UNL A   1      45.645  34.876  28.071  1.00  0.00    +0.000 C 
ATOM      5  C5  UNL A   1      44.475  34.935  27.318  1.00  0.00    +0.000 C 
ATOM      6  C6  UNL A   1      43.250  34.698  27.920  1.00  0.00    +0.000 C 
ATOM      7  C7  UNL A   1      43.214  34.390  29.290  1.00  0.00    +0.000 C 
ATOM      8  C8  UNL A   1      42.152  34.235  30.197  1.00  0.00    +0.000 C 
ATOM      9  C9  UNL A   1      42.649  33.930  31.446  1.00  0.00    +0.000 C 
ATOM     10  N1  UNL A   1      44.022  33.949  31.324  1.00  0.00    +0.000 N 
ATOM     11  C10 UNL A   1      44.391  34.288  30.024  1.00  0.00    +0.000 C 
ATOM     12  C11 UNL A   1      41.816  33.765  32.706  1.00  0.00    +0.000 C 
ATOM    140  H47 UNL A   1      40.373  33.812  29.207  1.00  0.00    +0.000 H 
ATOM    141  H48 UNL A   1      40.624  35.504  29.591  1.00  0.00    +0.000 H 
ATOM    138  H45 UNL A   1      39.125  35.036  31.177  1.00  0.00    +0.000 H 
ATOM    139  H46 UNL A   1      39.651  33.302  31.223  1.00  0.00    +0.000 H 
ATOM     91  O3  UNL A   1      40.607  34.529  32.472  1.00  0.00    +0.000 O 
ATOM     92  C67 UNL A   1      39.932  34.335  31.217  1.00  0.00    +0.000 C 
ATOM     93  C68 UNL A   1      40.733  34.500  29.943  1.00  0.00    +0.000 C 
ATOM     99  H6  UNL A   1      46.541  35.084  27.606  1.00  0.00    +0.000 H 
ATOM    100  H7  UNL A   1      44.521  35.156  26.310  1.00  0.00    +0.000 H 
ATOM    101  H8  UNL A   1      42.377  34.745  27.371  1.00  0.00    +0.000 H 
ATOM    102  H9  UNL A   1      44.653  33.751  32.053  1.00  0.00    +0.000 H 
BRANCH    3    2
ATOM     97  H4  UNL A   1      47.380  35.492  30.184  1.00  0.00    +0.000 H 
ATOM      2  C2  UNL A   1      46.930  34.523  30.257  1.00  0.00    +0.000 C 
ATOM     98  H5  UNL A   1      46.636  34.248  31.248  1.00  0.00    +0.000 H 
BRANCH    2    1
ATOM      1  C1  UNL A   1      47.974  33.493  29.840  1.00  0.00    +0.000 C 
ATOM     94  H1  UNL A   1      48.614  33.277  30.669  1.00  0.00    +0.000 H 
ATOM     95  H2  UNL A   1      48.557  33.883  29.032  1.00  0.00    +0.000 H 
ATOM     96  H3  UNL A   1      47.483  32.596  29.525  1.00  0.00    +0.000 H 
ENDBRANCH    2    1
ENDBRANCH    3    2
BRANCH   12   13
ATOM     13  C12 UNL A   1      42.515  34.493  33.902  1.00  0.00    +0.000 C 
ATOM    103  H10 UNL A   1      43.557  34.254  33.870  1.00  0.00    +0.000 H 
ATOM    104  H11 UNL A   1      42.018  34.149  34.785  1.00  0.00    +0.000 H 
BRANCH   13   14
ATOM    105  H12 UNL A   1      41.931  36.332  34.836  1.00  0.00    +0.000 H 
ATOM    106  H13 UNL A   1      41.769  36.333  33.095  1.00  0.00    +0.000 H 
ATOM    107  H14 UNL A   1      43.351  36.464  33.825  1.00  0.00    +0.000 H 
ATOM     14  C13 UNL A   1      42.382  36.021  33.916  1.00  0.00    +0.000 C 
ENDBRANCH   13   14
ENDBRANCH   12   13
ENDBRANCH   15   12
ENDBRANCH   16   15
ENDBRANCH   18   16
ENDBRANCH   19   18
ENDBRANCH   20   19
ENDBRANCH   21   20
ENDBRANCH   22   21
ENDBRANCH   23   22
ENDBRANCH   24   23
ENDBRANCH   25   24
ENDBRANCH   26   25
ENDBRANCH   28   26
ENDBRANCH   32   31
BRANCH   36   37
ATOM     37  C31 UNL A   1      43.955  27.621  35.167  1.00  0.00    +0.000 C 
ATOM     38  C32 UNL A   1      43.846  26.264  34.791  1.00  0.00    +0.000 C 
ATOM     39  F1  UNL A   1      43.602  25.924  33.517  1.00  0.00    +0.000 F 
ATOM     40  C33 UNL A   1      43.896  25.227  35.730  1.00  0.00    +0.000 C 
ATOM     41  F2  UNL A   1      43.670  23.965  35.343  1.00  0.00    +0.000 F 
ATOM     42  C34 UNL A   1      44.109  25.502  37.068  1.00  0.00    +0.000 C 
ATOM     43  F3  UNL A   1      44.099  24.519  37.976  1.00  0.00    +0.000 F 
ATOM     44  C35 UNL A   1      44.286  26.810  37.466  1.00  0.00    +0.000 C 
ATOM     45  F4  UNL A   1      44.468  27.099  38.762  1.00  0.00    +0.000 F 
ATOM     46  C36 UNL A   1      44.192  27.849  36.540  1.00  0.00    +0.000 C 
ATOM     47  F5  UNL A   1      44.229  29.078  37.063  1.00  0.00    +0.000 F 
ENDBRANCH   36   37
BRANCH   53   54
ATOM     54  C42 UNL A   1      45.775  29.881  28.905  1.00  0.00    +0.000 C 
ATOM     55  C43 UNL A   1      46.974  30.258  28.282  1.00  0.00    +0.000 C 
ATOM     56  F6  UNL A   1      48.151  29.774  28.708  1.00  0.00    +0.000 F 
ATOM     57  C44 UNL A   1      46.967  31.109  27.178  1.00  0.00    +0.000 C 
ATOM     58  F7  UNL A   1      48.122  31.469  26.598  1.00  0.00    +0.000 F 
ATOM     59  C45 UNL A   1      45.765  31.563  26.655  1.00  0.00    +0.000 C 
ATOM     60  F8  UNL A   1      45.756  32.346  25.568  1.00  0.00    +0.000 F 
ATOM     61  C46 UNL A   1      44.570  31.185  27.244  1.00  0.00    +0.000 C 
ATOM     62  F9  UNL A   1      43.403  31.587  26.721  1.00  0.00    +0.000 F 
ATOM     63  C47 UNL A   1      44.576  30.366  28.366  1.00  0.00    +0.000 C 
ATOM     64  F10 UNL A   1      43.402  30.008  28.910  1.00  0.00    +0.000 F 
ENDBRANCH   53   54
BRANCH   68   69
ATOM     69  C51 UNL A   1      43.372  24.187  27.514  1.00  0.00    +0.000 C 
ATOM     70  C52 UNL A   1      42.789  23.096  28.183  1.00  0.00    +0.000 C 
ATOM     71  F11 UNL A   1      42.501  23.180  29.490  1.00  0.00    +0.000 F 
ATOM     72  C53 UNL A   1      42.409  21.935  27.501  1.00  0.00    +0.000 C 
ATOM     73  F12 UNL A   1      41.776  20.952  28.156  1.00  0.00    +0.000 F 
ATOM     74  C54 UNL A   1      42.616  21.828  26.137  1.00  0.00    +0.000 C 
ATOM     75  F13 UNL A   1      42.175  20.754  25.467  1.00  0.00    +0.000 F 
ATOM     76  C55 UNL A   1      43.242  22.861  25.460  1.00  0.00    +0.000 C 
ATOM     77  F14 UNL A   1      43.419  22.780  24.135  1.00  0.00    +0.000 F 
ATOM     78  C56 UNL A   1      43.619  24.021  26.139  1.00  0.00    +0.000 C 
ATOM     79  F15 UNL A   1      44.133  25.021  25.410  1.00  0.00    +0.000 F 
ENDBRANCH   68   69
TORSDOF 20
ENDMDL
MODEL 7
REMARK VINA RESULT:     -10.4      4.886      9.415
ROOT
ATOM    129  H36 UNL A   1      40.362  26.586  25.965  1.00  0.00    +0.000 H 
ATOM    130  H37 UNL A   1      39.101  28.355  27.296  1.00  0.00    +0.000 H 
ATOM    131  H38 UNL A   1      42.441  27.280  29.537  1.00  0.00    +0.000 H 
ATOM    132  H39 UNL A   1      44.236  24.548  29.551  1.00  0.00    +0.000 H 
ATOM    133  H40 UNL A   1      45.708  26.354  30.664  1.00  0.00    +0.000 H 
ATOM    134  H41 UNL A   1      40.509  27.637  34.451  1.00  0.00    +0.000 H 
ATOM    135  H42 UNL A   1      38.986  27.285  32.402  1.00  0.00    +0.000 H 
ATOM     32  C27 UNL A   1      40.020  28.577  30.033  1.00  0.00    +0.000 C 
ATOM     33  C28 UNL A   1      40.656  28.419  31.368  1.00  0.00    +0.000 C 
ATOM     34  N4  UNL A   1      41.764  28.958  31.759  1.00  0.00    +0.000 N 
ATOM     35  C29 UNL A   1      41.969  28.506  33.059  1.00  0.00    +0.000 C 
ATOM     36  C30 UNL A   1      43.233  28.428  33.557  1.00  0.00    +0.000 C 
ATOM     48  C37 UNL A   1      44.149  29.196  32.755  1.00  0.00    +0.000 C 
ATOM     49  C38 UNL A   1      44.546  30.509  32.642  1.00  0.00    +0.000 C 
ATOM     50  C39 UNL A   1      45.119  30.649  31.341  1.00  0.00    +0.000 C 
ATOM     51  C40 UNL A   1      45.088  29.412  30.706  1.00  0.00    +0.000 C 
ATOM     52  N5  UNL A   1      44.543  28.551  31.617  1.00  0.00    +0.000 N 
ATOM     53  C41 UNL A   1      45.251  28.980  29.340  1.00  0.00    +0.000 C 
ATOM     65  C48 UNL A   1      45.194  27.672  28.968  1.00  0.00    +0.000 C 
ATOM     66  N6  UNL A   1      44.658  27.314  27.751  1.00  0.00    +0.000 N 
ATOM     67  C49 UNL A   1      44.054  26.183  27.992  1.00  0.00    +0.000 C 
ATOM     68  C50 UNL A   1      42.839  25.750  27.269  1.00  0.00    +0.000 C 
ATOM     80  C57 UNL A   1      41.832  26.587  27.621  1.00  0.00    +0.000 C 
ATOM     81  C58 UNL A   1      40.635  26.950  26.890  1.00  0.00    +0.000 C 
ATOM     82  C59 UNL A   1      39.936  27.844  27.621  1.00  0.00    +0.000 C 
ATOM     83  C60 UNL A   1      40.544  27.976  28.944  1.00  0.00    +0.000 C 
ATOM     84  N7  UNL A   1      41.743  27.283  28.843  1.00  0.00    +0.000 N 
ATOM     85  C61 UNL A   1      44.458  25.498  29.215  1.00  0.00    +0.000 C 
ATOM     86  C62 UNL A   1      45.198  26.459  29.773  1.00  0.00    +0.000 C 
ATOM     87  C63 UNL A   1      40.730  27.908  33.481  1.00  0.00    +0.000 C 
ATOM     88  C64 UNL A   1      39.905  27.751  32.441  1.00  0.00    +0.000 C 
ATOM    126  H33 UNL A   1      44.449  31.247  33.357  1.00  0.00    +0.000 H 
ATOM    127  H34 UNL A   1      45.494  31.522  30.940  1.00  0.00    +0.000 H 
ATOM    128  H35 UNL A   1      44.446  27.583  31.470  1.00  0.00    +0.000 H 
ENDROOT
BRANCH   32   31
ATOM    136  H43 UNL A   1      37.439  27.946  30.681  1.00  0.00    +0.000 H 
ATOM    137  H44 UNL A   1      35.555  29.466  30.730  1.00  0.00    +0.000 H 
ATOM    124  H31 UNL A   1      38.100  32.678  29.848  1.00  0.00    +0.000 H 
ATOM    125  H32 UNL A   1      39.936  31.138  29.587  1.00  0.00    +0.000 H 
ATOM     89  C65 UNL A   1      37.569  28.941  30.438  1.00  0.00    +0.000 C 
ATOM     90  C66 UNL A   1      36.491  29.823  30.481  1.00  0.00    +0.000 C 
ATOM     28  C23 UNL A   1      36.650  31.192  30.193  1.00  0.00    +0.000 C 
ATOM     29  C24 UNL A   1      37.937  31.664  29.948  1.00  0.00    +0.000 C 
ATOM     30  C25 UNL A   1      39.001  30.782  29.838  1.00  0.00    +0.000 C 
ATOM     31  C26 UNL A   1      38.819  29.412  30.063  1.00  0.00    +0.000 C 
BRANCH   28   26
ATOM     26  C22 UNL A   1      35.405  32.007  30.122  1.00  0.00    +0.000 C 
ATOM     27  O2  UNL A   1      34.794  32.063  29.047  1.00  0.00    +0.000 O 
BRANCH   26   25
ATOM     25  N3  UNL A   1      34.910  32.767  31.148  1.00  0.00    +0.000 N 
ATOM    123  H30 UNL A   1      33.970  32.566  31.364  1.00  0.00    +0.000 H 
BRANCH   25   24
ATOM    121  H28 UNL A   1      36.125  34.408  31.376  1.00  0.00    +0.000 H 
ATOM    122  H29 UNL A   1      34.666  34.364  32.388  1.00  0.00    +0.000 H 
ATOM     24  C21 UNL A   1      35.481  33.804  31.980  1.00  0.00    +0.000 C 
BRANCH   24   23
ATOM    119  H26 UNL A   1      35.871  32.322  33.451  1.00  0.00    +0.000 H 
ATOM     23  C20 UNL A   1      36.293  33.262  33.161  1.00  0.00    +0.000 C 
ATOM    120  H27 UNL A   1      37.304  33.184  32.820  1.00  0.00    +0.000 H 
BRANCH   23   22
ATOM    118  H25 UNL A   1      35.306  34.373  34.645  1.00  0.00    +0.000 H 
ATOM    117  H24 UNL A   1      36.878  35.050  34.144  1.00  0.00    +0.000 H 
ATOM     22  C19 UNL A   1      36.324  34.168  34.392  1.00  0.00    +0.000 C 
BRANCH   22   21
ATOM    115  H22 UNL A   1      36.192  33.375  36.348  1.00  0.00    +0.000 H 
ATOM    116  H23 UNL A   1      37.420  32.627  35.288  1.00  0.00    +0.000 H 
ATOM     21  C18 UNL A   1      36.961  33.534  35.620  1.00  0.00    +0.000 C 
BRANCH   21   20
ATOM    113  H20 UNL A   1      38.992  34.141  35.773  1.00  0.00    +0.000 H 
ATOM    114  H21 UNL A   1      37.760  35.391  36.172  1.00  0.00    +0.000 H 
ATOM     20  C17 UNL A   1      38.075  34.373  36.273  1.00  0.00    +0.000 C 
BRANCH   20   19
ATOM     19  C16 UNL A   1      38.296  34.160  37.779  1.00  0.00    +0.000 C 
ATOM    111  H18 UNL A   1      37.337  34.150  38.256  1.00  0.00    +0.000 H 
ATOM    112  H19 UNL A   1      38.832  33.239  37.872  1.00  0.00    +0.000 H 
BRANCH   19   18
ATOM     18  N2  UNL A   1      39.114  35.169  38.439  1.00  0.00    +0.000 N 
ATOM    110  H17 UNL A   1      38.632  35.688  39.123  1.00  0.00    +0.000 H 
BRANCH   18   16
ATOM     17  O1  UNL A   1      40.675  36.471  37.528  1.00  0.00    +0.000 O 
ATOM     16  C15 UNL A   1      40.423  35.535  38.288  1.00  0.00    +0.000 C 
BRANCH   16   15
ATOM    108  H15 UNL A   1      42.210  35.497  39.371  1.00  0.00    +0.000 H 
ATOM    109  H16 UNL A   1      41.003  34.167  39.695  1.00  0.00    +0.000 H 
ATOM     15  C14 UNL A   1      41.526  34.771  38.983  1.00  0.00    +0.000 C 
BRANCH   15   12
ATOM      3  C3  UNL A   1      40.093  31.678  34.115  1.00  0.00    +0.000 C 
ATOM      4  C4  UNL A   1      40.298  31.902  32.733  1.00  0.00    +0.000 C 
ATOM      5  C5  UNL A   1      41.150  32.890  32.245  1.00  0.00    +0.000 C 
ATOM      6  C6  UNL A   1      41.871  33.681  33.126  1.00  0.00    +0.000 C 
ATOM      7  C7  UNL A   1      41.717  33.474  34.506  1.00  0.00    +0.000 C 
ATOM      8  C8  UNL A   1      42.387  34.003  35.622  1.00  0.00    +0.000 C 
ATOM      9  C9  UNL A   1      41.854  33.475  36.778  1.00  0.00    +0.000 C 
ATOM     10  N1  UNL A   1      40.888  32.578  36.375  1.00  0.00    +0.000 N 
ATOM     11  C10 UNL A   1      40.828  32.516  34.985  1.00  0.00    +0.000 C 
ATOM     12  C11 UNL A   1      42.363  33.745  38.183  1.00  0.00    +0.000 C 
ATOM    140  H47 UNL A   1      43.327  35.798  35.154  1.00  0.00    +0.000 H 
ATOM    141  H48 UNL A   1      44.349  34.377  35.052  1.00  0.00    +0.000 H 
ATOM    138  H45 UNL A   1      45.127  35.194  36.978  1.00  0.00    +0.000 H 
ATOM    139  H46 UNL A   1      43.536  35.983  37.337  1.00  0.00    +0.000 H 
ATOM     91  O3  UNL A   1      43.754  34.123  38.024  1.00  0.00    +0.000 O 
ATOM     92  C67 UNL A   1      44.062  35.106  37.021  1.00  0.00    +0.000 C 
ATOM     93  C68 UNL A   1      43.574  34.862  35.609  1.00  0.00    +0.000 C 
ATOM     99  H6  UNL A   1      39.794  31.308  32.056  1.00  0.00    +0.000 H 
ATOM    100  H7  UNL A   1      41.246  33.032  31.227  1.00  0.00    +0.000 H 
ATOM    101  H8  UNL A   1      42.509  34.411  32.773  1.00  0.00    +0.000 H 
ATOM    102  H9  UNL A   1      40.320  32.053  36.985  1.00  0.00    +0.000 H 
BRANCH    3    2
ATOM     97  H4  UNL A   1      39.766  29.672  34.642  1.00  0.00    +0.000 H 
ATOM      2  C2  UNL A   1      39.196  30.577  34.625  1.00  0.00    +0.000 C 
ATOM     98  H5  UNL A   1      38.859  30.903  35.587  1.00  0.00    +0.000 H 
BRANCH    2    1
ATOM      1  C1  UNL A   1      37.930  30.314  33.816  1.00  0.00    +0.000 C 
ATOM     94  H1  UNL A   1      37.072  30.480  34.433  1.00  0.00    +0.000 H 
ATOM     95  H2  UNL A   1      37.931  29.302  33.471  1.00  0.00    +0.000 H 
ATOM     96  H3  UNL A   1      37.900  30.978  32.977  1.00  0.00    +0.000 H 
ENDBRANCH    2    1
ENDBRANCH    3    2
BRANCH   12   13
ATOM     13  C12 UNL A   1      42.411  32.407  38.996  1.00  0.00    +0.000 C 
ATOM    103  H10 UNL A   1      42.113  31.614  38.342  1.00  0.00    +0.000 H 
ATOM    104  H11 UNL A   1      41.758  32.549  39.831  1.00  0.00    +0.000 H 
BRANCH   13   14
ATOM    105  H12 UNL A   1      43.995  32.692  40.411  1.00  0.00    +0.000 H 
ATOM    106  H13 UNL A   1      44.533  32.153  38.838  1.00  0.00    +0.000 H 
ATOM    107  H14 UNL A   1      43.759  31.028  39.929  1.00  0.00    +0.000 H 
ATOM     14  C13 UNL A   1      43.777  32.042  39.588  1.00  0.00    +0.000 C 
ENDBRANCH   13   14
ENDBRANCH   12   13
ENDBRANCH   15   12
ENDBRANCH   16   15
ENDBRANCH   18   16
ENDBRANCH   19   18
ENDBRANCH   20   19
ENDBRANCH   21   20
ENDBRANCH   22   21
ENDBRANCH   23   22
ENDBRANCH   24   23
ENDBRANCH   25   24
ENDBRANCH   26   25
ENDBRANCH   28   26
ENDBRANCH   32   31
BRANCH   36   37
ATOM     37  C31 UNL A   1      43.748  27.286  34.411  1.00  0.00    +0.000 C 
ATOM     38  C32 UNL A   1      43.775  25.983  33.866  1.00  0.00    +0.000 C 
ATOM     39  F1  UNL A   1      43.633  25.791  32.546  1.00  0.00    +0.000 F 
ATOM     40  C33 UNL A   1      43.859  24.843  34.672  1.00  0.00    +0.000 C 
ATOM     41  F2  UNL A   1      43.762  23.626  34.119  1.00  0.00    +0.000 F 
ATOM     42  C34 UNL A   1      43.973  24.961  36.044  1.00  0.00    +0.000 C 
ATOM     43  F3  UNL A   1      43.995  23.872  36.823  1.00  0.00    +0.000 F 
ATOM     44  C35 UNL A   1      44.017  26.217  36.610  1.00  0.00    +0.000 C 
ATOM     45  F4  UNL A   1      44.102  26.352  37.941  1.00  0.00    +0.000 F 
ATOM     46  C36 UNL A   1      43.889  27.355  35.814  1.00  0.00    +0.000 C 
ATOM     47  F5  UNL A   1      43.792  28.507  36.485  1.00  0.00    +0.000 F 
ENDBRANCH   36   37
BRANCH   53   54
ATOM     54  C42 UNL A   1      45.301  30.011  28.262  1.00  0.00    +0.000 C 
ATOM     55  C43 UNL A   1      44.173  30.571  27.647  1.00  0.00    +0.000 C 
ATOM     56  F6  UNL A   1      42.936  30.191  28.002  1.00  0.00    +0.000 F 
ATOM     57  C44 UNL A   1      44.308  31.569  26.682  1.00  0.00    +0.000 C 
ATOM     58  F7  UNL A   1      43.221  32.089  26.094  1.00  0.00    +0.000 F 
ATOM     59  C45 UNL A   1      45.566  32.049  26.348  1.00  0.00    +0.000 C 
ATOM     60  F8  UNL A   1      45.695  33.037  25.452  1.00  0.00    +0.000 F 
ATOM     61  C46 UNL A   1      46.691  31.522  26.960  1.00  0.00    +0.000 C 
ATOM     62  F9  UNL A   1      47.907  32.008  26.671  1.00  0.00    +0.000 F 
ATOM     63  C47 UNL A   1      46.561  30.503  27.895  1.00  0.00    +0.000 C 
ATOM     64  F10 UNL A   1      47.668  30.019  28.480  1.00  0.00    +0.000 F 
ENDBRANCH   53   54
BRANCH   68   69
ATOM     69  C51 UNL A   1      42.784  24.454  26.553  1.00  0.00    +0.000 C 
ATOM     70  C52 UNL A   1      43.456  24.278  25.330  1.00  0.00    +0.000 C 
ATOM     71  F11 UNL A   1      43.910  25.342  24.649  1.00  0.00    +0.000 F 
ATOM     72  C53 UNL A   1      43.754  23.006  24.832  1.00  0.00    +0.000 C 
ATOM     73  F12 UNL A   1      44.473  22.879  23.709  1.00  0.00    +0.000 F 
ATOM     74  C54 UNL A   1      43.373  21.875  25.535  1.00  0.00    +0.000 C 
ATOM     75  F13 UNL A   1      43.732  20.658  25.104  1.00  0.00    +0.000 F 
ATOM     76  C55 UNL A   1      42.659  22.015  26.712  1.00  0.00    +0.000 C 
ATOM     77  F14 UNL A   1      42.312  20.928  27.415  1.00  0.00    +0.000 F 
ATOM     78  C56 UNL A   1      42.364  23.284  27.211  1.00  0.00    +0.000 C 
ATOM     79  F15 UNL A   1      41.753  23.351  28.402  1.00  0.00    +0.000 F 
ENDBRANCH   68   69
TORSDOF 20
ENDMDL
MODEL 8
REMARK VINA RESULT:     -10.3     36.002     42.241
ROOT
ATOM    129  H36 UNL A   1      12.398  30.706   2.838  1.00  0.00    +0.000 H 
ATOM    130  H37 UNL A   1      10.096  29.624   2.995  1.00  0.00    +0.000 H 
ATOM    131  H38 UNL A   1      10.349  31.436  -0.745  1.00  0.00    +0.000 H 
ATOM    132  H39 UNL A   1      12.183  33.922  -1.813  1.00  0.00    +0.000 H 
ATOM    133  H40 UNL A   1      11.399  32.673  -3.934  1.00  0.00    +0.000 H 
ATOM    134  H41 UNL A   1       5.360  33.070  -1.408  1.00  0.00    +0.000 H 
ATOM    135  H42 UNL A   1       6.354  32.615   0.926  1.00  0.00    +0.000 H 
ATOM     32  C27 UNL A   1       8.300  30.480   0.891  1.00  0.00    +0.000 C 
ATOM     33  C28 UNL A   1       7.610  31.137  -0.251  1.00  0.00    +0.000 C 
ATOM     34  N4  UNL A   1       7.662  30.777  -1.491  1.00  0.00    +0.000 N 
ATOM     35  C29 UNL A   1       6.888  31.699  -2.188  1.00  0.00    +0.000 C 
ATOM     36  C30 UNL A   1       7.147  31.945  -3.501  1.00  0.00    +0.000 C 
ATOM     48  C37 UNL A   1       7.973  30.908  -4.064  1.00  0.00    +0.000 C 
ATOM     49  C38 UNL A   1       7.801  29.650  -4.595  1.00  0.00    +0.000 C 
ATOM     50  C39 UNL A   1       9.071  29.000  -4.515  1.00  0.00    +0.000 C 
ATOM     51  C40 UNL A   1       9.992  29.888  -3.970  1.00  0.00    +0.000 C 
ATOM     52  N5  UNL A   1       9.298  31.047  -3.763  1.00  0.00    +0.000 N 
ATOM     53  C41 UNL A   1      11.309  29.747  -3.401  1.00  0.00    +0.000 C 
ATOM     65  C48 UNL A   1      12.033  30.804  -2.942  1.00  0.00    +0.000 C 
ATOM     66  N6  UNL A   1      12.858  30.664  -1.849  1.00  0.00    +0.000 N 
ATOM     67  C49 UNL A   1      12.761  31.810  -1.231  1.00  0.00    +0.000 C 
ATOM     68  C50 UNL A   1      12.883  31.945   0.237  1.00  0.00    +0.000 C 
ATOM     80  C57 UNL A   1      11.811  31.330   0.796  1.00  0.00    +0.000 C 
ATOM     81  C58 UNL A   1      11.671  30.730   2.107  1.00  0.00    +0.000 C 
ATOM     82  C59 UNL A   1      10.430  30.207   2.213  1.00  0.00    +0.000 C 
ATOM     83  C60 UNL A   1       9.635  30.594   1.049  1.00  0.00    +0.000 C 
ATOM     84  N7  UNL A   1      10.552  31.172   0.181  1.00  0.00    +0.000 N 
ATOM     85  C61 UNL A   1      12.228  32.913  -2.023  1.00  0.00    +0.000 C 
ATOM     86  C62 UNL A   1      11.818  32.236  -3.098  1.00  0.00    +0.000 C 
ATOM     87  C63 UNL A   1       6.146  32.436  -1.199  1.00  0.00    +0.000 C 
ATOM     88  C64 UNL A   1       6.617  32.187   0.026  1.00  0.00    +0.000 C 
ATOM    126  H33 UNL A   1       6.927  29.253  -4.976  1.00  0.00    +0.000 H 
ATOM    127  H34 UNL A   1       9.272  28.033  -4.814  1.00  0.00    +0.000 H 
ATOM    128  H35 UNL A   1       9.703  31.882  -3.435  1.00  0.00    +0.000 H 
ENDROOT
BRANCH   32   31
ATOM    136  H43 UNL A   1       7.495  31.005   3.451  1.00  0.00    +0.000 H 
ATOM    137  H44 UNL A   1       5.929  29.705   4.762  1.00  0.00    +0.000 H 
ATOM    124  H31 UNL A   1       5.222  27.203   1.473  1.00  0.00    +0.000 H 
ATOM    125  H32 UNL A   1       6.937  28.362   0.236  1.00  0.00    +0.000 H 
ATOM     89  C65 UNL A   1       7.063  30.157   3.051  1.00  0.00    +0.000 C 
ATOM     90  C66 UNL A   1       6.148  29.415   3.796  1.00  0.00    +0.000 C 
ATOM     28  C23 UNL A   1       5.513  28.278   3.259  1.00  0.00    +0.000 C 
ATOM     29  C24 UNL A   1       5.758  27.960   1.926  1.00  0.00    +0.000 C 
ATOM     30  C25 UNL A   1       6.716  28.653   1.201  1.00  0.00    +0.000 C 
ATOM     31  C26 UNL A   1       7.388  29.744   1.767  1.00  0.00    +0.000 C 
BRANCH   28   26
ATOM     26  C22 UNL A   1       4.673  27.479   4.195  1.00  0.00    +0.000 C 
ATOM     27  O2  UNL A   1       5.154  27.148   5.286  1.00  0.00    +0.000 O 
BRANCH   26   25
ATOM     25  N3  UNL A   1       3.416  27.017   3.914  1.00  0.00    +0.000 N 
ATOM    123  H30 UNL A   1       2.708  27.679   4.088  1.00  0.00    +0.000 H 
BRANCH   25   24
ATOM    121  H28 UNL A   1       3.209  24.979   4.089  1.00  0.00    +0.000 H 
ATOM    122  H29 UNL A   1       1.846  25.847   3.348  1.00  0.00    +0.000 H 
ATOM     24  C21 UNL A   1       2.910  25.755   3.415  1.00  0.00    +0.000 C 
BRANCH   24   23
ATOM    119  H26 UNL A   1       2.585  25.104   1.419  1.00  0.00    +0.000 H 
ATOM     23  C20 UNL A   1       3.422  25.403   2.014  1.00  0.00    +0.000 C 
ATOM    120  H27 UNL A   1       3.911  26.280   1.644  1.00  0.00    +0.000 H 
BRANCH   23   22
ATOM    118  H25 UNL A   1       4.788  24.210   0.956  1.00  0.00    +0.000 H 
ATOM    117  H24 UNL A   1       3.999  23.384   2.325  1.00  0.00    +0.000 H 
ATOM     22  C19 UNL A   1       4.461  24.283   1.971  1.00  0.00    +0.000 C 
BRANCH   22   21
ATOM    115  H22 UNL A   1       6.520  24.731   2.148  1.00  0.00    +0.000 H 
ATOM    116  H23 UNL A   1       5.470  25.381   3.438  1.00  0.00    +0.000 H 
ATOM     21  C18 UNL A   1       5.701  24.546   2.812  1.00  0.00    +0.000 C 
BRANCH   21   20
ATOM    113  H20 UNL A   1       5.447  22.567   3.546  1.00  0.00    +0.000 H 
ATOM    114  H21 UNL A   1       7.131  23.203   3.551  1.00  0.00    +0.000 H 
ATOM     20  C17 UNL A   1       6.097  23.392   3.752  1.00  0.00    +0.000 C 
BRANCH   20   19
ATOM     19  C16 UNL A   1       6.021  23.683   5.260  1.00  0.00    +0.000 C 
ATOM    111  H18 UNL A   1       5.311  24.470   5.409  1.00  0.00    +0.000 H 
ATOM    112  H19 UNL A   1       5.744  22.760   5.725  1.00  0.00    +0.000 H 
BRANCH   19   18
ATOM     18  N2  UNL A   1       7.275  24.086   5.883  1.00  0.00    +0.000 N 
ATOM    110  H17 UNL A   1       7.240  24.972   6.312  1.00  0.00    +0.000 H 
BRANCH   18   16
ATOM     17  O1  UNL A   1       8.534  22.251   5.815  1.00  0.00    +0.000 O 
ATOM     16  C15 UNL A   1       8.492  23.470   5.984  1.00  0.00    +0.000 C 
BRANCH   16   15
ATOM    108  H15 UNL A   1       9.422  25.010   7.046  1.00  0.00    +0.000 H 
ATOM    109  H16 UNL A   1      10.400  23.504   6.721  1.00  0.00    +0.000 H 
ATOM     15  C14 UNL A   1       9.729  24.254   6.354  1.00  0.00    +0.000 C 
BRANCH   15   12
ATOM      3  C3  UNL A   1      10.054  23.063   0.542  1.00  0.00    +0.000 C 
ATOM      4  C4  UNL A   1       9.367  23.568  -0.588  1.00  0.00    +0.000 C 
ATOM      5  C5  UNL A   1       8.562  24.703  -0.538  1.00  0.00    +0.000 C 
ATOM      6  C6  UNL A   1       8.436  25.413   0.645  1.00  0.00    +0.000 C 
ATOM      7  C7  UNL A   1       9.123  24.962   1.784  1.00  0.00    +0.000 C 
ATOM      8  C8  UNL A   1       9.304  25.518   3.062  1.00  0.00    +0.000 C 
ATOM      9  C9  UNL A   1      10.069  24.671   3.833  1.00  0.00    +0.000 C 
ATOM     10  N1  UNL A   1      10.407  23.613   3.016  1.00  0.00    +0.000 N 
ATOM     11  C10 UNL A   1       9.888  23.800   1.737  1.00  0.00    +0.000 C 
ATOM     12  C11 UNL A   1      10.546  24.960   5.247  1.00  0.00    +0.000 C 
ATOM    140  H47 UNL A   1       7.831  26.923   3.486  1.00  0.00    +0.000 H 
ATOM    141  H48 UNL A   1       9.323  27.583   2.845  1.00  0.00    +0.000 H 
ATOM    138  H45 UNL A   1       9.610  28.161   4.982  1.00  0.00    +0.000 H 
ATOM    139  H46 UNL A   1       8.604  26.760   5.540  1.00  0.00    +0.000 H 
ATOM     91  O3  UNL A   1      10.559  26.404   5.362  1.00  0.00    +0.000 O 
ATOM     92  C67 UNL A   1       9.393  27.116   4.910  1.00  0.00    +0.000 C 
ATOM     93  C68 UNL A   1       8.899  26.855   3.504  1.00  0.00    +0.000 C 
ATOM     99  H6  UNL A   1       9.465  23.073  -1.488  1.00  0.00    +0.000 H 
ATOM    100  H7  UNL A   1       8.059  25.017  -1.384  1.00  0.00    +0.000 H 
ATOM    101  H8  UNL A   1       7.847  26.259   0.690  1.00  0.00    +0.000 H 
ATOM    102  H9  UNL A   1      10.941  22.835   3.296  1.00  0.00    +0.000 H 
BRANCH    3    2
ATOM     97  H4  UNL A   1      11.276  21.754  -0.556  1.00  0.00    +0.000 H 
ATOM      2  C2  UNL A   1      10.953  21.854   0.460  1.00  0.00    +0.000 C 
ATOM     98  H5  UNL A   1      11.744  22.037   1.157  1.00  0.00    +0.000 H 
BRANCH    2    1
ATOM      1  C1  UNL A   1      10.333  20.526   0.883  1.00  0.00    +0.000 C 
ATOM     94  H1  UNL A   1      11.069  19.753   0.820  1.00  0.00    +0.000 H 
ATOM     95  H2  UNL A   1       9.514  20.294   0.237  1.00  0.00    +0.000 H 
ATOM     96  H3  UNL A   1       9.983  20.603   1.892  1.00  0.00    +0.000 H 
ENDBRANCH    2    1
ENDBRANCH    3    2
BRANCH   12   13
ATOM     13  C12 UNL A   1      12.046  24.540   5.397  1.00  0.00    +0.000 C 
ATOM    103  H10 UNL A   1      12.580  25.369   5.813  1.00  0.00    +0.000 H 
ATOM    104  H11 UNL A   1      12.372  24.264   4.416  1.00  0.00    +0.000 H 
BRANCH   13   14
ATOM    105  H12 UNL A   1      11.371  22.893   6.589  1.00  0.00    +0.000 H 
ATOM    106  H13 UNL A   1      12.859  23.616   7.150  1.00  0.00    +0.000 H 
ATOM    107  H14 UNL A   1      12.867  22.591   5.736  1.00  0.00    +0.000 H 
ATOM     14  C13 UNL A   1      12.306  23.318   6.285  1.00  0.00    +0.000 C 
ENDBRANCH   13   14
ENDBRANCH   12   13
ENDBRANCH   15   12
ENDBRANCH   16   15
ENDBRANCH   18   16
ENDBRANCH   19   18
ENDBRANCH   20   19
ENDBRANCH   21   20
ENDBRANCH   22   21
ENDBRANCH   23   22
ENDBRANCH   24   23
ENDBRANCH   25   24
ENDBRANCH   26   25
ENDBRANCH   28   26
ENDBRANCH   32   31
BRANCH   36   37
ATOM     37  C31 UNL A   1       7.124  33.322  -4.136  1.00  0.00    +0.000 C 
ATOM     38  C32 UNL A   1       8.017  34.308  -3.663  1.00  0.00    +0.000 C 
ATOM     39  F1  UNL A   1       9.057  33.973  -2.886  1.00  0.00    +0.000 F 
ATOM     40  C33 UNL A   1       7.813  35.671  -3.904  1.00  0.00    +0.000 C 
ATOM     41  F2  UNL A   1       8.620  36.577  -3.337  1.00  0.00    +0.000 F 
ATOM     42  C34 UNL A   1       6.742  36.096  -4.668  1.00  0.00    +0.000 C 
ATOM     43  F3  UNL A   1       6.510  37.402  -4.852  1.00  0.00    +0.000 F 
ATOM     44  C35 UNL A   1       5.884  35.159  -5.203  1.00  0.00    +0.000 C 
ATOM     45  F4  UNL A   1       4.825  35.553  -5.925  1.00  0.00    +0.000 F 
ATOM     46  C36 UNL A   1       6.059  33.803  -4.928  1.00  0.00    +0.000 C 
ATOM     47  F5  UNL A   1       5.082  33.005  -5.372  1.00  0.00    +0.000 F 
ENDBRANCH   36   37
BRANCH   53   54
ATOM     54  C42 UNL A   1      11.831  28.375  -3.132  1.00  0.00    +0.000 C 
ATOM     55  C43 UNL A   1      11.543  27.626  -1.982  1.00  0.00    +0.000 C 
ATOM     56  F6  UNL A   1      10.757  28.126  -1.017  1.00  0.00    +0.000 F 
ATOM     57  C44 UNL A   1      12.031  26.329  -1.834  1.00  0.00    +0.000 C 
ATOM     58  F7  UNL A   1      11.757  25.629  -0.724  1.00  0.00    +0.000 F 
ATOM     59  C45 UNL A   1      12.778  25.745  -2.847  1.00  0.00    +0.000 C 
ATOM     60  F8  UNL A   1      13.212  24.484  -2.724  1.00  0.00    +0.000 F 
ATOM     61  C46 UNL A   1      13.055  26.461  -4.000  1.00  0.00    +0.000 C 
ATOM     62  F9  UNL A   1      13.742  25.891  -5.000  1.00  0.00    +0.000 F 
ATOM     63  C47 UNL A   1      12.600  27.767  -4.134  1.00  0.00    +0.000 C 
ATOM     64  F10 UNL A   1      12.875  28.433  -5.267  1.00  0.00    +0.000 F 
ENDBRANCH   53   54
BRANCH   68   69
ATOM     69  C51 UNL A   1      13.877  32.855   0.852  1.00  0.00    +0.000 C 
ATOM     70  C52 UNL A   1      13.468  33.898   1.702  1.00  0.00    +0.000 C 
ATOM     71  F11 UNL A   1      12.180  34.271   1.744  1.00  0.00    +0.000 F 
ATOM     72  C53 UNL A   1      14.357  34.513   2.589  1.00  0.00    +0.000 C 
ATOM     73  F12 UNL A   1      13.910  35.442   3.446  1.00  0.00    +0.000 F 
ATOM     74  C54 UNL A   1      15.681  34.114   2.639  1.00  0.00    +0.000 C 
ATOM     75  F13 UNL A   1      16.514  34.641   3.547  1.00  0.00    +0.000 F 
ATOM     76  C55 UNL A   1      16.128  33.130   1.773  1.00  0.00    +0.000 C 
ATOM     77  F14 UNL A   1      17.400  32.715   1.834  1.00  0.00    +0.000 F 
ATOM     78  C56 UNL A   1      15.241  32.514   0.889  1.00  0.00    +0.000 C 
ATOM     79  F15 UNL A   1      15.714  31.504   0.145  1.00  0.00    +0.000 F 
ENDBRANCH   68   69
TORSDOF 20
ENDMDL
MODEL 9
REMARK VINA RESULT:     -10.2     38.817     44.508
ROOT
ATOM    129  H36 UNL A   1       8.588  53.627   2.338  1.00  0.00    +0.000 H 
ATOM    130  H37 UNL A   1       8.909  51.644   3.906  1.00  0.00    +0.000 H 
ATOM    131  H38 UNL A   1      12.511  52.219   1.899  1.00  0.00    +0.000 H 
ATOM    132  H39 UNL A   1      13.173  53.619  -0.980  1.00  0.00    +0.000 H 
ATOM    133  H40 UNL A   1      15.413  53.574   0.304  1.00  0.00    +0.000 H 
ATOM    134  H41 UNL A   1      14.173  47.222   1.371  1.00  0.00    +0.000 H 
ATOM    135  H42 UNL A   1      11.687  47.811   1.712  1.00  0.00    +0.000 H 
ATOM     32  C27 UNL A   1      11.332  50.155   3.363  1.00  0.00    +0.000 C 
ATOM     33  C28 UNL A   1      12.588  49.575   2.817  1.00  0.00    +0.000 C 
ATOM     34  N4  UNL A   1      13.792  49.952   3.095  1.00  0.00    +0.000 N 
ATOM     35  C29 UNL A   1      14.630  49.144   2.332  1.00  0.00    +0.000 C 
ATOM     36  C30 UNL A   1      15.861  49.596   1.970  1.00  0.00    +0.000 C 
ATOM     48  C37 UNL A   1      16.248  50.729   2.771  1.00  0.00    +0.000 C 
ATOM     49  C38 UNL A   1      16.807  50.954   4.008  1.00  0.00    +0.000 C 
ATOM     50  C39 UNL A   1      16.472  52.296   4.366  1.00  0.00    +0.000 C 
ATOM     51  C40 UNL A   1      15.747  52.866   3.325  1.00  0.00    +0.000 C 
ATOM     52  N5  UNL A   1      15.681  51.902   2.359  1.00  0.00    +0.000 N 
ATOM     53  C41 UNL A   1      14.921  54.042   3.202  1.00  0.00    +0.000 C 
ATOM     65  C48 UNL A   1      14.320  54.402   2.035  1.00  0.00    +0.000 C 
ATOM     66  N6  UNL A   1      13.082  55.005   2.044  1.00  0.00    +0.000 N 
ATOM     67  C49 UNL A   1      12.493  54.531   0.980  1.00  0.00    +0.000 C 
ATOM     68  C50 UNL A   1      11.030  54.327   0.895  1.00  0.00    +0.000 C 
ATOM     80  C57 UNL A   1      10.704  53.332   1.757  1.00  0.00    +0.000 C 
ATOM     81  C58 UNL A   1       9.452  53.074   2.438  1.00  0.00    +0.000 C 
ATOM     82  C59 UNL A   1       9.604  51.987   3.225  1.00  0.00    +0.000 C 
ATOM     83  C60 UNL A   1      10.904  51.372   2.965  1.00  0.00    +0.000 C 
ATOM     84  N7  UNL A   1      11.564  52.289   2.158  1.00  0.00    +0.000 N 
ATOM     85  C61 UNL A   1      13.372  53.932  -0.017  1.00  0.00    +0.000 C 
ATOM     86  C62 UNL A   1      14.511  53.906   0.680  1.00  0.00    +0.000 C 
ATOM     87  C63 UNL A   1      13.811  48.074   1.826  1.00  0.00    +0.000 C 
ATOM     88  C64 UNL A   1      12.516  48.337   2.027  1.00  0.00    +0.000 C 
ATOM    126  H33 UNL A   1      17.360  50.286   4.567  1.00  0.00    +0.000 H 
ATOM    127  H34 UNL A   1      16.727  52.765   5.249  1.00  0.00    +0.000 H 
ATOM    128  H35 UNL A   1      15.274  52.036   1.473  1.00  0.00    +0.000 H 
ENDROOT
BRANCH   32   31
ATOM    136  H43 UNL A   1      11.272  50.242   6.095  1.00  0.00    +0.000 H 
ATOM    137  H44 UNL A   1      10.070  48.733   7.557  1.00  0.00    +0.000 H 
ATOM    124  H31 UNL A   1       8.400  46.809   4.228  1.00  0.00    +0.000 H 
ATOM    125  H32 UNL A   1       9.760  48.167   2.773  1.00  0.00    +0.000 H 
ATOM     89  C65 UNL A   1      10.715  49.470   5.698  1.00  0.00    +0.000 C 
ATOM     90  C66 UNL A   1      10.007  48.609   6.534  1.00  0.00    +0.000 C 
ATOM     28  C23 UNL A   1       9.207  47.573   6.015  1.00  0.00    +0.000 C 
ATOM     29  C24 UNL A   1       9.068  47.482   4.633  1.00  0.00    +0.000 C 
ATOM     30  C25 UNL A   1       9.821  48.292   3.796  1.00  0.00    +0.000 C 
ATOM     31  C26 UNL A   1      10.664  49.278   4.324  1.00  0.00    +0.000 C 
BRANCH   28   26
ATOM     26  C22 UNL A   1       8.621  46.624   7.004  1.00  0.00    +0.000 C 
ATOM     27  O2  UNL A   1       7.433  46.299   6.879  1.00  0.00    +0.000 O 
BRANCH   26   25
ATOM     25  N3  UNL A   1       9.281  46.126   8.094  1.00  0.00    +0.000 N 
ATOM    123  H30 UNL A   1       9.637  45.219   7.955  1.00  0.00    +0.000 H 
BRANCH   25   24
ATOM    121  H28 UNL A   1       9.282  47.690   9.428  1.00  0.00    +0.000 H 
ATOM    122  H29 UNL A   1       9.005  46.074  10.112  1.00  0.00    +0.000 H 
ATOM     24  C21 UNL A   1       9.564  46.658   9.411  1.00  0.00    +0.000 C 
BRANCH   24   23
ATOM    119  H26 UNL A   1      11.470  47.531   9.755  1.00  0.00    +0.000 H 
ATOM     23  C20 UNL A   1      11.040  46.552   9.809  1.00  0.00    +0.000 C 
ATOM    120  H27 UNL A   1      11.057  46.137  10.795  1.00  0.00    +0.000 H 
BRANCH   23   22
ATOM    118  H25 UNL A   1      11.185  45.033   8.366  1.00  0.00    +0.000 H 
ATOM    117  H24 UNL A   1      12.494  45.023   9.577  1.00  0.00    +0.000 H 
ATOM     22  C19 UNL A   1      11.876  45.617   8.935  1.00  0.00    +0.000 C 
BRANCH   22   21
ATOM    115  H22 UNL A   1      12.620  47.384   8.043  1.00  0.00    +0.000 H 
ATOM    116  H23 UNL A   1      13.774  46.026   8.155  1.00  0.00    +0.000 H 
ATOM     21  C18 UNL A   1      12.773  46.331   7.935  1.00  0.00    +0.000 C 
BRANCH   21   20
ATOM    113  H20 UNL A   1      12.798  44.933   6.333  1.00  0.00    +0.000 H 
ATOM    114  H21 UNL A   1      11.481  46.158   6.294  1.00  0.00    +0.000 H 
ATOM     20  C17 UNL A   1      12.518  45.958   6.463  1.00  0.00    +0.000 C 
BRANCH   20   19
ATOM     19  C16 UNL A   1      13.271  46.786   5.408  1.00  0.00    +0.000 C 
ATOM    111  H18 UNL A   1      12.929  46.479   4.441  1.00  0.00    +0.000 H 
ATOM    112  H19 UNL A   1      13.063  47.811   5.633  1.00  0.00    +0.000 H 
BRANCH   19   18
ATOM     18  N2  UNL A   1      14.722  46.656   5.432  1.00  0.00    +0.000 N 
ATOM    110  H17 UNL A   1      15.050  45.787   5.106  1.00  0.00    +0.000 H 
BRANCH   18   16
ATOM     17  O1  UNL A   1      16.564  47.825   4.985  1.00  0.00    +0.000 O 
ATOM     16  C15 UNL A   1      15.716  47.511   5.822  1.00  0.00    +0.000 C 
BRANCH   16   15
ATOM    108  H15 UNL A   1      15.157  47.377   7.830  1.00  0.00    +0.000 H 
ATOM    109  H16 UNL A   1      16.852  47.945   7.467  1.00  0.00    +0.000 H 
ATOM     15  C14 UNL A   1      15.805  47.998   7.249  1.00  0.00    +0.000 C 
BRANCH   15   12
ATOM      3  C3  UNL A   1      13.078  50.245  12.026  1.00  0.00    +0.000 C 
ATOM      4  C4  UNL A   1      13.553  50.807  13.236  1.00  0.00    +0.000 C 
ATOM      5  C5  UNL A   1      14.886  51.155  13.435  1.00  0.00    +0.000 C 
ATOM      6  C6  UNL A   1      15.806  50.992  12.412  1.00  0.00    +0.000 C 
ATOM      7  C7  UNL A   1      15.371  50.463  11.185  1.00  0.00    +0.000 C 
ATOM      8  C8  UNL A   1      16.010  50.305   9.944  1.00  0.00    +0.000 C 
ATOM      9  C9  UNL A   1      15.141  49.725   9.045  1.00  0.00    +0.000 C 
ATOM     10  N1  UNL A   1      13.946  49.573   9.715  1.00  0.00    +0.000 N 
ATOM     11  C10 UNL A   1      14.046  50.074  11.011  1.00  0.00    +0.000 C 
ATOM     12  C11 UNL A   1      15.440  49.465   7.578  1.00  0.00    +0.000 C 
ATOM    140  H47 UNL A   1      18.079  50.308  10.157  1.00  0.00    +0.000 H 
ATOM    141  H48 UNL A   1      17.373  51.858   9.742  1.00  0.00    +0.000 H 
ATOM    138  H45 UNL A   1      18.206  51.339   7.737  1.00  0.00    +0.000 H 
ATOM    139  H46 UNL A   1      18.054  49.567   8.085  1.00  0.00    +0.000 H 
ATOM     91  O3  UNL A   1      16.471  50.418   7.219  1.00  0.00    +0.000 O 
ATOM     92  C67 UNL A   1      17.600  50.536   8.101  1.00  0.00    +0.000 C 
ATOM     93  C68 UNL A   1      17.336  50.803   9.567  1.00  0.00    +0.000 C 
ATOM     99  H6  UNL A   1      12.883  50.964  14.004  1.00  0.00    +0.000 H 
ATOM    100  H7  UNL A   1      15.189  51.536  14.346  1.00  0.00    +0.000 H 
ATOM    101  H8  UNL A   1      16.795  51.253  12.548  1.00  0.00    +0.000 H 
ATOM    102  H9  UNL A   1      13.135  49.168   9.332  1.00  0.00    +0.000 H 
BRANCH    3    2
ATOM     97  H4  UNL A   1      11.571  48.950  11.347  1.00  0.00    +0.000 H 
ATOM      2  C2  UNL A   1      11.621  49.911  11.815  1.00  0.00    +0.000 C 
ATOM     98  H5  UNL A   1      11.174  49.952  12.786  1.00  0.00    +0.000 H 
BRANCH    2    1
ATOM      1  C1  UNL A   1      10.826  50.890  10.956  1.00  0.00    +0.000 C 
ATOM     94  H1  UNL A   1      10.499  51.710  11.560  1.00  0.00    +0.000 H 
ATOM     95  H2  UNL A   1       9.976  50.390  10.542  1.00  0.00    +0.000 H 
ATOM     96  H3  UNL A   1      11.447  51.254  10.165  1.00  0.00    +0.000 H 
ENDBRANCH    2    1
ENDBRANCH    3    2
BRANCH   12   13
ATOM     13  C12 UNL A   1      14.206  49.874   6.706  1.00  0.00    +0.000 C 
ATOM    103  H10 UNL A   1      13.364  49.302   7.037  1.00  0.00    +0.000 H 
ATOM    104  H11 UNL A   1      14.488  49.682   5.692  1.00  0.00    +0.000 H 
BRANCH   13   14
ATOM    105  H12 UNL A   1      13.966  51.799   5.796  1.00  0.00    +0.000 H 
ATOM    106  H13 UNL A   1      14.434  51.859   7.478  1.00  0.00    +0.000 H 
ATOM    107  H14 UNL A   1      12.793  51.448   7.043  1.00  0.00    +0.000 H 
ATOM     14  C13 UNL A   1      13.820  51.357   6.760  1.00  0.00    +0.000 C 
ENDBRANCH   13   14
ENDBRANCH   12   13
ENDBRANCH   15   12
ENDBRANCH   16   15
ENDBRANCH   18   16
ENDBRANCH   19   18
ENDBRANCH   20   19
ENDBRANCH   21   20
ENDBRANCH   22   21
ENDBRANCH   23   22
ENDBRANCH   24   23
ENDBRANCH   25   24
ENDBRANCH   26   25
ENDBRANCH   28   26
ENDBRANCH   32   31
BRANCH   36   37
ATOM     37  C31 UNL A   1      16.483  49.389   0.602  1.00  0.00    +0.000 C 
ATOM     38  C32 UNL A   1      15.710  49.664  -0.547  1.00  0.00    +0.000 C 
ATOM     39  F1  UNL A   1      14.571  50.365  -0.455  1.00  0.00    +0.000 F 
ATOM     40  C33 UNL A   1      16.044  49.151  -1.806  1.00  0.00    +0.000 C 
ATOM     41  F2  UNL A   1      15.219  49.341  -2.844  1.00  0.00    +0.000 F 
ATOM     42  C34 UNL A   1      17.186  48.391  -1.973  1.00  0.00    +0.000 C 
ATOM     43  F3  UNL A   1      17.478  47.850  -3.162  1.00  0.00    +0.000 F 
ATOM     44  C35 UNL A   1      18.001  48.154  -0.887  1.00  0.00    +0.000 C 
ATOM     45  F4  UNL A   1      19.100  47.398  -1.023  1.00  0.00    +0.000 F 
ATOM     46  C36 UNL A   1      17.649  48.627   0.377  1.00  0.00    +0.000 C 
ATOM     47  F5  UNL A   1      18.432  48.209   1.376  1.00  0.00    +0.000 F 
ENDBRANCH   36   37
BRANCH   53   54
ATOM     54  C42 UNL A   1      14.557  54.796   4.437  1.00  0.00    +0.000 C 
ATOM     55  C43 UNL A   1      13.397  54.570   5.193  1.00  0.00    +0.000 C 
ATOM     56  F6  UNL A   1      12.512  53.630   4.828  1.00  0.00    +0.000 F 
ATOM     57  C44 UNL A   1      13.159  55.285   6.365  1.00  0.00    +0.000 C 
ATOM     58  F7  UNL A   1      12.041  55.067   7.072  1.00  0.00    +0.000 F 
ATOM     59  C45 UNL A   1      14.091  56.206   6.821  1.00  0.00    +0.000 C 
ATOM     60  F8  UNL A   1      13.883  56.864   7.970  1.00  0.00    +0.000 F 
ATOM     61  C46 UNL A   1      15.253  56.428   6.100  1.00  0.00    +0.000 C 
ATOM     62  F9  UNL A   1      16.176  57.286   6.554  1.00  0.00    +0.000 F 
ATOM     63  C47 UNL A   1      15.475  55.742   4.912  1.00  0.00    +0.000 C 
ATOM     64  F10 UNL A   1      16.614  55.969   4.239  1.00  0.00    +0.000 F 
ENDBRANCH   53   54
BRANCH   68   69
ATOM     69  C51 UNL A   1      10.222  54.947  -0.180  1.00  0.00    +0.000 C 
ATOM     70  C52 UNL A   1       9.890  56.313  -0.134  1.00  0.00    +0.000 C 
ATOM     71  F11 UNL A   1      10.041  57.007   1.004  1.00  0.00    +0.000 F 
ATOM     72  C53 UNL A   1       9.485  57.009  -1.277  1.00  0.00    +0.000 C 
ATOM     73  F12 UNL A   1       9.262  58.329  -1.212  1.00  0.00    +0.000 F 
ATOM     74  C54 UNL A   1       9.385  56.356  -2.493  1.00  0.00    +0.000 C 
ATOM     75  F13 UNL A   1       9.082  57.038  -3.606  1.00  0.00    +0.000 F 
ATOM     76  C55 UNL A   1       9.649  54.998  -2.560  1.00  0.00    +0.000 C 
ATOM     77  F14 UNL A   1       9.585  54.363  -3.738  1.00  0.00    +0.000 F 
ATOM     78  C56 UNL A   1      10.056  54.303  -1.420  1.00  0.00    +0.000 C 
ATOM     79  F15 UNL A   1      10.387  53.013  -1.570  1.00  0.00    +0.000 F 
ENDBRANCH   68   69
TORSDOF 20
ENDMDL
MODEL 10
REMARK VINA RESULT:     -10.2     35.724     41.614
ROOT
ATOM    129  H36 UNL A   1      25.587  22.519 -13.193  1.00  0.00    +0.000 H 
ATOM    130  H37 UNL A   1      25.771  24.920 -12.359  1.00  0.00    +0.000 H 
ATOM    131  H38 UNL A   1      27.284  22.458  -9.361  1.00  0.00    +0.000 H 
ATOM    132  H39 UNL A   1      26.723  19.313  -8.670  1.00  0.00    +0.000 H 
ATOM    133  H40 UNL A   1      28.936  19.904  -7.477  1.00  0.00    +0.000 H 
ATOM    134  H41 UNL A   1      25.730  25.078  -5.033  1.00  0.00    +0.000 H 
ATOM    135  H42 UNL A   1      24.547  25.362  -7.305  1.00  0.00    +0.000 H 
ATOM     32  C27 UNL A   1      26.370  25.090  -9.531  1.00  0.00    +0.000 C 
ATOM     33  C28 UNL A   1      26.618  24.858  -8.083  1.00  0.00    +0.000 C 
ATOM     34  N4  UNL A   1      27.759  24.610  -7.529  1.00  0.00    +0.000 N 
ATOM     35  C29 UNL A   1      27.495  24.440  -6.173  1.00  0.00    +0.000 C 
ATOM     36  C30 UNL A   1      28.320  23.668  -5.415  1.00  0.00    +0.000 C 
ATOM     48  C37 UNL A   1      29.575  23.445  -6.086  1.00  0.00    +0.000 C 
ATOM     49  C38 UNL A   1      30.768  24.109  -6.256  1.00  0.00    +0.000 C 
ATOM     50  C39 UNL A   1      31.384  23.545  -7.414  1.00  0.00    +0.000 C 
ATOM     51  C40 UNL A   1      30.569  22.529  -7.903  1.00  0.00    +0.000 C 
ATOM     52  N5  UNL A   1      29.512  22.467  -7.038  1.00  0.00    +0.000 N 
ATOM     53  C41 UNL A   1      30.502  21.805  -9.148  1.00  0.00    +0.000 C 
ATOM     65  C48 UNL A   1      29.598  20.814  -9.377  1.00  0.00    +0.000 C 
ATOM     66  N6  UNL A   1      29.062  20.634 -10.633  1.00  0.00    +0.000 N 
ATOM     67  C49 UNL A   1      27.832  20.266 -10.402  1.00  0.00    +0.000 C 
ATOM     68  C50 UNL A   1      26.712  20.586 -11.313  1.00  0.00    +0.000 C 
ATOM     80  C57 UNL A   1      26.523  21.928 -11.275  1.00  0.00    +0.000 C 
ATOM     81  C58 UNL A   1      25.960  22.810 -12.277  1.00  0.00    +0.000 C 
ATOM     82  C59 UNL A   1      26.003  24.077 -11.811  1.00  0.00    +0.000 C 
ATOM     83  C60 UNL A   1      26.429  24.070 -10.413  1.00  0.00    +0.000 C 
ATOM     84  N7  UNL A   1      26.835  22.763 -10.182  1.00  0.00    +0.000 N 
ATOM     85  C61 UNL A   1      27.560  19.780  -9.054  1.00  0.00    +0.000 C 
ATOM     86  C62 UNL A   1      28.708  20.115  -8.461  1.00  0.00    +0.000 C 
ATOM     87  C63 UNL A   1      26.153  24.913  -5.959  1.00  0.00    +0.000 C 
ATOM     88  C64 UNL A   1      25.530  25.106  -7.125  1.00  0.00    +0.000 C 
ATOM    126  H33 UNL A   1      31.144  24.866  -5.663  1.00  0.00    +0.000 H 
ATOM    127  H34 UNL A   1      32.285  23.841  -7.821  1.00  0.00    +0.000 H 
ATOM    128  H35 UNL A   1      28.792  21.798  -7.094  1.00  0.00    +0.000 H 
ENDROOT
BRANCH   32   31
ATOM    136  H43 UNL A   1      26.128  27.264  -7.889  1.00  0.00    +0.000 H 
ATOM    137  H44 UNL A   1      25.664  29.539  -8.574  1.00  0.00    +0.000 H 
ATOM    124  H31 UNL A   1      25.823  28.381 -12.600  1.00  0.00    +0.000 H 
ATOM    125  H32 UNL A   1      26.069  26.082 -11.918  1.00  0.00    +0.000 H 
ATOM     89  C65 UNL A   1      25.996  27.488  -8.888  1.00  0.00    +0.000 C 
ATOM     90  C66 UNL A   1      25.746  28.799  -9.289  1.00  0.00    +0.000 C 
ATOM     28  C23 UNL A   1      25.603  29.138 -10.648  1.00  0.00    +0.000 C 
ATOM     29  C24 UNL A   1      25.807  28.139 -11.597  1.00  0.00    +0.000 C 
ATOM     30  C25 UNL A   1      25.989  26.822 -11.203  1.00  0.00    +0.000 C 
ATOM     31  C26 UNL A   1      26.066  26.486  -9.846  1.00  0.00    +0.000 C 
BRANCH   28   26
ATOM     26  C22 UNL A   1      25.188  30.538 -10.946  1.00  0.00    +0.000 C 
ATOM     27  O2  UNL A   1      25.145  31.353 -10.017  1.00  0.00    +0.000 O 
BRANCH   26   25
ATOM     25  N3  UNL A   1      24.779  30.986 -12.173  1.00  0.00    +0.000 N 
ATOM    123  H30 UNL A   1      24.958  30.348 -12.902  1.00  0.00    +0.000 H 
BRANCH   25   24
ATOM    121  H28 UNL A   1      23.699  32.689 -11.774  1.00  0.00    +0.000 H 
ATOM    122  H29 UNL A   1      24.893  32.804 -13.086  1.00  0.00    +0.000 H 
ATOM     24  C21 UNL A   1      24.138  32.204 -12.622  1.00  0.00    +0.000 C 
BRANCH   24   23
ATOM    119  H26 UNL A   1      23.363  32.405 -14.590  1.00  0.00    +0.000 H 
ATOM     23  C20 UNL A   1      23.042  31.969 -13.667  1.00  0.00    +0.000 C 
ATOM    120  H27 UNL A   1      22.906  30.909 -13.725  1.00  0.00    +0.000 H 
BRANCH   23   22
ATOM    118  H25 UNL A   1      21.745  33.611 -13.485  1.00  0.00    +0.000 H 
ATOM    117  H24 UNL A   1      21.463  32.316 -12.292  1.00  0.00    +0.000 H 
ATOM     22  C19 UNL A   1      21.677  32.558 -13.312  1.00  0.00    +0.000 C 
BRANCH   22   21
ATOM    115  H22 UNL A   1      20.273  31.066 -13.836  1.00  0.00    +0.000 H 
ATOM    116  H23 UNL A   1      19.736  32.753 -14.068  1.00  0.00    +0.000 H 
ATOM     21  C18 UNL A   1      20.532  32.047 -14.175  1.00  0.00    +0.000 C 
BRANCH   21   20
ATOM    113  H20 UNL A   1      20.341  32.780 -16.161  1.00  0.00    +0.000 H 
ATOM    114  H21 UNL A   1      21.913  32.007 -15.750  1.00  0.00    +0.000 H 
ATOM     20  C17 UNL A   1      20.846  31.968 -15.680  1.00  0.00    +0.000 C 
BRANCH   20   19
ATOM     19  C16 UNL A   1      20.436  30.671 -16.396  1.00  0.00    +0.000 C 
ATOM    111  H18 UNL A   1      19.489  30.838 -16.866  1.00  0.00    +0.000 H 
ATOM    112  H19 UNL A   1      21.226  30.451 -17.085  1.00  0.00    +0.000 H 
BRANCH   19   18
ATOM     18  N2  UNL A   1      20.312  29.498 -15.541  1.00  0.00    +0.000 N 
ATOM    110  H17 UNL A   1      20.672  29.627 -14.633  1.00  0.00    +0.000 H 
BRANCH   18   16
ATOM     17  O1  UNL A   1      20.516  27.414 -16.298  1.00  0.00    +0.000 O 
ATOM     16  C15 UNL A   1      19.793  28.252 -15.757  1.00  0.00    +0.000 C 
BRANCH   16   15
ATOM    108  H15 UNL A   1      17.858  28.874 -15.274  1.00  0.00    +0.000 H 
ATOM    109  H16 UNL A   1      18.030  27.320 -16.215  1.00  0.00    +0.000 H 
ATOM     15  C14 UNL A   1      18.358  27.937 -15.404  1.00  0.00    +0.000 C 
BRANCH   15   12
ATOM      3  C3  UNL A   1      22.038  24.770 -11.979  1.00  0.00    +0.000 C 
ATOM      4  C4  UNL A   1      22.728  25.058 -10.777  1.00  0.00    +0.000 C 
ATOM      5  C5  UNL A   1      22.461  26.184 -10.003  1.00  0.00    +0.000 C 
ATOM      6  C6  UNL A   1      21.456  27.062 -10.379  1.00  0.00    +0.000 C 
ATOM      7  C7  UNL A   1      20.729  26.799 -11.551  1.00  0.00    +0.000 C 
ATOM      8  C8  UNL A   1      19.593  27.404 -12.115  1.00  0.00    +0.000 C 
ATOM      9  C9  UNL A   1      19.263  26.768 -13.292  1.00  0.00    +0.000 C 
ATOM     10  N1  UNL A   1      20.164  25.733 -13.430  1.00  0.00    +0.000 N 
ATOM     11  C10 UNL A   1      21.034  25.696 -12.343  1.00  0.00    +0.000 C 
ATOM     12  C11 UNL A   1      18.051  27.083 -14.151  1.00  0.00    +0.000 C 
ATOM    140  H47 UNL A   1      19.340  29.341 -11.401  1.00  0.00    +0.000 H 
ATOM    141  H48 UNL A   1      18.423  28.111 -10.552  1.00  0.00    +0.000 H 
ATOM    138  H45 UNL A   1      16.751  28.998 -11.735  1.00  0.00    +0.000 H 
ATOM    139  H46 UNL A   1      17.892  29.504 -13.050  1.00  0.00    +0.000 H 
ATOM     91  O3  UNL A   1      17.088  27.689 -13.253  1.00  0.00    +0.000 O 
ATOM     92  C67 UNL A   1      17.559  28.734 -12.384  1.00  0.00    +0.000 C 
ATOM     93  C68 UNL A   1      18.761  28.447 -11.510  1.00  0.00    +0.000 C 
ATOM     99  H6  UNL A   1      23.462  24.406 -10.460  1.00  0.00    +0.000 H 
ATOM    100  H7  UNL A   1      23.010  26.365  -9.147  1.00  0.00    +0.000 H 
ATOM    101  H8  UNL A   1      21.247  27.896  -9.809  1.00  0.00    +0.000 H 
ATOM    102  H9  UNL A   1      20.188  25.107 -14.189  1.00  0.00    +0.000 H 
BRANCH    3    2
ATOM     97  H4  UNL A   1      21.959  23.690 -13.778  1.00  0.00    +0.000 H 
ATOM      2  C2  UNL A   1      22.315  23.523 -12.783  1.00  0.00    +0.000 C 
ATOM     98  H5  UNL A   1      23.371  23.365 -12.714  1.00  0.00    +0.000 H 
BRANCH    2    1
ATOM      1  C1  UNL A   1      21.675  22.237 -12.269  1.00  0.00    +0.000 C 
ATOM     94  H1  UNL A   1      21.998  21.413 -12.870  1.00  0.00    +0.000 H 
ATOM     95  H2  UNL A   1      20.610  22.323 -12.323  1.00  0.00    +0.000 H 
ATOM     96  H3  UNL A   1      21.968  22.075 -11.253  1.00  0.00    +0.000 H 
ENDBRANCH    2    1
ENDBRANCH    3    2
BRANCH   12   13
ATOM     13  C12 UNL A   1      17.370  25.752 -14.616  1.00  0.00    +0.000 C 
ATOM    103  H10 UNL A   1      18.142  25.061 -14.879  1.00  0.00    +0.000 H 
ATOM    104  H11 UNL A   1      16.731  26.020 -15.432  1.00  0.00    +0.000 H 
BRANCH   13   14
ATOM    105  H12 UNL A   1      16.089  24.156 -13.980  1.00  0.00    +0.000 H 
ATOM    106  H13 UNL A   1      15.644  25.723 -13.346  1.00  0.00    +0.000 H 
ATOM    107  H14 UNL A   1      17.026  24.877 -12.692  1.00  0.00    +0.000 H 
ATOM     14  C13 UNL A   1      16.464  25.076 -13.580  1.00  0.00    +0.000 C 
ENDBRANCH   13   14
ENDBRANCH   12   13
ENDBRANCH   15   12
ENDBRANCH   16   15
ENDBRANCH   18   16
ENDBRANCH   19   18
ENDBRANCH   20   19
ENDBRANCH   21   20
ENDBRANCH   22   21
ENDBRANCH   23   22
ENDBRANCH   24   23
ENDBRANCH   25   24
ENDBRANCH   26   25
ENDBRANCH   28   26
ENDBRANCH   32   31
BRANCH   36   37
ATOM     37  C31 UNL A   1      27.847  22.696  -4.352  1.00  0.00    +0.000 C 
ATOM     38  C32 UNL A   1      28.642  22.501  -3.202  1.00  0.00    +0.000 C 
ATOM     39  F1  UNL A   1      29.633  23.353  -2.902  1.00  0.00    +0.000 F 
ATOM     40  C33 UNL A   1      28.495  21.378  -2.380  1.00  0.00    +0.000 C 
ATOM     41  F2  UNL A   1      29.350  21.176  -1.367  1.00  0.00    +0.000 F 
ATOM     42  C34 UNL A   1      27.518  20.437  -2.645  1.00  0.00    +0.000 C 
ATOM     43  F3  UNL A   1      27.413  19.333  -1.896  1.00  0.00    +0.000 F 
ATOM     44  C35 UNL A   1      26.678  20.625  -3.722  1.00  0.00    +0.000 C 
ATOM     45  F4  UNL A   1      25.740  19.712  -4.010  1.00  0.00    +0.000 F 
ATOM     46  C36 UNL A   1      26.850  21.720  -4.569  1.00  0.00    +0.000 C 
ATOM     47  F5  UNL A   1      26.079  21.717  -5.661  1.00  0.00    +0.000 F 
ENDBRANCH   36   37
BRANCH   53   54
ATOM     54  C42 UNL A   1      31.328  22.277 -10.297  1.00  0.00    +0.000 C 
ATOM     55  C43 UNL A   1      30.951  23.300 -11.180  1.00  0.00    +0.000 C 
ATOM     56  F6  UNL A   1      29.776  23.931 -11.038  1.00  0.00    +0.000 F 
ATOM     57  C44 UNL A   1      31.808  23.714 -12.198  1.00  0.00    +0.000 C 
ATOM     58  F7  UNL A   1      31.430  24.686 -13.042  1.00  0.00    +0.000 F 
ATOM     59  C45 UNL A   1      33.066  23.145 -12.326  1.00  0.00    +0.000 C 
ATOM     60  F8  UNL A   1      33.906  23.572 -13.279  1.00  0.00    +0.000 F 
ATOM     61  C46 UNL A   1      33.464  22.147 -11.452  1.00  0.00    +0.000 C 
ATOM     62  F9  UNL A   1      34.693  21.620 -11.544  1.00  0.00    +0.000 F 
ATOM     63  C47 UNL A   1      32.599  21.708 -10.458  1.00  0.00    +0.000 C 
ATOM     64  F10 UNL A   1      33.016  20.747  -9.617  1.00  0.00    +0.000 F 
ENDBRANCH   53   54
BRANCH   68   69
ATOM     69  C51 UNL A   1      25.845  19.526 -11.878  1.00  0.00    +0.000 C 
ATOM     70  C52 UNL A   1      24.448  19.578 -11.722  1.00  0.00    +0.000 C 
ATOM     71  F11 UNL A   1      23.899  20.412 -10.825  1.00  0.00    +0.000 F 
ATOM     72  C53 UNL A   1      23.589  18.844 -12.545  1.00  0.00    +0.000 C 
ATOM     73  F12 UNL A   1      22.262  18.988 -12.424  1.00  0.00    +0.000 F 
ATOM     74  C54 UNL A   1      24.103  18.025 -13.536  1.00  0.00    +0.000 C 
ATOM     75  F13 UNL A   1      23.282  17.388 -14.382  1.00  0.00    +0.000 F 
ATOM     76  C55 UNL A   1      25.475  17.907 -13.677  1.00  0.00    +0.000 C 
ATOM     77  F14 UNL A   1      25.982  17.141 -14.653  1.00  0.00    +0.000 F 
ATOM     78  C56 UNL A   1      26.333  18.642 -12.858  1.00  0.00    +0.000 C 
ATOM     79  F15 UNL A   1      27.647  18.555 -13.107  1.00  0.00    +0.000 F 
ENDBRANCH   68   69
TORSDOF 20
ENDMDL
