MODEL 1
REMARK VINA RESULT:      -9.4      0.000      0.000
ROOT
ATOM     33  C25 UNL A   1      14.146  54.034   5.084  1.00  0.00    +0.000 C 
ATOM     34  C26 UNL A   1      15.082  54.435   3.983  1.00  0.00    +0.000 C 
ATOM     35  N5  UNL A   1      15.573  53.709   3.009  1.00  0.00    +0.000 N 
ATOM     36  C27 UNL A   1      16.355  54.571   2.252  1.00  0.00    +0.000 C 
ATOM     37  C28 UNL A   1      17.090  54.290   1.149  1.00  0.00    +0.000 C 
ATOM     49  C35 UNL A   1      17.194  52.981   0.557  1.00  0.00    +0.000 C 
ATOM     50  C36 UNL A   1      17.957  52.581  -0.526  1.00  0.00    +0.000 C 
ATOM     51  C37 UNL A   1      17.689  51.231  -0.776  1.00  0.00    +0.000 C 
ATOM     52  C38 UNL A   1      16.797  50.776   0.181  1.00  0.00    +0.000 C 
ATOM     53  N6  UNL A   1      16.501  51.860   0.993  1.00  0.00    +0.000 N 
ATOM     54  C39 UNL A   1      16.250  49.451   0.340  1.00  0.00    +0.000 C 
ATOM     66  C46 UNL A   1      15.397  49.071   1.322  1.00  0.00    +0.000 C 
ATOM     67  N7  UNL A   1      14.878  49.828   2.363  1.00  0.00    +0.000 N 
ATOM     68  C47 UNL A   1      14.109  49.018   3.048  1.00  0.00    +0.000 C 
ATOM     69  C48 UNL A   1      13.311  49.302   4.287  1.00  0.00    +0.000 C 
ATOM     81  C55 UNL A   1      13.382  50.520   4.853  1.00  0.00    +0.000 C 
ATOM     82  C56 UNL A   1      12.647  50.937   6.043  1.00  0.00    +0.000 C 
ATOM     83  C57 UNL A   1      12.845  52.249   6.238  1.00  0.00    +0.000 C 
ATOM     84  C58 UNL A   1      13.762  52.751   5.214  1.00  0.00    +0.000 C 
ATOM     85  N8  UNL A   1      14.077  51.641   4.471  1.00  0.00    +0.000 N 
ATOM     86  C59 UNL A   1      14.034  47.655   2.506  1.00  0.00    +0.000 C 
ATOM     87  C60 UNL A   1      14.856  47.734   1.468  1.00  0.00    +0.000 C 
ATOM     88  C61 UNL A   1      16.254  55.879   2.864  1.00  0.00    +0.000 C 
ATOM     89  C62 UNL A   1      15.515  55.839   3.964  1.00  0.00    +0.000 C 
ATOM    117  H26 UNL A   1      18.612  53.177  -1.058  1.00  0.00    +0.000 H 
ATOM    118  H27 UNL A   1      18.088  50.669  -1.544  1.00  0.00    +0.000 H 
ATOM    119  H28 UNL A   1      15.891  51.838   1.766  1.00  0.00    +0.000 H 
ATOM    120  H29 UNL A   1      12.071  50.322   6.639  1.00  0.00    +0.000 H 
ATOM    121  H30 UNL A   1      12.418  52.815   6.987  1.00  0.00    +0.000 H 
ATOM    122  H31 UNL A   1      14.736  51.647   3.738  1.00  0.00    +0.000 H 
ATOM    123  H32 UNL A   1      13.486  46.848   2.844  1.00  0.00    +0.000 H 
ATOM    124  H33 UNL A   1      15.081  46.945   0.843  1.00  0.00    +0.000 H 
ATOM    125  H34 UNL A   1      16.700  56.733   2.492  1.00  0.00    +0.000 H 
ATOM    126  H35 UNL A   1      15.300  56.596   4.632  1.00  0.00    +0.000 H 
ENDROOT
BRANCH   33   32
ATOM    127  H36 UNL A   1      15.321  55.123   7.247  1.00  0.00    +0.000 H 
ATOM     32  C24 UNL A   1      13.600  55.048   6.018  1.00  0.00    +0.000 C 
ATOM    115  H24 UNL A   1      10.941  57.056   6.434  1.00  0.00    +0.000 H 
ATOM    116  H25 UNL A   1      11.746  55.257   5.020  1.00  0.00    +0.000 H 
ATOM     90  C63 UNL A   1      14.373  55.502   7.099  1.00  0.00    +0.000 C 
ATOM     91  C64 UNL A   1      13.864  56.464   7.972  1.00  0.00    +0.000 C 
ATOM     29  C21 UNL A   1      12.592  56.999   7.753  1.00  0.00    +0.000 C 
ATOM     30  C22 UNL A   1      11.847  56.603   6.638  1.00  0.00    +0.000 C 
ATOM     31  C23 UNL A   1      12.328  55.599   5.801  1.00  0.00    +0.000 C 
ATOM    128  H37 UNL A   1      14.426  56.779   8.779  1.00  0.00    +0.000 H 
BRANCH   29    2
ATOM      1  O1  UNL A   1      12.310  59.206   8.490  1.00  0.00    +0.000 O 
ATOM      2  C1  UNL A   1      12.078  58.017   8.693  1.00  0.00    +0.000 C 
BRANCH    2    3
ATOM      3  N1  UNL A   1      11.355  57.637   9.795  1.00  0.00    +0.000 N 
ATOM     92  H1  UNL A   1      11.806  57.769  10.660  1.00  0.00    +0.000 H 
BRANCH    3    4
ATOM      4  C2  UNL A   1      10.021  57.068   9.869  1.00  0.00    +0.000 C 
ATOM     93  H2  UNL A   1       9.467  57.377   9.007  1.00  0.00    +0.000 H 
ATOM     94  H3  UNL A   1       9.567  57.417  10.772  1.00  0.00    +0.000 H 
BRANCH    4    5
ATOM      5  C3  UNL A   1      10.041  55.544   9.917  1.00  0.00    +0.000 C 
ATOM     95  H4  UNL A   1       9.916  55.179   8.918  1.00  0.00    +0.000 H 
ATOM     96  H5  UNL A   1       9.251  55.255  10.579  1.00  0.00    +0.000 H 
BRANCH    5    6
ATOM     97  H6  UNL A   1      11.173  54.776  11.537  1.00  0.00    +0.000 H 
ATOM     98  H7  UNL A   1      12.106  55.620  10.259  1.00  0.00    +0.000 H 
ATOM      6  C4  UNL A   1      11.320  54.929  10.489  1.00  0.00    +0.000 C 
BRANCH    6    7
ATOM     99  H8  UNL A   1      11.324  53.537   8.889  1.00  0.00    +0.000 H 
ATOM    100  H9  UNL A   1      11.388  52.837  10.540  1.00  0.00    +0.000 H 
ATOM      7  C5  UNL A   1      11.744  53.593   9.872  1.00  0.00    +0.000 C 
BRANCH    7    8
ATOM    101  H10 UNL A   1      13.594  53.867   8.867  1.00  0.00    +0.000 H 
ATOM    102  H11 UNL A   1      13.395  52.308   9.724  1.00  0.00    +0.000 H 
ATOM      8  C6  UNL A   1      13.255  53.368   9.751  1.00  0.00    +0.000 C 
BRANCH    8    9
ATOM      9  C7  UNL A   1      14.084  53.875  10.929  1.00  0.00    +0.000 C 
ATOM    103  H12 UNL A   1      13.687  54.815  11.251  1.00  0.00    +0.000 H 
ATOM    104  H13 UNL A   1      15.098  53.976  10.600  1.00  0.00    +0.000 H 
BRANCH    9   10
ATOM    105  H14 UNL A   1      13.200  52.859  12.509  1.00  0.00    +0.000 H 
ATOM     10  N2  UNL A   1      14.065  52.950  12.048  1.00  0.00    +0.000 N 
BRANCH   10   11
ATOM     11  C8  UNL A   1      15.087  52.187  12.550  1.00  0.00    +0.000 C 
ATOM     12  O2  UNL A   1      15.471  52.351  13.704  1.00  0.00    +0.000 O 
BRANCH   11   13
ATOM    106  H15 UNL A   1      17.686  51.846  12.116  1.00  0.00    +0.000 H 
ATOM    107  H16 UNL A   1      18.772  50.157  10.751  1.00  0.00    +0.000 H 
ATOM    108  H17 UNL A   1      17.443  48.520   9.564  1.00  0.00    +0.000 H 
ATOM     13  C9  UNL A   1      15.730  51.163  11.702  1.00  0.00    +0.000 C 
ATOM     14  C10 UNL A   1      17.122  51.148  11.608  1.00  0.00    +0.000 C 
ATOM     15  C11 UNL A   1      17.743  50.183  10.821  1.00  0.00    +0.000 C 
ATOM     16  C12 UNL A   1      16.971  49.245  10.125  1.00  0.00    +0.000 C 
ATOM     17  C13 UNL A   1      15.571  49.274  10.175  1.00  0.00    +0.000 C 
ATOM    114  H23 UNL A   1      13.929  50.295  11.020  1.00  0.00    +0.000 H 
ATOM     28  C20 UNL A   1      14.959  50.248  10.971  1.00  0.00    +0.000 C 
BRANCH   17   18
ATOM     18  N3  UNL A   1      14.748  48.327   9.523  1.00  0.00    +0.000 N 
ATOM    109  H18 UNL A   1      15.191  47.780   8.833  1.00  0.00    +0.000 H 
BRANCH   18   19
ATOM    110  H19 UNL A   1      12.724  49.778   8.692  1.00  0.00    +0.000 H 
ATOM    111  H20 UNL A   1      10.361  49.258   8.857  1.00  0.00    +0.000 H 
ATOM    112  H21 UNL A   1      11.284  45.759  11.009  1.00  0.00    +0.000 H 
ATOM    113  H22 UNL A   1      13.645  46.281  10.832  1.00  0.00    +0.000 H 
ATOM     19  C14 UNL A   1      13.382  48.061   9.730  1.00  0.00    +0.000 C 
ATOM     20  C15 UNL A   1      12.422  48.917   9.175  1.00  0.00    +0.000 C 
ATOM     21  C16 UNL A   1      11.060  48.620   9.269  1.00  0.00    +0.000 C 
ATOM     22  C17 UNL A   1      10.646  47.456   9.925  1.00  0.00    +0.000 C 
ATOM     26  C18 UNL A   1      11.590  46.606  10.507  1.00  0.00    +0.000 C 
ATOM     27  C19 UNL A   1      12.949  46.912  10.405  1.00  0.00    +0.000 C 
BRANCH   22   23
ATOM     25  O4  UNL A   1       8.658  46.366   8.985  1.00  0.00    +0.000 O 
ATOM     23  N4  UNL A   1       9.243  47.119   9.977  1.00  0.00    +0.000 N 
ATOM     24  O3  UNL A   1       8.537  47.514  10.881  1.00  0.00    +0.000 O 
ENDBRANCH   22   23
ENDBRANCH   18   19
ENDBRANCH   17   18
ENDBRANCH   11   13
ENDBRANCH   10   11
ENDBRANCH    9   10
ENDBRANCH    8    9
ENDBRANCH    7    8
ENDBRANCH    6    7
ENDBRANCH    5    6
ENDBRANCH    4    5
ENDBRANCH    3    4
ENDBRANCH    2    3
ENDBRANCH   29    2
ENDBRANCH   33   32
BRANCH   37   38
ATOM     38  C29 UNL A   1      17.817  55.427   0.493  1.00  0.00    +0.000 C 
ATOM     39  C30 UNL A   1      17.278  56.118  -0.602  1.00  0.00    +0.000 C 
ATOM     40  F1  UNL A   1      16.093  55.751  -1.114  1.00  0.00    +0.000 F 
ATOM     41  C31 UNL A   1      17.974  57.164  -1.203  1.00  0.00    +0.000 C 
ATOM     42  F2  UNL A   1      17.462  57.775  -2.281  1.00  0.00    +0.000 F 
ATOM     43  C32 UNL A   1      19.204  57.562  -0.701  1.00  0.00    +0.000 C 
ATOM     44  F3  UNL A   1      19.873  58.568  -1.283  1.00  0.00    +0.000 F 
ATOM     45  C33 UNL A   1      19.745  56.911   0.396  1.00  0.00    +0.000 C 
ATOM     46  F4  UNL A   1      20.929  57.301   0.890  1.00  0.00    +0.000 F 
ATOM     47  C34 UNL A   1      19.064  55.846   0.982  1.00  0.00    +0.000 C 
ATOM     48  F5  UNL A   1      19.622  55.225   2.032  1.00  0.00    +0.000 F 
ENDBRANCH   37   38
BRANCH   54   55
ATOM     65  F10 UNL A   1      18.742  48.101   0.502  1.00  0.00    +0.000 F 
ATOM     55  C40 UNL A   1      16.678  48.404  -0.645  1.00  0.00    +0.000 C 
ATOM     56  C41 UNL A   1      15.875  48.054  -1.738  1.00  0.00    +0.000 C 
ATOM     57  F6  UNL A   1      14.657  48.597  -1.884  1.00  0.00    +0.000 F 
ATOM     58  C42 UNL A   1      16.315  47.125  -2.677  1.00  0.00    +0.000 C 
ATOM     59  F7  UNL A   1      15.521  46.783  -3.702  1.00  0.00    +0.000 F 
ATOM     60  C43 UNL A   1      17.571  46.549  -2.553  1.00  0.00    +0.000 C 
ATOM     61  F8  UNL A   1      17.999  45.666  -3.466  1.00  0.00    +0.000 F 
ATOM     62  C44 UNL A   1      18.383  46.885  -1.480  1.00  0.00    +0.000 C 
ATOM     63  F9  UNL A   1      19.601  46.338  -1.364  1.00  0.00    +0.000 F 
ATOM     64  C45 UNL A   1      17.937  47.797  -0.527  1.00  0.00    +0.000 C 
ENDBRANCH   54   55
BRANCH   69   70
ATOM     70  C49 UNL A   1      12.441  48.271   4.906  1.00  0.00    +0.000 C 
ATOM     71  C50 UNL A   1      11.137  48.056   4.445  1.00  0.00    +0.000 C 
ATOM     72  F11 UNL A   1      10.630  48.840   3.483  1.00  0.00    +0.000 F 
ATOM     73  C51 UNL A   1      10.346  47.041   4.977  1.00  0.00    +0.000 C 
ATOM     74  F12 UNL A   1       9.095  46.865   4.530  1.00  0.00    +0.000 F 
ATOM     75  C52 UNL A   1      10.852  46.210   5.966  1.00  0.00    +0.000 C 
ATOM     76  F13 UNL A   1      10.097  45.220   6.463  1.00  0.00    +0.000 F 
ATOM     77  C53 UNL A   1      12.141  46.405   6.440  1.00  0.00    +0.000 C 
ATOM     78  F14 UNL A   1      12.639  45.594   7.382  1.00  0.00    +0.000 F 
ATOM     79  C54 UNL A   1      12.923  47.436   5.925  1.00  0.00    +0.000 C 
ATOM     80  F15 UNL A   1      14.170  47.597   6.392  1.00  0.00    +0.000 F 
ENDBRANCH   69   70
TORSDOF 18
ENDMDL
MODEL 2
REMARK VINA RESULT:      -9.4     51.398     54.525
ROOT
ATOM     33  C25 UNL A   1       1.251   9.860  36.842  1.00  0.00    +0.000 C 
ATOM     34  C26 UNL A   1       1.484  11.120  37.622  1.00  0.00    +0.000 C 
ATOM     35  N5  UNL A   1       0.657  12.105  37.866  1.00  0.00    +0.000 N 
ATOM     36  C27 UNL A   1       1.360  13.001  38.659  1.00  0.00    +0.000 C 
ATOM     37  C28 UNL A   1       0.944  14.192  39.156  1.00  0.00    +0.000 C 
ATOM     49  C35 UNL A   1      -0.361  14.755  38.922  1.00  0.00    +0.000 C 
ATOM     50  C36 UNL A   1      -0.859  15.980  39.333  1.00  0.00    +0.000 C 
ATOM     51  C37 UNL A   1      -2.195  16.067  38.925  1.00  0.00    +0.000 C 
ATOM     52  C38 UNL A   1      -2.514  14.920  38.217  1.00  0.00    +0.000 C 
ATOM     53  N6  UNL A   1      -1.380  14.123  38.223  1.00  0.00    +0.000 N 
ATOM     54  C39 UNL A   1      -3.764  14.573  37.588  1.00  0.00    +0.000 C 
ATOM     66  C46 UNL A   1      -3.997  13.438  36.886  1.00  0.00    +0.000 C 
ATOM     67  N7  UNL A   1      -3.127  12.391  36.613  1.00  0.00    +0.000 N 
ATOM     68  C47 UNL A   1      -3.810  11.531  35.900  1.00  0.00    +0.000 C 
ATOM     69  C48 UNL A   1      -3.361  10.223  35.318  1.00  0.00    +0.000 C 
ATOM     81  C55 UNL A   1      -2.080   9.840  35.469  1.00  0.00    +0.000 C 
ATOM     82  C56 UNL A   1      -1.514   8.589  34.973  1.00  0.00    +0.000 C 
ATOM     83  C57 UNL A   1      -0.258   8.471  35.427  1.00  0.00    +0.000 C 
ATOM     84  C58 UNL A   1       0.084   9.663  36.204  1.00  0.00    +0.000 C 
ATOM     85  N8  UNL A   1      -1.038  10.449  36.124  1.00  0.00    +0.000 N 
ATOM     86  C59 UNL A   1      -5.205  11.923  35.656  1.00  0.00    +0.000 C 
ATOM     87  C60 UNL A   1      -5.260  13.104  36.258  1.00  0.00    +0.000 C 
ATOM     88  C61 UNL A   1       2.673  12.432  38.876  1.00  0.00    +0.000 C 
ATOM     89  C62 UNL A   1       2.816  11.290  38.218  1.00  0.00    +0.000 C 
ATOM    117  H26 UNL A   1      -0.336  16.703  39.850  1.00  0.00    +0.000 H 
ATOM    118  H27 UNL A   1      -2.834  16.853  39.120  1.00  0.00    +0.000 H 
ATOM    119  H28 UNL A   1      -1.307  13.240  37.793  1.00  0.00    +0.000 H 
ATOM    120  H29 UNL A   1      -2.000   7.908  34.369  1.00  0.00    +0.000 H 
ATOM    121  H30 UNL A   1       0.367   7.667  35.259  1.00  0.00    +0.000 H 
ATOM    122  H31 UNL A   1      -1.091  11.359  36.498  1.00  0.00    +0.000 H 
ATOM    123  H32 UNL A   1      -5.946  11.414  35.150  1.00  0.00    +0.000 H 
ATOM    124  H33 UNL A   1      -6.096  13.708  36.278  1.00  0.00    +0.000 H 
ATOM    125  H34 UNL A   1       3.404  12.861  39.466  1.00  0.00    +0.000 H 
ATOM    126  H35 UNL A   1       3.645  10.680  38.144  1.00  0.00    +0.000 H 
ENDROOT
BRANCH   33   32
ATOM    127  H36 UNL A   1       1.560   7.746  38.480  1.00  0.00    +0.000 H 
ATOM     32  C24 UNL A   1       2.286   8.799  36.795  1.00  0.00    +0.000 C 
ATOM    115  H24 UNL A   1       4.835   7.717  34.895  1.00  0.00    +0.000 H 
ATOM    116  H25 UNL A   1       3.270   9.560  35.083  1.00  0.00    +0.000 H 
ATOM     90  C63 UNL A   1       2.282   7.763  37.743  1.00  0.00    +0.000 C 
ATOM     91  C64 UNL A   1       3.250   6.760  37.693  1.00  0.00    +0.000 C 
ATOM     29  C21 UNL A   1       4.209   6.768  36.677  1.00  0.00    +0.000 C 
ATOM     30  C22 UNL A   1       4.174   7.756  35.688  1.00  0.00    +0.000 C 
ATOM     31  C23 UNL A   1       3.248   8.793  35.773  1.00  0.00    +0.000 C 
ATOM    128  H37 UNL A   1       3.257   6.012  38.405  1.00  0.00    +0.000 H 
BRANCH   29    2
ATOM      1  O1  UNL A   1       5.373   5.027  35.626  1.00  0.00    +0.000 O 
ATOM      2  C1  UNL A   1       5.222   5.692  36.647  1.00  0.00    +0.000 C 
BRANCH    2    3
ATOM      3  N1  UNL A   1       5.981   5.427  37.758  1.00  0.00    +0.000 N 
ATOM     92  H1  UNL A   1       5.614   4.745  38.366  1.00  0.00    +0.000 H 
BRANCH    3    4
ATOM      4  C2  UNL A   1       7.248   6.009  38.166  1.00  0.00    +0.000 C 
ATOM     93  H2  UNL A   1       8.043   5.396  37.796  1.00  0.00    +0.000 H 
ATOM     94  H3  UNL A   1       7.255   6.058  39.234  1.00  0.00    +0.000 H 
BRANCH    4    5
ATOM      5  C3  UNL A   1       7.433   7.427  37.635  1.00  0.00    +0.000 C 
ATOM     95  H4  UNL A   1       6.741   7.573  36.831  1.00  0.00    +0.000 H 
ATOM     96  H5  UNL A   1       8.457   7.501  37.334  1.00  0.00    +0.000 H 
BRANCH    5    6
ATOM     97  H6  UNL A   1       8.083   9.158  38.672  1.00  0.00    +0.000 H 
ATOM     98  H7  UNL A   1       7.017   8.047  39.591  1.00  0.00    +0.000 H 
ATOM      6  C4  UNL A   1       7.210   8.539  38.661  1.00  0.00    +0.000 C 
BRANCH    6    7
ATOM     99  H8  UNL A   1       5.627   9.769  39.353  1.00  0.00    +0.000 H 
ATOM    100  H9  UNL A   1       5.303   8.844  37.850  1.00  0.00    +0.000 H 
ATOM      7  C5  UNL A   1       5.997   9.440  38.405  1.00  0.00    +0.000 C 
BRANCH    7    8
ATOM    101  H10 UNL A   1       5.443  11.356  37.678  1.00  0.00    +0.000 H 
ATOM    102  H11 UNL A   1       6.370  10.330  36.543  1.00  0.00    +0.000 H 
ATOM      8  C6  UNL A   1       6.263  10.681  37.547  1.00  0.00    +0.000 C 
BRANCH    8    9
ATOM      9  C7  UNL A   1       7.552  11.433  37.873  1.00  0.00    +0.000 C 
ATOM    103  H12 UNL A   1       7.731  12.159  37.108  1.00  0.00    +0.000 H 
ATOM    104  H13 UNL A   1       8.347  10.718  37.921  1.00  0.00    +0.000 H 
BRANCH    9   10
ATOM    105  H14 UNL A   1       8.166  11.852  39.811  1.00  0.00    +0.000 H 
ATOM     10  N2  UNL A   1       7.479  12.110  39.155  1.00  0.00    +0.000 N 
BRANCH   10   11
ATOM     11  C8  UNL A   1       6.585  13.060  39.577  1.00  0.00    +0.000 C 
ATOM     12  O2  UNL A   1       6.258  13.975  38.828  1.00  0.00    +0.000 O 
BRANCH   11   13
ATOM    106  H15 UNL A   1       6.932  14.774  41.577  1.00  0.00    +0.000 H 
ATOM    107  H16 UNL A   1       5.982  14.689  43.809  1.00  0.00    +0.000 H 
ATOM    108  H17 UNL A   1       4.528  12.860  44.439  1.00  0.00    +0.000 H 
ATOM     13  C9  UNL A   1       6.012  12.983  40.937  1.00  0.00    +0.000 C 
ATOM     14  C10 UNL A   1       6.313  13.995  41.849  1.00  0.00    +0.000 C 
ATOM     15  C11 UNL A   1       5.772  13.942  43.129  1.00  0.00    +0.000 C 
ATOM     16  C12 UNL A   1       4.942  12.877  43.495  1.00  0.00    +0.000 C 
ATOM     17  C13 UNL A   1       4.665  11.830  42.604  1.00  0.00    +0.000 C 
ATOM    114  H23 UNL A   1       5.030  11.136  40.645  1.00  0.00    +0.000 H 
ATOM     28  C20 UNL A   1       5.214  11.896  41.319  1.00  0.00    +0.000 C 
BRANCH   17   18
ATOM     18  N3  UNL A   1       3.803  10.753  42.911  1.00  0.00    +0.000 N 
ATOM    109  H18 UNL A   1       4.067  10.202  43.683  1.00  0.00    +0.000 H 
BRANCH   18   19
ATOM    110  H19 UNL A   1       1.594  12.159  42.702  1.00  0.00    +0.000 H 
ATOM    111  H20 UNL A   1      -0.396  11.612  41.429  1.00  0.00    +0.000 H 
ATOM    112  H21 UNL A   1       1.301   7.906  40.374  1.00  0.00    +0.000 H 
ATOM    113  H22 UNL A   1       3.291   8.464  41.642  1.00  0.00    +0.000 H 
ATOM     19  C14 UNL A   1       2.617  10.365  42.260  1.00  0.00    +0.000 C 
ATOM     20  C15 UNL A   1       1.540  11.259  42.199  1.00  0.00    +0.000 C 
ATOM     21  C16 UNL A   1       0.392  10.946  41.467  1.00  0.00    +0.000 C 
ATOM     22  C17 UNL A   1       0.313   9.727  40.786  1.00  0.00    +0.000 C 
ATOM     26  C18 UNL A   1       1.368   8.813  40.859  1.00  0.00    +0.000 C 
ATOM     27  C19 UNL A   1       2.512   9.138  41.592  1.00  0.00    +0.000 C 
BRANCH   22   23
ATOM     25  O4  UNL A   1      -0.891   8.299  39.194  1.00  0.00    +0.000 O 
ATOM     23  N4  UNL A   1      -0.849   9.424  39.984  1.00  0.00    +0.000 N 
ATOM     24  O3  UNL A   1      -1.807  10.168  39.965  1.00  0.00    +0.000 O 
ENDBRANCH   22   23
ENDBRANCH   18   19
ENDBRANCH   17   18
ENDBRANCH   11   13
ENDBRANCH   10   11
ENDBRANCH    9   10
ENDBRANCH    8    9
ENDBRANCH    7    8
ENDBRANCH    6    7
ENDBRANCH    5    6
ENDBRANCH    4    5
ENDBRANCH    3    4
ENDBRANCH    2    3
ENDBRANCH   29    2
ENDBRANCH   33   32
BRANCH   37   38
ATOM     38  C29 UNL A   1       1.901  14.952  40.026  1.00  0.00    +0.000 C 
ATOM     39  C30 UNL A   1       2.987  15.660  39.491  1.00  0.00    +0.000 C 
ATOM     40  F1  UNL A   1       3.215  15.648  38.168  1.00  0.00    +0.000 F 
ATOM     41  C31 UNL A   1       3.870  16.351  40.317  1.00  0.00    +0.000 C 
ATOM     42  F2  UNL A   1       4.931  16.976  39.787  1.00  0.00    +0.000 F 
ATOM     43  C32 UNL A   1       3.667  16.377  41.689  1.00  0.00    +0.000 C 
ATOM     44  F3  UNL A   1       4.519  17.040  42.482  1.00  0.00    +0.000 F 
ATOM     45  C33 UNL A   1       2.586  15.705  42.238  1.00  0.00    +0.000 C 
ATOM     46  F4  UNL A   1       2.379  15.738  43.562  1.00  0.00    +0.000 F 
ATOM     47  C34 UNL A   1       1.716  14.991  41.417  1.00  0.00    +0.000 C 
ATOM     48  F5  UNL A   1       0.689  14.337  41.980  1.00  0.00    +0.000 F 
ENDBRANCH   37   38
BRANCH   54   55
ATOM     65  F10 UNL A   1      -5.307  14.908  39.947  1.00  0.00    +0.000 F 
ATOM     55  C40 UNL A   1      -4.889  15.559  37.696  1.00  0.00    +0.000 C 
ATOM     56  C41 UNL A   1      -5.272  16.356  36.610  1.00  0.00    +0.000 C 
ATOM     57  F6  UNL A   1      -4.579  16.312  35.462  1.00  0.00    +0.000 F 
ATOM     58  C42 UNL A   1      -6.358  17.222  36.708  1.00  0.00    +0.000 C 
ATOM     59  F7  UNL A   1      -6.692  17.997  35.666  1.00  0.00    +0.000 F 
ATOM     60  C43 UNL A   1      -7.093  17.288  37.883  1.00  0.00    +0.000 C 
ATOM     61  F8  UNL A   1      -8.148  18.110  37.970  1.00  0.00    +0.000 F 
ATOM     62  C44 UNL A   1      -6.733  16.503  38.969  1.00  0.00    +0.000 C 
ATOM     63  F9  UNL A   1      -7.450  16.556  40.101  1.00  0.00    +0.000 F 
ATOM     64  C45 UNL A   1      -5.635  15.654  38.881  1.00  0.00    +0.000 C 
ENDBRANCH   54   55
BRANCH   69   70
ATOM     70  C49 UNL A   1      -4.293   9.338  34.576  1.00  0.00    +0.000 C 
ATOM     71  C50 UNL A   1      -4.989   8.314  35.230  1.00  0.00    +0.000 C 
ATOM     72  F11 UNL A   1      -4.756   8.071  36.528  1.00  0.00    +0.000 F 
ATOM     73  C51 UNL A   1      -5.918   7.531  34.550  1.00  0.00    +0.000 C 
ATOM     74  F12 UNL A   1      -6.559   6.546  35.194  1.00  0.00    +0.000 F 
ATOM     75  C52 UNL A   1      -6.182   7.770  33.209  1.00  0.00    +0.000 C 
ATOM     76  F13 UNL A   1      -7.092   7.029  32.562  1.00  0.00    +0.000 F 
ATOM     77  C53 UNL A   1      -5.504   8.778  32.541  1.00  0.00    +0.000 C 
ATOM     78  F14 UNL A   1      -5.770   9.025  31.251  1.00  0.00    +0.000 F 
ATOM     79  C54 UNL A   1      -4.557   9.546  33.214  1.00  0.00    +0.000 C 
ATOM     80  F15 UNL A   1      -3.923  10.522  32.548  1.00  0.00    +0.000 F 
ENDBRANCH   69   70
TORSDOF 18
ENDMDL
MODEL 3
REMARK VINA RESULT:      -9.3     42.821     46.350
ROOT
ATOM     33  C25 UNL A   1      25.669  36.161  45.646  1.00  0.00    +0.000 C 
ATOM     34  C26 UNL A   1      25.566  37.329  46.581  1.00  0.00    +0.000 C 
ATOM     35  N5  UNL A   1      26.481  38.206  46.913  1.00  0.00    +0.000 N 
ATOM     36  C27 UNL A   1      25.857  39.093  47.779  1.00  0.00    +0.000 C 
ATOM     37  C28 UNL A   1      26.391  40.165  48.414  1.00  0.00    +0.000 C 
ATOM     49  C35 UNL A   1      27.767  40.574  48.294  1.00  0.00    +0.000 C 
ATOM     50  C36 UNL A   1      28.419  41.611  48.939  1.00  0.00    +0.000 C 
ATOM     51  C37 UNL A   1      29.733  41.666  48.461  1.00  0.00    +0.000 C 
ATOM     52  C38 UNL A   1      29.915  40.633  47.556  1.00  0.00    +0.000 C 
ATOM     53  N6  UNL A   1      28.700  39.971  47.462  1.00  0.00    +0.000 N 
ATOM     54  C39 UNL A   1      31.106  40.281  46.825  1.00  0.00    +0.000 C 
ATOM     66  C46 UNL A   1      31.218  39.234  45.971  1.00  0.00    +0.000 C 
ATOM     67  N7  UNL A   1      30.260  38.295  45.618  1.00  0.00    +0.000 N 
ATOM     68  C47 UNL A   1      30.843  37.486  44.769  1.00  0.00    +0.000 C 
ATOM     69  C48 UNL A   1      30.279  36.279  44.079  1.00  0.00    +0.000 C 
ATOM     81  C55 UNL A   1      29.023  35.887  44.357  1.00  0.00    +0.000 C 
ATOM     82  C56 UNL A   1      28.344  34.747  43.748  1.00  0.00    +0.000 C 
ATOM     83  C57 UNL A   1      27.064  34.740  44.147  1.00  0.00    +0.000 C 
ATOM     84  C58 UNL A   1      26.849  35.845  45.082  1.00  0.00    +0.000 C 
ATOM     85  N8  UNL A   1      28.082  36.436  45.194  1.00  0.00    +0.000 N 
ATOM     86  C59 UNL A   1      32.239  37.833  44.467  1.00  0.00    +0.000 C 
ATOM     87  C60 UNL A   1      32.424  38.892  45.244  1.00  0.00    +0.000 C 
ATOM     88  C61 UNL A   1      24.480  38.665  47.903  1.00  0.00    +0.000 C 
ATOM     89  C62 UNL A   1      24.260  37.552  47.217  1.00  0.00    +0.000 C 
ATOM    117  H26 UNL A   1      28.007  42.235  49.650  1.00  0.00    +0.000 H 
ATOM    118  H27 UNL A   1      30.446  42.359  48.736  1.00  0.00    +0.000 H 
ATOM    119  H28 UNL A   1      28.526  39.188  46.892  1.00  0.00    +0.000 H 
ATOM    120  H29 UNL A   1      28.779  34.059  43.114  1.00  0.00    +0.000 H 
ATOM    121  H30 UNL A   1      26.345  34.065  43.844  1.00  0.00    +0.000 H 
ATOM    122  H31 UNL A   1      28.274  37.180  45.811  1.00  0.00    +0.000 H 
ATOM    123  H32 UNL A   1      32.899  37.375  43.821  1.00  0.00    +0.000 H 
ATOM    124  H33 UNL A   1      33.315  39.409  45.320  1.00  0.00    +0.000 H 
ATOM    125  H34 UNL A   1      23.762  39.161  48.454  1.00  0.00    +0.000 H 
ATOM    126  H35 UNL A   1      23.398  36.989  47.148  1.00  0.00    +0.000 H 
ENDROOT
BRANCH   33   32
ATOM    127  H36 UNL A   1      23.763  36.703  43.824  1.00  0.00    +0.000 H 
ATOM     32  C24 UNL A   1      24.469  35.361  45.301  1.00  0.00    +0.000 C 
ATOM    115  H24 UNL A   1      23.019  32.406  45.960  1.00  0.00    +0.000 H 
ATOM    116  H25 UNL A   1      24.872  33.799  46.669  1.00  0.00    +0.000 H 
ATOM     90  C63 UNL A   1      23.582  35.810  44.309  1.00  0.00    +0.000 C 
ATOM     91  C64 UNL A   1      22.458  35.053  43.977  1.00  0.00    +0.000 C 
ATOM     29  C21 UNL A   1      22.229  33.830  44.612  1.00  0.00    +0.000 C 
ATOM     30  C22 UNL A   1      23.147  33.344  45.549  1.00  0.00    +0.000 C 
ATOM     31  C23 UNL A   1      24.236  34.127  45.926  1.00  0.00    +0.000 C 
ATOM    128  H37 UNL A   1      21.795  35.396  43.263  1.00  0.00    +0.000 H 
BRANCH   29    2
ATOM      1  O1  UNL A   1      21.143  32.086  43.484  1.00  0.00    +0.000 O 
ATOM      2  C1  UNL A   1      21.031  33.048  44.240  1.00  0.00    +0.000 C 
BRANCH    2    3
ATOM      3  N1  UNL A   1      19.798  33.402  44.725  1.00  0.00    +0.000 N 
ATOM     92  H1  UNL A   1      19.668  34.364  44.883  1.00  0.00    +0.000 H 
BRANCH    3    4
ATOM      4  C2  UNL A   1      18.657  32.559  45.039  1.00  0.00    +0.000 C 
ATOM     93  H2  UNL A   1      18.197  32.924  45.934  1.00  0.00    +0.000 H 
ATOM     94  H3  UNL A   1      19.015  31.559  45.162  1.00  0.00    +0.000 H 
BRANCH    4    5
ATOM      5  C3  UNL A   1      17.619  32.548  43.922  1.00  0.00    +0.000 C 
ATOM     95  H4  UNL A   1      17.796  33.398  43.296  1.00  0.00    +0.000 H 
ATOM     96  H5  UNL A   1      16.663  32.565  44.403  1.00  0.00    +0.000 H 
BRANCH    5    6
ATOM     97  H6  UNL A   1      18.338  31.457  42.253  1.00  0.00    +0.000 H 
ATOM     98  H7  UNL A   1      16.623  31.175  42.694  1.00  0.00    +0.000 H 
ATOM      6  C4  UNL A   1      17.628  31.299  43.039  1.00  0.00    +0.000 C 
BRANCH    6    7
ATOM     99  H8  UNL A   1      18.366  30.238  44.720  1.00  0.00    +0.000 H 
ATOM    100  H9  UNL A   1      18.708  29.507  43.117  1.00  0.00    +0.000 H 
ATOM      7  C5  UNL A   1      17.992  29.991  43.748  1.00  0.00    +0.000 C 
BRANCH    7    8
ATOM    101  H10 UNL A   1      16.145  29.146  43.129  1.00  0.00    +0.000 H 
ATOM    102  H11 UNL A   1      16.435  29.179  44.895  1.00  0.00    +0.000 H 
ATOM      8  C6  UNL A   1      16.844  28.992  43.925  1.00  0.00    +0.000 C 
BRANCH    8    9
ATOM      9  C7  UNL A   1      17.255  27.521  43.915  1.00  0.00    +0.000 C 
ATOM    103  H12 UNL A   1      17.917  27.343  44.736  1.00  0.00    +0.000 H 
ATOM    104  H13 UNL A   1      17.736  27.319  42.980  1.00  0.00    +0.000 H 
BRANCH    9   10
ATOM    105  H14 UNL A   1      16.199  25.916  44.700  1.00  0.00    +0.000 H 
ATOM     10  N2  UNL A   1      16.112  26.634  44.032  1.00  0.00    +0.000 N 
BRANCH   10   11
ATOM     11  C8  UNL A   1      14.929  26.659  43.341  1.00  0.00    +0.000 C 
ATOM     12  O2  UNL A   1      13.870  26.828  43.937  1.00  0.00    +0.000 O 
BRANCH   11   13
ATOM    106  H15 UNL A   1      15.160  28.547  41.485  1.00  0.00    +0.000 H 
ATOM    107  H16 UNL A   1      15.186  28.283  39.071  1.00  0.00    +0.000 H 
ATOM    108  H17 UNL A   1      14.966  26.082  38.090  1.00  0.00    +0.000 H 
ATOM     13  C9  UNL A   1      14.925  26.483  41.874  1.00  0.00    +0.000 C 
ATOM     14  C10 UNL A   1      15.065  27.609  41.063  1.00  0.00    +0.000 C 
ATOM     15  C11 UNL A   1      15.074  27.458  39.681  1.00  0.00    +0.000 C 
ATOM     16  C12 UNL A   1      14.934  26.185  39.115  1.00  0.00    +0.000 C 
ATOM     17  C13 UNL A   1      14.749  25.049  39.915  1.00  0.00    +0.000 C 
ATOM    114  H23 UNL A   1      14.603  24.397  41.917  1.00  0.00    +0.000 H 
ATOM     28  C20 UNL A   1      14.744  25.216  41.305  1.00  0.00    +0.000 C 
BRANCH   17   18
ATOM     18  N3  UNL A   1      14.642  23.739  39.396  1.00  0.00    +0.000 N 
ATOM    109  H18 UNL A   1      15.096  23.583  38.535  1.00  0.00    +0.000 H 
BRANCH   18   19
ATOM    110  H19 UNL A   1      14.955  22.753  41.810  1.00  0.00    +0.000 H 
ATOM    111  H20 UNL A   1      13.689  20.971  42.858  1.00  0.00    +0.000 H 
ATOM    112  H21 UNL A   1      11.547  20.390  39.279  1.00  0.00    +0.000 H 
ATOM    113  H22 UNL A   1      12.812  22.180  38.240  1.00  0.00    +0.000 H 
ATOM     19  C14 UNL A   1      13.973  22.629  39.944  1.00  0.00    +0.000 C 
ATOM     20  C15 UNL A   1      14.224  22.261  41.272  1.00  0.00    +0.000 C 
ATOM     21  C16 UNL A   1      13.496  21.234  41.878  1.00  0.00    +0.000 C 
ATOM     22  C17 UNL A   1      12.506  20.563  41.154  1.00  0.00    +0.000 C 
ATOM     26  C18 UNL A   1      12.263  20.900  39.820  1.00  0.00    +0.000 C 
ATOM     27  C19 UNL A   1      12.995  21.930  39.225  1.00  0.00    +0.000 C 
BRANCH   22   23
ATOM     25  O4  UNL A   1      10.640  19.864  42.586  1.00  0.00    +0.000 O 
ATOM     23  N4  UNL A   1      11.715  19.538  41.794  1.00  0.00    +0.000 N 
ATOM     24  O3  UNL A   1      11.996  18.363  41.673  1.00  0.00    +0.000 O 
ENDBRANCH   22   23
ENDBRANCH   18   19
ENDBRANCH   17   18
ENDBRANCH   11   13
ENDBRANCH   10   11
ENDBRANCH    9   10
ENDBRANCH    8    9
ENDBRANCH    7    8
ENDBRANCH    6    7
ENDBRANCH    5    6
ENDBRANCH    4    5
ENDBRANCH    3    4
ENDBRANCH    2    3
ENDBRANCH   29    2
ENDBRANCH   33   32
BRANCH   37   38
ATOM     38  C29 UNL A   1      25.476  40.989  49.272  1.00  0.00    +0.000 C 
ATOM     39  C30 UNL A   1      25.275  40.700  50.630  1.00  0.00    +0.000 C 
ATOM     40  F1  UNL A   1      25.884  39.644  51.193  1.00  0.00    +0.000 F 
ATOM     41  C31 UNL A   1      24.414  41.471  51.407  1.00  0.00    +0.000 C 
ATOM     42  F2  UNL A   1      24.197  41.143  52.689  1.00  0.00    +0.000 F 
ATOM     43  C32 UNL A   1      23.764  42.564  50.853  1.00  0.00    +0.000 C 
ATOM     44  F3  UNL A   1      22.935  43.302  51.602  1.00  0.00    +0.000 F 
ATOM     45  C33 UNL A   1      23.968  42.883  49.520  1.00  0.00    +0.000 C 
ATOM     46  F4  UNL A   1      23.351  43.946  48.984  1.00  0.00    +0.000 F 
ATOM     47  C34 UNL A   1      24.808  42.098  48.733  1.00  0.00    +0.000 C 
ATOM     48  F5  UNL A   1      24.970  42.424  47.442  1.00  0.00    +0.000 F 
ENDBRANCH   37   38
BRANCH   54   55
ATOM     65  F10 UNL A   1      31.490  42.809  45.592  1.00  0.00    +0.000 F 
ATOM     55  C40 UNL A   1      32.328  41.122  47.047  1.00  0.00    +0.000 C 
ATOM     56  C41 UNL A   1      33.382  40.684  47.860  1.00  0.00    +0.000 C 
ATOM     57  F6  UNL A   1      33.283  39.525  48.528  1.00  0.00    +0.000 F 
ATOM     58  C42 UNL A   1      34.535  41.450  48.006  1.00  0.00    +0.000 C 
ATOM     59  F7  UNL A   1      35.521  41.027  48.809  1.00  0.00    +0.000 F 
ATOM     60  C43 UNL A   1      34.665  42.652  47.325  1.00  0.00    +0.000 C 
ATOM     61  F8  UNL A   1      35.782  43.381  47.455  1.00  0.00    +0.000 F 
ATOM     62  C44 UNL A   1      33.635  43.101  46.513  1.00  0.00    +0.000 C 
ATOM     63  F9  UNL A   1      33.763  44.257  45.845  1.00  0.00    +0.000 F 
ATOM     64  C45 UNL A   1      32.471  42.349  46.382  1.00  0.00    +0.000 C 
ENDBRANCH   54   55
BRANCH   69   70
ATOM     70  C49 UNL A   1      31.073  35.502  43.094  1.00  0.00    +0.000 C 
ATOM     71  C50 UNL A   1      31.230  35.953  41.779  1.00  0.00    +0.000 C 
ATOM     72  F11 UNL A   1      30.594  37.061  41.371  1.00  0.00    +0.000 F 
ATOM     73  C51 UNL A   1      32.034  35.262  40.875  1.00  0.00    +0.000 C 
ATOM     74  F12 UNL A   1      32.156  35.705  39.616  1.00  0.00    +0.000 F 
ATOM     75  C52 UNL A   1      32.710  34.119  41.276  1.00  0.00    +0.000 C 
ATOM     76  F13 UNL A   1      33.500  33.468  40.412  1.00  0.00    +0.000 F 
ATOM     77  C53 UNL A   1      32.568  33.653  42.575  1.00  0.00    +0.000 C 
ATOM     78  F14 UNL A   1      33.233  32.560  42.971  1.00  0.00    +0.000 F 
ATOM     79  C54 UNL A   1      31.745  34.330  43.472  1.00  0.00    +0.000 C 
ATOM     80  F15 UNL A   1      31.633  33.865  44.724  1.00  0.00    +0.000 F 
ENDBRANCH   69   70
TORSDOF 18
ENDMDL
MODEL 4
REMARK VINA RESULT:      -9.2     42.120     46.019
ROOT
ATOM     33  C25 UNL A   1      25.750  36.226  45.586  1.00  0.00    +0.000 C 
ATOM     34  C26 UNL A   1      25.661  37.383  46.537  1.00  0.00    +0.000 C 
ATOM     35  N5  UNL A   1      26.586  38.245  46.878  1.00  0.00    +0.000 N 
ATOM     36  C27 UNL A   1      25.974  39.127  47.758  1.00  0.00    +0.000 C 
ATOM     37  C28 UNL A   1      26.521  40.185  48.405  1.00  0.00    +0.000 C 
ATOM     49  C35 UNL A   1      27.900  40.582  48.287  1.00  0.00    +0.000 C 
ATOM     50  C36 UNL A   1      28.565  41.603  48.944  1.00  0.00    +0.000 C 
ATOM     51  C37 UNL A   1      29.878  41.651  48.463  1.00  0.00    +0.000 C 
ATOM     52  C38 UNL A   1      30.047  40.629  47.543  1.00  0.00    +0.000 C 
ATOM     53  N6  UNL A   1      28.825  39.981  47.444  1.00  0.00    +0.000 N 
ATOM     54  C39 UNL A   1      31.233  40.274  46.804  1.00  0.00    +0.000 C 
ATOM     66  C46 UNL A   1      31.331  39.238  45.936  1.00  0.00    +0.000 C 
ATOM     67  N7  UNL A   1      30.362  38.313  45.573  1.00  0.00    +0.000 N 
ATOM     68  C47 UNL A   1      30.935  37.510  44.712  1.00  0.00    +0.000 C 
ATOM     69  C48 UNL A   1      30.357  36.318  44.007  1.00  0.00    +0.000 C 
ATOM     81  C55 UNL A   1      29.097  35.936  44.283  1.00  0.00    +0.000 C 
ATOM     82  C56 UNL A   1      28.405  34.812  43.661  1.00  0.00    +0.000 C 
ATOM     83  C57 UNL A   1      27.126  34.812  44.064  1.00  0.00    +0.000 C 
ATOM     84  C58 UNL A   1      26.925  35.907  45.014  1.00  0.00    +0.000 C 
ATOM     85  N8  UNL A   1      28.165  36.483  45.130  1.00  0.00    +0.000 N 
ATOM     86  C59 UNL A   1      32.333  37.848  44.410  1.00  0.00    +0.000 C 
ATOM     87  C60 UNL A   1      32.532  38.894  45.200  1.00  0.00    +0.000 C 
ATOM     88  C61 UNL A   1      24.593  38.711  47.879  1.00  0.00    +0.000 C 
ATOM     89  C62 UNL A   1      24.360  37.610  47.180  1.00  0.00    +0.000 C 
ATOM    117  H26 UNL A   1      28.161  42.222  49.665  1.00  0.00    +0.000 H 
ATOM    118  H27 UNL A   1      30.599  42.333  48.745  1.00  0.00    +0.000 H 
ATOM    119  H28 UNL A   1      28.641  39.207  46.864  1.00  0.00    +0.000 H 
ATOM    120  H29 UNL A   1      28.831  34.127  43.017  1.00  0.00    +0.000 H 
ATOM    121  H30 UNL A   1      26.400  34.148  43.754  1.00  0.00    +0.000 H 
ATOM    122  H31 UNL A   1      28.366  37.216  45.757  1.00  0.00    +0.000 H 
ATOM    123  H32 UNL A   1      32.987  37.391  43.756  1.00  0.00    +0.000 H 
ATOM    124  H33 UNL A   1      33.428  39.400  45.281  1.00  0.00    +0.000 H 
ATOM    125  H34 UNL A   1      23.882  39.208  48.439  1.00  0.00    +0.000 H 
ATOM    126  H35 UNL A   1      23.492  37.057  47.105  1.00  0.00    +0.000 H 
ENDROOT
BRANCH   33   32
ATOM    127  H36 UNL A   1      24.935  33.862  46.582  1.00  0.00    +0.000 H 
ATOM     32  C24 UNL A   1      24.541  35.444  45.233  1.00  0.00    +0.000 C 
ATOM    115  H24 UNL A   1      21.744  35.646  43.386  1.00  0.00    +0.000 H 
ATOM    116  H25 UNL A   1      23.816  36.832  43.811  1.00  0.00    +0.000 H 
ATOM     90  C63 UNL A   1      24.279  34.221  45.871  1.00  0.00    +0.000 C 
ATOM     91  C64 UNL A   1      23.136  33.489  45.547  1.00  0.00    +0.000 C 
ATOM     29  C21 UNL A   1      22.232  33.991  44.607  1.00  0.00    +0.000 C 
ATOM     30  C22 UNL A   1      22.451  35.242  44.022  1.00  0.00    +0.000 C 
ATOM     31  C23 UNL A   1      23.622  35.943  44.297  1.00  0.00    +0.000 C 
ATOM    128  H37 UNL A   1      22.958  32.579  46.002  1.00  0.00    +0.000 H 
BRANCH   29    2
ATOM      1  O1  UNL A   1      21.119  31.976  44.165  1.00  0.00    +0.000 O 
ATOM      2  C1  UNL A   1      21.029  33.195  44.283  1.00  0.00    +0.000 C 
BRANCH    2    3
ATOM      3  N1  UNL A   1      19.819  33.815  44.104  1.00  0.00    +0.000 N 
ATOM     92  H1  UNL A   1      19.753  34.385  43.304  1.00  0.00    +0.000 H 
BRANCH    3    4
ATOM      4  C2  UNL A   1      18.622  33.752  44.925  1.00  0.00    +0.000 C 
ATOM     93  H2  UNL A   1      18.383  34.739  45.261  1.00  0.00    +0.000 H 
ATOM     94  H3  UNL A   1      18.824  33.097  45.745  1.00  0.00    +0.000 H 
BRANCH    4    5
ATOM      5  C3  UNL A   1      17.425  33.189  44.164  1.00  0.00    +0.000 C 
ATOM     95  H4  UNL A   1      17.260  33.806  43.304  1.00  0.00    +0.000 H 
ATOM     96  H5  UNL A   1      16.607  33.191  44.853  1.00  0.00    +0.000 H 
BRANCH    5    6
ATOM     97  H6  UNL A   1      17.398  31.101  44.524  1.00  0.00    +0.000 H 
ATOM     98  H7  UNL A   1      18.572  31.668  43.293  1.00  0.00    +0.000 H 
ATOM      6  C4  UNL A   1      17.580  31.744  43.688  1.00  0.00    +0.000 C 
BRANCH    6    7
ATOM     99  H8  UNL A   1      17.233  31.208  41.666  1.00  0.00    +0.000 H 
ATOM    100  H9  UNL A   1      15.899  32.084  42.486  1.00  0.00    +0.000 H 
ATOM      7  C5  UNL A   1      16.644  31.319  42.553  1.00  0.00    +0.000 C 
BRANCH    7    8
ATOM    101  H10 UNL A   1      15.502  29.680  41.832  1.00  0.00    +0.000 H 
ATOM    102  H11 UNL A   1      15.116  30.231  43.491  1.00  0.00    +0.000 H 
ATOM      8  C6  UNL A   1      15.881  30.009  42.778  1.00  0.00    +0.000 C 
BRANCH    8    9
ATOM      9  C7  UNL A   1      16.705  28.872  43.379  1.00  0.00    +0.000 C 
ATOM    103  H12 UNL A   1      16.635  28.922  44.445  1.00  0.00    +0.000 H 
ATOM    104  H13 UNL A   1      17.717  28.990  43.052  1.00  0.00    +0.000 H 
BRANCH    9   10
ATOM    105  H14 UNL A   1      16.428  27.347  41.999  1.00  0.00    +0.000 H 
ATOM     10  N2  UNL A   1      16.239  27.569  42.939  1.00  0.00    +0.000 N 
BRANCH   10   11
ATOM     11  C8  UNL A   1      15.575  26.607  43.653  1.00  0.00    +0.000 C 
ATOM     12  O2  UNL A   1      15.768  26.490  44.859  1.00  0.00    +0.000 O 
BRANCH   11   13
ATOM    106  H15 UNL A   1      12.953  26.429  44.045  1.00  0.00    +0.000 H 
ATOM    107  H16 UNL A   1      11.362  24.979  42.922  1.00  0.00    +0.000 H 
ATOM    108  H17 UNL A   1      12.120  23.437  41.219  1.00  0.00    +0.000 H 
ATOM     13  C9  UNL A   1      14.623  25.705  42.972  1.00  0.00    +0.000 C 
ATOM     14  C10 UNL A   1      13.273  25.769  43.320  1.00  0.00    +0.000 C 
ATOM     15  C11 UNL A   1      12.364  24.935  42.679  1.00  0.00    +0.000 C 
ATOM     16  C12 UNL A   1      12.807  24.034  41.704  1.00  0.00    +0.000 C 
ATOM     17  C13 UNL A   1      14.165  23.927  41.375  1.00  0.00    +0.000 C 
ATOM    114  H23 UNL A   1      16.076  24.712  41.805  1.00  0.00    +0.000 H 
ATOM     28  C20 UNL A   1      15.069  24.774  42.025  1.00  0.00    +0.000 C 
BRANCH   17   18
ATOM     18  N3  UNL A   1      14.657  23.063  40.370  1.00  0.00    +0.000 N 
ATOM    109  H18 UNL A   1      14.782  22.124  40.639  1.00  0.00    +0.000 H 
BRANCH   18   19
ATOM    110  H19 UNL A   1      16.179  21.641  38.771  1.00  0.00    +0.000 H 
ATOM    111  H20 UNL A   1      16.625  22.027  36.419  1.00  0.00    +0.000 H 
ATOM    112  H21 UNL A   1      14.368  25.578  36.576  1.00  0.00    +0.000 H 
ATOM    113  H22 UNL A   1      13.919  25.181  38.925  1.00  0.00    +0.000 H 
ATOM     19  C14 UNL A   1      14.994  23.368  39.038  1.00  0.00    +0.000 C 
ATOM     20  C15 UNL A   1      15.783  22.473  38.305  1.00  0.00    +0.000 C 
ATOM     21  C16 UNL A   1      16.042  22.693  36.950  1.00  0.00    +0.000 C 
ATOM     22  C17 UNL A   1      15.510  23.820  36.315  1.00  0.00    +0.000 C 
ATOM     26  C18 UNL A   1      14.743  24.736  37.039  1.00  0.00    +0.000 C 
ATOM     27  C19 UNL A   1      14.489  24.504  38.393  1.00  0.00    +0.000 C 
BRANCH   22   23
ATOM     25  O4  UNL A   1      17.004  24.103  34.389  1.00  0.00    +0.000 O 
ATOM     23  N4  UNL A   1      15.731  24.022  34.902  1.00  0.00    +0.000 N 
ATOM     24  O3  UNL A   1      14.800  24.153  34.135  1.00  0.00    +0.000 O 
ENDBRANCH   22   23
ENDBRANCH   18   19
ENDBRANCH   17   18
ENDBRANCH   11   13
ENDBRANCH   10   11
ENDBRANCH    9   10
ENDBRANCH    8    9
ENDBRANCH    7    8
ENDBRANCH    6    7
ENDBRANCH    5    6
ENDBRANCH    4    5
ENDBRANCH    3    4
ENDBRANCH    2    3
ENDBRANCH   29    2
ENDBRANCH   33   32
BRANCH   37   38
ATOM     38  C29 UNL A   1      25.617  41.007  49.277  1.00  0.00    +0.000 C 
ATOM     39  C30 UNL A   1      24.919  42.118  48.781  1.00  0.00    +0.000 C 
ATOM     40  F1  UNL A   1      25.071  42.495  47.502  1.00  0.00    +0.000 F 
ATOM     41  C31 UNL A   1      24.093  42.873  49.610  1.00  0.00    +0.000 C 
ATOM     42  F2  UNL A   1      23.478  43.962  49.127  1.00  0.00    +0.000 F 
ATOM     43  C32 UNL A   1      23.921  42.514  50.938  1.00  0.00    +0.000 C 
ATOM     44  F3  UNL A   1      23.127  43.244  51.734  1.00  0.00    +0.000 F 
ATOM     45  C33 UNL A   1      24.580  41.405  51.443  1.00  0.00    +0.000 C 
ATOM     46  F4  UNL A   1      24.407  41.048  52.724  1.00  0.00    +0.000 F 
ATOM     47  C34 UNL A   1      25.429  40.663  50.624  1.00  0.00    +0.000 C 
ATOM     48  F5  UNL A   1      26.066  39.605  51.148  1.00  0.00    +0.000 F 
ENDBRANCH   37   38
BRANCH   54   55
ATOM     65  F10 UNL A   1      31.686  42.766  45.521  1.00  0.00    +0.000 F 
ATOM     55  C40 UNL A   1      32.463  41.100  47.034  1.00  0.00    +0.000 C 
ATOM     56  C41 UNL A   1      33.491  40.664  47.880  1.00  0.00    +0.000 C 
ATOM     57  F6  UNL A   1      33.358  39.523  48.572  1.00  0.00    +0.000 F 
ATOM     58  C42 UNL A   1      34.654  41.414  48.034  1.00  0.00    +0.000 C 
ATOM     59  F7  UNL A   1      35.615  40.993  48.869  1.00  0.00    +0.000 F 
ATOM     60  C43 UNL A   1      34.820  42.597  47.329  1.00  0.00    +0.000 C 
ATOM     61  F8  UNL A   1      35.946  43.310  47.466  1.00  0.00    +0.000 F 
ATOM     62  C44 UNL A   1      33.815  43.044  46.483  1.00  0.00    +0.000 C 
ATOM     63  F9  UNL A   1      33.978  44.181  45.792  1.00  0.00    +0.000 F 
ATOM     64  C45 UNL A   1      32.642  42.309  46.344  1.00  0.00    +0.000 C 
ENDBRANCH   54   55
BRANCH   69   70
ATOM     70  C49 UNL A   1      31.139  35.547  43.009  1.00  0.00    +0.000 C 
ATOM     71  C50 UNL A   1      31.247  35.983  41.684  1.00  0.00    +0.000 C 
ATOM     72  F11 UNL A   1      30.573  37.070  41.281  1.00  0.00    +0.000 F 
ATOM     73  C51 UNL A   1      32.040  35.299  40.766  1.00  0.00    +0.000 C 
ATOM     74  F12 UNL A   1      32.115  35.727  39.498  1.00  0.00    +0.000 F 
ATOM     75  C52 UNL A   1      32.755  34.178  41.162  1.00  0.00    +0.000 C 
ATOM     76  F13 UNL A   1      33.535  33.534  40.283  1.00  0.00    +0.000 F 
ATOM     77  C53 UNL A   1      32.663  33.727  42.470  1.00  0.00    +0.000 C 
ATOM     78  F14 UNL A   1      33.366  32.656  42.861  1.00  0.00    +0.000 F 
ATOM     79  C54 UNL A   1      31.851  34.396  43.382  1.00  0.00    +0.000 C 
ATOM     80  F15 UNL A   1      31.786  33.946  44.644  1.00  0.00    +0.000 F 
ENDBRANCH   69   70
TORSDOF 18
ENDMDL
MODEL 5
REMARK VINA RESULT:      -9.1     44.585     51.043
ROOT
ATOM     33  C25 UNL A   1       5.052   7.252  24.626  1.00  0.00    +0.000 C 
ATOM     34  C26 UNL A   1       5.271   5.773  24.755  1.00  0.00    +0.000 C 
ATOM     35  N5  UNL A   1       6.181   5.129  25.442  1.00  0.00    +0.000 N 
ATOM     36  C27 UNL A   1       5.918   3.780  25.246  1.00  0.00    +0.000 C 
ATOM     37  C28 UNL A   1       6.596   2.712  25.731  1.00  0.00    +0.000 C 
ATOM     49  C35 UNL A   1       7.766   2.806  26.565  1.00  0.00    +0.000 C 
ATOM     50  C36 UNL A   1       8.559   1.785  27.061  1.00  0.00    +0.000 C 
ATOM     51  C37 UNL A   1       9.547   2.352  27.873  1.00  0.00    +0.000 C 
ATOM     52  C38 UNL A   1       9.402   3.730  27.843  1.00  0.00    +0.000 C 
ATOM     53  N6  UNL A   1       8.306   3.995  27.037  1.00  0.00    +0.000 N 
ATOM     54  C39 UNL A   1      10.201   4.730  28.507  1.00  0.00    +0.000 C 
ATOM     66  C46 UNL A   1      10.015   6.069  28.410  1.00  0.00    +0.000 C 
ATOM     67  N7  UNL A   1       9.061   6.763  27.679  1.00  0.00    +0.000 N 
ATOM     68  C47 UNL A   1       9.289   8.033  27.902  1.00  0.00    +0.000 C 
ATOM     69  C48 UNL A   1       8.570   9.230  27.353  1.00  0.00    +0.000 C 
ATOM     81  C55 UNL A   1       7.573   9.051  26.468  1.00  0.00    +0.000 C 
ATOM     82  C56 UNL A   1       6.778  10.120  25.870  1.00  0.00    +0.000 C 
ATOM     83  C57 UNL A   1       5.785   9.574  25.154  1.00  0.00    +0.000 C 
ATOM     84  C58 UNL A   1       5.907   8.117  25.201  1.00  0.00    +0.000 C 
ATOM     85  N8  UNL A   1       7.033   7.898  25.954  1.00  0.00    +0.000 N 
ATOM     86  C59 UNL A   1      10.405   8.292  28.822  1.00  0.00    +0.000 C 
ATOM     87  C60 UNL A   1      10.828   7.062  29.083  1.00  0.00    +0.000 C 
ATOM     88  C61 UNL A   1       4.749   3.698  24.395  1.00  0.00    +0.000 C 
ATOM     89  C62 UNL A   1       4.338   4.902  24.027  1.00  0.00    +0.000 C 
ATOM    117  H26 UNL A   1       8.440   0.778  26.866  1.00  0.00    +0.000 H 
ATOM    118  H27 UNL A   1      10.262   1.833  28.405  1.00  0.00    +0.000 H 
ATOM    119  H28 UNL A   1       7.961   4.894  26.829  1.00  0.00    +0.000 H 
ATOM    120  H29 UNL A   1       6.954  11.131  25.980  1.00  0.00    +0.000 H 
ATOM    121  H30 UNL A   1       5.051  10.097  24.651  1.00  0.00    +0.000 H 
ATOM    122  H31 UNL A   1       7.415   7.003  26.111  1.00  0.00    +0.000 H 
ATOM    123  H32 UNL A   1      10.765   9.194  29.173  1.00  0.00    +0.000 H 
ATOM    124  H33 UNL A   1      11.633   6.841  29.690  1.00  0.00    +0.000 H 
ATOM    125  H34 UNL A   1       4.296   2.814  24.113  1.00  0.00    +0.000 H 
ATOM    126  H35 UNL A   1       3.564   5.161  23.395  1.00  0.00    +0.000 H 
ENDROOT
BRANCH   33   32
ATOM    127  H36 UNL A   1       4.615   7.324  21.971  1.00  0.00    +0.000 H 
ATOM     32  C24 UNL A   1       3.872   7.780  23.899  1.00  0.00    +0.000 C 
ATOM    115  H24 UNL A   1       0.805   9.029  24.451  1.00  0.00    +0.000 H 
ATOM    116  H25 UNL A   1       2.809   8.352  25.637  1.00  0.00    +0.000 H 
ATOM     90  C63 UNL A   1       3.823   7.725  22.497  1.00  0.00    +0.000 C 
ATOM     91  C64 UNL A   1       2.710   8.213  21.813  1.00  0.00    +0.000 C 
ATOM     29  C21 UNL A   1       1.625   8.729  22.527  1.00  0.00    +0.000 C 
ATOM     30  C22 UNL A   1       1.638   8.719  23.925  1.00  0.00    +0.000 C 
ATOM     31  C23 UNL A   1       2.774   8.291  24.607  1.00  0.00    +0.000 C 
ATOM    128  H37 UNL A   1       2.686   8.192  20.781  1.00  0.00    +0.000 H 
BRANCH   29    2
ATOM      1  O1  UNL A   1       0.304   8.918  20.600  1.00  0.00    +0.000 O 
ATOM      2  C1  UNL A   1       0.458   9.238  21.776  1.00  0.00    +0.000 C 
BRANCH    2    3
ATOM      3  N1  UNL A   1      -0.444  10.073  22.385  1.00  0.00    +0.000 N 
ATOM     92  H1  UNL A   1      -1.156   9.623  22.895  1.00  0.00    +0.000 H 
BRANCH    3    4
ATOM      4  C2  UNL A   1      -0.500  11.524  22.385  1.00  0.00    +0.000 C 
ATOM     93  H2  UNL A   1      -1.504  11.829  22.175  1.00  0.00    +0.000 H 
ATOM     94  H3  UNL A   1       0.181  11.876  21.639  1.00  0.00    +0.000 H 
BRANCH    4    5
ATOM      5  C3  UNL A   1      -0.075  12.122  23.722  1.00  0.00    +0.000 C 
ATOM     95  H4  UNL A   1      -0.276  11.399  24.487  1.00  0.00    +0.000 H 
ATOM     96  H5  UNL A   1      -0.633  13.028  23.835  1.00  0.00    +0.000 H 
BRANCH    5    6
ATOM     97  H6  UNL A   1       1.876  11.844  24.504  1.00  0.00    +0.000 H 
ATOM     98  H7  UNL A   1       1.412  13.536  24.137  1.00  0.00    +0.000 H 
ATOM      6  C4  UNL A   1       1.400  12.514  23.819  1.00  0.00    +0.000 C 
BRANCH    6    7
ATOM     99  H8  UNL A   1       2.326  13.485  22.177  1.00  0.00    +0.000 H 
ATOM    100  H9  UNL A   1       1.594  11.884  21.831  1.00  0.00    +0.000 H 
ATOM      7  C5  UNL A   1       2.181  12.476  22.502  1.00  0.00    +0.000 C 
BRANCH    7    8
ATOM    101  H10 UNL A   1       3.401  10.751  22.709  1.00  0.00    +0.000 H 
ATOM    102  H11 UNL A   1       4.079  12.269  23.371  1.00  0.00    +0.000 H 
ATOM      8  C6  UNL A   1       3.555  11.800  22.566  1.00  0.00    +0.000 C 
BRANCH    8    9
ATOM      9  C7  UNL A   1       4.428  11.986  21.327  1.00  0.00    +0.000 C 
ATOM    103  H12 UNL A   1       5.112  12.789  21.504  1.00  0.00    +0.000 H 
ATOM    104  H13 UNL A   1       3.785  12.201  20.499  1.00  0.00    +0.000 H 
BRANCH    9   10
ATOM    105  H14 UNL A   1       4.667   9.951  20.996  1.00  0.00    +0.000 H 
ATOM     10  N2  UNL A   1       5.184  10.788  21.008  1.00  0.00    +0.000 N 
BRANCH   10   11
ATOM     11  C8  UNL A   1       6.519  10.664  20.720  1.00  0.00    +0.000 C 
ATOM     12  O2  UNL A   1       7.008  11.283  19.781  1.00  0.00    +0.000 O 
BRANCH   11   13
ATOM    106  H15 UNL A   1       8.457  11.387  22.388  1.00  0.00    +0.000 H 
ATOM    107  H16 UNL A   1       9.856   9.964  23.771  1.00  0.00    +0.000 H 
ATOM    108  H17 UNL A   1       9.574   7.562  23.713  1.00  0.00    +0.000 H 
ATOM     13  C9  UNL A   1       7.374   9.783  21.542  1.00  0.00    +0.000 C 
ATOM     14  C10 UNL A   1       8.339  10.362  22.365  1.00  0.00    +0.000 C 
ATOM     15  C11 UNL A   1       9.144   9.546  23.152  1.00  0.00    +0.000 C 
ATOM     16  C12 UNL A   1       8.988   8.156  23.107  1.00  0.00    +0.000 C 
ATOM     17  C13 UNL A   1       8.052   7.556  22.254  1.00  0.00    +0.000 C 
ATOM    114  H23 UNL A   1       6.554   7.972  20.827  1.00  0.00    +0.000 H 
ATOM     28  C20 UNL A   1       7.247   8.389  21.468  1.00  0.00    +0.000 C 
BRANCH   17   18
ATOM     18  N3  UNL A   1       7.828   6.161  22.200  1.00  0.00    +0.000 N 
ATOM    109  H18 UNL A   1       6.884   5.882  22.157  1.00  0.00    +0.000 H 
BRANCH   18   19
ATOM    110  H19 UNL A   1       8.396   4.559  24.202  1.00  0.00    +0.000 H 
ATOM    111  H20 UNL A   1       9.872   2.636  24.187  1.00  0.00    +0.000 H 
ATOM    112  H21 UNL A   1      10.915   3.469  20.194  1.00  0.00    +0.000 H 
ATOM    113  H22 UNL A   1       9.430   5.386  20.213  1.00  0.00    +0.000 H 
ATOM     19  C14 UNL A   1       8.774   5.119  22.202  1.00  0.00    +0.000 C 
ATOM     20  C15 UNL A   1       8.921   4.324  23.345  1.00  0.00    +0.000 C 
ATOM     21  C16 UNL A   1       9.772   3.215  23.339  1.00  0.00    +0.000 C 
ATOM     22  C17 UNL A   1      10.486   2.894  22.181  1.00  0.00    +0.000 C 
ATOM     26  C18 UNL A   1      10.372   3.693  21.041  1.00  0.00    +0.000 C 
ATOM     27  C19 UNL A   1       9.516   4.798  21.057  1.00  0.00    +0.000 C 
BRANCH   22   23
ATOM     25  O4  UNL A   1      12.569   1.747  21.570  1.00  0.00    +0.000 O 
ATOM     23  N4  UNL A   1      11.324   1.718  22.155  1.00  0.00    +0.000 N 
ATOM     24  O3  UNL A   1      10.942   0.666  22.625  1.00  0.00    +0.000 O 
ENDBRANCH   22   23
ENDBRANCH   18   19
ENDBRANCH   17   18
ENDBRANCH   11   13
ENDBRANCH   10   11
ENDBRANCH    9   10
ENDBRANCH    8    9
ENDBRANCH    7    8
ENDBRANCH    6    7
ENDBRANCH    5    6
ENDBRANCH    4    5
ENDBRANCH    3    4
ENDBRANCH    2    3
ENDBRANCH   29    2
ENDBRANCH   33   32
BRANCH   37   38
ATOM     38  C29 UNL A   1       6.071   1.347  25.395  1.00  0.00    +0.000 C 
ATOM     39  C30 UNL A   1       6.515   0.639  24.269  1.00  0.00    +0.000 C 
ATOM     40  F1  UNL A   1       7.413   1.189  23.436  1.00  0.00    +0.000 F 
ATOM     41  C31 UNL A   1       6.007  -0.623  23.969  1.00  0.00    +0.000 C 
ATOM     42  F2  UNL A   1       6.408  -1.258  22.858  1.00  0.00    +0.000 F 
ATOM     43  C32 UNL A   1       5.072  -1.215  24.805  1.00  0.00    +0.000 C 
ATOM     44  F3  UNL A   1       4.584  -2.428  24.513  1.00  0.00    +0.000 F 
ATOM     45  C33 UNL A   1       4.638  -0.545  25.937  1.00  0.00    +0.000 C 
ATOM     46  F4  UNL A   1       3.743  -1.120  26.754  1.00  0.00    +0.000 F 
ATOM     47  C34 UNL A   1       5.124   0.728  26.226  1.00  0.00    +0.000 C 
ATOM     48  F5  UNL A   1       4.670   1.358  27.320  1.00  0.00    +0.000 F 
ENDBRANCH   37   38
BRANCH   54   55
ATOM     65  F10 UNL A   1      10.191   4.857  31.343  1.00  0.00    +0.000 F 
ATOM     55  C40 UNL A   1      11.345   4.253  29.351  1.00  0.00    +0.000 C 
ATOM     56  C41 UNL A   1      12.517   3.743  28.776  1.00  0.00    +0.000 C 
ATOM     57  F6  UNL A   1      12.608   3.595  27.446  1.00  0.00    +0.000 F 
ATOM     58  C42 UNL A   1      13.594   3.362  29.572  1.00  0.00    +0.000 C 
ATOM     59  F7  UNL A   1      14.696   2.852  29.005  1.00  0.00    +0.000 F 
ATOM     60  C43 UNL A   1      13.528   3.506  30.950  1.00  0.00    +0.000 C 
ATOM     61  F8  UNL A   1      14.571   3.153  31.713  1.00  0.00    +0.000 F 
ATOM     62  C44 UNL A   1      12.378   4.012  31.538  1.00  0.00    +0.000 C 
ATOM     63  F9  UNL A   1      12.317   4.162  32.869  1.00  0.00    +0.000 F 
ATOM     64  C45 UNL A   1      11.291   4.372  30.747  1.00  0.00    +0.000 C 
ENDBRANCH   54   55
BRANCH   69   70
ATOM     70  C49 UNL A   1       8.929  10.611  27.761  1.00  0.00    +0.000 C 
ATOM     71  C50 UNL A   1       9.883  11.347  27.048  1.00  0.00    +0.000 C 
ATOM     72  F11 UNL A   1      10.543  10.778  26.030  1.00  0.00    +0.000 F 
ATOM     73  C51 UNL A   1      10.168  12.668  27.386  1.00  0.00    +0.000 C 
ATOM     74  F12 UNL A   1      11.096  13.348  26.699  1.00  0.00    +0.000 F 
ATOM     75  C52 UNL A   1       9.490  13.282  28.429  1.00  0.00    +0.000 C 
ATOM     76  F13 UNL A   1       9.749  14.560  28.738  1.00  0.00    +0.000 F 
ATOM     77  C53 UNL A   1       8.542  12.572  29.149  1.00  0.00    +0.000 C 
ATOM     78  F14 UNL A   1       7.872  13.166  30.146  1.00  0.00    +0.000 F 
ATOM     79  C54 UNL A   1       8.274  11.243  28.828  1.00  0.00    +0.000 C 
ATOM     80  F15 UNL A   1       7.345  10.581  29.533  1.00  0.00    +0.000 F 
ENDBRANCH   69   70
TORSDOF 18
ENDMDL
MODEL 6
REMARK VINA RESULT:      -9.1     43.142     46.455
ROOT
ATOM     33  C25 UNL A   1      24.013  36.769  46.258  1.00  0.00    +0.000 C 
ATOM     34  C26 UNL A   1      23.787  38.048  47.009  1.00  0.00    +0.000 C 
ATOM     35  N5  UNL A   1      24.657  38.954  47.379  1.00  0.00    +0.000 N 
ATOM     36  C27 UNL A   1      23.922  39.949  48.009  1.00  0.00    +0.000 C 
ATOM     37  C28 UNL A   1      24.371  41.090  48.586  1.00  0.00    +0.000 C 
ATOM     49  C35 UNL A   1      25.758  41.472  48.652  1.00  0.00    +0.000 C 
ATOM     50  C36 UNL A   1      26.322  42.578  49.264  1.00  0.00    +0.000 C 
ATOM     51  C37 UNL A   1      27.698  42.565  49.013  1.00  0.00    +0.000 C 
ATOM     52  C38 UNL A   1      28.000  41.423  48.287  1.00  0.00    +0.000 C 
ATOM     53  N6  UNL A   1      26.801  40.762  48.072  1.00  0.00    +0.000 N 
ATOM     54  C39 UNL A   1      29.288  40.973  47.818  1.00  0.00    +0.000 C 
ATOM     66  C46 UNL A   1      29.512  39.826  47.133  1.00  0.00    +0.000 C 
ATOM     67  N7  UNL A   1      28.600  38.855  46.743  1.00  0.00    +0.000 N 
ATOM     68  C47 UNL A   1      29.296  37.941  46.113  1.00  0.00    +0.000 C 
ATOM     69  C48 UNL A   1      28.822  36.659  45.493  1.00  0.00    +0.000 C 
ATOM     81  C55 UNL A   1      27.527  36.313  45.601  1.00  0.00    +0.000 C 
ATOM     82  C56 UNL A   1      26.928  35.110  45.032  1.00  0.00    +0.000 C 
ATOM     83  C57 UNL A   1      25.600  35.161  45.206  1.00  0.00    +0.000 C 
ATOM     84  C58 UNL A   1      25.262  36.378  45.946  1.00  0.00    +0.000 C 
ATOM     85  N8  UNL A   1      26.475  36.971  46.190  1.00  0.00    +0.000 N 
ATOM     86  C59 UNL A   1      30.731  38.239  46.011  1.00  0.00    +0.000 C 
ATOM     87  C60 UNL A   1      30.813  39.387  46.670  1.00  0.00    +0.000 C 
ATOM     88  C61 UNL A   1      22.532  39.548  47.950  1.00  0.00    +0.000 C 
ATOM     89  C62 UNL A   1      22.400  38.358  47.381  1.00  0.00    +0.000 C 
ATOM    117  H26 UNL A   1      25.813  43.291  49.811  1.00  0.00    +0.000 H 
ATOM    118  H27 UNL A   1      28.373  43.283  49.316  1.00  0.00    +0.000 H 
ATOM    119  H28 UNL A   1      26.703  39.913  47.582  1.00  0.00    +0.000 H 
ATOM    120  H29 UNL A   1      27.444  34.343  44.572  1.00  0.00    +0.000 H 
ATOM    121  H30 UNL A   1      24.924  34.457  44.872  1.00  0.00    +0.000 H 
ATOM    122  H31 UNL A   1      26.581  37.785  46.734  1.00  0.00    +0.000 H 
ATOM    123  H32 UNL A   1      31.478  37.697  45.548  1.00  0.00    +0.000 H 
ATOM    124  H33 UNL A   1      31.692  39.903  46.830  1.00  0.00    +0.000 H 
ATOM    125  H34 UNL A   1      21.746  40.115  48.305  1.00  0.00    +0.000 H 
ATOM    126  H35 UNL A   1      21.546  37.796  47.237  1.00  0.00    +0.000 H 
ENDROOT
BRANCH   33   32
ATOM    127  H36 UNL A   1      22.543  37.001  44.015  1.00  0.00    +0.000 H 
ATOM     32  C24 UNL A   1      22.866  35.940  45.817  1.00  0.00    +0.000 C 
ATOM    115  H24 UNL A   1      21.159  33.176  46.667  1.00  0.00    +0.000 H 
ATOM    116  H25 UNL A   1      22.903  34.646  47.490  1.00  0.00    +0.000 H 
ATOM     90  C63 UNL A   1      22.221  36.214  44.599  1.00  0.00    +0.000 C 
ATOM     91  C64 UNL A   1      21.149  35.428  44.179  1.00  0.00    +0.000 C 
ATOM     29  C21 UNL A   1      20.733  34.344  44.957  1.00  0.00    +0.000 C 
ATOM     30  C22 UNL A   1      21.417  34.022  46.133  1.00  0.00    +0.000 C 
ATOM     31  C23 UNL A   1      22.447  34.844  46.586  1.00  0.00    +0.000 C 
ATOM    128  H37 UNL A   1      20.663  35.646  43.295  1.00  0.00    +0.000 H 
BRANCH   29    2
ATOM      1  O1  UNL A   1      18.933  33.903  43.522  1.00  0.00    +0.000 O 
ATOM      2  C1  UNL A   1      19.594  33.527  44.487  1.00  0.00    +0.000 C 
BRANCH    2    3
ATOM      3  N1  UNL A   1      19.269  32.361  45.131  1.00  0.00    +0.000 N 
ATOM     92  H1  UNL A   1      19.270  32.408  46.114  1.00  0.00    +0.000 H 
BRANCH    3    4
ATOM      4  C2  UNL A   1      18.924  31.066  44.570  1.00  0.00    +0.000 C 
ATOM     93  H2  UNL A   1      19.264  30.301  45.236  1.00  0.00    +0.000 H 
ATOM     94  H3  UNL A   1      19.394  30.989  43.613  1.00  0.00    +0.000 H 
BRANCH    4    5
ATOM      5  C3  UNL A   1      17.421  30.905  44.364  1.00  0.00    +0.000 C 
ATOM     95  H4  UNL A   1      17.021  31.857  44.082  1.00  0.00    +0.000 H 
ATOM     96  H5  UNL A   1      17.031  30.536  45.289  1.00  0.00    +0.000 H 
BRANCH    5    6
ATOM     97  H6  UNL A   1      17.384  30.236  42.353  1.00  0.00    +0.000 H 
ATOM     98  H7  UNL A   1      15.951  29.816  43.345  1.00  0.00    +0.000 H 
ATOM      6  C4  UNL A   1      17.018  29.887  43.296  1.00  0.00    +0.000 C 
BRANCH    6    7
ATOM     99  H8  UNL A   1      18.503  28.534  43.972  1.00  0.00    +0.000 H 
ATOM    100  H9  UNL A   1      17.559  28.011  42.539  1.00  0.00    +0.000 H 
ATOM      7  C5  UNL A   1      17.541  28.463  43.508  1.00  0.00    +0.000 C 
BRANCH    7    8
ATOM    101  H10 UNL A   1      15.641  27.758  44.137  1.00  0.00    +0.000 H 
ATOM    102  H11 UNL A   1      16.917  27.784  45.392  1.00  0.00    +0.000 H 
ATOM      8  C6  UNL A   1      16.664  27.557  44.378  1.00  0.00    +0.000 C 
BRANCH    8    9
ATOM      9  C7  UNL A   1      16.906  26.059  44.206  1.00  0.00    +0.000 C 
ATOM    103  H12 UNL A   1      17.344  25.675  45.103  1.00  0.00    +0.000 H 
ATOM    104  H13 UNL A   1      17.559  25.924  43.368  1.00  0.00    +0.000 H 
BRANCH    9   10
ATOM    105  H14 UNL A   1      15.610  24.444  44.349  1.00  0.00    +0.000 H 
ATOM     10  N2  UNL A   1      15.676  25.335  43.937  1.00  0.00    +0.000 N 
BRANCH   10   11
ATOM     11  C8  UNL A   1      14.596  25.723  43.188  1.00  0.00    +0.000 C 
ATOM     12  O2  UNL A   1      13.530  25.988  43.734  1.00  0.00    +0.000 O 
BRANCH   11   13
ATOM    106  H15 UNL A   1      15.101  27.900  41.750  1.00  0.00    +0.000 H 
ATOM    107  H16 UNL A   1      15.325  28.088  39.340  1.00  0.00    +0.000 H 
ATOM    108  H17 UNL A   1      15.064  26.131  37.941  1.00  0.00    +0.000 H 
ATOM     13  C9  UNL A   1      14.712  25.823  41.718  1.00  0.00    +0.000 C 
ATOM     14  C10 UNL A   1      14.989  27.067  41.151  1.00  0.00    +0.000 C 
ATOM     15  C11 UNL A   1      15.112  27.175  39.770  1.00  0.00    +0.000 C 
ATOM     16  C12 UNL A   1      14.948  26.044  38.963  1.00  0.00    +0.000 C 
ATOM     17  C13 UNL A   1      14.626  24.796  39.514  1.00  0.00    +0.000 C 
ATOM    114  H23 UNL A   1      14.265  23.795  41.336  1.00  0.00    +0.000 H 
ATOM     28  C20 UNL A   1      14.507  24.701  40.905  1.00  0.00    +0.000 C 
BRANCH   17   18
ATOM     18  N3  UNL A   1      14.489  23.617  38.746  1.00  0.00    +0.000 N 
ATOM    109  H18 UNL A   1      14.900  23.640  37.851  1.00  0.00    +0.000 H 
BRANCH   18   19
ATOM    110  H19 UNL A   1      14.635  21.331  37.461  1.00  0.00    +0.000 H 
ATOM    111  H20 UNL A   1      13.700  19.195  38.125  1.00  0.00    +0.000 H 
ATOM    112  H21 UNL A   1      11.917  21.020  41.475  1.00  0.00    +0.000 H 
ATOM    113  H22 UNL A   1      12.862  23.151  40.808  1.00  0.00    +0.000 H 
ATOM     19  C14 UNL A   1      13.844  22.415  39.091  1.00  0.00    +0.000 C 
ATOM     20  C15 UNL A   1      14.067  21.267  38.321  1.00  0.00    +0.000 C 
ATOM     21  C16 UNL A   1      13.529  20.035  38.701  1.00  0.00    +0.000 C 
ATOM     22  C17 UNL A   1      12.758  19.943  39.864  1.00  0.00    +0.000 C 
ATOM     26  C18 UNL A   1      12.503  21.084  40.629  1.00  0.00    +0.000 C 
ATOM     27  C19 UNL A   1      13.048  22.310  40.240  1.00  0.00    +0.000 C 
BRANCH   22   23
ATOM     25  O4  UNL A   1      11.502  17.878  39.437  1.00  0.00    +0.000 O 
ATOM     23  N4  UNL A   1      12.246  18.661  40.289  1.00  0.00    +0.000 N 
ATOM     24  O3  UNL A   1      12.434  18.254  41.416  1.00  0.00    +0.000 O 
ENDBRANCH   22   23
ENDBRANCH   18   19
ENDBRANCH   17   18
ENDBRANCH   11   13
ENDBRANCH   10   11
ENDBRANCH    9   10
ENDBRANCH    8    9
ENDBRANCH    7    8
ENDBRANCH    6    7
ENDBRANCH    5    6
ENDBRANCH    4    5
ENDBRANCH    3    4
ENDBRANCH    2    3
ENDBRANCH   29    2
ENDBRANCH   33   32
BRANCH   37   38
ATOM     38  C29 UNL A   1      23.349  42.022  49.168  1.00  0.00    +0.000 C 
ATOM     39  C30 UNL A   1      22.873  43.134  48.458  1.00  0.00    +0.000 C 
ATOM     40  F1  UNL A   1      23.352  43.411  47.235  1.00  0.00    +0.000 F 
ATOM     41  C31 UNL A   1      21.931  43.993  49.020  1.00  0.00    +0.000 C 
ATOM     42  F2  UNL A   1      21.530  45.079  48.344  1.00  0.00    +0.000 F 
ATOM     43  C32 UNL A   1      21.421  43.739  50.284  1.00  0.00    +0.000 C 
ATOM     44  F3  UNL A   1      20.517  44.568  50.823  1.00  0.00    +0.000 F 
ATOM     45  C33 UNL A   1      21.858  42.631  50.993  1.00  0.00    +0.000 C 
ATOM     46  F4  UNL A   1      21.359  42.376  52.211  1.00  0.00    +0.000 F 
ATOM     47  C34 UNL A   1      22.820  41.785  50.446  1.00  0.00    +0.000 C 
ATOM     48  F5  UNL A   1      23.235  40.732  51.164  1.00  0.00    +0.000 F 
ENDBRANCH   37   38
BRANCH   54   55
ATOM     65  F10 UNL A   1      30.925  40.558  50.100  1.00  0.00    +0.000 F 
ATOM     55  C40 UNL A   1      30.477  41.829  48.138  1.00  0.00    +0.000 C 
ATOM     56  C41 UNL A   1      30.831  42.921  47.335  1.00  0.00    +0.000 C 
ATOM     57  F6  UNL A   1      30.153  43.179  46.206  1.00  0.00    +0.000 F 
ATOM     58  C42 UNL A   1      31.901  43.743  47.680  1.00  0.00    +0.000 C 
ATOM     59  F7  UNL A   1      32.241  44.767  46.885  1.00  0.00    +0.000 F 
ATOM     60  C43 UNL A   1      32.619  43.501  48.842  1.00  0.00    +0.000 C 
ATOM     61  F8  UNL A   1      33.639  44.302  49.181  1.00  0.00    +0.000 F 
ATOM     62  C44 UNL A   1      32.282  42.427  49.653  1.00  0.00    +0.000 C 
ATOM     63  F9  UNL A   1      32.967  42.199  50.782  1.00  0.00    +0.000 F 
ATOM     64  C45 UNL A   1      31.228  41.591  49.299  1.00  0.00    +0.000 C 
ENDBRANCH   54   55
BRANCH   69   70
ATOM     70  C49 UNL A   1      29.748  35.758  44.762  1.00  0.00    +0.000 C 
ATOM     71  C50 UNL A   1      30.197  34.564  45.339  1.00  0.00    +0.000 C 
ATOM     72  F11 UNL A   1      29.856  34.261  46.599  1.00  0.00    +0.000 F 
ATOM     73  C51 UNL A   1      31.007  33.684  44.625  1.00  0.00    +0.000 C 
ATOM     74  F12 UNL A   1      31.438  32.555  45.205  1.00  0.00    +0.000 F 
ATOM     75  C52 UNL A   1      31.365  33.971  43.316  1.00  0.00    +0.000 C 
ATOM     76  F13 UNL A   1      32.126  33.113  42.624  1.00  0.00    +0.000 F 
ATOM     77  C53 UNL A   1      30.932  35.149  42.725  1.00  0.00    +0.000 C 
ATOM     78  F14 UNL A   1      31.260  35.421  41.455  1.00  0.00    +0.000 F 
ATOM     79  C54 UNL A   1      30.142  36.041  43.446  1.00  0.00    +0.000 C 
ATOM     80  F15 UNL A   1      29.728  37.168  42.848  1.00  0.00    +0.000 F 
ENDBRANCH   69   70
TORSDOF 18
ENDMDL
MODEL 7
REMARK VINA RESULT:      -9.1     43.902     50.781
ROOT
ATOM     33  C25 UNL A   1      10.750   2.895  21.474  1.00  0.00    +0.000 C 
ATOM     34  C26 UNL A   1       9.792   3.813  22.175  1.00  0.00    +0.000 C 
ATOM     35  N5  UNL A   1       9.333   4.978  21.790  1.00  0.00    +0.000 N 
ATOM     36  C27 UNL A   1       8.456   5.385  22.786  1.00  0.00    +0.000 C 
ATOM     37  C28 UNL A   1       7.743   6.535  22.860  1.00  0.00    +0.000 C 
ATOM     49  C35 UNL A   1       7.788   7.581  21.872  1.00  0.00    +0.000 C 
ATOM     50  C36 UNL A   1       7.148   8.809  21.883  1.00  0.00    +0.000 C 
ATOM     51  C37 UNL A   1       7.440   9.466  20.682  1.00  0.00    +0.000 C 
ATOM     52  C38 UNL A   1       8.302   8.670  19.945  1.00  0.00    +0.000 C 
ATOM     53  N6  UNL A   1       8.507   7.517  20.686  1.00  0.00    +0.000 N 
ATOM     54  C39 UNL A   1       8.890   8.939  18.656  1.00  0.00    +0.000 C 
ATOM     66  C46 UNL A   1       9.751   8.120  18.004  1.00  0.00    +0.000 C 
ATOM     67  N7  UNL A   1      10.252   6.890  18.404  1.00  0.00    +0.000 N 
ATOM     68  C47 UNL A   1      11.046   6.493  17.441  1.00  0.00    +0.000 C 
ATOM     69  C48 UNL A   1      11.865   5.239  17.352  1.00  0.00    +0.000 C 
ATOM     81  C55 UNL A   1      11.869   4.380  18.387  1.00  0.00    +0.000 C 
ATOM     82  C56 UNL A   1      12.602   3.118  18.429  1.00  0.00    +0.000 C 
ATOM     83  C57 UNL A   1      12.263   2.455  19.543  1.00  0.00    +0.000 C 
ATOM     84  C58 UNL A   1      11.328   3.271  20.319  1.00  0.00    +0.000 C 
ATOM     85  N8  UNL A   1      11.199   4.423  19.585  1.00  0.00    +0.000 N 
ATOM     86  C59 UNL A   1      11.123   7.420  16.303  1.00  0.00    +0.000 C 
ATOM     87  C60 UNL A   1      10.334   8.406  16.708  1.00  0.00    +0.000 C 
ATOM     88  C61 UNL A   1       8.428   4.333  23.780  1.00  0.00    +0.000 C 
ATOM     89  C62 UNL A   1       9.272   3.359  23.472  1.00  0.00    +0.000 C 
ATOM    117  H26 UNL A   1       6.557   9.176  22.645  1.00  0.00    +0.000 H 
ATOM    118  H27 UNL A   1       7.075  10.386  20.395  1.00  0.00    +0.000 H 
ATOM    119  H28 UNL A   1       9.080   6.763  20.413  1.00  0.00    +0.000 H 
ATOM    120  H29 UNL A   1      13.274   2.791  17.717  1.00  0.00    +0.000 H 
ATOM    121  H30 UNL A   1      12.605   1.519  19.812  1.00  0.00    +0.000 H 
ATOM    122  H31 UNL A   1      10.677   5.203  19.886  1.00  0.00    +0.000 H 
ATOM    123  H32 UNL A   1      11.652   7.327  15.422  1.00  0.00    +0.000 H 
ATOM    124  H33 UNL A   1      10.156   9.267  16.168  1.00  0.00    +0.000 H 
ATOM    125  H34 UNL A   1       7.829   4.341  24.621  1.00  0.00    +0.000 H 
ATOM    126  H35 UNL A   1       9.503   2.505  24.002  1.00  0.00    +0.000 H 
ENDROOT
BRANCH   33   32
ATOM    127  H36 UNL A   1       9.314   0.633  21.218  1.00  0.00    +0.000 H 
ATOM     32  C24 UNL A   1      11.043   1.549  22.022  1.00  0.00    +0.000 C 
ATOM    115  H24 UNL A   1      13.432  -0.138  23.672  1.00  0.00    +0.000 H 
ATOM    116  H25 UNL A   1      12.862   2.106  22.949  1.00  0.00    +0.000 H 
ATOM     90  C63 UNL A   1      10.168   0.479  21.776  1.00  0.00    +0.000 C 
ATOM     91  C64 UNL A   1      10.449  -0.790  22.283  1.00  0.00    +0.000 C 
ATOM     29  C21 UNL A   1      11.621  -1.004  23.013  1.00  0.00    +0.000 C 
ATOM     30  C22 UNL A   1      12.531   0.040  23.200  1.00  0.00    +0.000 C 
ATOM     31  C23 UNL A   1      12.222   1.321  22.748  1.00  0.00    +0.000 C 
ATOM    128  H37 UNL A   1       9.792  -1.570  22.119  1.00  0.00    +0.000 H 
BRANCH   29    2
ATOM      1  O1  UNL A   1      11.990  -3.305  22.759  1.00  0.00    +0.000 O 
ATOM      2  C1  UNL A   1      11.894  -2.359  23.537  1.00  0.00    +0.000 C 
BRANCH    2    3
ATOM      3  N1  UNL A   1      12.027  -2.564  24.887  1.00  0.00    +0.000 N 
ATOM     92  H1  UNL A   1      11.294  -3.066  25.311  1.00  0.00    +0.000 H 
BRANCH    3    4
ATOM      4  C2  UNL A   1      13.093  -2.145  25.780  1.00  0.00    +0.000 C 
ATOM     93  H2  UNL A   1      13.636  -1.348  25.317  1.00  0.00    +0.000 H 
ATOM     94  H3  UNL A   1      13.719  -2.992  25.961  1.00  0.00    +0.000 H 
BRANCH    4    5
ATOM      5  C3  UNL A   1      12.565  -1.661  27.127  1.00  0.00    +0.000 C 
ATOM     95  H4  UNL A   1      12.462  -0.596  27.079  1.00  0.00    +0.000 H 
ATOM     96  H5  UNL A   1      13.274  -1.988  27.860  1.00  0.00    +0.000 H 
BRANCH    5    6
ATOM     97  H6  UNL A   1      11.353  -2.754  28.479  1.00  0.00    +0.000 H 
ATOM     98  H7  UNL A   1      10.916  -2.894  26.746  1.00  0.00    +0.000 H 
ATOM      6  C4  UNL A   1      11.217  -2.249  27.546  1.00  0.00    +0.000 C 
BRANCH    6    7
ATOM     99  H8  UNL A   1      10.476  -0.381  28.222  1.00  0.00    +0.000 H 
ATOM    100  H9  UNL A   1       9.316  -1.748  28.266  1.00  0.00    +0.000 H 
ATOM      7  C5  UNL A   1      10.080  -1.238  27.718  1.00  0.00    +0.000 C 
BRANCH    7    8
ATOM    101  H10 UNL A   1       8.364  -0.681  26.599  1.00  0.00    +0.000 H 
ATOM    102  H11 UNL A   1       9.674  -1.478  25.675  1.00  0.00    +0.000 H 
ATOM      8  C6  UNL A   1       9.417  -0.758  26.423  1.00  0.00    +0.000 C 
BRANCH    8    9
ATOM      9  C7  UNL A   1       9.911   0.589  25.901  1.00  0.00    +0.000 C 
ATOM    103  H12 UNL A   1       9.159   1.010  25.267  1.00  0.00    +0.000 H 
ATOM    104  H13 UNL A   1      10.821   0.421  25.362  1.00  0.00    +0.000 H 
BRANCH    9   10
ATOM    105  H14 UNL A   1      11.032   1.364  27.466  1.00  0.00    +0.000 H 
ATOM     10  N2  UNL A   1      10.193   1.522  26.978  1.00  0.00    +0.000 N 
BRANCH   10   11
ATOM     11  C8  UNL A   1       9.450   2.591  27.406  1.00  0.00    +0.000 C 
ATOM     12  O2  UNL A   1       8.285   2.719  27.042  1.00  0.00    +0.000 O 
BRANCH   11   13
ATOM    106  H15 UNL A   1       8.277   3.856  29.427  1.00  0.00    +0.000 H 
ATOM    107  H16 UNL A   1       9.247   5.487  30.942  1.00  0.00    +0.000 H 
ATOM    108  H17 UNL A   1      11.560   6.152  30.689  1.00  0.00    +0.000 H 
ATOM     13  C9  UNL A   1      10.051   3.594  28.309  1.00  0.00    +0.000 C 
ATOM     14  C10 UNL A   1       9.263   4.143  29.321  1.00  0.00    +0.000 C 
ATOM     15  C11 UNL A   1       9.818   5.081  30.185  1.00  0.00    +0.000 C 
ATOM     16  C12 UNL A   1      11.152   5.473  30.028  1.00  0.00    +0.000 C 
ATOM     17  C13 UNL A   1      11.944   4.964  28.990  1.00  0.00    +0.000 C 
ATOM    114  H23 UNL A   1      11.933   3.633  27.353  1.00  0.00    +0.000 H 
ATOM     28  C20 UNL A   1      11.374   4.020  28.129  1.00  0.00    +0.000 C 
BRANCH   17   18
ATOM     18  N3  UNL A   1      13.306   5.298  28.813  1.00  0.00    +0.000 N 
ATOM    109  H18 UNL A   1      13.504   6.260  28.748  1.00  0.00    +0.000 H 
BRANCH   18   19
ATOM    110  H19 UNL A   1      13.735   3.127  30.228  1.00  0.00    +0.000 H 
ATOM    111  H20 UNL A   1      15.527   1.516  29.963  1.00  0.00    +0.000 H 
ATOM    112  H21 UNL A   1      17.217   3.898  26.929  1.00  0.00    +0.000 H 
ATOM    113  H22 UNL A   1      15.416   5.500  27.194  1.00  0.00    +0.000 H 
ATOM     19  C14 UNL A   1      14.415   4.437  28.718  1.00  0.00    +0.000 C 
ATOM     20  C15 UNL A   1      14.467   3.288  29.518  1.00  0.00    +0.000 C 
ATOM     21  C16 UNL A   1      15.499   2.359  29.368  1.00  0.00    +0.000 C 
ATOM     22  C17 UNL A   1      16.494   2.574  28.409  1.00  0.00    +0.000 C 
ATOM     26  C18 UNL A   1      16.472   3.728  27.622  1.00  0.00    +0.000 C 
ATOM     27  C19 UNL A   1      15.433   4.650  27.779  1.00  0.00    +0.000 C 
BRANCH   22   23
ATOM     25  O4  UNL A   1      18.826   1.835  28.611  1.00  0.00    +0.000 O 
ATOM     23  N4  UNL A   1      17.532   1.589  28.214  1.00  0.00    +0.000 N 
ATOM     24  O3  UNL A   1      17.296   0.530  27.670  1.00  0.00    +0.000 O 
ENDBRANCH   22   23
ENDBRANCH   18   19
ENDBRANCH   17   18
ENDBRANCH   11   13
ENDBRANCH   10   11
ENDBRANCH    9   10
ENDBRANCH    8    9
ENDBRANCH    7    8
ENDBRANCH    6    7
ENDBRANCH    5    6
ENDBRANCH    4    5
ENDBRANCH    3    4
ENDBRANCH    2    3
ENDBRANCH   29    2
ENDBRANCH   33   32
BRANCH   37   38
ATOM     38  C29 UNL A   1       6.829   6.709  24.038  1.00  0.00    +0.000 C 
ATOM     39  C30 UNL A   1       5.533   6.173  24.055  1.00  0.00    +0.000 C 
ATOM     40  F1  UNL A   1       5.063   5.508  22.988  1.00  0.00    +0.000 F 
ATOM     41  C31 UNL A   1       4.697   6.354  25.154  1.00  0.00    +0.000 C 
ATOM     42  F2  UNL A   1       3.444   5.878  25.126  1.00  0.00    +0.000 F 
ATOM     43  C32 UNL A   1       5.150   7.044  26.269  1.00  0.00    +0.000 C 
ATOM     44  F3  UNL A   1       4.343   7.219  27.324  1.00  0.00    +0.000 F 
ATOM     45  C33 UNL A   1       6.436   7.560  26.285  1.00  0.00    +0.000 C 
ATOM     46  F4  UNL A   1       6.881   8.217  27.366  1.00  0.00    +0.000 F 
ATOM     47  C34 UNL A   1       7.265   7.404  25.176  1.00  0.00    +0.000 C 
ATOM     48  F5  UNL A   1       8.498   7.931  25.216  1.00  0.00    +0.000 F 
ENDBRANCH   37   38
BRANCH   54   55
ATOM     65  F10 UNL A   1       6.678   9.244  16.903  1.00  0.00    +0.000 F 
ATOM     55  C40 UNL A   1       8.543  10.240  17.996  1.00  0.00    +0.000 C 
ATOM     56  C41 UNL A   1       9.325  11.388  18.182  1.00  0.00    +0.000 C 
ATOM     57  F6  UNL A   1      10.366  11.366  19.027  1.00  0.00    +0.000 F 
ATOM     58  C42 UNL A   1       9.024  12.572  17.513  1.00  0.00    +0.000 C 
ATOM     59  F7  UNL A   1       9.768  13.666  17.725  1.00  0.00    +0.000 F 
ATOM     60  C43 UNL A   1       7.954  12.622  16.632  1.00  0.00    +0.000 C 
ATOM     61  F8  UNL A   1       7.676  13.758  15.977  1.00  0.00    +0.000 F 
ATOM     62  C44 UNL A   1       7.170  11.496  16.431  1.00  0.00    +0.000 C 
ATOM     63  F9  UNL A   1       6.143  11.539  15.571  1.00  0.00    +0.000 F 
ATOM     64  C45 UNL A   1       7.454  10.318  17.115  1.00  0.00    +0.000 C 
ENDBRANCH   54   55
BRANCH   69   70
ATOM     70  C49 UNL A   1      12.674   4.919  16.150  1.00  0.00    +0.000 C 
ATOM     71  C50 UNL A   1      12.107   4.253  15.057  1.00  0.00    +0.000 C 
ATOM     72  F11 UNL A   1      10.839   3.823  15.120  1.00  0.00    +0.000 F 
ATOM     73  C51 UNL A   1      12.846   4.017  13.899  1.00  0.00    +0.000 C 
ATOM     74  F12 UNL A   1      12.287   3.362  12.873  1.00  0.00    +0.000 F 
ATOM     75  C52 UNL A   1      14.157   4.461  13.807  1.00  0.00    +0.000 C 
ATOM     76  F13 UNL A   1      14.859   4.253  12.685  1.00  0.00    +0.000 F 
ATOM     77  C53 UNL A   1      14.739   5.122  14.878  1.00  0.00    +0.000 C 
ATOM     78  F14 UNL A   1      15.999   5.569  14.787  1.00  0.00    +0.000 F 
ATOM     79  C54 UNL A   1      14.008   5.337  16.045  1.00  0.00    +0.000 C 
ATOM     80  F15 UNL A   1      14.591   5.988  17.062  1.00  0.00    +0.000 F 
ENDBRANCH   69   70
TORSDOF 18
ENDMDL
MODEL 8
REMARK VINA RESULT:      -9.1     28.330     33.273
ROOT
ATOM     33  C25 UNL A   1      20.881  18.409   5.655  1.00  0.00    +0.000 C 
ATOM     34  C26 UNL A   1      20.677  19.442   4.587  1.00  0.00    +0.000 C 
ATOM     35  N5  UNL A   1      19.617  20.167   4.330  1.00  0.00    +0.000 N 
ATOM     36  C27 UNL A   1      19.968  20.986   3.266  1.00  0.00    +0.000 C 
ATOM     37  C28 UNL A   1      19.204  21.901   2.620  1.00  0.00    +0.000 C 
ATOM     49  C35 UNL A   1      17.829  22.180   2.943  1.00  0.00    +0.000 C 
ATOM     50  C36 UNL A   1      16.952  23.046   2.313  1.00  0.00    +0.000 C 
ATOM     51  C37 UNL A   1      15.743  23.032   3.015  1.00  0.00    +0.000 C 
ATOM     52  C38 UNL A   1      15.848  22.120   4.053  1.00  0.00    +0.000 C 
ATOM     53  N6  UNL A   1      17.133  21.604   3.998  1.00  0.00    +0.000 N 
ATOM     54  C39 UNL A   1      14.851  21.751   5.028  1.00  0.00    +0.000 C 
ATOM     66  C46 UNL A   1      15.018  20.826   6.004  1.00  0.00    +0.000 C 
ATOM     67  N7  UNL A   1      16.132  20.047   6.281  1.00  0.00    +0.000 N 
ATOM     68  C47 UNL A   1      15.807  19.306   7.312  1.00  0.00    +0.000 C 
ATOM     69  C48 UNL A   1      16.626  18.270   8.022  1.00  0.00    +0.000 C 
ATOM     81  C55 UNL A   1      17.856  17.974   7.564  1.00  0.00    +0.000 C 
ATOM     82  C56 UNL A   1      18.766  17.004   8.167  1.00  0.00    +0.000 C 
ATOM     83  C57 UNL A   1      19.949  17.072   7.541  1.00  0.00    +0.000 C 
ATOM     84  C58 UNL A   1      19.863  18.055   6.461  1.00  0.00    +0.000 C 
ATOM     85  N8  UNL A   1      18.565  18.496   6.510  1.00  0.00    +0.000 N 
ATOM     86  C59 UNL A   1      14.451  19.548   7.824  1.00  0.00    +0.000 C 
ATOM     87  C60 UNL A   1      14.005  20.466   6.976  1.00  0.00    +0.000 C 
ATOM     88  C61 UNL A   1      21.347  20.687   2.941  1.00  0.00    +0.000 C 
ATOM     89  C62 UNL A   1      21.818  19.707   3.700  1.00  0.00    +0.000 C 
ATOM    117  H26 UNL A   1      17.156  23.606   1.470  1.00  0.00    +0.000 H 
ATOM    118  H27 UNL A   1      14.912  23.604   2.798  1.00  0.00    +0.000 H 
ATOM    119  H28 UNL A   1      17.499  20.928   4.614  1.00  0.00    +0.000 H 
ATOM    120  H29 UNL A   1      18.534  16.368   8.946  1.00  0.00    +0.000 H 
ATOM    121  H30 UNL A   1      20.788  16.522   7.783  1.00  0.00    +0.000 H 
ATOM    122  H31 UNL A   1      18.179  19.124   5.856  1.00  0.00    +0.000 H 
ATOM    123  H32 UNL A   1      13.972  19.117   8.630  1.00  0.00    +0.000 H 
ATOM    124  H33 UNL A   1      13.057  20.873   7.006  1.00  0.00    +0.000 H 
ATOM    125  H34 UNL A   1      21.893  21.174   2.213  1.00  0.00    +0.000 H 
ATOM    126  H35 UNL A   1      22.742  19.250   3.674  1.00  0.00    +0.000 H 
ENDROOT
BRANCH   33   32
ATOM    127  H36 UNL A   1      23.027  19.438   6.913  1.00  0.00    +0.000 H 
ATOM     32  C24 UNL A   1      22.213  17.791   5.864  1.00  0.00    +0.000 C 
ATOM    115  H24 UNL A   1      23.851  14.896   5.409  1.00  0.00    +0.000 H 
ATOM    116  H25 UNL A   1      21.741  15.972   4.891  1.00  0.00    +0.000 H 
ATOM     90  C63 UNL A   1      23.216  18.489   6.556  1.00  0.00    +0.000 C 
ATOM     91  C64 UNL A   1      24.466  17.904   6.761  1.00  0.00    +0.000 C 
ATOM     29  C21 UNL A   1      24.711  16.607   6.303  1.00  0.00    +0.000 C 
ATOM     30  C22 UNL A   1      23.693  15.880   5.677  1.00  0.00    +0.000 C 
ATOM     31  C23 UNL A   1      22.466  16.485   5.416  1.00  0.00    +0.000 C 
ATOM    128  H37 UNL A   1      25.208  18.429   7.250  1.00  0.00    +0.000 H 
BRANCH   29    2
ATOM      1  O1  UNL A   1      26.185  15.157   7.406  1.00  0.00    +0.000 O 
ATOM      2  C1  UNL A   1      26.044  16.012   6.535  1.00  0.00    +0.000 C 
BRANCH    2    3
ATOM      3  N1  UNL A   1      27.122  16.420   5.791  1.00  0.00    +0.000 N 
ATOM     92  H1  UNL A   1      27.216  15.984   4.914  1.00  0.00    +0.000 H 
BRANCH    3    4
ATOM      4  C2  UNL A   1      28.143  17.402   6.112  1.00  0.00    +0.000 C 
ATOM     93  H2  UNL A   1      27.669  18.345   6.289  1.00  0.00    +0.000 H 
ATOM     94  H3  UNL A   1      28.819  17.451   5.286  1.00  0.00    +0.000 H 
BRANCH    4    5
ATOM      5  C3  UNL A   1      28.948  17.018   7.350  1.00  0.00    +0.000 C 
ATOM     95  H4  UNL A   1      29.982  16.975   7.072  1.00  0.00    +0.000 H 
ATOM     96  H5  UNL A   1      28.557  16.079   7.681  1.00  0.00    +0.000 H 
BRANCH    5    6
ATOM     97  H6  UNL A   1      29.174  18.936   8.223  1.00  0.00    +0.000 H 
ATOM     98  H7  UNL A   1      29.385  17.541   9.330  1.00  0.00    +0.000 H 
ATOM      6  C4  UNL A   1      28.816  17.977   8.534  1.00  0.00    +0.000 C 
BRANCH    6    7
ATOM     99  H8  UNL A   1      27.441  18.048  10.146  1.00  0.00    +0.000 H 
ATOM    100  H9  UNL A   1      26.799  17.418   8.593  1.00  0.00    +0.000 H 
ATOM      7  C5  UNL A   1      27.398  18.158   9.082  1.00  0.00    +0.000 C 
BRANCH    7    8
ATOM    101  H10 UNL A   1      25.894  19.616   9.426  1.00  0.00    +0.000 H 
ATOM    102  H11 UNL A   1      26.472  19.475   7.738  1.00  0.00    +0.000 H 
ATOM      8  C6  UNL A   1      26.735  19.505   8.774  1.00  0.00    +0.000 C 
BRANCH    8    9
ATOM      9  C7  UNL A   1      27.634  20.726   8.949  1.00  0.00    +0.000 C 
ATOM    103  H12 UNL A   1      27.398  21.440   8.187  1.00  0.00    +0.000 H 
ATOM    104  H13 UNL A   1      28.651  20.401   8.872  1.00  0.00    +0.000 H 
BRANCH    9   10
ATOM    105  H14 UNL A   1      27.572  22.329  10.266  1.00  0.00    +0.000 H 
ATOM     10  N2  UNL A   1      27.460  21.352  10.247  1.00  0.00    +0.000 N 
BRANCH   10   11
ATOM     11  C8  UNL A   1      27.160  20.767  11.450  1.00  0.00    +0.000 C 
ATOM     12  O2  UNL A   1      28.002  20.094  12.036  1.00  0.00    +0.000 O 
BRANCH   11   13
ATOM    106  H15 UNL A   1      26.151  22.976  12.530  1.00  0.00    +0.000 H 
ATOM    107  H16 UNL A   1      23.946  23.306  13.489  1.00  0.00    +0.000 H 
ATOM    108  H17 UNL A   1      22.365  21.475  13.553  1.00  0.00    +0.000 H 
ATOM     13  C9  UNL A   1      25.820  20.946  12.046  1.00  0.00    +0.000 C 
ATOM     14  C10 UNL A   1      25.476  22.196  12.560  1.00  0.00    +0.000 C 
ATOM     15  C11 UNL A   1      24.213  22.383  13.114  1.00  0.00    +0.000 C 
ATOM     16  C12 UNL A   1      23.306  21.319  13.161  1.00  0.00    +0.000 C 
ATOM     17  C13 UNL A   1      23.652  20.045  12.688  1.00  0.00    +0.000 C 
ATOM    114  H23 UNL A   1      25.206  18.943  11.782  1.00  0.00    +0.000 H 
ATOM     28  C20 UNL A   1      24.924  19.872  12.132  1.00  0.00    +0.000 C 
BRANCH   17   18
ATOM     18  N3  UNL A   1      22.759  18.949  12.677  1.00  0.00    +0.000 N 
ATOM    109  H18 UNL A   1      22.007  19.005  13.310  1.00  0.00    +0.000 H 
BRANCH   18   19
ATOM    110  H19 UNL A   1      22.155  18.769  10.128  1.00  0.00    +0.000 H 
ATOM    111  H20 UNL A   1      22.403  16.841   8.679  1.00  0.00    +0.000 H 
ATOM    112  H21 UNL A   1      23.695  14.542  11.962  1.00  0.00    +0.000 H 
ATOM    113  H22 UNL A   1      23.452  16.478  13.403  1.00  0.00    +0.000 H 
ATOM     19  C14 UNL A   1      22.804  17.789  11.882  1.00  0.00    +0.000 C 
ATOM     20  C15 UNL A   1      22.493  17.875  10.519  1.00  0.00    +0.000 C 
ATOM     21  C16 UNL A   1      22.635  16.766   9.682  1.00  0.00    +0.000 C 
ATOM     22  C17 UNL A   1      23.091  15.553  10.208  1.00  0.00    +0.000 C 
ATOM     26  C18 UNL A   1      23.379  15.443  11.570  1.00  0.00    +0.000 C 
ATOM     27  C19 UNL A   1      23.236  16.560  12.397  1.00  0.00    +0.000 C 
BRANCH   22   23
ATOM     25  O4  UNL A   1      24.432  13.657   9.412  1.00  0.00    +0.000 O 
ATOM     23  N4  UNL A   1      23.289  14.419   9.335  1.00  0.00    +0.000 N 
ATOM     24  O3  UNL A   1      22.467  14.126   8.492  1.00  0.00    +0.000 O 
ENDBRANCH   22   23
ENDBRANCH   18   19
ENDBRANCH   17   18
ENDBRANCH   11   13
ENDBRANCH   10   11
ENDBRANCH    9   10
ENDBRANCH    8    9
ENDBRANCH    7    8
ENDBRANCH    6    7
ENDBRANCH    5    6
ENDBRANCH    4    5
ENDBRANCH    3    4
ENDBRANCH    2    3
ENDBRANCH   29    2
ENDBRANCH   33   32
BRANCH   37   38
ATOM     38  C29 UNL A   1      19.850  22.688   1.518  1.00  0.00    +0.000 C 
ATOM     39  C30 UNL A   1      20.621  23.830   1.777  1.00  0.00    +0.000 C 
ATOM     40  F1  UNL A   1      20.776  24.269   3.036  1.00  0.00    +0.000 F 
ATOM     41  C31 UNL A   1      21.204  24.553   0.738  1.00  0.00    +0.000 C 
ATOM     42  F2  UNL A   1      21.892  25.671   1.006  1.00  0.00    +0.000 F 
ATOM     43  C32 UNL A   1      21.056  24.130  -0.574  1.00  0.00    +0.000 C 
ATOM     44  F3  UNL A   1      21.615  24.828  -1.572  1.00  0.00    +0.000 F 
ATOM     45  C33 UNL A   1      20.319  22.989  -0.852  1.00  0.00    +0.000 C 
ATOM     46  F4  UNL A   1      20.184  22.571  -2.119  1.00  0.00    +0.000 F 
ATOM     47  C34 UNL A   1      19.713  22.279   0.182  1.00  0.00    +0.000 C 
ATOM     48  F5  UNL A   1      18.992  21.190  -0.121  1.00  0.00    +0.000 F 
ENDBRANCH   37   38
BRANCH   54   55
ATOM     65  F10 UNL A   1      14.232  24.152   6.411  1.00  0.00    +0.000 F 
ATOM     55  C40 UNL A   1      13.514  22.425   4.938  1.00  0.00    +0.000 C 
ATOM     56  C41 UNL A   1      12.467  21.880   4.184  1.00  0.00    +0.000 C 
ATOM     57  F6  UNL A   1      12.667  20.773   3.453  1.00  0.00    +0.000 F 
ATOM     58  C42 UNL A   1      11.214  22.485   4.161  1.00  0.00    +0.000 C 
ATOM     59  F7  UNL A   1      10.232  21.963   3.412  1.00  0.00    +0.000 F 
ATOM     60  C43 UNL A   1      10.979  23.630   4.909  1.00  0.00    +0.000 C 
ATOM     61  F8  UNL A   1       9.767  24.203   4.899  1.00  0.00    +0.000 F 
ATOM     62  C44 UNL A   1      12.001  24.184   5.666  1.00  0.00    +0.000 C 
ATOM     63  F9  UNL A   1      11.773  25.283   6.398  1.00  0.00    +0.000 F 
ATOM     64  C45 UNL A   1      13.261  23.594   5.672  1.00  0.00    +0.000 C 
ENDBRANCH   54   55
BRANCH   69   70
ATOM     70  C49 UNL A   1      16.115  17.558   9.220  1.00  0.00    +0.000 C 
ATOM     71  C50 UNL A   1      16.032  18.203  10.460  1.00  0.00    +0.000 C 
ATOM     72  F11 UNL A   1      16.492  19.455  10.595  1.00  0.00    +0.000 F 
ATOM     73  C51 UNL A   1      15.485  17.559  11.568  1.00  0.00    +0.000 C 
ATOM     74  F12 UNL A   1      15.431  18.191  12.748  1.00  0.00    +0.000 F 
ATOM     75  C52 UNL A   1      14.994  16.267  11.450  1.00  0.00    +0.000 C 
ATOM     76  F13 UNL A   1      14.448  15.657  12.511  1.00  0.00    +0.000 F 
ATOM     77  C53 UNL A   1      15.067  15.609  10.232  1.00  0.00    +0.000 C 
ATOM     78  F14 UNL A   1      14.577  14.367  10.109  1.00  0.00    +0.000 F 
ATOM     79  C54 UNL A   1      15.636  16.243   9.130  1.00  0.00    +0.000 C 
ATOM     80  F15 UNL A   1      15.685  15.589   7.960  1.00  0.00    +0.000 F 
ENDBRANCH   69   70
TORSDOF 18
ENDMDL
MODEL 9
REMARK VINA RESULT:      -9.0     28.699     34.011
ROOT
ATOM     33  C25 UNL A   1      18.428  17.109   7.017  1.00  0.00    +0.000 C 
ATOM     34  C26 UNL A   1      18.431  18.240   6.031  1.00  0.00    +0.000 C 
ATOM     35  N5  UNL A   1      17.584  19.231   5.907  1.00  0.00    +0.000 N 
ATOM     36  C27 UNL A   1      18.066  20.011   4.865  1.00  0.00    +0.000 C 
ATOM     37  C28 UNL A   1      17.529  21.139   4.340  1.00  0.00    +0.000 C 
ATOM     49  C35 UNL A   1      16.301  21.739   4.795  1.00  0.00    +0.000 C 
ATOM     50  C36 UNL A   1      15.643  22.848   4.293  1.00  0.00    +0.000 C 
ATOM     51  C37 UNL A   1      14.523  23.093   5.094  1.00  0.00    +0.000 C 
ATOM     52  C38 UNL A   1      14.454  22.107   6.066  1.00  0.00    +0.000 C 
ATOM     53  N6  UNL A   1      15.551  21.283   5.871  1.00  0.00    +0.000 N 
ATOM     54  C39 UNL A   1      13.464  21.935   7.100  1.00  0.00    +0.000 C 
ATOM     66  C46 UNL A   1      13.447  20.925   8.004  1.00  0.00    +0.000 C 
ATOM     67  N7  UNL A   1      14.332  19.865   8.139  1.00  0.00    +0.000 N 
ATOM     68  C47 UNL A   1      13.894  19.157   9.150  1.00  0.00    +0.000 C 
ATOM     69  C48 UNL A   1      14.457  17.892   9.728  1.00  0.00    +0.000 C 
ATOM     81  C55 UNL A   1      15.531  17.324   9.151  1.00  0.00    +0.000 C 
ATOM     82  C56 UNL A   1      16.192  16.109   9.617  1.00  0.00    +0.000 C 
ATOM     83  C57 UNL A   1      17.307  15.918   8.897  1.00  0.00    +0.000 C 
ATOM     84  C58 UNL A   1      17.409  16.969   7.885  1.00  0.00    +0.000 C 
ATOM     85  N8  UNL A   1      16.280  17.726   8.071  1.00  0.00    +0.000 N 
ATOM     86  C59 UNL A   1      12.688  19.700   9.790  1.00  0.00    +0.000 C 
ATOM     87  C60 UNL A   1      12.443  20.765   9.037  1.00  0.00    +0.000 C 
ATOM     88  C61 UNL A   1      19.293  19.393   4.407  1.00  0.00    +0.000 C 
ATOM     89  C62 UNL A   1      19.538  18.269   5.065  1.00  0.00    +0.000 C 
ATOM    117  H26 UNL A   1      15.929  23.399   3.468  1.00  0.00    +0.000 H 
ATOM    118  H27 UNL A   1      13.860  23.875   4.981  1.00  0.00    +0.000 H 
ATOM    119  H28 UNL A   1      15.766  20.490   6.414  1.00  0.00    +0.000 H 
ATOM    120  H29 UNL A   1      15.855  15.496  10.375  1.00  0.00    +0.000 H 
ATOM    121  H30 UNL A   1      17.985  15.152   9.035  1.00  0.00    +0.000 H 
ATOM    122  H31 UNL A   1      16.030  18.481   7.489  1.00  0.00    +0.000 H 
ATOM    123  H32 UNL A   1      12.168  19.347  10.608  1.00  0.00    +0.000 H 
ATOM    124  H33 UNL A   1      11.640  21.400   9.172  1.00  0.00    +0.000 H 
ATOM    125  H34 UNL A   1      19.897  19.777   3.663  1.00  0.00    +0.000 H 
ATOM    126  H35 UNL A   1      20.306  17.592   4.934  1.00  0.00    +0.000 H 
ENDROOT
BRANCH   33   32
ATOM    127  H36 UNL A   1      20.547  17.123   8.677  1.00  0.00    +0.000 H 
ATOM     32  C24 UNL A   1      19.560  16.154   7.075  1.00  0.00    +0.000 C 
ATOM    115  H24 UNL A   1      20.608  13.257   5.739  1.00  0.00    +0.000 H 
ATOM    116  H25 UNL A   1      18.859  14.921   5.505  1.00  0.00    +0.000 H 
ATOM     90  C63 UNL A   1      20.582  16.325   8.023  1.00  0.00    +0.000 C 
ATOM     91  C64 UNL A   1      21.643  15.421   8.085  1.00  0.00    +0.000 C 
ATOM     29  C21 UNL A   1      21.673  14.324   7.220  1.00  0.00    +0.000 C 
ATOM     30  C22 UNL A   1      20.623  14.109   6.323  1.00  0.00    +0.000 C 
ATOM     31  C23 UNL A   1      19.596  15.044   6.217  1.00  0.00    +0.000 C 
ATOM    128  H37 UNL A   1      22.403  15.563   8.768  1.00  0.00    +0.000 H 
BRANCH   29    2
ATOM      1  O1  UNL A   1      22.924  12.658   8.294  1.00  0.00    +0.000 O 
ATOM      2  C1  UNL A   1      22.809  13.382   7.308  1.00  0.00    +0.000 C 
BRANCH    2    3
ATOM      3  N1  UNL A   1      23.737  13.323   6.301  1.00  0.00    +0.000 N 
ATOM     92  H1  UNL A   1      23.977  12.416   6.001  1.00  0.00    +0.000 H 
BRANCH    3    4
ATOM      4  C2  UNL A   1      24.418  14.406   5.612  1.00  0.00    +0.000 C 
ATOM     93  H2  UNL A   1      23.688  15.010   5.115  1.00  0.00    +0.000 H 
ATOM     94  H3  UNL A   1      25.105  13.971   4.919  1.00  0.00    +0.000 H 
BRANCH    4    5
ATOM      5  C3  UNL A   1      25.217  15.289   6.566  1.00  0.00    +0.000 C 
ATOM     95  H4  UNL A   1      26.182  15.455   6.134  1.00  0.00    +0.000 H 
ATOM     96  H5  UNL A   1      25.252  14.765   7.499  1.00  0.00    +0.000 H 
BRANCH    5    6
ATOM     97  H6  UNL A   1      25.385  17.341   7.070  1.00  0.00    +0.000 H 
ATOM     98  H7  UNL A   1      23.932  16.497   7.696  1.00  0.00    +0.000 H 
ATOM      6  C4  UNL A   1      24.592  16.652   6.867  1.00  0.00    +0.000 C 
BRANCH    6    7
ATOM     99  H8  UNL A   1      22.781  17.509   6.172  1.00  0.00    +0.000 H 
ATOM    100  H9  UNL A   1      23.670  16.488   4.994  1.00  0.00    +0.000 H 
ATOM      7  C5  UNL A   1      23.728  17.244   5.749  1.00  0.00    +0.000 C 
BRANCH    7    8
ATOM    101  H10 UNL A   1      24.669  19.146   5.814  1.00  0.00    +0.000 H 
ATOM    102  H11 UNL A   1      23.498  18.900   4.483  1.00  0.00    +0.000 H 
ATOM      8  C6  UNL A   1      24.299  18.486   5.057  1.00  0.00    +0.000 C 
BRANCH    8    9
ATOM      9  C7  UNL A   1      25.432  18.215   4.069  1.00  0.00    +0.000 C 
ATOM    103  H12 UNL A   1      25.371  18.926   3.271  1.00  0.00    +0.000 H 
ATOM    104  H13 UNL A   1      25.320  17.215   3.704  1.00  0.00    +0.000 H 
BRANCH    9   10
ATOM    105  H14 UNL A   1      27.383  17.619   4.451  1.00  0.00    +0.000 H 
ATOM     10  N2  UNL A   1      26.738  18.322   4.694  1.00  0.00    +0.000 N 
BRANCH   10   11
ATOM     11  C8  UNL A   1      27.196  19.266   5.575  1.00  0.00    +0.000 C 
ATOM     12  O2  UNL A   1      27.431  20.407   5.189  1.00  0.00    +0.000 O 
BRANCH   11   13
ATOM    106  H15 UNL A   1      29.136  17.763   6.594  1.00  0.00    +0.000 H 
ATOM    107  H16 UNL A   1      29.525  17.190   8.921  1.00  0.00    +0.000 H 
ATOM    108  H17 UNL A   1      28.029  18.008  10.638  1.00  0.00    +0.000 H 
ATOM     13  C9  UNL A   1      27.409  18.913   6.993  1.00  0.00    +0.000 C 
ATOM     14  C10 UNL A   1      28.499  18.109   7.328  1.00  0.00    +0.000 C 
ATOM     15  C11 UNL A   1      28.718  17.777   8.661  1.00  0.00    +0.000 C 
ATOM     16  C12 UNL A   1      27.844  18.241   9.650  1.00  0.00    +0.000 C 
ATOM     17  C13 UNL A   1      26.720  19.013   9.326  1.00  0.00    +0.000 C 
ATOM    114  H23 UNL A   1      25.689  19.904   7.715  1.00  0.00    +0.000 H 
ATOM     28  C20 UNL A   1      26.512  19.342   7.982  1.00  0.00    +0.000 C 
BRANCH   17   18
ATOM     18  N3  UNL A   1      25.830  19.538  10.290  1.00  0.00    +0.000 N 
ATOM    109  H18 UNL A   1      25.743  20.519  10.301  1.00  0.00    +0.000 H 
BRANCH   18   19
ATOM    110  H19 UNL A   1      23.867  17.867   9.791  1.00  0.00    +0.000 H 
ATOM    111  H20 UNL A   1      22.637  16.508  11.379  1.00  0.00    +0.000 H 
ATOM    112  H21 UNL A   1      24.774  18.280  14.546  1.00  0.00    +0.000 H 
ATOM    113  H22 UNL A   1      26.006  19.629  12.951  1.00  0.00    +0.000 H 
ATOM     19  C14 UNL A   1      25.054  18.845  11.238  1.00  0.00    +0.000 C 
ATOM     20  C15 UNL A   1      24.070  17.949  10.800  1.00  0.00    +0.000 C 
ATOM     21  C16 UNL A   1      23.360  17.165  11.713  1.00  0.00    +0.000 C 
ATOM     22  C17 UNL A   1      23.630  17.275  13.080  1.00  0.00    +0.000 C 
ATOM     26  C18 UNL A   1      24.589  18.184  13.535  1.00  0.00    +0.000 C 
ATOM     27  C19 UNL A   1      25.295  18.960  12.613  1.00  0.00    +0.000 C 
BRANCH   22   23
ATOM     25  O4  UNL A   1      22.226  16.966  15.069  1.00  0.00    +0.000 O 
ATOM     23  N4  UNL A   1      22.936  16.428  14.021  1.00  0.00    +0.000 N 
ATOM     24  O3  UNL A   1      22.984  15.219  13.929  1.00  0.00    +0.000 O 
ENDBRANCH   22   23
ENDBRANCH   18   19
ENDBRANCH   17   18
ENDBRANCH   11   13
ENDBRANCH   10   11
ENDBRANCH    9   10
ENDBRANCH    8    9
ENDBRANCH    7    8
ENDBRANCH    6    7
ENDBRANCH    5    6
ENDBRANCH    4    5
ENDBRANCH    3    4
ENDBRANCH    2    3
ENDBRANCH   29    2
ENDBRANCH   33   32
BRANCH   37   38
ATOM     38  C29 UNL A   1      18.282  21.816   3.233  1.00  0.00    +0.000 C 
ATOM     39  C30 UNL A   1      19.159  22.883   3.477  1.00  0.00    +0.000 C 
ATOM     40  F1  UNL A   1      19.322  23.350   4.725  1.00  0.00    +0.000 F 
ATOM     41  C31 UNL A   1      19.842  23.504   2.434  1.00  0.00    +0.000 C 
ATOM     42  F2  UNL A   1      20.633  24.556   2.686  1.00  0.00    +0.000 F 
ATOM     43  C32 UNL A   1      19.689  23.050   1.133  1.00  0.00    +0.000 C 
ATOM     44  F3  UNL A   1      20.344  23.651   0.131  1.00  0.00    +0.000 F 
ATOM     45  C33 UNL A   1      18.847  21.980   0.871  1.00  0.00    +0.000 C 
ATOM     46  F4  UNL A   1      18.706  21.532  -0.385  1.00  0.00    +0.000 F 
ATOM     47  C34 UNL A   1      18.142  21.375   1.908  1.00  0.00    +0.000 C 
ATOM     48  F5  UNL A   1      17.322  20.353   1.619  1.00  0.00    +0.000 F 
ENDBRANCH   37   38
BRANCH   54   55
ATOM     65  F10 UNL A   1      11.026  21.629   5.678  1.00  0.00    +0.000 F 
ATOM     55  C40 UNL A   1      12.349  22.936   7.164  1.00  0.00    +0.000 C 
ATOM     56  C41 UNL A   1      12.465  24.115   7.911  1.00  0.00    +0.000 C 
ATOM     57  F6  UNL A   1      13.557  24.337   8.659  1.00  0.00    +0.000 F 
ATOM     58  C42 UNL A   1      11.445  25.063   7.911  1.00  0.00    +0.000 C 
ATOM     59  F7  UNL A   1      11.563  26.173   8.653  1.00  0.00    +0.000 F 
ATOM     60  C43 UNL A   1      10.306  24.861   7.145  1.00  0.00    +0.000 C 
ATOM     61  F8  UNL A   1       9.332  25.782   7.133  1.00  0.00    +0.000 F 
ATOM     62  C44 UNL A   1      10.174  23.702   6.395  1.00  0.00    +0.000 C 
ATOM     63  F9  UNL A   1       9.079  23.510   5.645  1.00  0.00    +0.000 F 
ATOM     64  C45 UNL A   1      11.181  22.742   6.411  1.00  0.00    +0.000 C 
ENDBRANCH   54   55
BRANCH   69   70
ATOM     70  C49 UNL A   1      13.860  17.246  10.923  1.00  0.00    +0.000 C 
ATOM     71  C50 UNL A   1      14.307  17.561  12.212  1.00  0.00    +0.000 C 
ATOM     72  F11 UNL A   1      15.343  18.396  12.375  1.00  0.00    +0.000 F 
ATOM     73  C51 UNL A   1      13.698  17.010  13.337  1.00  0.00    +0.000 C 
ATOM     74  F12 UNL A   1      14.154  17.313  14.559  1.00  0.00    +0.000 F 
ATOM     75  C52 UNL A   1      12.618  16.151  13.194  1.00  0.00    +0.000 C 
ATOM     76  F13 UNL A   1      12.018  15.639  14.278  1.00  0.00    +0.000 F 
ATOM     77  C53 UNL A   1      12.158  15.825  11.927  1.00  0.00    +0.000 C 
ATOM     78  F14 UNL A   1      11.104  15.010  11.785  1.00  0.00    +0.000 F 
ATOM     79  C54 UNL A   1      12.783  16.356  10.801  1.00  0.00    +0.000 C 
ATOM     80  F15 UNL A   1      12.312  16.033   9.587  1.00  0.00    +0.000 F 
ENDBRANCH   69   70
TORSDOF 18
ENDMDL
MODEL 10
REMARK VINA RESULT:      -8.7     45.285     52.386
ROOT
ATOM     33  C25 UNL A   1       7.315   3.060  26.029  1.00  0.00    +0.000 C 
ATOM     34  C26 UNL A   1       8.508   3.346  26.893  1.00  0.00    +0.000 C 
ATOM     35  N5  UNL A   1       9.029   4.501  27.226  1.00  0.00    +0.000 N 
ATOM     36  C27 UNL A   1      10.094   4.206  28.066  1.00  0.00    +0.000 C 
ATOM     37  C28 UNL A   1      10.962   5.063  28.657  1.00  0.00    +0.000 C 
ATOM     49  C35 UNL A   1      10.924   6.494  28.494  1.00  0.00    +0.000 C 
ATOM     50  C36 UNL A   1      11.792   7.444  29.004  1.00  0.00    +0.000 C 
ATOM     51  C37 UNL A   1      11.321   8.709  28.634  1.00  0.00    +0.000 C 
ATOM     52  C38 UNL A   1      10.189   8.545  27.852  1.00  0.00    +0.000 C 
ATOM     53  N6  UNL A   1       9.956   7.181  27.774  1.00  0.00    +0.000 N 
ATOM     54  C39 UNL A   1       9.376   9.560  27.228  1.00  0.00    +0.000 C 
ATOM     66  C46 UNL A   1       8.292   9.322  26.451  1.00  0.00    +0.000 C 
ATOM     67  N7  UNL A   1       7.736   8.105  26.083  1.00  0.00    +0.000 N 
ATOM     68  C47 UNL A   1       6.707   8.392  25.325  1.00  0.00    +0.000 C 
ATOM     69  C48 UNL A   1       5.753   7.459  24.640  1.00  0.00    +0.000 C 
ATOM     81  C55 UNL A   1       5.947   6.132  24.733  1.00  0.00    +0.000 C 
ATOM     82  C56 UNL A   1       5.089   5.113  24.135  1.00  0.00    +0.000 C 
ATOM     83  C57 UNL A   1       5.495   3.905  24.552  1.00  0.00    +0.000 C 
ATOM     84  C58 UNL A   1       6.673   4.064  25.404  1.00  0.00    +0.000 C 
ATOM     85  N8  UNL A   1       6.906   5.416  25.407  1.00  0.00    +0.000 N 
ATOM     86  C59 UNL A   1       6.477   9.832  25.142  1.00  0.00    +0.000 C 
ATOM     87  C60 UNL A   1       7.485  10.353  25.829  1.00  0.00    +0.000 C 
ATOM     88  C61 UNL A   1      10.131   2.766  28.211  1.00  0.00    +0.000 C 
ATOM     89  C62 UNL A   1       9.199   2.185  27.469  1.00  0.00    +0.000 C 
ATOM    117  H26 UNL A   1      12.639   7.253  29.560  1.00  0.00    +0.000 H 
ATOM    118  H27 UNL A   1      11.746   9.611  28.899  1.00  0.00    +0.000 H 
ATOM    119  H28 UNL A   1       9.215   6.761  27.280  1.00  0.00    +0.000 H 
ATOM    120  H29 UNL A   1       4.300   5.294  23.495  1.00  0.00    +0.000 H 
ATOM    121  H30 UNL A   1       5.047   3.007  24.311  1.00  0.00    +0.000 H 
ATOM    122  H31 UNL A   1       7.683   5.832  25.848  1.00  0.00    +0.000 H 
ATOM    123  H32 UNL A   1       5.728  10.311  24.618  1.00  0.00    +0.000 H 
ATOM    124  H33 UNL A   1       7.670  11.365  25.912  1.00  0.00    +0.000 H 
ATOM    125  H34 UNL A   1      10.797   2.258  28.814  1.00  0.00    +0.000 H 
ATOM    126  H35 UNL A   1       9.008   1.180  27.333  1.00  0.00    +0.000 H 
ENDROOT
BRANCH   33   32
ATOM    127  H36 UNL A   1       8.135   1.145  24.324  1.00  0.00    +0.000 H 
ATOM     32  C24 UNL A   1       6.804   1.676  25.881  1.00  0.00    +0.000 C 
ATOM    115  H24 UNL A   1       4.665  -0.486  27.303  1.00  0.00    +0.000 H 
ATOM    116  H25 UNL A   1       5.357   1.835  27.416  1.00  0.00    +0.000 H 
ATOM     90  C63 UNL A   1       7.368   0.812  24.929  1.00  0.00    +0.000 C 
ATOM     91  C64 UNL A   1       6.895  -0.494  24.797  1.00  0.00    +0.000 C 
ATOM     29  C21 UNL A   1       5.877  -0.954  25.636  1.00  0.00    +0.000 C 
ATOM     30  C22 UNL A   1       5.362  -0.121  26.634  1.00  0.00    +0.000 C 
ATOM     31  C23 UNL A   1       5.789   1.202  26.726  1.00  0.00    +0.000 C 
ATOM    128  H37 UNL A   1       7.296  -1.120  24.080  1.00  0.00    +0.000 H 
BRANCH   29    2
ATOM      1  O1  UNL A   1       4.456  -2.743  26.157  1.00  0.00    +0.000 O 
ATOM      2  C1  UNL A   1       5.395  -2.342  25.475  1.00  0.00    +0.000 C 
BRANCH    2    3
ATOM      3  N1  UNL A   1       6.002  -3.183  24.577  1.00  0.00    +0.000 N 
ATOM     92  H1  UNL A   1       5.888  -2.940  23.630  1.00  0.00    +0.000 H 
BRANCH    3    4
ATOM      4  C2  UNL A   1       6.786  -4.381  24.823  1.00  0.00    +0.000 C 
ATOM     93  H2  UNL A   1       6.541  -5.111  24.081  1.00  0.00    +0.000 H 
ATOM     94  H3  UNL A   1       6.551  -4.728  25.807  1.00  0.00    +0.000 H 
BRANCH    4    5
ATOM      5  C3  UNL A   1       8.287  -4.112  24.771  1.00  0.00    +0.000 C 
ATOM     95  H4  UNL A   1       8.478  -3.460  23.943  1.00  0.00    +0.000 H 
ATOM     96  H5  UNL A   1       8.757  -5.069  24.678  1.00  0.00    +0.000 H 
BRANCH    5    6
ATOM     97  H6  UNL A   1       9.373  -4.232  26.587  1.00  0.00    +0.000 H 
ATOM     98  H7  UNL A   1       8.050  -3.023  26.544  1.00  0.00    +0.000 H 
ATOM      6  C4  UNL A   1       8.875  -3.468  26.027  1.00  0.00    +0.000 C 
BRANCH    6    7
ATOM     99  H8  UNL A   1       9.481  -1.711  25.007  1.00  0.00    +0.000 H 
ATOM    100  H9  UNL A   1      10.800  -2.812  25.526  1.00  0.00    +0.000 H 
ATOM      7  C5  UNL A   1       9.876  -2.335  25.781  1.00  0.00    +0.000 C 
BRANCH    7    8
ATOM    101  H10 UNL A   1       9.895  -1.980  27.874  1.00  0.00    +0.000 H 
ATOM    102  H11 UNL A   1       9.634  -0.542  26.841  1.00  0.00    +0.000 H 
ATOM      8  C6  UNL A   1      10.183  -1.447  26.992  1.00  0.00    +0.000 C 
BRANCH    8    9
ATOM      9  C7  UNL A   1      11.646  -1.037  27.143  1.00  0.00    +0.000 C 
ATOM    103  H12 UNL A   1      12.265  -1.886  26.941  1.00  0.00    +0.000 H 
ATOM    104  H13 UNL A   1      11.788  -0.683  28.143  1.00  0.00    +0.000 H 
BRANCH    9   10
ATOM    105  H14 UNL A   1      11.792   0.944  26.541  1.00  0.00    +0.000 H 
ATOM     10  N2  UNL A   1      12.008   0.035  26.233  1.00  0.00    +0.000 N 
BRANCH   10   11
ATOM     11  C8  UNL A   1      12.611  -0.046  25.005  1.00  0.00    +0.000 C 
ATOM     12  O2  UNL A   1      13.554  -0.810  24.829  1.00  0.00    +0.000 O 
BRANCH   11   13
ATOM    106  H15 UNL A   1      13.602   0.095  22.543  1.00  0.00    +0.000 H 
ATOM    107  H16 UNL A   1      12.809   1.435  20.680  1.00  0.00    +0.000 H 
ATOM    108  H17 UNL A   1      10.891   2.884  20.959  1.00  0.00    +0.000 H 
ATOM     13  C9  UNL A   1      12.126   0.788  23.886  1.00  0.00    +0.000 C 
ATOM     14  C10 UNL A   1      12.785   0.715  22.659  1.00  0.00    +0.000 C 
ATOM     15  C11 UNL A   1      12.333   1.487  21.594  1.00  0.00    +0.000 C 
ATOM     16  C12 UNL A   1      11.232   2.334  21.762  1.00  0.00    +0.000 C 
ATOM     17  C13 UNL A   1      10.585   2.452  23.000  1.00  0.00    +0.000 C 
ATOM    114  H23 UNL A   1      10.595   1.740  24.986  1.00  0.00    +0.000 H 
ATOM     28  C20 UNL A   1      11.049   1.669  24.062  1.00  0.00    +0.000 C 
BRANCH   17   18
ATOM     18  N3  UNL A   1       9.447   3.262  23.210  1.00  0.00    +0.000 N 
ATOM    109  H18 UNL A   1       9.331   3.606  24.126  1.00  0.00    +0.000 H 
BRANCH   18   19
ATOM    110  H19 UNL A   1       7.705   1.683  22.039  1.00  0.00    +0.000 H 
ATOM    111  H20 UNL A   1       5.865   2.319  20.594  1.00  0.00    +0.000 H 
ATOM    112  H21 UNL A   1       7.093   6.341  20.805  1.00  0.00    +0.000 H 
ATOM    113  H22 UNL A   1       8.926   5.698  22.256  1.00  0.00    +0.000 H 
ATOM     19  C14 UNL A   1       8.456   3.641  22.285  1.00  0.00    +0.000 C 
ATOM     20  C15 UNL A   1       7.572   2.675  21.788  1.00  0.00    +0.000 C 
ATOM     21  C16 UNL A   1       6.511   3.039  20.955  1.00  0.00    +0.000 C 
ATOM     22  C17 UNL A   1       6.327   4.382  20.611  1.00  0.00    +0.000 C 
ATOM     26  C18 UNL A   1       7.216   5.354  21.076  1.00  0.00    +0.000 C 
ATOM     27  C19 UNL A   1       8.272   4.979  21.910  1.00  0.00    +0.000 C 
BRANCH   22   23
ATOM     25  O4  UNL A   1       4.944   6.091  19.520  1.00  0.00    +0.000 O 
ATOM     23  N4  UNL A   1       5.200   4.768  19.794  1.00  0.00    +0.000 N 
ATOM     24  O3  UNL A   1       4.434   3.938  19.352  1.00  0.00    +0.000 O 
ENDBRANCH   22   23
ENDBRANCH   18   19
ENDBRANCH   17   18
ENDBRANCH   11   13
ENDBRANCH   10   11
ENDBRANCH    9   10
ENDBRANCH    8    9
ENDBRANCH    7    8
ENDBRANCH    6    7
ENDBRANCH    5    6
ENDBRANCH    4    5
ENDBRANCH    3    4
ENDBRANCH    2    3
ENDBRANCH   29    2
ENDBRANCH   33   32
BRANCH   37   38
ATOM     38  C29 UNL A   1      12.009   4.477  29.558  1.00  0.00    +0.000 C 
ATOM     39  C30 UNL A   1      11.916   4.565  30.955  1.00  0.00    +0.000 C 
ATOM     40  F1  UNL A   1      10.887   5.213  31.524  1.00  0.00    +0.000 F 
ATOM     41  C31 UNL A   1      12.904   4.023  31.774  1.00  0.00    +0.000 C 
ATOM     42  F2  UNL A   1      12.821   4.166  33.105  1.00  0.00    +0.000 F 
ATOM     43  C32 UNL A   1      13.983   3.355  31.217  1.00  0.00    +0.000 C 
ATOM     44  F3  UNL A   1      14.933   2.837  32.007  1.00  0.00    +0.000 F 
ATOM     45  C33 UNL A   1      14.082   3.234  29.840  1.00  0.00    +0.000 C 
ATOM     46  F4  UNL A   1      15.119   2.578  29.298  1.00  0.00    +0.000 F 
ATOM     47  C34 UNL A   1      13.110   3.798  29.017  1.00  0.00    +0.000 C 
ATOM     48  F5  UNL A   1      13.244   3.679  27.687  1.00  0.00    +0.000 F 
ENDBRANCH   37   38
BRANCH   54   55
ATOM     65  F10 UNL A   1       8.082  11.281  29.078  1.00  0.00    +0.000 F 
ATOM     55  C40 UNL A   1       9.777  10.990  27.433  1.00  0.00    +0.000 C 
ATOM     56  C41 UNL A   1      10.806  11.577  26.684  1.00  0.00    +0.000 C 
ATOM     57  F6  UNL A   1      11.515  10.840  25.816  1.00  0.00    +0.000 F 
ATOM     58  C42 UNL A   1      11.125  12.923  26.843  1.00  0.00    +0.000 C 
ATOM     59  F7  UNL A   1      12.130  13.460  26.137  1.00  0.00    +0.000 F 
ATOM     60  C43 UNL A   1      10.407  13.709  27.733  1.00  0.00    +0.000 C 
ATOM     61  F8  UNL A   1      10.704  15.009  27.873  1.00  0.00    +0.000 F 
ATOM     62  C44 UNL A   1       9.382  13.148  28.480  1.00  0.00    +0.000 C 
ATOM     63  F9  UNL A   1       8.679  13.909  29.331  1.00  0.00    +0.000 F 
ATOM     64  C45 UNL A   1       9.076  11.798  28.340  1.00  0.00    +0.000 C 
ENDBRANCH   54   55
BRANCH   69   70
ATOM     70  C49 UNL A   1       4.596   7.963  23.857  1.00  0.00    +0.000 C 
ATOM     71  C50 UNL A   1       3.367   8.222  24.474  1.00  0.00    +0.000 C 
ATOM     72  F11 UNL A   1       3.198   7.939  25.773  1.00  0.00    +0.000 F 
ATOM     73  C51 UNL A   1       2.304   8.763  23.754  1.00  0.00    +0.000 C 
ATOM     74  F12 UNL A   1       1.131   8.986  24.363  1.00  0.00    +0.000 F 
ATOM     75  C52 UNL A   1       2.458   9.073  22.411  1.00  0.00    +0.000 C 
ATOM     76  F13 UNL A   1       1.441   9.613  21.726  1.00  0.00    +0.000 F 
ATOM     77  C53 UNL A   1       3.667   8.824  21.779  1.00  0.00    +0.000 C 
ATOM     78  F14 UNL A   1       3.826   9.139  20.487  1.00  0.00    +0.000 F 
ATOM     79  C54 UNL A   1       4.723   8.260  22.492  1.00  0.00    +0.000 C 
ATOM     80  F15 UNL A   1       5.885   8.039  21.861  1.00  0.00    +0.000 F 
ENDBRANCH   69   70
TORSDOF 18
ENDMDL
