MODEL 1
REMARK VINA RESULT:     -11.5      0.000      0.000
ROOT
ATOM    129  H38 UNL A   1      39.310  26.486  26.899  1.00  0.00    +0.000 H 
ATOM     33  C26 UNL A   1      40.735  27.733  29.106  1.00  0.00    +0.000 C 
ATOM     34  C27 UNL A   1      40.889  26.318  28.527  1.00  0.00    +0.000 C 
ATOM     35  N4  UNL A   1      41.645  25.332  28.911  1.00  0.00    +0.000 N 
ATOM     36  C28 UNL A   1      41.488  24.290  27.973  1.00  0.00    +0.000 C 
ATOM     37  C29 UNL A   1      42.335  23.225  27.875  1.00  0.00    +0.000 C 
ATOM     49  C36 UNL A   1      43.337  23.279  28.883  1.00  0.00    +0.000 C 
ATOM     50  C37 UNL A   1      43.346  22.988  30.220  1.00  0.00    +0.000 C 
ATOM     51  C38 UNL A   1      44.363  23.809  30.756  1.00  0.00    +0.000 C 
ATOM     52  C39 UNL A   1      44.974  24.518  29.716  1.00  0.00    +0.000 C 
ATOM     53  N5  UNL A   1      44.503  23.930  28.567  1.00  0.00    +0.000 N 
ATOM     54  C40 UNL A   1      45.737  25.738  29.578  1.00  0.00    +0.000 C 
ATOM     66  C47 UNL A   1      45.986  26.449  30.705  1.00  0.00    +0.000 C 
ATOM     67  N6  UNL A   1      45.841  27.818  30.694  1.00  0.00    +0.000 N 
ATOM     68  C48 UNL A   1      45.163  28.038  31.782  1.00  0.00    +0.000 C 
ATOM     69  C49 UNL A   1      44.428  29.280  32.085  1.00  0.00    +0.000 C 
ATOM     81  C56 UNL A   1      43.305  29.251  31.301  1.00  0.00    +0.000 C 
ATOM     82  C57 UNL A   1      42.266  30.256  31.190  1.00  0.00    +0.000 C 
ATOM     83  C58 UNL A   1      41.287  29.818  30.376  1.00  0.00    +0.000 C 
ATOM     84  C59 UNL A   1      41.583  28.459  29.889  1.00  0.00    +0.000 C 
ATOM     85  N7  UNL A   1      42.831  28.228  30.439  1.00  0.00    +0.000 N 
ATOM     86  C60 UNL A   1      45.078  26.920  32.731  1.00  0.00    +0.000 C 
ATOM     87  C61 UNL A   1      45.795  26.020  32.068  1.00  0.00    +0.000 C 
ATOM     88  C62 UNL A   1      40.406  24.671  27.117  1.00  0.00    +0.000 C 
ATOM     89  C63 UNL A   1      40.030  25.923  27.379  1.00  0.00    +0.000 C 
ATOM    120  H29 UNL A   1      42.745  22.319  30.725  1.00  0.00    +0.000 H 
ATOM    121  H30 UNL A   1      44.615  23.876  31.754  1.00  0.00    +0.000 H 
ATOM    122  H31 UNL A   1      44.924  23.969  27.679  1.00  0.00    +0.000 H 
ATOM    123  H32 UNL A   1      42.275  31.173  31.666  1.00  0.00    +0.000 H 
ATOM    124  H33 UNL A   1      40.445  30.360  30.127  1.00  0.00    +0.000 H 
ATOM    125  H34 UNL A   1      43.351  27.415  30.247  1.00  0.00    +0.000 H 
ATOM    126  H35 UNL A   1      44.601  26.855  33.644  1.00  0.00    +0.000 H 
ATOM    127  H36 UNL A   1      46.160  25.142  32.470  1.00  0.00    +0.000 H 
ATOM    128  H37 UNL A   1      39.979  24.064  26.399  1.00  0.00    +0.000 H 
ENDROOT
BRANCH   33   32
ATOM    130  H39 UNL A   1      38.418  27.812  30.509  1.00  0.00    +0.000 H 
ATOM    131  H40 UNL A   1      36.424  29.102  30.005  1.00  0.00    +0.000 H 
ATOM    118  H27 UNL A   1      38.162  30.371  26.386  1.00  0.00    +0.000 H 
ATOM    119  H28 UNL A   1      40.133  29.040  26.858  1.00  0.00    +0.000 H 
ATOM     90  C64 UNL A   1      38.368  28.366  29.641  1.00  0.00    +0.000 C 
ATOM     91  C65 UNL A   1      37.228  29.118  29.357  1.00  0.00    +0.000 C 
ATOM     29  C22 UNL A   1      37.175  29.892  28.195  1.00  0.00    +0.000 C 
ATOM     30  C23 UNL A   1      38.227  29.842  27.270  1.00  0.00    +0.000 C 
ATOM     31  C24 UNL A   1      39.360  29.080  27.540  1.00  0.00    +0.000 C 
ATOM     32  C25 UNL A   1      39.444  28.368  28.741  1.00  0.00    +0.000 C 
BRANCH   29   27
ATOM     27  C21 UNL A   1      35.999  30.723  27.841  1.00  0.00    +0.000 C 
ATOM     28  O4  UNL A   1      36.056  31.931  27.966  1.00  0.00    +0.000 O 
BRANCH   27   26
ATOM     26  N3  UNL A   1      34.829  30.148  27.396  1.00  0.00    +0.000 N 
ATOM    117  H26 UNL A   1      34.050  30.747  27.337  1.00  0.00    +0.000 H 
BRANCH   26   25
ATOM     25  C20 UNL A   1      34.599  28.769  27.000  1.00  0.00    +0.000 C 
ATOM    115  H24 UNL A   1      34.839  28.658  25.963  1.00  0.00    +0.000 H 
ATOM    116  H25 UNL A   1      35.218  28.135  27.599  1.00  0.00    +0.000 H 
BRANCH   25   24
ATOM    113  H22 UNL A   1      33.062  27.892  28.175  1.00  0.00    +0.000 H 
ATOM    114  H23 UNL A   1      32.562  29.268  27.157  1.00  0.00    +0.000 H 
ATOM     24  C19 UNL A   1      33.139  28.369  27.220  1.00  0.00    +0.000 C 
BRANCH   24   23
ATOM    111  H20 UNL A   1      31.524  27.317  26.325  1.00  0.00    +0.000 H 
ATOM     23  C18 UNL A   1      32.577  27.412  26.159  1.00  0.00    +0.000 C 
ATOM    112  H21 UNL A   1      32.826  27.843  25.213  1.00  0.00    +0.000 H 
BRANCH   23   22
ATOM    110  H19 UNL A   1      32.375  25.335  25.959  1.00  0.00    +0.000 H 
ATOM    109  H18 UNL A   1      33.655  25.847  27.103  1.00  0.00    +0.000 H 
ATOM     22  C17 UNL A   1      33.185  26.006  26.155  1.00  0.00    +0.000 C 
BRANCH   22   21
ATOM    107  H16 UNL A   1      33.723  25.734  24.117  1.00  0.00    +0.000 H 
ATOM    108  H17 UNL A   1      34.956  26.518  25.148  1.00  0.00    +0.000 H 
ATOM     21  C16 UNL A   1      34.226  25.741  25.061  1.00  0.00    +0.000 C 
BRANCH   21   20
ATOM    105  H14 UNL A   1      34.855  23.847  24.309  1.00  0.00    +0.000 H 
ATOM    106  H15 UNL A   1      36.022  24.648  25.361  1.00  0.00    +0.000 H 
ATOM     20  C15 UNL A   1      34.988  24.421  25.201  1.00  0.00    +0.000 C 
BRANCH   20   19
ATOM     19  N2  UNL A   1      34.515  23.649  26.332  1.00  0.00    +0.000 N 
ATOM    104  H13 UNL A   1      34.240  24.126  27.148  1.00  0.00    +0.000 H 
BRANCH   19    2
ATOM      1  O1  UNL A   1      35.422  21.537  26.293  1.00  0.00    +0.000 O 
ATOM      2  C1  UNL A   1      34.436  22.271  26.312  1.00  0.00    +0.000 C 
BRANCH    2    3
ATOM      3  C2  UNL A   1      33.018  21.717  26.214  1.00  0.00    +0.000 C 
ATOM     92  H1  UNL A   1      32.330  22.533  26.138  1.00  0.00    +0.000 H 
ATOM     93  H2  UNL A   1      32.822  21.136  27.091  1.00  0.00    +0.000 H 
BRANCH    3    4
ATOM      4  C3  UNL A   1      32.857  20.829  25.011  1.00  0.00    +0.000 C 
ATOM      5  C4  UNL A   1      33.020  19.454  24.951  1.00  0.00    +0.000 C 
ATOM      6  C5  UNL A   1      32.589  19.019  23.682  1.00  0.00    +0.000 C 
ATOM      7  C6  UNL A   1      32.178  20.135  22.992  1.00  0.00    +0.000 C 
ATOM      8  N1  UNL A   1      32.420  21.256  23.763  1.00  0.00    +0.000 N 
ATOM     94  H3  UNL A   1      33.392  18.853  25.703  1.00  0.00    +0.000 H 
ATOM     95  H4  UNL A   1      32.582  18.046  23.336  1.00  0.00    +0.000 H 
ATOM     96  H5  UNL A   1      31.757  20.135  22.050  1.00  0.00    +0.000 H 
BRANCH    8    9
ATOM     97  H6  UNL A   1      33.806  22.530  21.910  1.00  0.00    +0.000 H 
ATOM     98  H7  UNL A   1      33.429  24.787  21.090  1.00  0.00    +0.000 H 
ATOM     99  H8  UNL A   1      30.630  23.001  24.644  1.00  0.00    +0.000 H 
ATOM    100  H9  UNL A   1      29.198  27.272  23.978  1.00  0.00    +0.000 H 
ATOM    101  H10 UNL A   1      29.162  26.338  22.487  1.00  0.00    +0.000 H 
ATOM    102  H11 UNL A   1      31.625  27.538  23.704  1.00  0.00    +0.000 H 
ATOM    103  H12 UNL A   1      30.724  28.211  22.353  1.00  0.00    +0.000 H 
ATOM      9  C7  UNL A   1      32.222  22.586  23.313  1.00  0.00    +0.000 C 
ATOM     10  C8  UNL A   1      33.050  23.107  22.310  1.00  0.00    +0.000 C 
ATOM     11  C9  UNL A   1      32.846  24.411  21.853  1.00  0.00    +0.000 C 
ATOM     12  C10 UNL A   1      31.857  25.205  22.431  1.00  0.00    +0.000 C 
ATOM     13  C11 UNL A   1      31.046  24.690  23.447  1.00  0.00    +0.000 C 
ATOM     14  C12 UNL A   1      31.226  23.381  23.892  1.00  0.00    +0.000 C 
ATOM     15  O2  UNL A   1      30.064  25.418  24.070  1.00  0.00    +0.000 O 
ATOM     16  C13 UNL A   1      29.747  26.609  23.342  1.00  0.00    +0.000 C 
ATOM     17  C14 UNL A   1      31.006  27.313  22.861  1.00  0.00    +0.000 C 
ATOM     18  O3  UNL A   1      31.737  26.483  21.951  1.00  0.00    +0.000 O 
ENDBRANCH    8    9
ENDBRANCH    3    4
ENDBRANCH    2    3
ENDBRANCH   19    2
ENDBRANCH   20   19
ENDBRANCH   21   20
ENDBRANCH   22   21
ENDBRANCH   23   22
ENDBRANCH   24   23
ENDBRANCH   25   24
ENDBRANCH   26   25
ENDBRANCH   27   26
ENDBRANCH   29   27
ENDBRANCH   33   32
BRANCH   37   38
ATOM     38  C30 UNL A   1      42.513  22.188  26.797  1.00  0.00    +0.000 C 
ATOM     39  C31 UNL A   1      41.980  20.892  27.013  1.00  0.00    +0.000 C 
ATOM     40  F1  UNL A   1      41.041  20.683  27.949  1.00  0.00    +0.000 F 
ATOM     41  C32 UNL A   1      42.456  19.772  26.333  1.00  0.00    +0.000 C 
ATOM     42  F2  UNL A   1      42.018  18.550  26.669  1.00  0.00    +0.000 F 
ATOM     43  C33 UNL A   1      43.426  19.916  25.362  1.00  0.00    +0.000 C 
ATOM     44  F3  UNL A   1      43.936  18.837  24.753  1.00  0.00    +0.000 F 
ATOM     45  C34 UNL A   1      43.892  21.183  25.051  1.00  0.00    +0.000 C 
ATOM     46  F4  UNL A   1      44.830  21.328  24.104  1.00  0.00    +0.000 F 
ATOM     47  C35 UNL A   1      43.454  22.304  25.765  1.00  0.00    +0.000 C 
ATOM     48  F5  UNL A   1      44.043  23.476  25.494  1.00  0.00    +0.000 F 
ENDBRANCH   37   38
BRANCH   54   55
ATOM     65  F10 UNL A   1      43.559  26.897  28.020  1.00  0.00    +0.000 F 
ATOM     55  C41 UNL A   1      45.890  26.550  28.310  1.00  0.00    +0.000 C 
ATOM     56  C42 UNL A   1      47.169  26.866  27.831  1.00  0.00    +0.000 C 
ATOM     57  F6  UNL A   1      48.253  26.345  28.426  1.00  0.00    +0.000 F 
ATOM     58  C43 UNL A   1      47.349  27.720  26.740  1.00  0.00    +0.000 C 
ATOM     59  F7  UNL A   1      48.587  28.003  26.312  1.00  0.00    +0.000 F 
ATOM     60  C44 UNL A   1      46.257  28.274  26.091  1.00  0.00    +0.000 C 
ATOM     61  F8  UNL A   1      46.430  29.085  25.038  1.00  0.00    +0.000 F 
ATOM     62  C45 UNL A   1      44.983  27.977  26.533  1.00  0.00    +0.000 C 
ATOM     63  F9  UNL A   1      43.914  28.491  25.907  1.00  0.00    +0.000 F 
ATOM     64  C46 UNL A   1      44.810  27.134  27.630  1.00  0.00    +0.000 C 
ENDBRANCH   54   55
BRANCH   69   70
ATOM     70  C50 UNL A   1      45.001  30.170  33.174  1.00  0.00    +0.000 C 
ATOM     71  C51 UNL A   1      46.119  31.006  33.052  1.00  0.00    +0.000 C 
ATOM     72  F11 UNL A   1      46.929  30.937  31.993  1.00  0.00    +0.000 F 
ATOM     73  C52 UNL A   1      46.481  31.931  34.049  1.00  0.00    +0.000 C 
ATOM     74  F12 UNL A   1      47.546  32.724  33.862  1.00  0.00    +0.000 F 
ATOM     75  C53 UNL A   1      45.755  32.044  35.220  1.00  0.00    +0.000 C 
ATOM     76  F13 UNL A   1      46.074  32.958  36.145  1.00  0.00    +0.000 F 
ATOM     77  C54 UNL A   1      44.709  31.180  35.429  1.00  0.00    +0.000 C 
ATOM     78  F14 UNL A   1      44.000  31.239  36.566  1.00  0.00    +0.000 F 
ATOM     79  C55 UNL A   1      44.369  30.247  34.449  1.00  0.00    +0.000 C 
ATOM     80  F15 UNL A   1      43.387  29.405  34.802  1.00  0.00    +0.000 F 
ENDBRANCH   69   70
TORSDOF 17
ENDMDL
MODEL 2
REMARK VINA RESULT:     -11.3      1.376      3.398
ROOT
ATOM    129  H38 UNL A   1      39.462  26.597  27.030  1.00  0.00    +0.000 H 
ATOM     33  C26 UNL A   1      41.124  27.925  29.012  1.00  0.00    +0.000 C 
ATOM     34  C27 UNL A   1      41.175  26.470  28.521  1.00  0.00    +0.000 C 
ATOM     35  N4  UNL A   1      41.927  25.481  28.904  1.00  0.00    +0.000 N 
ATOM     36  C28 UNL A   1      41.648  24.387  28.057  1.00  0.00    +0.000 C 
ATOM     37  C29 UNL A   1      42.445  23.284  27.959  1.00  0.00    +0.000 C 
ATOM     49  C36 UNL A   1      43.535  23.362  28.869  1.00  0.00    +0.000 C 
ATOM     50  C37 UNL A   1      43.655  23.159  30.217  1.00  0.00    +0.000 C 
ATOM     51  C38 UNL A   1      44.744  23.970  30.603  1.00  0.00    +0.000 C 
ATOM     52  C39 UNL A   1      45.283  24.583  29.467  1.00  0.00    +0.000 C 
ATOM     53  N5  UNL A   1      44.690  23.942  28.408  1.00  0.00    +0.000 N 
ATOM     54  C40 UNL A   1      46.074  25.759  29.179  1.00  0.00    +0.000 C 
ATOM     66  C47 UNL A   1      46.449  26.531  30.229  1.00  0.00    +0.000 C 
ATOM     67  N6  UNL A   1      46.353  27.901  30.137  1.00  0.00    +0.000 N 
ATOM     68  C48 UNL A   1      45.784  28.220  31.262  1.00  0.00    +0.000 C 
ATOM     69  C49 UNL A   1      45.123  29.508  31.542  1.00  0.00    +0.000 C 
ATOM     81  C56 UNL A   1      43.934  29.475  30.864  1.00  0.00    +0.000 C 
ATOM     82  C57 UNL A   1      42.926  30.513  30.776  1.00  0.00    +0.000 C 
ATOM     83  C58 UNL A   1      41.863  30.064  30.083  1.00  0.00    +0.000 C 
ATOM     84  C59 UNL A   1      42.064  28.665  29.666  1.00  0.00    +0.000 C 
ATOM     85  N7  UNL A   1      43.348  28.419  30.119  1.00  0.00    +0.000 N 
ATOM     86  C60 UNL A   1      45.745  27.171  32.290  1.00  0.00    +0.000 C 
ATOM     87  C61 UNL A   1      46.367  26.200  31.630  1.00  0.00    +0.000 C 
ATOM     88  C62 UNL A   1      40.507  24.756  27.275  1.00  0.00    +0.000 C 
ATOM     89  C63 UNL A   1      40.202  26.037  27.482  1.00  0.00    +0.000 C 
ATOM    120  H29 UNL A   1      43.078  22.549  30.817  1.00  0.00    +0.000 H 
ATOM    121  H30 UNL A   1      45.087  24.091  31.568  1.00  0.00    +0.000 H 
ATOM    122  H31 UNL A   1      45.030  23.905  27.486  1.00  0.00    +0.000 H 
ATOM    123  H32 UNL A   1      43.011  31.457  31.185  1.00  0.00    +0.000 H 
ATOM    124  H33 UNL A   1      41.021  30.623  29.872  1.00  0.00    +0.000 H 
ATOM    125  H34 UNL A   1      43.819  27.573  29.938  1.00  0.00    +0.000 H 
ATOM    126  H35 UNL A   1      45.350  27.185  33.244  1.00  0.00    +0.000 H 
ATOM    127  H36 UNL A   1      46.735  25.336  32.057  1.00  0.00    +0.000 H 
ATOM    128  H37 UNL A   1      39.997  24.122  26.641  1.00  0.00    +0.000 H 
ENDROOT
BRANCH   33   32
ATOM    130  H39 UNL A   1      40.333  29.197  26.755  1.00  0.00    +0.000 H 
ATOM    131  H40 UNL A   1      38.111  30.017  26.217  1.00  0.00    +0.000 H 
ATOM    118  H27 UNL A   1      36.788  28.955  30.070  1.00  0.00    +0.000 H 
ATOM    119  H28 UNL A   1      39.019  28.188  30.632  1.00  0.00    +0.000 H 
ATOM     90  C64 UNL A   1      39.576  29.134  27.453  1.00  0.00    +0.000 C 
ATOM     91  C65 UNL A   1      38.297  29.592  27.140  1.00  0.00    +0.000 C 
ATOM     29  C22 UNL A   1      37.266  29.477  28.076  1.00  0.00    +0.000 C 
ATOM     30  C23 UNL A   1      37.538  28.987  29.362  1.00  0.00    +0.000 C 
ATOM     31  C24 UNL A   1      38.817  28.545  29.685  1.00  0.00    +0.000 C 
ATOM     32  C25 UNL A   1      39.829  28.588  28.720  1.00  0.00    +0.000 C 
BRANCH   29   27
ATOM     27  C21 UNL A   1      35.882  29.931  27.802  1.00  0.00    +0.000 C 
ATOM     28  O4  UNL A   1      35.487  30.978  28.276  1.00  0.00    +0.000 O 
BRANCH   27   26
ATOM     26  N3  UNL A   1      35.023  29.174  27.036  1.00  0.00    +0.000 N 
ATOM    117  H26 UNL A   1      35.350  28.926  26.141  1.00  0.00    +0.000 H 
BRANCH   26   25
ATOM     25  C20 UNL A   1      33.696  28.693  27.382  1.00  0.00    +0.000 C 
ATOM    115  H24 UNL A   1      33.776  27.993  28.188  1.00  0.00    +0.000 H 
ATOM    116  H25 UNL A   1      33.095  29.530  27.669  1.00  0.00    +0.000 H 
BRANCH   25   24
ATOM    113  H22 UNL A   1      33.579  28.261  25.305  1.00  0.00    +0.000 H 
ATOM    114  H23 UNL A   1      33.043  26.955  26.394  1.00  0.00    +0.000 H 
ATOM     24  C19 UNL A   1      33.031  28.005  26.188  1.00  0.00    +0.000 C 
BRANCH   24   23
ATOM    111  H20 UNL A   1      31.049  27.539  25.580  1.00  0.00    +0.000 H 
ATOM     23  C18 UNL A   1      31.561  28.393  25.972  1.00  0.00    +0.000 C 
ATOM    112  H21 UNL A   1      31.197  28.712  26.926  1.00  0.00    +0.000 H 
BRANCH   23   22
ATOM    110  H19 UNL A   1      32.278  30.035  24.884  1.00  0.00    +0.000 H 
ATOM    109  H18 UNL A   1      30.588  30.205  25.454  1.00  0.00    +0.000 H 
ATOM     22  C17 UNL A   1      31.326  29.566  25.016  1.00  0.00    +0.000 C 
BRANCH   22   21
ATOM    107  H16 UNL A   1      30.095  28.429  23.707  1.00  0.00    +0.000 H 
ATOM    108  H17 UNL A   1      30.484  30.088  23.163  1.00  0.00    +0.000 H 
ATOM     21  C16 UNL A   1      30.846  29.186  23.609  1.00  0.00    +0.000 C 
BRANCH   21   20
ATOM    105  H14 UNL A   1      32.033  29.317  21.843  1.00  0.00    +0.000 H 
ATOM    106  H15 UNL A   1      32.850  28.597  23.231  1.00  0.00    +0.000 H 
ATOM     20  C15 UNL A   1      31.936  28.654  22.677  1.00  0.00    +0.000 C 
BRANCH   20   19
ATOM     19  N2  UNL A   1      31.620  27.327  22.187  1.00  0.00    +0.000 N 
ATOM    104  H13 UNL A   1      30.782  27.194  21.690  1.00  0.00    +0.000 H 
BRANCH   19    2
ATOM      1  O1  UNL A   1      33.661  26.270  22.198  1.00  0.00    +0.000 O 
ATOM      2  C1  UNL A   1      32.448  26.241  22.391  1.00  0.00    +0.000 C 
BRANCH    2    3
ATOM      3  C2  UNL A   1      31.725  24.956  22.783  1.00  0.00    +0.000 C 
ATOM     92  H1  UNL A   1      32.385  24.126  22.637  1.00  0.00    +0.000 H 
ATOM     93  H2  UNL A   1      30.853  24.860  22.170  1.00  0.00    +0.000 H 
BRANCH    3    4
ATOM      4  C3  UNL A   1      31.291  24.988  24.223  1.00  0.00    +0.000 C 
ATOM      5  C4  UNL A   1      30.094  25.468  24.732  1.00  0.00    +0.000 C 
ATOM      6  C5  UNL A   1      30.036  25.129  26.098  1.00  0.00    +0.000 C 
ATOM      7  C6  UNL A   1      31.197  24.456  26.397  1.00  0.00    +0.000 C 
ATOM      8  N1  UNL A   1      32.010  24.442  25.280  1.00  0.00    +0.000 N 
ATOM     94  H3  UNL A   1      29.373  25.983  24.204  1.00  0.00    +0.000 H 
ATOM     95  H4  UNL A   1      29.266  25.344  26.752  1.00  0.00    +0.000 H 
ATOM     96  H5  UNL A   1      31.425  24.031  27.309  1.00  0.00    +0.000 H 
BRANCH    8    9
ATOM     97  H6  UNL A   1      34.246  25.807  25.610  1.00  0.00    +0.000 H 
ATOM     98  H7  UNL A   1      36.510  24.924  25.653  1.00  0.00    +0.000 H 
ATOM     99  H8  UNL A   1      32.758  21.934  24.857  1.00  0.00    +0.000 H 
ATOM    100  H9  UNL A   1      36.485  19.330  24.593  1.00  0.00    +0.000 H 
ATOM    101  H10 UNL A   1      36.409  20.198  26.122  1.00  0.00    +0.000 H 
ATOM    102  H11 UNL A   1      37.269  21.391  23.510  1.00  0.00    +0.000 H 
ATOM    103  H12 UNL A   1      38.347  20.860  24.792  1.00  0.00    +0.000 H 
ATOM      9  C7  UNL A   1      33.331  23.929  25.267  1.00  0.00    +0.000 C 
ATOM     10  C8  UNL A   1      34.412  24.798  25.466  1.00  0.00    +0.000 C 
ATOM     11  C9  UNL A   1      35.714  24.294  25.470  1.00  0.00    +0.000 C 
ATOM     12  C10 UNL A   1      35.938  22.940  25.225  1.00  0.00    +0.000 C 
ATOM     13  C11 UNL A   1      34.860  22.078  25.005  1.00  0.00    +0.000 C 
ATOM     14  C12 UNL A   1      33.554  22.569  25.023  1.00  0.00    +0.000 C 
ATOM     15  O2  UNL A   1      35.006  20.740  24.742  1.00  0.00    +0.000 O 
ATOM     16  C13 UNL A   1      36.325  20.281  25.058  1.00  0.00    +0.000 C 
ATOM     17  C14 UNL A   1      37.381  21.257  24.565  1.00  0.00    +0.000 C 
ATOM     18  O3  UNL A   1      37.244  22.526  25.215  1.00  0.00    +0.000 O 
ENDBRANCH    8    9
ENDBRANCH    3    4
ENDBRANCH    2    3
ENDBRANCH   19    2
ENDBRANCH   20   19
ENDBRANCH   21   20
ENDBRANCH   22   21
ENDBRANCH   23   22
ENDBRANCH   24   23
ENDBRANCH   25   24
ENDBRANCH   26   25
ENDBRANCH   27   26
ENDBRANCH   29   27
ENDBRANCH   33   32
BRANCH   37   38
ATOM     38  C30 UNL A   1      42.488  22.172  26.943  1.00  0.00    +0.000 C 
ATOM     39  C31 UNL A   1      41.875  20.936  27.269  1.00  0.00    +0.000 C 
ATOM     40  F1  UNL A   1      40.976  20.857  28.263  1.00  0.00    +0.000 F 
ATOM     41  C32 UNL A   1      42.230  19.744  26.640  1.00  0.00    +0.000 C 
ATOM     42  F2  UNL A   1      41.724  18.581  27.077  1.00  0.00    +0.000 F 
ATOM     43  C33 UNL A   1      43.153  19.754  25.615  1.00  0.00    +0.000 C 
ATOM     44  F3  UNL A   1      43.549  18.604  25.053  1.00  0.00    +0.000 F 
ATOM     45  C34 UNL A   1      43.692  20.960  25.198  1.00  0.00    +0.000 C 
ATOM     46  F4  UNL A   1      44.585  20.975  24.198  1.00  0.00    +0.000 F 
ATOM     47  C35 UNL A   1      43.377  22.153  25.860  1.00  0.00    +0.000 C 
ATOM     48  F5  UNL A   1      44.033  23.258  25.483  1.00  0.00    +0.000 F 
ENDBRANCH   37   38
BRANCH   54   55
ATOM     65  F10 UNL A   1      48.487  26.209  27.601  1.00  0.00    +0.000 F 
ATOM     55  C41 UNL A   1      46.141  26.479  27.850  1.00  0.00    +0.000 C 
ATOM     56  C42 UNL A   1      44.963  26.931  27.239  1.00  0.00    +0.000 C 
ATOM     57  F6  UNL A   1      43.794  26.835  27.889  1.00  0.00    +0.000 F 
ATOM     58  C43 UNL A   1      44.973  27.483  25.956  1.00  0.00    +0.000 C 
ATOM     59  F7  UNL A   1      43.827  27.900  25.400  1.00  0.00    +0.000 F 
ATOM     60  C44 UNL A   1      46.161  27.607  25.251  1.00  0.00    +0.000 C 
ATOM     61  F8  UNL A   1      46.170  28.147  24.024  1.00  0.00    +0.000 F 
ATOM     62  C45 UNL A   1      47.339  27.179  25.828  1.00  0.00    +0.000 C 
ATOM     63  F9  UNL A   1      48.500  27.308  25.168  1.00  0.00    +0.000 F 
ATOM     64  C46 UNL A   1      47.322  26.618  27.104  1.00  0.00    +0.000 C 
ENDBRANCH   54   55
BRANCH   69   70
ATOM     70  C50 UNL A   1      45.824  30.442  32.513  1.00  0.00    +0.000 C 
ATOM     71  C51 UNL A   1      45.469  30.658  33.852  1.00  0.00    +0.000 C 
ATOM     72  F11 UNL A   1      44.319  30.198  34.352  1.00  0.00    +0.000 F 
ATOM     73  C52 UNL A   1      46.273  31.403  34.735  1.00  0.00    +0.000 C 
ATOM     74  F12 UNL A   1      45.894  31.550  36.013  1.00  0.00    +0.000 F 
ATOM     75  C53 UNL A   1      47.454  31.984  34.312  1.00  0.00    +0.000 C 
ATOM     76  F13 UNL A   1      48.240  32.652  35.166  1.00  0.00    +0.000 F 
ATOM     77  C54 UNL A   1      47.797  31.884  32.986  1.00  0.00    +0.000 C 
ATOM     78  F14 UNL A   1      48.919  32.460  32.532  1.00  0.00    +0.000 F 
ATOM     79  C55 UNL A   1      46.983  31.166  32.108  1.00  0.00    +0.000 C 
ATOM     80  F15 UNL A   1      47.376  31.210  30.828  1.00  0.00    +0.000 F 
ENDBRANCH   69   70
TORSDOF 17
ENDMDL
MODEL 3
REMARK VINA RESULT:     -11.2      1.302      3.179
ROOT
ATOM    129  H38 UNL A   1      39.340  26.353  26.904  1.00  0.00    +0.000 H 
ATOM     33  C26 UNL A   1      40.882  27.686  28.977  1.00  0.00    +0.000 C 
ATOM     34  C27 UNL A   1      41.008  26.250  28.446  1.00  0.00    +0.000 C 
ATOM     35  N4  UNL A   1      41.787  25.280  28.824  1.00  0.00    +0.000 N 
ATOM     36  C28 UNL A   1      41.580  24.202  27.937  1.00  0.00    +0.000 C 
ATOM     37  C29 UNL A   1      42.424  23.135  27.833  1.00  0.00    +0.000 C 
ATOM     49  C36 UNL A   1      43.481  23.229  28.780  1.00  0.00    +0.000 C 
ATOM     50  C37 UNL A   1      43.567  22.990  30.125  1.00  0.00    +0.000 C 
ATOM     51  C38 UNL A   1      44.609  23.831  30.570  1.00  0.00    +0.000 C 
ATOM     52  C39 UNL A   1      45.159  24.500  29.470  1.00  0.00    +0.000 C 
ATOM     53  N5  UNL A   1      44.625  23.868  28.374  1.00  0.00    +0.000 N 
ATOM     54  C40 UNL A   1      45.909  25.714  29.243  1.00  0.00    +0.000 C 
ATOM     66  C47 UNL A   1      46.220  26.468  30.326  1.00  0.00    +0.000 C 
ATOM     67  N6  UNL A   1      46.070  27.836  30.271  1.00  0.00    +0.000 N 
ATOM     68  C48 UNL A   1      45.454  28.097  31.385  1.00  0.00    +0.000 C 
ATOM     69  C49 UNL A   1      44.733  29.349  31.681  1.00  0.00    +0.000 C 
ATOM     81  C56 UNL A   1      43.568  29.289  30.964  1.00  0.00    +0.000 C 
ATOM     82  C57 UNL A   1      42.521  30.289  30.873  1.00  0.00    +0.000 C 
ATOM     83  C58 UNL A   1      41.500  29.819  30.133  1.00  0.00    +0.000 C 
ATOM     84  C59 UNL A   1      41.771  28.443  29.682  1.00  0.00    +0.000 C 
ATOM     85  N7  UNL A   1      43.049  28.234  30.170  1.00  0.00    +0.000 N 
ATOM     86  C60 UNL A   1      45.425  27.017  32.381  1.00  0.00    +0.000 C 
ATOM     87  C61 UNL A   1      46.107  26.093  31.713  1.00  0.00    +0.000 C 
ATOM     88  C62 UNL A   1      40.451  24.549  27.129  1.00  0.00    +0.000 C 
ATOM     89  C63 UNL A   1      40.086  25.810  27.364  1.00  0.00    +0.000 C 
ATOM    120  H29 UNL A   1      42.997  22.340  30.688  1.00  0.00    +0.000 H 
ATOM    121  H30 UNL A   1      44.917  23.937  31.549  1.00  0.00    +0.000 H 
ATOM    122  H31 UNL A   1      44.996  23.872  27.463  1.00  0.00    +0.000 H 
ATOM    123  H32 UNL A   1      42.555  31.223  31.312  1.00  0.00    +0.000 H 
ATOM    124  H33 UNL A   1      40.643  30.350  29.911  1.00  0.00    +0.000 H 
ATOM    125  H34 UNL A   1      43.560  27.414  29.980  1.00  0.00    +0.000 H 
ATOM    126  H35 UNL A   1      45.000  26.987  33.321  1.00  0.00    +0.000 H 
ATOM    127  H36 UNL A   1      46.497  25.231  32.127  1.00  0.00    +0.000 H 
ATOM    128  H37 UNL A   1      39.986  23.914  26.461  1.00  0.00    +0.000 H 
ENDROOT
BRANCH   33   32
ATOM    130  H39 UNL A   1      38.606  27.697  30.447  1.00  0.00    +0.000 H 
ATOM    131  H40 UNL A   1      36.576  28.962  30.024  1.00  0.00    +0.000 H 
ATOM    118  H27 UNL A   1      38.189  30.331  26.384  1.00  0.00    +0.000 H 
ATOM    119  H28 UNL A   1      40.195  29.025  26.773  1.00  0.00    +0.000 H 
ATOM     90  C64 UNL A   1      38.521  28.268  29.592  1.00  0.00    +0.000 C 
ATOM     91  C65 UNL A   1      37.362  29.005  29.355  1.00  0.00    +0.000 C 
ATOM     29  C22 UNL A   1      37.262  29.801  28.210  1.00  0.00    +0.000 C 
ATOM     30  C23 UNL A   1      38.288  29.786  27.255  1.00  0.00    +0.000 C 
ATOM     31  C24 UNL A   1      39.441  29.039  27.478  1.00  0.00    +0.000 C 
ATOM     32  C25 UNL A   1      39.571  28.305  28.662  1.00  0.00    +0.000 C 
BRANCH   29   27
ATOM     27  C21 UNL A   1      36.063  30.618  27.906  1.00  0.00    +0.000 C 
ATOM     28  O4  UNL A   1      35.974  31.745  28.352  1.00  0.00    +0.000 O 
BRANCH   27   26
ATOM     26  N3  UNL A   1      35.032  30.112  27.145  1.00  0.00    +0.000 N 
ATOM    117  H26 UNL A   1      34.882  30.553  26.277  1.00  0.00    +0.000 H 
BRANCH   26   25
ATOM     25  C20 UNL A   1      34.139  29.010  27.459  1.00  0.00    +0.000 C 
ATOM    115  H24 UNL A   1      34.459  28.548  28.370  1.00  0.00    +0.000 H 
ATOM    116  H25 UNL A   1      33.146  29.396  27.562  1.00  0.00    +0.000 H 
BRANCH   25   24
ATOM    113  H22 UNL A   1      35.108  27.513  26.305  1.00  0.00    +0.000 H 
ATOM    114  H23 UNL A   1      33.363  27.267  26.574  1.00  0.00    +0.000 H 
ATOM     24  C19 UNL A   1      34.139  27.966  26.341  1.00  0.00    +0.000 C 
BRANCH   24   23
ATOM    111  H20 UNL A   1      32.904  29.078  25.017  1.00  0.00    +0.000 H 
ATOM     23  C18 UNL A   1      33.819  28.528  24.949  1.00  0.00    +0.000 C 
ATOM    112  H21 UNL A   1      34.661  29.126  24.672  1.00  0.00    +0.000 H 
BRANCH   23   22
ATOM    110  H19 UNL A   1      34.000  26.558  24.255  1.00  0.00    +0.000 H 
ATOM    109  H18 UNL A   1      34.232  27.810  22.995  1.00  0.00    +0.000 H 
ATOM     22  C17 UNL A   1      33.661  27.483  23.839  1.00  0.00    +0.000 C 
BRANCH   22   21
ATOM    107  H16 UNL A   1      31.763  26.550  24.053  1.00  0.00    +0.000 H 
ATOM    108  H17 UNL A   1      31.747  28.190  23.339  1.00  0.00    +0.000 H 
ATOM     21  C16 UNL A   1      32.223  27.232  23.369  1.00  0.00    +0.000 C 
BRANCH   21   20
ATOM    105  H14 UNL A   1      31.369  27.211  21.415  1.00  0.00    +0.000 H 
ATOM    106  H15 UNL A   1      33.057  26.704  21.489  1.00  0.00    +0.000 H 
ATOM     20  C15 UNL A   1      32.097  26.648  21.960  1.00  0.00    +0.000 C 
BRANCH   20   19
ATOM     19  N2  UNL A   1      31.689  25.258  21.992  1.00  0.00    +0.000 N 
ATOM    104  H13 UNL A   1      30.810  25.016  21.622  1.00  0.00    +0.000 H 
BRANCH   19    2
ATOM      1  O1  UNL A   1      33.696  24.193  22.337  1.00  0.00    +0.000 O 
ATOM      2  C1  UNL A   1      32.483  24.260  22.521  1.00  0.00    +0.000 C 
BRANCH    2    3
ATOM      3  C2  UNL A   1      31.721  23.177  23.279  1.00  0.00    +0.000 C 
ATOM     92  H1  UNL A   1      32.113  22.220  23.006  1.00  0.00    +0.000 H 
ATOM     93  H2  UNL A   1      30.685  23.251  23.020  1.00  0.00    +0.000 H 
BRANCH    3    4
ATOM      4  C3  UNL A   1      31.852  23.353  24.766  1.00  0.00    +0.000 C 
ATOM      5  C4  UNL A   1      31.405  24.418  25.532  1.00  0.00    +0.000 C 
ATOM      6  C5  UNL A   1      31.570  24.078  26.890  1.00  0.00    +0.000 C 
ATOM      7  C6  UNL A   1      32.118  22.818  26.926  1.00  0.00    +0.000 C 
ATOM      8  N1  UNL A   1      32.376  22.401  25.634  1.00  0.00    +0.000 N 
ATOM     94  H3  UNL A   1      31.019  25.305  25.172  1.00  0.00    +0.000 H 
ATOM     95  H4  UNL A   1      31.324  24.665  27.704  1.00  0.00    +0.000 H 
ATOM     96  H5  UNL A   1      32.307  22.271  27.780  1.00  0.00    +0.000 H 
BRANCH    8    9
ATOM     97  H6  UNL A   1      34.971  22.073  25.273  1.00  0.00    +0.000 H 
ATOM     98  H7  UNL A   1      36.132  19.995  24.779  1.00  0.00    +0.000 H 
ATOM     99  H8  UNL A   1      31.287  20.024  25.197  1.00  0.00    +0.000 H 
ATOM    100  H9  UNL A   1      32.405  15.739  24.137  1.00  0.00    +0.000 H 
ATOM    101  H10 UNL A   1      33.260  16.295  25.571  1.00  0.00    +0.000 H 
ATOM    102  H11 UNL A   1      33.993  17.000  22.751  1.00  0.00    +0.000 H 
ATOM    103  H12 UNL A   1      34.789  15.782  23.737  1.00  0.00    +0.000 H 
ATOM      9  C7  UNL A   1      33.046  21.195  25.308  1.00  0.00    +0.000 C 
ATOM     10  C8  UNL A   1      34.439  21.196  25.159  1.00  0.00    +0.000 C 
ATOM     11  C9  UNL A   1      35.103  20.007  24.854  1.00  0.00    +0.000 C 
ATOM     12  C10 UNL A   1      34.376  18.835  24.649  1.00  0.00    +0.000 C 
ATOM     13  C11 UNL A   1      32.984  18.841  24.778  1.00  0.00    +0.000 C 
ATOM     14  C12 UNL A   1      32.314  20.019  25.106  1.00  0.00    +0.000 C 
ATOM     15  O2  UNL A   1      32.204  17.730  24.576  1.00  0.00    +0.000 O 
ATOM     16  C13 UNL A   1      32.986  16.530  24.564  1.00  0.00    +0.000 C 
ATOM     17  C14 UNL A   1      34.256  16.709  23.747  1.00  0.00    +0.000 C 
ATOM     18  O3  UNL A   1      35.095  17.715  24.324  1.00  0.00    +0.000 O 
ENDBRANCH    8    9
ENDBRANCH    3    4
ENDBRANCH    2    3
ENDBRANCH   19    2
ENDBRANCH   20   19
ENDBRANCH   21   20
ENDBRANCH   22   21
ENDBRANCH   23   22
ENDBRANCH   24   23
ENDBRANCH   25   24
ENDBRANCH   26   25
ENDBRANCH   27   26
ENDBRANCH   29   27
ENDBRANCH   33   32
BRANCH   37   38
ATOM     38  C30 UNL A   1      42.544  22.057  26.788  1.00  0.00    +0.000 C 
ATOM     39  C31 UNL A   1      42.008  20.776  27.074  1.00  0.00    +0.000 C 
ATOM     40  F1  UNL A   1      41.109  20.613  28.057  1.00  0.00    +0.000 F 
ATOM     41  C32 UNL A   1      42.442  19.627  26.416  1.00  0.00    +0.000 C 
ATOM     42  F2  UNL A   1      42.007  18.423  26.815  1.00  0.00    +0.000 F 
ATOM     43  C33 UNL A   1      43.370  19.724  25.399  1.00  0.00    +0.000 C 
ATOM     44  F3  UNL A   1      43.841  18.617  24.809  1.00  0.00    +0.000 F 
ATOM     45  C34 UNL A   1      43.835  20.973  25.021  1.00  0.00    +0.000 C 
ATOM     46  F4  UNL A   1      44.732  21.072  24.029  1.00  0.00    +0.000 F 
ATOM     47  C35 UNL A   1      43.440  22.124  25.712  1.00  0.00    +0.000 C 
ATOM     48  F5  UNL A   1      44.028  23.278  25.372  1.00  0.00    +0.000 F 
ENDBRANCH   37   38
BRANCH   54   55
ATOM     65  F10 UNL A   1      48.354  26.346  27.781  1.00  0.00    +0.000 F 
ATOM     55  C41 UNL A   1      45.988  26.477  27.938  1.00  0.00    +0.000 C 
ATOM     56  C42 UNL A   1      44.812  26.880  27.290  1.00  0.00    +0.000 C 
ATOM     57  F6  UNL A   1      43.625  26.699  27.888  1.00  0.00    +0.000 F 
ATOM     58  C43 UNL A   1      44.843  27.469  26.024  1.00  0.00    +0.000 C 
ATOM     59  F7  UNL A   1      43.698  27.838  25.433  1.00  0.00    +0.000 F 
ATOM     60  C44 UNL A   1      46.049  27.681  25.374  1.00  0.00    +0.000 C 
ATOM     61  F8  UNL A   1      46.077  28.257  24.164  1.00  0.00    +0.000 F 
ATOM     62  C45 UNL A   1      47.225  27.303  25.988  1.00  0.00    +0.000 C 
ATOM     63  F9  UNL A   1      48.403  27.516  25.381  1.00  0.00    +0.000 F 
ATOM     64  C46 UNL A   1      47.189  26.704  27.246  1.00  0.00    +0.000 C 
ENDBRANCH   54   55
BRANCH   69   70
ATOM     70  C50 UNL A   1      45.364  30.281  32.701  1.00  0.00    +0.000 C 
ATOM     71  C51 UNL A   1      46.295  31.293  32.429  1.00  0.00    +0.000 C 
ATOM     72  F11 UNL A   1      46.885  31.395  31.235  1.00  0.00    +0.000 F 
ATOM     73  C52 UNL A   1      46.699  32.228  33.401  1.00  0.00    +0.000 C 
ATOM     74  F12 UNL A   1      47.573  33.190  33.071  1.00  0.00    +0.000 F 
ATOM     75  C53 UNL A   1      46.206  32.178  34.691  1.00  0.00    +0.000 C 
ATOM     76  F13 UNL A   1      46.555  33.098  35.599  1.00  0.00    +0.000 F 
ATOM     77  C54 UNL A   1      45.365  31.149  35.034  1.00  0.00    +0.000 C 
ATOM     78  F14 UNL A   1      44.891  31.050  36.284  1.00  0.00    +0.000 F 
ATOM     79  C55 UNL A   1      44.988  30.208  34.074  1.00  0.00    +0.000 C 
ATOM     80  F15 UNL A   1      44.235  29.206  34.547  1.00  0.00    +0.000 F 
ENDBRANCH   69   70
TORSDOF 17
ENDMDL
MODEL 4
REMARK VINA RESULT:     -11.0      2.554      8.698
ROOT
ATOM    129  H38 UNL A   1      38.336  31.519  30.295  1.00  0.00    +0.000 H 
ATOM     33  C26 UNL A   1      39.486  29.164  29.036  1.00  0.00    +0.000 C 
ATOM     34  C27 UNL A   1      40.195  30.394  29.622  1.00  0.00    +0.000 C 
ATOM     35  N4  UNL A   1      41.458  30.701  29.651  1.00  0.00    +0.000 N 
ATOM     36  C28 UNL A   1      41.587  31.888  30.403  1.00  0.00    +0.000 C 
ATOM     37  C29 UNL A   1      42.773  32.346  30.898  1.00  0.00    +0.000 C 
ATOM     49  C36 UNL A   1      43.849  31.508  30.493  1.00  0.00    +0.000 C 
ATOM     50  C37 UNL A   1      44.549  31.369  29.325  1.00  0.00    +0.000 C 
ATOM     51  C38 UNL A   1      45.003  30.033  29.340  1.00  0.00    +0.000 C 
ATOM     52  C39 UNL A   1      44.618  29.431  30.543  1.00  0.00    +0.000 C 
ATOM     53  N5  UNL A   1      44.176  30.469  31.327  1.00  0.00    +0.000 N 
ATOM     54  C40 UNL A   1      44.396  28.087  31.026  1.00  0.00    +0.000 C 
ATOM     66  C47 UNL A   1      44.600  27.069  30.154  1.00  0.00    +0.000 C 
ATOM     67  N6  UNL A   1      43.694  26.034  30.089  1.00  0.00    +0.000 N 
ATOM     68  C48 UNL A   1      43.508  25.902  28.809  1.00  0.00    +0.000 C 
ATOM     69  C49 UNL A   1      42.379  25.187  28.186  1.00  0.00    +0.000 C 
ATOM     81  C56 UNL A   1      41.290  26.003  28.336  1.00  0.00    +0.000 C 
ATOM     82  C57 UNL A   1      39.920  25.750  27.932  1.00  0.00    +0.000 C 
ATOM     83  C58 UNL A   1      39.160  26.834  28.180  1.00  0.00    +0.000 C 
ATOM     84  C59 UNL A   1      39.973  27.922  28.753  1.00  0.00    +0.000 C 
ATOM     85  N7  UNL A   1      41.211  27.317  28.869  1.00  0.00    +0.000 N 
ATOM     86  C60 UNL A   1      44.470  26.591  27.938  1.00  0.00    +0.000 C 
ATOM     87  C61 UNL A   1      45.247  27.138  28.867  1.00  0.00    +0.000 C 
ATOM     88  C62 UNL A   1      40.260  32.372  30.634  1.00  0.00    +0.000 C 
ATOM     89  C63 UNL A   1      39.364  31.475  30.220  1.00  0.00    +0.000 C 
ATOM    120  H29 UNL A   1      44.708  32.082  28.596  1.00  0.00    +0.000 H 
ATOM    121  H30 UNL A   1      45.533  29.572  28.584  1.00  0.00    +0.000 H 
ATOM    122  H31 UNL A   1      44.107  30.468  32.308  1.00  0.00    +0.000 H 
ATOM    123  H32 UNL A   1      39.578  24.869  27.516  1.00  0.00    +0.000 H 
ATOM    124  H33 UNL A   1      38.147  26.896  27.993  1.00  0.00    +0.000 H 
ATOM    125  H34 UNL A   1      41.981  27.764  29.290  1.00  0.00    +0.000 H 
ATOM    126  H35 UNL A   1      44.526  26.636  26.908  1.00  0.00    +0.000 H 
ATOM    127  H36 UNL A   1      46.176  27.552  28.693  1.00  0.00    +0.000 H 
ATOM    128  H37 UNL A   1      40.030  33.282  31.061  1.00  0.00    +0.000 H 
ENDROOT
BRANCH   33   32
ATOM    130  H39 UNL A   1      37.354  29.068  30.705  1.00  0.00    +0.000 H 
ATOM    131  H40 UNL A   1      35.073  29.757  30.234  1.00  0.00    +0.000 H 
ATOM    118  H27 UNL A   1      36.126  30.507  26.228  1.00  0.00    +0.000 H 
ATOM    119  H28 UNL A   1      38.391  29.767  26.678  1.00  0.00    +0.000 H 
ATOM     90  C64 UNL A   1      37.095  29.387  29.758  1.00  0.00    +0.000 C 
ATOM     91  C65 UNL A   1      35.789  29.795  29.491  1.00  0.00    +0.000 C 
ATOM     29  C22 UNL A   1      35.449  30.255  28.216  1.00  0.00    +0.000 C 
ATOM     30  C23 UNL A   1      36.395  30.219  27.182  1.00  0.00    +0.000 C 
ATOM     31  C24 UNL A   1      37.696  29.796  27.439  1.00  0.00    +0.000 C 
ATOM     32  C25 UNL A   1      38.054  29.411  28.735  1.00  0.00    +0.000 C 
BRANCH   29   27
ATOM     27  C21 UNL A   1      34.082  30.716  27.870  1.00  0.00    +0.000 C 
ATOM     28  O4  UNL A   1      33.755  31.861  28.110  1.00  0.00    +0.000 O 
BRANCH   27   26
ATOM     26  N3  UNL A   1      33.165  29.858  27.303  1.00  0.00    +0.000 N 
ATOM    117  H26 UNL A   1      32.326  30.270  26.992  1.00  0.00    +0.000 H 
BRANCH   26   25
ATOM     25  C20 UNL A   1      33.279  28.423  27.102  1.00  0.00    +0.000 C 
ATOM    115  H24 UNL A   1      34.271  28.194  26.773  1.00  0.00    +0.000 H 
ATOM    116  H25 UNL A   1      33.068  27.933  28.028  1.00  0.00    +0.000 H 
BRANCH   25   24
ATOM    113  H22 UNL A   1      31.770  28.784  25.651  1.00  0.00    +0.000 H 
ATOM    114  H23 UNL A   1      32.842  27.400  25.317  1.00  0.00    +0.000 H 
ATOM     24  C19 UNL A   1      32.279  27.933  26.054  1.00  0.00    +0.000 C 
BRANCH   24   23
ATOM    111  H20 UNL A   1      31.443  26.769  27.623  1.00  0.00    +0.000 H 
ATOM     23  C18 UNL A   1      31.225  26.954  26.592  1.00  0.00    +0.000 C 
ATOM    112  H21 UNL A   1      30.278  27.423  26.430  1.00  0.00    +0.000 H 
BRANCH   23   22
ATOM    110  H19 UNL A   1      31.636  25.747  24.928  1.00  0.00    +0.000 H 
ATOM    109  H18 UNL A   1      30.127  25.324  25.795  1.00  0.00    +0.000 H 
ATOM     22  C17 UNL A   1      31.156  25.603  25.873  1.00  0.00    +0.000 C 
BRANCH   22   21
ATOM    107  H16 UNL A   1      32.762  24.213  25.960  1.00  0.00    +0.000 H 
ATOM    108  H17 UNL A   1      32.157  24.800  27.537  1.00  0.00    +0.000 H 
ATOM     21  C16 UNL A   1      31.907  24.453  26.557  1.00  0.00    +0.000 C 
BRANCH   21   20
ATOM    105  H14 UNL A   1      31.450  22.660  27.616  1.00  0.00    +0.000 H 
ATOM    106  H15 UNL A   1      30.062  23.450  26.869  1.00  0.00    +0.000 H 
ATOM     20  C15 UNL A   1      31.089  23.174  26.751  1.00  0.00    +0.000 C 
BRANCH   20   19
ATOM     19  N2  UNL A   1      31.192  22.294  25.604  1.00  0.00    +0.000 N 
ATOM    104  H13 UNL A   1      30.410  22.190  25.017  1.00  0.00    +0.000 H 
BRANCH   19    2
ATOM      1  O1  UNL A   1      33.053  21.063  26.153  1.00  0.00    +0.000 O 
ATOM      2  C1  UNL A   1      32.344  21.596  25.303  1.00  0.00    +0.000 C 
BRANCH    2    3
ATOM      3  C2  UNL A   1      32.733  21.618  23.828  1.00  0.00    +0.000 C 
ATOM     92  H1  UNL A   1      31.945  21.178  23.253  1.00  0.00    +0.000 H 
ATOM     93  H2  UNL A   1      33.642  21.065  23.711  1.00  0.00    +0.000 H 
BRANCH    3    4
ATOM      4  C3  UNL A   1      32.966  23.022  23.343  1.00  0.00    +0.000 C 
ATOM      5  C4  UNL A   1      32.124  23.795  22.558  1.00  0.00    +0.000 C 
ATOM      6  C5  UNL A   1      32.652  25.100  22.506  1.00  0.00    +0.000 C 
ATOM      7  C6  UNL A   1      33.807  25.097  23.253  1.00  0.00    +0.000 C 
ATOM      8  N1  UNL A   1      34.054  23.812  23.695  1.00  0.00    +0.000 N 
ATOM     94  H3  UNL A   1      31.261  23.471  22.094  1.00  0.00    +0.000 H 
ATOM     95  H4  UNL A   1      32.249  25.906  22.002  1.00  0.00    +0.000 H 
ATOM     96  H5  UNL A   1      34.394  25.922  23.450  1.00  0.00    +0.000 H 
BRANCH    8    9
ATOM     97  H6  UNL A   1      35.302  25.184  25.576  1.00  0.00    +0.000 H 
ATOM     98  H7  UNL A   1      37.267  24.499  26.832  1.00  0.00    +0.000 H 
ATOM     99  H8  UNL A   1      35.479  21.602  23.359  1.00  0.00    +0.000 H 
ATOM    100  H9  UNL A   1      39.178  19.477  24.952  1.00  0.00    +0.000 H 
ATOM    101  H10 UNL A   1      38.041  19.850  26.242  1.00  0.00    +0.000 H 
ATOM    102  H11 UNL A   1      39.924  21.817  24.988  1.00  0.00    +0.000 H 
ATOM    103  H12 UNL A   1      40.167  21.015  26.533  1.00  0.00    +0.000 H 
ATOM      9  C7  UNL A   1      35.223  23.427  24.399  1.00  0.00    +0.000 C 
ATOM     10  C8  UNL A   1      35.753  24.277  25.378  1.00  0.00    +0.000 C 
ATOM     11  C9  UNL A   1      36.895  23.893  26.085  1.00  0.00    +0.000 C 
ATOM     12  C10 UNL A   1      37.531  22.692  25.779  1.00  0.00    +0.000 C 
ATOM     13  C11 UNL A   1      37.013  21.854  24.788  1.00  0.00    +0.000 C 
ATOM     14  C12 UNL A   1      35.860  22.218  24.094  1.00  0.00    +0.000 C 
ATOM     15  O2  UNL A   1      37.596  20.666  24.425  1.00  0.00    +0.000 O 
ATOM     16  C13 UNL A   1      38.562  20.234  25.389  1.00  0.00    +0.000 C 
ATOM     17  C14 UNL A   1      39.441  21.388  25.842  1.00  0.00    +0.000 C 
ATOM     18  O3  UNL A   1      38.662  22.397  26.495  1.00  0.00    +0.000 O 
ENDBRANCH    8    9
ENDBRANCH    3    4
ENDBRANCH    2    3
ENDBRANCH   19    2
ENDBRANCH   20   19
ENDBRANCH   21   20
ENDBRANCH   22   21
ENDBRANCH   23   22
ENDBRANCH   24   23
ENDBRANCH   25   24
ENDBRANCH   26   25
ENDBRANCH   27   26
ENDBRANCH   29   27
ENDBRANCH   33   32
BRANCH   37   38
ATOM     38  C30 UNL A   1      43.084  33.395  31.932  1.00  0.00    +0.000 C 
ATOM     39  C31 UNL A   1      42.669  33.169  33.269  1.00  0.00    +0.000 C 
ATOM     40  F1  UNL A   1      42.352  31.933  33.689  1.00  0.00    +0.000 F 
ATOM     41  C32 UNL A   1      42.493  34.211  34.178  1.00  0.00    +0.000 C 
ATOM     42  F2  UNL A   1      41.968  33.962  35.387  1.00  0.00    +0.000 F 
ATOM     43  C33 UNL A   1      42.794  35.506  33.808  1.00  0.00    +0.000 C 
ATOM     44  F3  UNL A   1      42.562  36.519  34.653  1.00  0.00    +0.000 F 
ATOM     45  C34 UNL A   1      43.303  35.750  32.543  1.00  0.00    +0.000 C 
ATOM     46  F4  UNL A   1      43.603  37.005  32.183  1.00  0.00    +0.000 F 
ATOM     47  C35 UNL A   1      43.435  34.714  31.612  1.00  0.00    +0.000 C 
ATOM     48  F5  UNL A   1      43.814  35.046  30.371  1.00  0.00    +0.000 F 
ENDBRANCH   37   38
BRANCH   54   55
ATOM     65  F10 UNL A   1      45.270  26.532  33.335  1.00  0.00    +0.000 F 
ATOM     55  C41 UNL A   1      43.536  27.700  32.209  1.00  0.00    +0.000 C 
ATOM     56  C42 UNL A   1      42.214  28.160  32.294  1.00  0.00    +0.000 C 
ATOM     57  F6  UNL A   1      41.675  28.836  31.269  1.00  0.00    +0.000 F 
ATOM     58  C43 UNL A   1      41.435  27.931  33.430  1.00  0.00    +0.000 C 
ATOM     59  F7  UNL A   1      40.176  28.389  33.478  1.00  0.00    +0.000 F 
ATOM     60  C44 UNL A   1      41.950  27.230  34.509  1.00  0.00    +0.000 C 
ATOM     61  F8  UNL A   1      41.196  27.002  35.595  1.00  0.00    +0.000 F 
ATOM     62  C45 UNL A   1      43.245  26.757  34.455  1.00  0.00    +0.000 C 
ATOM     63  F9  UNL A   1      43.754  26.062  35.483  1.00  0.00    +0.000 F 
ATOM     64  C46 UNL A   1      44.023  26.998  33.323  1.00  0.00    +0.000 C 
ENDBRANCH   54   55
BRANCH   69   70
ATOM     70  C50 UNL A   1      42.694  23.868  27.502  1.00  0.00    +0.000 C 
ATOM     71  C51 UNL A   1      42.554  22.592  28.066  1.00  0.00    +0.000 C 
ATOM     72  F11 UNL A   1      42.317  22.428  29.370  1.00  0.00    +0.000 F 
ATOM     73  C52 UNL A   1      42.697  21.413  27.310  1.00  0.00    +0.000 C 
ATOM     74  F12 UNL A   1      42.524  20.222  27.901  1.00  0.00    +0.000 F 
ATOM     75  C53 UNL A   1      43.009  21.459  25.965  1.00  0.00    +0.000 C 
ATOM     76  F13 UNL A   1      43.098  20.337  25.238  1.00  0.00    +0.000 F 
ATOM     77  C54 UNL A   1      43.251  22.680  25.387  1.00  0.00    +0.000 C 
ATOM     78  F14 UNL A   1      43.586  22.762  24.091  1.00  0.00    +0.000 F 
ATOM     79  C55 UNL A   1      43.133  23.846  26.147  1.00  0.00    +0.000 C 
ATOM     80  F15 UNL A   1      43.476  24.967  25.498  1.00  0.00    +0.000 F 
ENDBRANCH   69   70
TORSDOF 17
ENDMDL
MODEL 5
REMARK VINA RESULT:     -10.7      4.170      7.868
ROOT
ATOM    129  H38 UNL A   1      39.450  26.602  27.026  1.00  0.00    +0.000 H 
ATOM     33  C26 UNL A   1      41.119  27.961  28.981  1.00  0.00    +0.000 C 
ATOM     34  C27 UNL A   1      41.175  26.502  28.504  1.00  0.00    +0.000 C 
ATOM     35  N4  UNL A   1      41.936  25.521  28.891  1.00  0.00    +0.000 N 
ATOM     36  C28 UNL A   1      41.657  24.416  28.058  1.00  0.00    +0.000 C 
ATOM     37  C29 UNL A   1      42.459  23.317  27.965  1.00  0.00    +0.000 C 
ATOM     49  C36 UNL A   1      43.556  23.411  28.865  1.00  0.00    +0.000 C 
ATOM     50  C37 UNL A   1      43.689  23.223  30.214  1.00  0.00    +0.000 C 
ATOM     51  C38 UNL A   1      44.776  24.044  30.583  1.00  0.00    +0.000 C 
ATOM     52  C39 UNL A   1      45.302  24.649  29.436  1.00  0.00    +0.000 C 
ATOM     53  N5  UNL A   1      44.704  23.993  28.389  1.00  0.00    +0.000 N 
ATOM     54  C40 UNL A   1      46.084  25.826  29.129  1.00  0.00    +0.000 C 
ATOM     66  C47 UNL A   1      46.463  26.611  30.168  1.00  0.00    +0.000 C 
ATOM     67  N6  UNL A   1      46.357  27.980  30.062  1.00  0.00    +0.000 N 
ATOM     68  C48 UNL A   1      45.796  28.307  31.188  1.00  0.00    +0.000 C 
ATOM     69  C49 UNL A   1      45.130  29.594  31.461  1.00  0.00    +0.000 C 
ATOM     81  C56 UNL A   1      43.935  29.547  30.793  1.00  0.00    +0.000 C 
ATOM     82  C57 UNL A   1      42.920  30.578  30.702  1.00  0.00    +0.000 C 
ATOM     83  C58 UNL A   1      41.854  30.115  30.022  1.00  0.00    +0.000 C 
ATOM     84  C59 UNL A   1      42.061  28.713  29.618  1.00  0.00    +0.000 C 
ATOM     85  N7  UNL A   1      43.349  28.479  30.064  1.00  0.00    +0.000 N 
ATOM     86  C60 UNL A   1      45.771  27.269  32.228  1.00  0.00    +0.000 C 
ATOM     87  C61 UNL A   1      46.394  26.295  31.572  1.00  0.00    +0.000 C 
ATOM     88  C62 UNL A   1      40.508  24.770  27.282  1.00  0.00    +0.000 C 
ATOM     89  C63 UNL A   1      40.196  26.052  27.478  1.00  0.00    +0.000 C 
ATOM    120  H29 UNL A   1      43.121  22.616  30.825  1.00  0.00    +0.000 H 
ATOM    121  H30 UNL A   1      45.126  24.178  31.544  1.00  0.00    +0.000 H 
ATOM    122  H31 UNL A   1      45.037  23.948  27.464  1.00  0.00    +0.000 H 
ATOM    123  H32 UNL A   1      43.003  31.527  31.100  1.00  0.00    +0.000 H 
ATOM    124  H33 UNL A   1      41.007  30.667  29.812  1.00  0.00    +0.000 H 
ATOM    125  H34 UNL A   1      43.824  27.635  29.888  1.00  0.00    +0.000 H 
ATOM    126  H35 UNL A   1      45.384  27.291  33.184  1.00  0.00    +0.000 H 
ATOM    127  H36 UNL A   1      46.771  25.437  32.006  1.00  0.00    +0.000 H 
ATOM    128  H37 UNL A   1      39.996  24.126  26.659  1.00  0.00    +0.000 H 
ENDROOT
BRANCH   33   32
ATOM    130  H39 UNL A   1      40.347  29.315  26.764  1.00  0.00    +0.000 H 
ATOM    131  H40 UNL A   1      38.121  30.117  26.219  1.00  0.00    +0.000 H 
ATOM    118  H27 UNL A   1      36.746  28.868  29.998  1.00  0.00    +0.000 H 
ATOM    119  H28 UNL A   1      38.980  28.117  30.570  1.00  0.00    +0.000 H 
ATOM     90  C64 UNL A   1      39.579  29.209  27.444  1.00  0.00    +0.000 C 
ATOM     91  C65 UNL A   1      38.297  29.657  27.127  1.00  0.00    +0.000 C 
ATOM     29  C22 UNL A   1      37.252  29.484  28.038  1.00  0.00    +0.000 C 
ATOM     30  C23 UNL A   1      37.509  28.945  29.306  1.00  0.00    +0.000 C 
ATOM     31  C24 UNL A   1      38.790  28.511  29.635  1.00  0.00    +0.000 C 
ATOM     32  C25 UNL A   1      39.818  28.613  28.692  1.00  0.00    +0.000 C 
BRANCH   29   27
ATOM     27  C21 UNL A   1      35.865  29.926  27.756  1.00  0.00    +0.000 C 
ATOM     28  O4  UNL A   1      35.161  29.266  27.017  1.00  0.00    +0.000 O 
BRANCH   27   26
ATOM     26  N3  UNL A   1      35.364  31.089  28.300  1.00  0.00    +0.000 N 
ATOM    117  H26 UNL A   1      34.675  30.977  28.995  1.00  0.00    +0.000 H 
BRANCH   26   25
ATOM     25  C20 UNL A   1      35.726  32.459  27.981  1.00  0.00    +0.000 C 
ATOM    115  H24 UNL A   1      36.345  32.464  27.108  1.00  0.00    +0.000 H 
ATOM    116  H25 UNL A   1      34.829  33.016  27.808  1.00  0.00    +0.000 H 
BRANCH   25   24
ATOM    113  H22 UNL A   1      36.349  34.171  29.074  1.00  0.00    +0.000 H 
ATOM    114  H23 UNL A   1      36.092  32.694  30.039  1.00  0.00    +0.000 H 
ATOM     24  C19 UNL A   1      36.487  33.111  29.137  1.00  0.00    +0.000 C 
BRANCH   24   23
ATOM    111  H20 UNL A   1      38.195  32.086  28.396  1.00  0.00    +0.000 H 
ATOM     23  C18 UNL A   1      37.995  32.823  29.145  1.00  0.00    +0.000 C 
ATOM    112  H21 UNL A   1      38.475  33.762  28.963  1.00  0.00    +0.000 H 
BRANCH   23   22
ATOM    110  H19 UNL A   1      38.799  31.282  30.317  1.00  0.00    +0.000 H 
ATOM    109  H18 UNL A   1      37.818  32.472  31.230  1.00  0.00    +0.000 H 
ATOM     22  C17 UNL A   1      38.559  32.313  30.474  1.00  0.00    +0.000 C 
BRANCH   22   21
ATOM    107  H16 UNL A   1      40.383  32.289  31.567  1.00  0.00    +0.000 H 
ATOM    108  H17 UNL A   1      40.396  33.241  30.052  1.00  0.00    +0.000 H 
ATOM     21  C16 UNL A   1      39.859  32.981  30.940  1.00  0.00    +0.000 C 
BRANCH   21   20
ATOM    105  H14 UNL A   1      39.630  35.099  31.033  1.00  0.00    +0.000 H 
ATOM    106  H15 UNL A   1      38.763  34.206  32.283  1.00  0.00    +0.000 H 
ATOM     20  C15 UNL A   1      39.671  34.282  31.723  1.00  0.00    +0.000 C 
BRANCH   20   19
ATOM     19  N2  UNL A   1      40.759  34.508  32.653  1.00  0.00    +0.000 N 
ATOM    104  H13 UNL A   1      41.206  35.385  32.653  1.00  0.00    +0.000 H 
BRANCH   19    2
ATOM      1  O1  UNL A   1      42.088  32.740  33.277  1.00  0.00    +0.000 O 
ATOM      2  C1  UNL A   1      41.196  33.543  33.538  1.00  0.00    +0.000 C 
BRANCH    2    3
ATOM      3  C2  UNL A   1      40.411  33.479  34.845  1.00  0.00    +0.000 C 
ATOM     92  H1  UNL A   1      40.331  34.465  35.253  1.00  0.00    +0.000 H 
ATOM     93  H2  UNL A   1      40.932  32.830  35.518  1.00  0.00    +0.000 H 
BRANCH    3    4
ATOM      4  C3  UNL A   1      39.029  32.926  34.629  1.00  0.00    +0.000 C 
ATOM      5  C4  UNL A   1      37.830  33.619  34.654  1.00  0.00    +0.000 C 
ATOM      6  C5  UNL A   1      36.813  32.748  34.216  1.00  0.00    +0.000 C 
ATOM      7  C6  UNL A   1      37.409  31.541  33.938  1.00  0.00    +0.000 C 
ATOM      8  N1  UNL A   1      38.748  31.612  34.270  1.00  0.00    +0.000 N 
ATOM     94  H3  UNL A   1      37.703  34.602  34.944  1.00  0.00    +0.000 H 
ATOM     95  H4  UNL A   1      35.810  32.974  34.121  1.00  0.00    +0.000 H 
ATOM     96  H5  UNL A   1      36.933  30.714  33.545  1.00  0.00    +0.000 H 
BRANCH    8    9
ATOM     97  H6  UNL A   1      39.126  29.970  32.237  1.00  0.00    +0.000 H 
ATOM     98  H7  UNL A   1      40.699  28.120  32.119  1.00  0.00    +0.000 H 
ATOM     99  H8  UNL A   1      40.331  30.730  36.205  1.00  0.00    +0.000 H 
ATOM    100  H9  UNL A   1      43.399  27.484  37.090  1.00  0.00    +0.000 H 
ATOM    101  H10 UNL A   1      43.841  28.421  35.667  1.00  0.00    +0.000 H 
ATOM    102  H11 UNL A   1      41.781  26.245  35.719  1.00  0.00    +0.000 H 
ATOM    103  H12 UNL A   1      43.425  26.077  35.123  1.00  0.00    +0.000 H 
ATOM      9  C7  UNL A   1      39.639  30.510  34.218  1.00  0.00    +0.000 C 
ATOM     10  C8  UNL A   1      39.720  29.742  33.049  1.00  0.00    +0.000 C 
ATOM     11  C9  UNL A   1      40.608  28.666  32.989  1.00  0.00    +0.000 C 
ATOM     12  C10 UNL A   1      41.371  28.329  34.106  1.00  0.00    +0.000 C 
ATOM     13  C11 UNL A   1      41.273  29.084  35.278  1.00  0.00    +0.000 C 
ATOM     14  C12 UNL A   1      40.407  30.175  35.339  1.00  0.00    +0.000 C 
ATOM     15  O2  UNL A   1      41.982  28.801  36.418  1.00  0.00    +0.000 O 
ATOM     16  C13 UNL A   1      43.055  27.889  36.161  1.00  0.00    +0.000 C 
ATOM     17  C14 UNL A   1      42.605  26.749  35.260  1.00  0.00    +0.000 C 
ATOM     18  O3  UNL A   1      42.198  27.243  33.980  1.00  0.00    +0.000 O 
ENDBRANCH    8    9
ENDBRANCH    3    4
ENDBRANCH    2    3
ENDBRANCH   19    2
ENDBRANCH   20   19
ENDBRANCH   21   20
ENDBRANCH   22   21
ENDBRANCH   23   22
ENDBRANCH   24   23
ENDBRANCH   25   24
ENDBRANCH   26   25
ENDBRANCH   27   26
ENDBRANCH   29   27
ENDBRANCH   33   32
BRANCH   37   38
ATOM     38  C30 UNL A   1      42.501  22.195  26.961  1.00  0.00    +0.000 C 
ATOM     39  C31 UNL A   1      41.882  20.964  27.298  1.00  0.00    +0.000 C 
ATOM     40  F1  UNL A   1      40.980  20.899  28.290  1.00  0.00    +0.000 F 
ATOM     41  C32 UNL A   1      42.234  19.764  26.682  1.00  0.00    +0.000 C 
ATOM     42  F2  UNL A   1      41.722  18.608  27.129  1.00  0.00    +0.000 F 
ATOM     43  C33 UNL A   1      43.160  19.761  25.659  1.00  0.00    +0.000 C 
ATOM     44  F3  UNL A   1      43.553  18.603  25.110  1.00  0.00    +0.000 F 
ATOM     45  C34 UNL A   1      43.705  20.960  25.232  1.00  0.00    +0.000 C 
ATOM     46  F4  UNL A   1      44.600  20.961  24.234  1.00  0.00    +0.000 F 
ATOM     47  C35 UNL A   1      43.392  22.161  25.880  1.00  0.00    +0.000 C 
ATOM     48  F5  UNL A   1      44.054  23.259  25.494  1.00  0.00    +0.000 F 
ENDBRANCH   37   38
BRANCH   54   55
ATOM     65  F10 UNL A   1      48.492  26.351  27.568  1.00  0.00    +0.000 F 
ATOM     55  C41 UNL A   1      46.135  26.532  27.792  1.00  0.00    +0.000 C 
ATOM     56  C42 UNL A   1      44.947  26.931  27.165  1.00  0.00    +0.000 C 
ATOM     57  F6  UNL A   1      43.776  26.797  27.805  1.00  0.00    +0.000 F 
ATOM     58  C43 UNL A   1      44.948  27.467  25.875  1.00  0.00    +0.000 C 
ATOM     59  F7  UNL A   1      43.792  27.833  25.304  1.00  0.00    +0.000 F 
ATOM     60  C44 UNL A   1      46.136  27.630  25.180  1.00  0.00    +0.000 C 
ATOM     61  F8  UNL A   1      46.137  28.155  23.946  1.00  0.00    +0.000 F 
ATOM     62  C45 UNL A   1      47.325  27.255  25.773  1.00  0.00    +0.000 C 
ATOM     63  F9  UNL A   1      48.486  27.420  25.122  1.00  0.00    +0.000 F 
ATOM     64  C46 UNL A   1      47.317  26.709  27.056  1.00  0.00    +0.000 C 
ENDBRANCH   54   55
BRANCH   69   70
ATOM     70  C50 UNL A   1      45.833  30.543  32.416  1.00  0.00    +0.000 C 
ATOM     71  C51 UNL A   1      47.081  31.147  32.209  1.00  0.00    +0.000 C 
ATOM     72  F11 UNL A   1      47.882  30.768  31.210  1.00  0.00    +0.000 F 
ATOM     73  C52 UNL A   1      47.583  32.151  33.059  1.00  0.00    +0.000 C 
ATOM     74  F12 UNL A   1      48.772  32.710  32.792  1.00  0.00    +0.000 F 
ATOM     75  C53 UNL A   1      46.870  32.576  34.164  1.00  0.00    +0.000 C 
ATOM     76  F13 UNL A   1      47.330  33.564  34.943  1.00  0.00    +0.000 F 
ATOM     77  C54 UNL A   1      45.687  31.949  34.465  1.00  0.00    +0.000 C 
ATOM     78  F14 UNL A   1      44.983  32.314  35.546  1.00  0.00    +0.000 F 
ATOM     79  C55 UNL A   1      45.205  30.936  33.634  1.00  0.00    +0.000 C 
ATOM     80  F15 UNL A   1      44.088  30.342  34.075  1.00  0.00    +0.000 F 
ENDBRANCH   69   70
TORSDOF 17
ENDMDL
MODEL 6
REMARK VINA RESULT:     -10.6      1.831      3.141
ROOT
ATOM    129  H38 UNL A   1      39.440  26.662  27.005  1.00  0.00    +0.000 H 
ATOM     33  C26 UNL A   1      40.982  27.903  29.135  1.00  0.00    +0.000 C 
ATOM     34  C27 UNL A   1      41.065  26.472  28.585  1.00  0.00    +0.000 C 
ATOM     35  N4  UNL A   1      41.797  25.467  28.967  1.00  0.00    +0.000 N 
ATOM     36  C28 UNL A   1      41.571  24.411  28.059  1.00  0.00    +0.000 C 
ATOM     37  C29 UNL A   1      42.375  23.313  27.959  1.00  0.00    +0.000 C 
ATOM     49  C36 UNL A   1      43.411  23.352  28.932  1.00  0.00    +0.000 C 
ATOM     50  C37 UNL A   1      43.455  23.091  30.274  1.00  0.00    +0.000 C 
ATOM     51  C38 UNL A   1      44.518  23.885  30.757  1.00  0.00    +0.000 C 
ATOM     52  C39 UNL A   1      45.119  24.547  29.681  1.00  0.00    +0.000 C 
ATOM     53  N5  UNL A   1      44.589  23.952  28.563  1.00  0.00    +0.000 N 
ATOM     54  C40 UNL A   1      45.922  25.735  29.490  1.00  0.00    +0.000 C 
ATOM     66  C47 UNL A   1      46.234  26.461  30.592  1.00  0.00    +0.000 C 
ATOM     67  N6  UNL A   1      46.139  27.834  30.554  1.00  0.00    +0.000 N 
ATOM     68  C48 UNL A   1      45.506  28.103  31.657  1.00  0.00    +0.000 C 
ATOM     69  C49 UNL A   1      44.827  29.377  31.955  1.00  0.00    +0.000 C 
ATOM     81  C56 UNL A   1      43.678  29.373  31.210  1.00  0.00    +0.000 C 
ATOM     82  C57 UNL A   1      42.673  30.414  31.109  1.00  0.00    +0.000 C 
ATOM     83  C58 UNL A   1      41.653  29.994  30.337  1.00  0.00    +0.000 C 
ATOM     84  C59 UNL A   1      41.882  28.615  29.873  1.00  0.00    +0.000 C 
ATOM     85  N7  UNL A   1      43.138  28.350  30.387  1.00  0.00    +0.000 N 
ATOM     86  C60 UNL A   1      45.411  27.010  32.635  1.00  0.00    +0.000 C 
ATOM     87  C61 UNL A   1      46.073  26.069  31.970  1.00  0.00    +0.000 C 
ATOM     88  C62 UNL A   1      40.475  24.812  27.229  1.00  0.00    +0.000 C 
ATOM     89  C63 UNL A   1      40.154  26.083  27.475  1.00  0.00    +0.000 C 
ATOM    120  H29 UNL A   1      42.847  22.455  30.813  1.00  0.00    +0.000 H 
ATOM    121  H30 UNL A   1      44.805  23.965  31.745  1.00  0.00    +0.000 H 
ATOM    122  H31 UNL A   1      44.982  23.955  27.661  1.00  0.00    +0.000 H 
ATOM    123  H32 UNL A   1      42.732  31.339  31.563  1.00  0.00    +0.000 H 
ATOM    124  H33 UNL A   1      40.823  30.561  30.103  1.00  0.00    +0.000 H 
ATOM    125  H34 UNL A   1      43.622  27.514  30.197  1.00  0.00    +0.000 H 
ATOM    126  H35 UNL A   1      44.963  26.983  33.565  1.00  0.00    +0.000 H 
ATOM    127  H36 UNL A   1      46.419  25.187  32.380  1.00  0.00    +0.000 H 
ATOM    128  H37 UNL A   1      40.004  24.206  26.541  1.00  0.00    +0.000 H 
ENDROOT
BRANCH   33   32
ATOM    130  H39 UNL A   1      40.303  29.235  26.875  1.00  0.00    +0.000 H 
ATOM    131  H40 UNL A   1      38.111  30.075  26.253  1.00  0.00    +0.000 H 
ATOM    118  H27 UNL A   1      36.603  28.920  30.011  1.00  0.00    +0.000 H 
ATOM    119  H28 UNL A   1      38.803  28.132  30.659  1.00  0.00    +0.000 H 
ATOM     90  C64 UNL A   1      39.513  29.157  27.535  1.00  0.00    +0.000 C 
ATOM     91  C65 UNL A   1      38.251  29.627  27.173  1.00  0.00    +0.000 C 
ATOM     29  C22 UNL A   1      37.177  29.491  28.056  1.00  0.00    +0.000 C 
ATOM     30  C23 UNL A   1      37.386  28.968  29.340  1.00  0.00    +0.000 C 
ATOM     31  C24 UNL A   1      38.648  28.514  29.713  1.00  0.00    +0.000 C 
ATOM     32  C25 UNL A   1      39.704  28.578  28.798  1.00  0.00    +0.000 C 
BRANCH   29   27
ATOM     27  C21 UNL A   1      35.808  29.957  27.728  1.00  0.00    +0.000 C 
ATOM     28  O4  UNL A   1      35.566  31.148  27.710  1.00  0.00    +0.000 O 
BRANCH   27   26
ATOM     26  N3  UNL A   1      34.795  29.061  27.465  1.00  0.00    +0.000 N 
ATOM    117  H26 UNL A   1      34.324  28.702  28.252  1.00  0.00    +0.000 H 
BRANCH   26   25
ATOM     25  C20 UNL A   1      34.332  28.579  26.175  1.00  0.00    +0.000 C 
ATOM    115  H24 UNL A   1      33.707  29.323  25.727  1.00  0.00    +0.000 H 
ATOM    116  H25 UNL A   1      35.184  28.385  25.559  1.00  0.00    +0.000 H 
BRANCH   25   24
ATOM    113  H22 UNL A   1      33.417  27.080  27.369  1.00  0.00    +0.000 H 
ATOM    114  H23 UNL A   1      32.604  27.434  25.822  1.00  0.00    +0.000 H 
ATOM     24  C19 UNL A   1      33.536  27.282  26.325  1.00  0.00    +0.000 C 
BRANCH   24   23
ATOM    111  H20 UNL A   1      34.323  26.269  24.630  1.00  0.00    +0.000 H 
ATOM     23  C18 UNL A   1      34.191  26.057  25.670  1.00  0.00    +0.000 C 
ATOM    112  H21 UNL A   1      35.109  25.898  26.196  1.00  0.00    +0.000 H 
BRANCH   23   22
ATOM    110  H19 UNL A   1      34.088  24.029  26.192  1.00  0.00    +0.000 H 
ATOM    109  H18 UNL A   1      33.034  24.495  24.820  1.00  0.00    +0.000 H 
ATOM     22  C17 UNL A   1      33.405  24.748  25.791  1.00  0.00    +0.000 C 
BRANCH   22   21
ATOM    107  H16 UNL A   1      31.860  23.779  26.884  1.00  0.00    +0.000 H 
ATOM    108  H17 UNL A   1      32.575  25.222  27.663  1.00  0.00    +0.000 H 
ATOM     21  C16 UNL A   1      32.213  24.781  26.757  1.00  0.00    +0.000 C 
BRANCH   21   20
ATOM    105  H14 UNL A   1      30.430  25.883  27.150  1.00  0.00    +0.000 H 
ATOM    106  H15 UNL A   1      31.429  26.533  25.850  1.00  0.00    +0.000 H 
ATOM     20  C15 UNL A   1      31.036  25.646  26.301  1.00  0.00    +0.000 C 
BRANCH   20   19
ATOM     19  N2  UNL A   1      30.220  24.962  25.319  1.00  0.00    +0.000 N 
ATOM    104  H13 UNL A   1      30.108  23.987  25.394  1.00  0.00    +0.000 H 
BRANCH   19    2
ATOM      1  O1  UNL A   1      28.648  26.390  24.442  1.00  0.00    +0.000 O 
ATOM      2  C1  UNL A   1      29.593  25.621  24.281  1.00  0.00    +0.000 C 
BRANCH    2    3
ATOM      3  C2  UNL A   1      30.099  25.247  22.891  1.00  0.00    +0.000 C 
ATOM     92  H1  UNL A   1      29.467  25.698  22.156  1.00  0.00    +0.000 H 
ATOM     93  H2  UNL A   1      30.083  24.180  22.804  1.00  0.00    +0.000 H 
BRANCH    3    4
ATOM      4  C3  UNL A   1      31.511  25.718  22.677  1.00  0.00    +0.000 C 
ATOM      5  C4  UNL A   1      32.627  24.942  22.405  1.00  0.00    +0.000 C 
ATOM      6  C5  UNL A   1      33.694  25.807  22.093  1.00  0.00    +0.000 C 
ATOM      7  C6  UNL A   1      33.212  27.091  22.186  1.00  0.00    +0.000 C 
ATOM      8  N1  UNL A   1      31.904  27.051  22.628  1.00  0.00    +0.000 N 
ATOM     94  H3  UNL A   1      32.669  23.911  22.427  1.00  0.00    +0.000 H 
ATOM     95  H4  UNL A   1      34.657  25.529  21.841  1.00  0.00    +0.000 H 
ATOM     96  H5  UNL A   1      33.742  27.948  21.963  1.00  0.00    +0.000 H 
BRANCH    8    9
ATOM     97  H6  UNL A   1      32.006  28.466  24.855  1.00  0.00    +0.000 H 
ATOM     98  H7  UNL A   1      30.741  30.476  25.375  1.00  0.00    +0.000 H 
ATOM     99  H8  UNL A   1      30.028  28.190  21.142  1.00  0.00    +0.000 H 
ATOM    100  H9  UNL A   1      27.104  31.681  21.164  1.00  0.00    +0.000 H 
ATOM    101  H10 UNL A   1      28.758  32.221  21.427  1.00  0.00    +0.000 H 
ATOM    102  H11 UNL A   1      27.007  30.967  23.512  1.00  0.00    +0.000 H 
ATOM    103  H12 UNL A   1      27.328  32.688  23.351  1.00  0.00    +0.000 H 
ATOM      9  C7  UNL A   1      31.137  28.200  22.944  1.00  0.00    +0.000 C 
ATOM     10  C8  UNL A   1      31.323  28.839  24.177  1.00  0.00    +0.000 C 
ATOM     11  C9  UNL A   1      30.581  29.981  24.484  1.00  0.00    +0.000 C 
ATOM     12  C10 UNL A   1      29.623  30.451  23.588  1.00  0.00    +0.000 C 
ATOM     13  C11 UNL A   1      29.423  29.800  22.366  1.00  0.00    +0.000 C 
ATOM     14  C12 UNL A   1      30.177  28.673  22.041  1.00  0.00    +0.000 C 
ATOM     15  O2  UNL A   1      28.489  30.198  21.444  1.00  0.00    +0.000 O 
ATOM     16  C13 UNL A   1      28.005  31.518  21.717  1.00  0.00    +0.000 C 
ATOM     17  C14 UNL A   1      27.718  31.703  23.199  1.00  0.00    +0.000 C 
ATOM     18  O3  UNL A   1      28.914  31.559  23.972  1.00  0.00    +0.000 O 
ENDBRANCH    8    9
ENDBRANCH    3    4
ENDBRANCH    2    3
ENDBRANCH   19    2
ENDBRANCH   20   19
ENDBRANCH   21   20
ENDBRANCH   22   21
ENDBRANCH   23   22
ENDBRANCH   24   23
ENDBRANCH   25   24
ENDBRANCH   26   25
ENDBRANCH   27   26
ENDBRANCH   29   27
ENDBRANCH   33   32
BRANCH   37   38
ATOM     38  C30 UNL A   1      42.479  22.247  26.900  1.00  0.00    +0.000 C 
ATOM     39  C31 UNL A   1      41.883  20.985  27.152  1.00  0.00    +0.000 C 
ATOM     40  F1  UNL A   1      40.952  20.845  28.108  1.00  0.00    +0.000 F 
ATOM     41  C32 UNL A   1      42.287  19.828  26.487  1.00  0.00    +0.000 C 
ATOM     42  F2  UNL A   1      41.793  18.637  26.857  1.00  0.00    +0.000 F 
ATOM     43  C33 UNL A   1      43.246  19.901  25.497  1.00  0.00    +0.000 C 
ATOM     44  F3  UNL A   1      43.687  18.785  24.903  1.00  0.00    +0.000 F 
ATOM     45  C34 UNL A   1      43.772  21.135  25.151  1.00  0.00    +0.000 C 
ATOM     46  F4  UNL A   1      44.699  21.211  24.186  1.00  0.00    +0.000 F 
ATOM     47  C35 UNL A   1      43.406  22.292  25.850  1.00  0.00    +0.000 C 
ATOM     48  F5  UNL A   1      44.050  23.425  25.543  1.00  0.00    +0.000 F 
ENDBRANCH   37   38
BRANCH   54   55
ATOM     65  F10 UNL A   1      43.733  26.914  27.962  1.00  0.00    +0.000 F 
ATOM     55  C41 UNL A   1      46.062  26.512  28.200  1.00  0.00    +0.000 C 
ATOM     56  C42 UNL A   1      47.335  26.782  27.680  1.00  0.00    +0.000 C 
ATOM     57  F6  UNL A   1      48.420  26.247  28.259  1.00  0.00    +0.000 F 
ATOM     58  C43 UNL A   1      47.508  27.605  26.564  1.00  0.00    +0.000 C 
ATOM     59  F7  UNL A   1      48.741  27.846  26.098  1.00  0.00    +0.000 F 
ATOM     60  C44 UNL A   1      46.413  28.173  25.931  1.00  0.00    +0.000 C 
ATOM     61  F8  UNL A   1      46.580  28.954  24.854  1.00  0.00    +0.000 F 
ATOM     62  C45 UNL A   1      45.145  27.920  26.413  1.00  0.00    +0.000 C 
ATOM     63  F9  UNL A   1      44.073  28.447  25.802  1.00  0.00    +0.000 F 
ATOM     64  C46 UNL A   1      44.979  27.108  27.534  1.00  0.00    +0.000 C 
ENDBRANCH   54   55
BRANCH   69   70
ATOM     70  C50 UNL A   1      45.468  30.269  33.004  1.00  0.00    +0.000 C 
ATOM     71  C51 UNL A   1      45.136  30.311  34.365  1.00  0.00    +0.000 C 
ATOM     72  F11 UNL A   1      44.049  29.696  34.837  1.00  0.00    +0.000 F 
ATOM     73  C52 UNL A   1      45.895  31.035  35.305  1.00  0.00    +0.000 C 
ATOM     74  F12 UNL A   1      45.543  31.014  36.598  1.00  0.00    +0.000 F 
ATOM     75  C53 UNL A   1      47.004  31.765  34.920  1.00  0.00    +0.000 C 
ATOM     76  F13 UNL A   1      47.751  32.413  35.823  1.00  0.00    +0.000 F 
ATOM     77  C54 UNL A   1      47.314  31.834  33.585  1.00  0.00    +0.000 C 
ATOM     78  F14 UNL A   1      48.365  32.557  33.170  1.00  0.00    +0.000 F 
ATOM     79  C55 UNL A   1      46.543  31.136  32.653  1.00  0.00    +0.000 C 
ATOM     80  F15 UNL A   1      46.891  31.348  31.377  1.00  0.00    +0.000 F 
ENDBRANCH   69   70
TORSDOF 17
ENDMDL
MODEL 7
REMARK VINA RESULT:     -10.5      1.510      3.318
ROOT
ATOM    129  H38 UNL A   1      39.290  26.901  26.823  1.00  0.00    +0.000 H 
ATOM     33  C26 UNL A   1      40.465  27.886  29.293  1.00  0.00    +0.000 C 
ATOM     34  C27 UNL A   1      40.775  26.597  28.518  1.00  0.00    +0.000 C 
ATOM     35  N4  UNL A   1      41.587  25.622  28.801  1.00  0.00    +0.000 N 
ATOM     36  C28 UNL A   1      41.577  24.732  27.706  1.00  0.00    +0.000 C 
ATOM     37  C29 UNL A   1      42.516  23.762  27.509  1.00  0.00    +0.000 C 
ATOM     49  C36 UNL A   1      43.446  23.731  28.585  1.00  0.00    +0.000 C 
ATOM     50  C37 UNL A   1      43.399  23.233  29.858  1.00  0.00    +0.000 C 
ATOM     51  C38 UNL A   1      44.307  24.033  30.586  1.00  0.00    +0.000 C 
ATOM     52  C39 UNL A   1      44.918  24.941  29.715  1.00  0.00    +0.000 C 
ATOM     53  N5  UNL A   1      44.570  24.509  28.458  1.00  0.00    +0.000 N 
ATOM     54  C40 UNL A   1      45.582  26.221  29.821  1.00  0.00    +0.000 C 
ATOM     66  C47 UNL A   1      45.700  26.761  31.059  1.00  0.00    +0.000 C 
ATOM     67  N6  UNL A   1      45.440  28.100  31.247  1.00  0.00    +0.000 N 
ATOM     68  C48 UNL A   1      44.680  28.094  32.303  1.00  0.00    +0.000 C 
ATOM     69  C49 UNL A   1      43.825  29.213  32.737  1.00  0.00    +0.000 C 
ATOM     81  C56 UNL A   1      42.758  29.225  31.878  1.00  0.00    +0.000 C 
ATOM     82  C57 UNL A   1      41.646  30.155  31.846  1.00  0.00    +0.000 C 
ATOM     83  C58 UNL A   1      40.760  29.780  30.904  1.00  0.00    +0.000 C 
ATOM     84  C59 UNL A   1      41.199  28.541  30.238  1.00  0.00    +0.000 C 
ATOM     85  N7  UNL A   1      42.426  28.319  30.837  1.00  0.00    +0.000 N 
ATOM     86  C60 UNL A   1      44.633  26.836  33.062  1.00  0.00    +0.000 C 
ATOM     87  C61 UNL A   1      45.463  26.109  32.323  1.00  0.00    +0.000 C 
ATOM     88  C62 UNL A   1      40.520  25.162  26.841  1.00  0.00    +0.000 C 
ATOM     89  C63 UNL A   1      40.024  26.325  27.263  1.00  0.00    +0.000 C 
ATOM    120  H29 UNL A   1      42.828  22.449  30.209  1.00  0.00    +0.000 H 
ATOM    121  H30 UNL A   1      44.491  23.960  31.599  1.00  0.00    +0.000 H 
ATOM    122  H31 UNL A   1      45.040  24.719  27.620  1.00  0.00    +0.000 H 
ATOM    123  H32 UNL A   1      41.548  30.983  32.456  1.00  0.00    +0.000 H 
ATOM    124  H33 UNL A   1      39.891  30.290  30.680  1.00  0.00    +0.000 H 
ATOM    125  H34 UNL A   1      43.025  27.588  30.561  1.00  0.00    +0.000 H 
ATOM    126  H35 UNL A   1      44.108  26.592  33.916  1.00  0.00    +0.000 H 
ATOM    127  H36 UNL A   1      45.877  25.208  32.611  1.00  0.00    +0.000 H 
ATOM    128  H37 UNL A   1      40.192  24.646  26.010  1.00  0.00    +0.000 H 
ENDROOT
BRANCH   33   32
ATOM    130  H39 UNL A   1      38.107  27.712  30.616  1.00  0.00    +0.000 H 
ATOM    131  H40 UNL A   1      36.053  28.920  30.147  1.00  0.00    +0.000 H 
ATOM    118  H27 UNL A   1      37.820  30.587  26.708  1.00  0.00    +0.000 H 
ATOM    119  H28 UNL A   1      39.854  29.339  27.139  1.00  0.00    +0.000 H 
ATOM     90  C64 UNL A   1      38.049  28.333  29.794  1.00  0.00    +0.000 C 
ATOM     91  C65 UNL A   1      36.874  29.038  29.532  1.00  0.00    +0.000 C 
ATOM     29  C22 UNL A   1      36.810  29.902  28.436  1.00  0.00    +0.000 C 
ATOM     30  C23 UNL A   1      37.891  29.991  27.547  1.00  0.00    +0.000 C 
ATOM     31  C24 UNL A   1      39.059  29.276  27.795  1.00  0.00    +0.000 C 
ATOM     32  C25 UNL A   1      39.150  28.473  28.936  1.00  0.00    +0.000 C 
BRANCH   29   27
ATOM     27  C21 UNL A   1      35.596  30.689  28.110  1.00  0.00    +0.000 C 
ATOM     28  O4  UNL A   1      35.234  31.574  28.859  1.00  0.00    +0.000 O 
BRANCH   27   26
ATOM     26  N3  UNL A   1      34.855  30.419  26.980  1.00  0.00    +0.000 N 
ATOM    117  H26 UNL A   1      35.332  30.505  26.123  1.00  0.00    +0.000 H 
BRANCH   26   25
ATOM     25  C20 UNL A   1      33.460  30.021  26.893  1.00  0.00    +0.000 C 
ATOM    115  H24 UNL A   1      32.866  30.701  27.468  1.00  0.00    +0.000 H 
ATOM    116  H25 UNL A   1      33.165  30.040  25.866  1.00  0.00    +0.000 H 
BRANCH   25   24
ATOM    113  H22 UNL A   1      34.129  28.028  27.197  1.00  0.00    +0.000 H 
ATOM    114  H23 UNL A   1      33.090  28.695  28.483  1.00  0.00    +0.000 H 
ATOM     24  C19 UNL A   1      33.258  28.603  27.430  1.00  0.00    +0.000 C 
BRANCH   24   23
ATOM    111  H20 UNL A   1      31.983  26.908  27.305  1.00  0.00    +0.000 H 
ATOM     23  C18 UNL A   1      32.034  27.876  26.853  1.00  0.00    +0.000 C 
ATOM    112  H21 UNL A   1      31.192  28.498  27.072  1.00  0.00    +0.000 H 
BRANCH   23   22
ATOM    110  H19 UNL A   1      33.065  27.606  25.048  1.00  0.00    +0.000 H 
ATOM    109  H18 UNL A   1      31.537  28.529  24.897  1.00  0.00    +0.000 H 
ATOM     22  C17 UNL A   1      32.038  27.690  25.333  1.00  0.00    +0.000 C 
BRANCH   22   21
ATOM    107  H16 UNL A   1      31.473  25.654  25.566  1.00  0.00    +0.000 H 
ATOM    108  H17 UNL A   1      30.332  26.676  24.641  1.00  0.00    +0.000 H 
ATOM     21  C16 UNL A   1      31.354  26.415  24.823  1.00  0.00    +0.000 C 
BRANCH   21   20
ATOM    105  H14 UNL A   1      31.277  26.220  22.701  1.00  0.00    +0.000 H 
ATOM    106  H15 UNL A   1      32.903  26.229  23.383  1.00  0.00    +0.000 H 
ATOM     20  C15 UNL A   1      31.900  25.875  23.499  1.00  0.00    +0.000 C 
BRANCH   20   19
ATOM     19  N2  UNL A   1      31.926  24.427  23.483  1.00  0.00    +0.000 N 
ATOM    104  H13 UNL A   1      31.075  23.940  23.395  1.00  0.00    +0.000 H 
BRANCH   19    2
ATOM      1  O1  UNL A   1      33.781  23.384  22.615  1.00  0.00    +0.000 O 
ATOM      2  C1  UNL A   1      33.096  23.701  23.585  1.00  0.00    +0.000 C 
BRANCH    2    3
ATOM      3  C2  UNL A   1      33.428  23.227  24.996  1.00  0.00    +0.000 C 
ATOM     92  H1  UNL A   1      33.097  22.216  25.112  1.00  0.00    +0.000 H 
ATOM     93  H2  UNL A   1      32.932  23.871  25.692  1.00  0.00    +0.000 H 
BRANCH    3    4
ATOM      4  C3  UNL A   1      34.907  23.291  25.262  1.00  0.00    +0.000 C 
ATOM      5  C4  UNL A   1      35.670  24.419  25.518  1.00  0.00    +0.000 C 
ATOM      6  C5  UNL A   1      36.961  23.996  25.893  1.00  0.00    +0.000 C 
ATOM      7  C6  UNL A   1      36.962  22.622  25.853  1.00  0.00    +0.000 C 
ATOM      8  N1  UNL A   1      35.739  22.183  25.383  1.00  0.00    +0.000 N 
ATOM     94  H3  UNL A   1      35.350  25.397  25.447  1.00  0.00    +0.000 H 
ATOM     95  H4  UNL A   1      37.756  24.603  26.150  1.00  0.00    +0.000 H 
ATOM     96  H5  UNL A   1      37.750  22.015  26.128  1.00  0.00    +0.000 H 
BRANCH    8    9
ATOM     97  H6  UNL A   1      37.453  20.249  24.837  1.00  0.00    +0.000 H 
ATOM     98  H7  UNL A   1      36.940  17.908  24.431  1.00  0.00    +0.000 H 
ATOM     99  H8  UNL A   1      33.337  21.070  25.248  1.00  0.00    +0.000 H 
ATOM    100  H9  UNL A   1      31.310  17.066  24.475  1.00  0.00    +0.000 H 
ATOM    101  H10 UNL A   1      32.487  16.954  25.779  1.00  0.00    +0.000 H 
ATOM    102  H11 UNL A   1      33.156  16.982  22.857  1.00  0.00    +0.000 H 
ATOM    103  H12 UNL A   1      33.097  15.551  23.876  1.00  0.00    +0.000 H 
ATOM      9  C7  UNL A   1      35.434  20.826  25.109  1.00  0.00    +0.000 C 
ATOM     10  C8  UNL A   1      36.473  19.924  24.844  1.00  0.00    +0.000 C 
ATOM     11  C9  UNL A   1      36.177  18.583  24.590  1.00  0.00    +0.000 C 
ATOM     12  C10 UNL A   1      34.850  18.158  24.549  1.00  0.00    +0.000 C 
ATOM     13  C11 UNL A   1      33.814  19.064  24.793  1.00  0.00    +0.000 C 
ATOM     14  C12 UNL A   1      34.101  20.400  25.071  1.00  0.00    +0.000 C 
ATOM     15  O2  UNL A   1      32.487  18.719  24.754  1.00  0.00    +0.000 O 
ATOM     16  C13 UNL A   1      32.309  17.299  24.781  1.00  0.00    +0.000 C 
ATOM     17  C14 UNL A   1      33.288  16.603  23.849  1.00  0.00    +0.000 C 
ATOM     18  O3  UNL A   1      34.638  16.835  24.264  1.00  0.00    +0.000 O 
ENDBRANCH    8    9
ENDBRANCH    3    4
ENDBRANCH    2    3
ENDBRANCH   19    2
ENDBRANCH   20   19
ENDBRANCH   21   20
ENDBRANCH   22   21
ENDBRANCH   23   22
ENDBRANCH   24   23
ENDBRANCH   25   24
ENDBRANCH   26   25
ENDBRANCH   27   26
ENDBRANCH   29   27
ENDBRANCH   33   32
BRANCH   37   38
ATOM     38  C30 UNL A   1      42.848  22.925  26.302  1.00  0.00    +0.000 C 
ATOM     39  C31 UNL A   1      42.734  21.516  26.405  1.00  0.00    +0.000 C 
ATOM     40  F1  UNL A   1      42.015  20.956  27.391  1.00  0.00    +0.000 F 
ATOM     41  C32 UNL A   1      43.420  20.652  25.554  1.00  0.00    +0.000 C 
ATOM     42  F2  UNL A   1      43.392  19.329  25.777  1.00  0.00    +0.000 F 
ATOM     43  C33 UNL A   1      44.183  21.162  24.523  1.00  0.00    +0.000 C 
ATOM     44  F3  UNL A   1      44.899  20.340  23.744  1.00  0.00    +0.000 F 
ATOM     45  C34 UNL A   1      44.230  22.533  24.327  1.00  0.00    +0.000 C 
ATOM     46  F4  UNL A   1      44.965  23.032  23.324  1.00  0.00    +0.000 F 
ATOM     47  C35 UNL A   1      43.583  23.405  25.210  1.00  0.00    +0.000 C 
ATOM     48  F5  UNL A   1      43.778  24.718  25.030  1.00  0.00    +0.000 F 
ENDBRANCH   37   38
BRANCH   54   55
ATOM     65  F10 UNL A   1      43.411  27.466  28.320  1.00  0.00    +0.000 F 
ATOM     55  C41 UNL A   1      45.742  27.232  28.707  1.00  0.00    +0.000 C 
ATOM     56  C42 UNL A   1      47.018  27.704  28.368  1.00  0.00    +0.000 C 
ATOM     57  F6  UNL A   1      48.103  27.169  28.946  1.00  0.00    +0.000 F 
ATOM     58  C43 UNL A   1      47.192  28.731  27.437  1.00  0.00    +0.000 C 
ATOM     59  F7  UNL A   1      48.426  29.161  27.141  1.00  0.00    +0.000 F 
ATOM     60  C44 UNL A   1      46.098  29.307  26.811  1.00  0.00    +0.000 C 
ATOM     61  F8  UNL A   1      46.267  30.285  25.910  1.00  0.00    +0.000 F 
ATOM     62  C45 UNL A   1      44.828  28.860  27.116  1.00  0.00    +0.000 C 
ATOM     63  F9  UNL A   1      43.759  29.395  26.508  1.00  0.00    +0.000 F 
ATOM     64  C46 UNL A   1      44.659  27.844  28.056  1.00  0.00    +0.000 C 
ENDBRANCH   54   55
BRANCH   69   70
ATOM     70  C50 UNL A   1      44.252  29.960  33.989  1.00  0.00    +0.000 C 
ATOM     71  C51 UNL A   1      43.612  29.916  35.235  1.00  0.00    +0.000 C 
ATOM     72  F11 UNL A   1      42.410  29.354  35.381  1.00  0.00    +0.000 F 
ATOM     73  C52 UNL A   1      44.170  30.495  36.390  1.00  0.00    +0.000 C 
ATOM     74  F12 UNL A   1      43.522  30.395  37.560  1.00  0.00    +0.000 F 
ATOM     75  C53 UNL A   1      45.380  31.162  36.345  1.00  0.00    +0.000 C 
ATOM     76  F13 UNL A   1      45.930  31.670  37.455  1.00  0.00    +0.000 F 
ATOM     77  C54 UNL A   1      45.999  31.316  35.130  1.00  0.00    +0.000 C 
ATOM     78  F14 UNL A   1      47.159  31.984  35.042  1.00  0.00    +0.000 F 
ATOM     79  C55 UNL A   1      45.430  30.763  33.982  1.00  0.00    +0.000 C 
ATOM     80  F15 UNL A   1      46.080  31.052  32.847  1.00  0.00    +0.000 F 
ENDBRANCH   69   70
TORSDOF 17
ENDMDL
MODEL 8
REMARK VINA RESULT:     -10.3      9.038     14.293
ROOT
ATOM    129  H38 UNL A   1      40.245  35.119  28.793  1.00  0.00    +0.000 H 
ATOM     33  C26 UNL A   1      41.736  33.700  30.847  1.00  0.00    +0.000 C 
ATOM     34  C27 UNL A   1      40.226  33.966  30.753  1.00  0.00    +0.000 C 
ATOM     35  N4  UNL A   1      39.269  33.672  31.583  1.00  0.00    +0.000 N 
ATOM     36  C28 UNL A   1      38.052  34.041  30.970  1.00  0.00    +0.000 C 
ATOM     37  C29 UNL A   1      36.829  33.616  31.401  1.00  0.00    +0.000 C 
ATOM     49  C36 UNL A   1      36.951  32.825  32.576  1.00  0.00    +0.000 C 
ATOM     50  C37 UNL A   1      37.160  33.121  33.896  1.00  0.00    +0.000 C 
ATOM     51  C38 UNL A   1      37.796  31.975  34.421  1.00  0.00    +0.000 C 
ATOM     52  C39 UNL A   1      37.890  31.004  33.419  1.00  0.00    +0.000 C 
ATOM     53  N5  UNL A   1      37.093  31.471  32.402  1.00  0.00    +0.000 N 
ATOM     54  C40 UNL A   1      38.716  29.849  33.143  1.00  0.00    +0.000 C 
ATOM     66  C47 UNL A   1      39.678  29.541  34.048  1.00  0.00    +0.000 C 
ATOM     67  N6  UNL A   1      40.937  29.193  33.613  1.00  0.00    +0.000 N 
ATOM     68  C48 UNL A   1      41.707  29.907  34.379  1.00  0.00    +0.000 C 
ATOM     69  C49 UNL A   1      43.129  30.197  34.117  1.00  0.00    +0.000 C 
ATOM     81  C56 UNL A   1      43.142  31.126  33.110  1.00  0.00    +0.000 C 
ATOM     82  C57 UNL A   1      44.293  31.716  32.454  1.00  0.00    +0.000 C 
ATOM     83  C58 UNL A   1      43.890  32.651  31.572  1.00  0.00    +0.000 C 
ATOM     84  C59 UNL A   1      42.422  32.781  31.584  1.00  0.00    +0.000 C 
ATOM     85  N7  UNL A   1      42.059  31.792  32.481  1.00  0.00    +0.000 N 
ATOM     86  C60 UNL A   1      41.068  30.522  35.550  1.00  0.00    +0.000 C 
ATOM     87  C61 UNL A   1      39.829  30.074  35.378  1.00  0.00    +0.000 C 
ATOM     88  C62 UNL A   1      38.394  34.777  29.792  1.00  0.00    +0.000 C 
ATOM     89  C63 UNL A   1      39.710  34.725  29.582  1.00  0.00    +0.000 C 
ATOM    120  H29 UNL A   1      36.909  33.987  34.396  1.00  0.00    +0.000 H 
ATOM    121  H30 UNL A   1      38.137  31.870  35.389  1.00  0.00    +0.000 H 
ATOM    122  H31 UNL A   1      36.696  30.933  31.681  1.00  0.00    +0.000 H 
ATOM    123  H32 UNL A   1      45.276  31.458  32.636  1.00  0.00    +0.000 H 
ATOM    124  H33 UNL A   1      44.522  33.201  30.971  1.00  0.00    +0.000 H 
ATOM    125  H34 UNL A   1      41.119  31.568  32.668  1.00  0.00    +0.000 H 
ATOM    126  H35 UNL A   1      41.466  31.125  36.288  1.00  0.00    +0.000 H 
ATOM    127  H36 UNL A   1      39.084  30.106  36.092  1.00  0.00    +0.000 H 
ATOM    128  H37 UNL A   1      37.719  35.275  29.191  1.00  0.00    +0.000 H 
ENDROOT
BRANCH   33   32
ATOM    130  H39 UNL A   1      42.705  36.162  31.434  1.00  0.00    +0.000 H 
ATOM    131  H40 UNL A   1      44.247  37.499  30.118  1.00  0.00    +0.000 H 
ATOM    118  H27 UNL A   1      44.111  34.627  27.042  1.00  0.00    +0.000 H 
ATOM    119  H28 UNL A   1      42.526  33.316  28.327  1.00  0.00    +0.000 H 
ATOM     90  C64 UNL A   1      43.014  35.831  30.507  1.00  0.00    +0.000 C 
ATOM     91  C65 UNL A   1      43.911  36.592  29.757  1.00  0.00    +0.000 C 
ATOM     29  C22 UNL A   1      44.353  36.126  28.516  1.00  0.00    +0.000 C 
ATOM     30  C23 UNL A   1      43.825  34.941  27.983  1.00  0.00    +0.000 C 
ATOM     31  C24 UNL A   1      42.917  34.187  28.720  1.00  0.00    +0.000 C 
ATOM     32  C25 UNL A   1      42.537  34.615  29.996  1.00  0.00    +0.000 C 
BRANCH   29   27
ATOM     27  C21 UNL A   1      45.314  36.879  27.675  1.00  0.00    +0.000 C 
ATOM     28  O4  UNL A   1      46.393  36.389  27.408  1.00  0.00    +0.000 O 
BRANCH   27   26
ATOM     26  N3  UNL A   1      45.015  38.141  27.209  1.00  0.00    +0.000 N 
ATOM    117  H26 UNL A   1      44.539  38.179  26.348  1.00  0.00    +0.000 H 
BRANCH   26   25
ATOM     25  C20 UNL A   1      45.310  39.422  27.828  1.00  0.00    +0.000 C 
ATOM    115  H24 UNL A   1      46.301  39.396  28.231  1.00  0.00    +0.000 H 
ATOM    116  H25 UNL A   1      45.228  40.186  27.083  1.00  0.00    +0.000 H 
BRANCH   25   24
ATOM    113  H22 UNL A   1      43.979  38.805  29.364  1.00  0.00    +0.000 H 
ATOM    114  H23 UNL A   1      44.843  40.335  29.664  1.00  0.00    +0.000 H 
ATOM     24  C19 UNL A   1      44.320  39.732  28.952  1.00  0.00    +0.000 C 
BRANCH   24   23
ATOM    111  H20 UNL A   1      42.700  41.042  29.370  1.00  0.00    +0.000 H 
ATOM     23  C18 UNL A   1      43.092  40.542  28.510  1.00  0.00    +0.000 C 
ATOM    112  H21 UNL A   1      43.438  41.207  27.746  1.00  0.00    +0.000 H 
BRANCH   23   22
ATOM    110  H19 UNL A   1      41.050  40.185  28.203  1.00  0.00    +0.000 H 
ATOM    109  H18 UNL A   1      42.068  38.711  28.197  1.00  0.00    +0.000 H 
ATOM     22  C17 UNL A   1      41.960  39.726  27.879  1.00  0.00    +0.000 C 
BRANCH   22   21
ATOM    107  H16 UNL A   1      42.864  39.406  25.981  1.00  0.00    +0.000 H 
ATOM    108  H17 UNL A   1      41.103  39.098  26.066  1.00  0.00    +0.000 H 
ATOM     21  C16 UNL A   1      41.914  39.738  26.345  1.00  0.00    +0.000 C 
BRANCH   21   20
ATOM    105  H14 UNL A   1      40.701  41.039  25.168  1.00  0.00    +0.000 H 
ATOM    106  H15 UNL A   1      41.541  41.822  26.507  1.00  0.00    +0.000 H 
ATOM     20  C15 UNL A   1      41.616  41.102  25.719  1.00  0.00    +0.000 C 
BRANCH   20   19
ATOM     19  N2  UNL A   1      42.675  41.521  24.823  1.00  0.00    +0.000 N 
ATOM    104  H13 UNL A   1      42.703  41.143  23.916  1.00  0.00    +0.000 H 
BRANCH   19    2
ATOM      1  O1  UNL A   1      44.128  42.484  26.321  1.00  0.00    +0.000 O 
ATOM      2  C1  UNL A   1      43.647  42.430  25.192  1.00  0.00    +0.000 C 
BRANCH    2    3
ATOM      3  C2  UNL A   1      44.015  43.440  24.110  1.00  0.00    +0.000 C 
ATOM     92  H1  UNL A   1      44.337  44.348  24.576  1.00  0.00    +0.000 H 
ATOM     93  H2  UNL A   1      43.151  43.612  23.502  1.00  0.00    +0.000 H 
BRANCH    3    4
ATOM      4  C3  UNL A   1      45.119  42.924  23.230  1.00  0.00    +0.000 C 
ATOM      5  C4  UNL A   1      46.364  42.459  23.623  1.00  0.00    +0.000 C 
ATOM      6  C5  UNL A   1      46.999  41.904  22.494  1.00  0.00    +0.000 C 
ATOM      7  C6  UNL A   1      46.133  42.046  21.435  1.00  0.00    +0.000 C 
ATOM      8  N1  UNL A   1      45.019  42.747  21.854  1.00  0.00    +0.000 N 
ATOM     94  H3  UNL A   1      46.758  42.510  24.575  1.00  0.00    +0.000 H 
ATOM     95  H4  UNL A   1      47.936  41.471  22.467  1.00  0.00    +0.000 H 
ATOM     96  H5  UNL A   1      46.291  41.687  20.481  1.00  0.00    +0.000 H 
BRANCH    8    9
ATOM     97  H6  UNL A   1      42.518  41.899  21.852  1.00  0.00    +0.000 H 
ATOM     98  H7  UNL A   1      40.711  42.668  20.419  1.00  0.00    +0.000 H 
ATOM     99  H8  UNL A   1      45.183  44.499  19.872  1.00  0.00    +0.000 H 
ATOM    100  H9  UNL A   1      42.640  46.476  16.652  1.00  0.00    +0.000 H 
ATOM    101  H10 UNL A   1      41.952  46.710  18.254  1.00  0.00    +0.000 H 
ATOM    102  H11 UNL A   1      41.730  44.194  16.640  1.00  0.00    +0.000 H 
ATOM    103  H12 UNL A   1      40.474  45.412  16.807  1.00  0.00    +0.000 H 
ATOM      9  C7  UNL A   1      43.977  43.169  20.992  1.00  0.00    +0.000 C 
ATOM     10  C8  UNL A   1      42.696  42.618  21.133  1.00  0.00    +0.000 C 
ATOM     11  C9  UNL A   1      41.663  43.044  20.296  1.00  0.00    +0.000 C 
ATOM     12  C10 UNL A   1      41.919  43.976  19.291  1.00  0.00    +0.000 C 
ATOM     13  C11 UNL A   1      43.202  44.510  19.139  1.00  0.00    +0.000 C 
ATOM     14  C12 UNL A   1      44.235  44.108  19.986  1.00  0.00    +0.000 C 
ATOM     15  O2  UNL A   1      43.530  45.419  18.164  1.00  0.00    +0.000 O 
ATOM     16  C13 UNL A   1      42.364  45.998  17.569  1.00  0.00    +0.000 C 
ATOM     17  C14 UNL A   1      41.310  44.941  17.280  1.00  0.00    +0.000 C 
ATOM     18  O3  UNL A   1      40.863  44.323  18.491  1.00  0.00    +0.000 O 
ENDBRANCH    8    9
ENDBRANCH    3    4
ENDBRANCH    2    3
ENDBRANCH   19    2
ENDBRANCH   20   19
ENDBRANCH   21   20
ENDBRANCH   22   21
ENDBRANCH   23   22
ENDBRANCH   24   23
ENDBRANCH   25   24
ENDBRANCH   26   25
ENDBRANCH   27   26
ENDBRANCH   29   27
ENDBRANCH   33   32
BRANCH   37   38
ATOM     38  C30 UNL A   1      35.473  33.652  30.746  1.00  0.00    +0.000 C 
ATOM     39  C31 UNL A   1      35.252  32.836  29.608  1.00  0.00    +0.000 C 
ATOM     40  F1  UNL A   1      36.064  31.802  29.337  1.00  0.00    +0.000 F 
ATOM     41  C32 UNL A   1      34.247  33.110  28.682  1.00  0.00    +0.000 C 
ATOM     42  F2  UNL A   1      34.164  32.393  27.552  1.00  0.00    +0.000 F 
ATOM     43  C33 UNL A   1      33.381  34.163  28.897  1.00  0.00    +0.000 C 
ATOM     44  F3  UNL A   1      32.457  34.474  27.979  1.00  0.00    +0.000 F 
ATOM     45  C34 UNL A   1      33.501  34.916  30.054  1.00  0.00    +0.000 C 
ATOM     46  F4  UNL A   1      32.658  35.935  30.269  1.00  0.00    +0.000 F 
ATOM     47  C35 UNL A   1      34.540  34.675  30.961  1.00  0.00    +0.000 C 
ATOM     48  F5  UNL A   1      34.667  35.523  31.990  1.00  0.00    +0.000 F 
ENDBRANCH   37   38
BRANCH   54   55
ATOM     65  F10 UNL A   1      39.955  31.173  30.858  1.00  0.00    +0.000 F 
ATOM     55  C41 UNL A   1      38.950  29.231  31.783  1.00  0.00    +0.000 C 
ATOM     56  C42 UNL A   1      38.629  27.884  31.561  1.00  0.00    +0.000 C 
ATOM     57  F6  UNL A   1      38.001  27.181  32.515  1.00  0.00    +0.000 F 
ATOM     58  C43 UNL A   1      38.951  27.246  30.360  1.00  0.00    +0.000 C 
ATOM     59  F7  UNL A   1      38.633  25.956  30.185  1.00  0.00    +0.000 F 
ATOM     60  C44 UNL A   1      39.594  27.937  29.345  1.00  0.00    +0.000 C 
ATOM     61  F8  UNL A   1      39.893  27.326  28.190  1.00  0.00    +0.000 F 
ATOM     62  C45 UNL A   1      39.917  29.266  29.529  1.00  0.00    +0.000 C 
ATOM     63  F9  UNL A   1      40.524  29.956  28.550  1.00  0.00    +0.000 F 
ATOM     64  C46 UNL A   1      39.604  29.895  30.733  1.00  0.00    +0.000 C 
ENDBRANCH   54   55
BRANCH   69   70
ATOM     70  C50 UNL A   1      44.146  29.520  35.019  1.00  0.00    +0.000 C 
ATOM     71  C51 UNL A   1      44.853  30.128  36.066  1.00  0.00    +0.000 C 
ATOM     72  F11 UNL A   1      44.844  31.452  36.237  1.00  0.00    +0.000 F 
ATOM     73  C52 UNL A   1      45.645  29.392  36.968  1.00  0.00    +0.000 C 
ATOM     74  F12 UNL A   1      46.275  30.028  37.967  1.00  0.00    +0.000 F 
ATOM     75  C53 UNL A   1      45.782  28.022  36.848  1.00  0.00    +0.000 C 
ATOM     76  F13 UNL A   1      46.498  27.320  37.736  1.00  0.00    +0.000 F 
ATOM     77  C54 UNL A   1      45.189  27.393  35.782  1.00  0.00    +0.000 C 
ATOM     78  F14 UNL A   1      45.325  26.070  35.615  1.00  0.00    +0.000 F 
ATOM     79  C55 UNL A   1      44.425  28.130  34.875  1.00  0.00    +0.000 C 
ATOM     80  F15 UNL A   1      43.968  27.423  33.833  1.00  0.00    +0.000 F 
ENDBRANCH   69   70
TORSDOF 17
ENDMDL
MODEL 9
REMARK VINA RESULT:     -10.2     24.625     30.254
ROOT
ATOM    129  H38 UNL A   1      25.843  35.492  50.331  1.00  0.00    +0.000 H 
ATOM     33  C26 UNL A   1      23.043  36.256  50.155  1.00  0.00    +0.000 C 
ATOM     34  C27 UNL A   1      24.137  36.324  49.079  1.00  0.00    +0.000 C 
ATOM     35  N4  UNL A   1      24.090  36.782  47.862  1.00  0.00    +0.000 N 
ATOM     36  C28 UNL A   1      25.337  36.510  47.261  1.00  0.00    +0.000 C 
ATOM     37  C29 UNL A   1      25.558  36.570  45.916  1.00  0.00    +0.000 C 
ATOM     49  C36 UNL A   1      24.393  37.009  45.229  1.00  0.00    +0.000 C 
ATOM     50  C37 UNL A   1      23.809  38.233  45.048  1.00  0.00    +0.000 C 
ATOM     51  C38 UNL A   1      22.439  37.949  44.859  1.00  0.00    +0.000 C 
ATOM     52  C39 UNL A   1      22.253  36.563  44.867  1.00  0.00    +0.000 C 
ATOM     53  N5  UNL A   1      23.521  36.039  44.800  1.00  0.00    +0.000 N 
ATOM     54  C40 UNL A   1      21.164  35.647  45.123  1.00  0.00    +0.000 C 
ATOM     66  C47 UNL A   1      19.959  36.182  45.436  1.00  0.00    +0.000 C 
ATOM     67  N6  UNL A   1      19.220  35.644  46.466  1.00  0.00    +0.000 N 
ATOM     68  C48 UNL A   1      18.856  36.698  47.133  1.00  0.00    +0.000 C 
ATOM     69  C49 UNL A   1      18.349  36.691  48.518  1.00  0.00    +0.000 C 
ATOM     81  C56 UNL A   1      19.441  36.471  49.315  1.00  0.00    +0.000 C 
ATOM     82  C57 UNL A   1      19.481  36.335  50.758  1.00  0.00    +0.000 C 
ATOM     83  C58 UNL A   1      20.756  36.211  51.172  1.00  0.00    +0.000 C 
ATOM     84  C59 UNL A   1      21.685  36.279  50.031  1.00  0.00    +0.000 C 
ATOM     85  N7  UNL A   1      20.812  36.371  48.962  1.00  0.00    +0.000 N 
ATOM     86  C60 UNL A   1      19.043  37.990  46.459  1.00  0.00    +0.000 C 
ATOM     87  C61 UNL A   1      19.557  37.561  45.312  1.00  0.00    +0.000 C 
ATOM     88  C62 UNL A   1      26.200  36.041  48.302  1.00  0.00    +0.000 C 
ATOM     89  C63 UNL A   1      25.507  35.862  49.428  1.00  0.00    +0.000 C 
ATOM    120  H29 UNL A   1      24.267  39.157  45.050  1.00  0.00    +0.000 H 
ATOM    121  H30 UNL A   1      21.694  38.652  44.735  1.00  0.00    +0.000 H 
ATOM    122  H31 UNL A   1      23.761  35.134  44.500  1.00  0.00    +0.000 H 
ATOM    123  H32 UNL A   1      18.654  36.334  51.377  1.00  0.00    +0.000 H 
ATOM    124  H33 UNL A   1      21.044  36.086  52.156  1.00  0.00    +0.000 H 
ATOM    125  H34 UNL A   1      21.118  36.366  48.027  1.00  0.00    +0.000 H 
ATOM    126  H35 UNL A   1      18.836  38.948  46.783  1.00  0.00    +0.000 H 
ATOM    127  H36 UNL A   1      19.655  38.132  44.457  1.00  0.00    +0.000 H 
ATOM    128  H37 UNL A   1      27.211  35.865  48.197  1.00  0.00    +0.000 H 
ENDROOT
BRANCH   33   32
ATOM    130  H39 UNL A   1      23.806  34.054  51.537  1.00  0.00    +0.000 H 
ATOM    131  H40 UNL A   1      24.961  33.971  53.672  1.00  0.00    +0.000 H 
ATOM    118  H27 UNL A   1      24.673  38.160  53.989  1.00  0.00    +0.000 H 
ATOM    119  H28 UNL A   1      23.468  38.243  51.886  1.00  0.00    +0.000 H 
ATOM     90  C64 UNL A   1      24.002  34.926  52.053  1.00  0.00    +0.000 C 
ATOM     91  C65 UNL A   1      24.678  34.880  53.272  1.00  0.00    +0.000 C 
ATOM     29  C22 UNL A   1      24.970  36.066  53.952  1.00  0.00    +0.000 C 
ATOM     30  C23 UNL A   1      24.504  37.292  53.457  1.00  0.00    +0.000 C 
ATOM     31  C24 UNL A   1      23.814  37.341  52.249  1.00  0.00    +0.000 C 
ATOM     32  C25 UNL A   1      23.592  36.162  51.530  1.00  0.00    +0.000 C 
BRANCH   29   27
ATOM     27  C21 UNL A   1      25.696  36.087  55.245  1.00  0.00    +0.000 C 
ATOM     28  O4  UNL A   1      25.198  35.567  56.223  1.00  0.00    +0.000 O 
BRANCH   27   26
ATOM     26  N3  UNL A   1      26.919  36.711  55.363  1.00  0.00    +0.000 N 
ATOM    117  H26 UNL A   1      27.257  36.822  56.281  1.00  0.00    +0.000 H 
BRANCH   26   25
ATOM     25  C20 UNL A   1      27.774  37.224  54.306  1.00  0.00    +0.000 C 
ATOM    115  H24 UNL A   1      27.210  37.900  53.697  1.00  0.00    +0.000 H 
ATOM    116  H25 UNL A   1      28.605  37.727  54.755  1.00  0.00    +0.000 H 
BRANCH   25   24
ATOM    113  H22 UNL A   1      29.350  35.967  53.639  1.00  0.00    +0.000 H 
ATOM    114  H23 UNL A   1      27.731  35.221  53.669  1.00  0.00    +0.000 H 
ATOM     24  C19 UNL A   1      28.308  36.090  53.431  1.00  0.00    +0.000 C 
BRANCH   24   23
ATOM    111  H20 UNL A   1      28.131  35.368  51.440  1.00  0.00    +0.000 H 
ATOM     23  C18 UNL A   1      28.144  36.323  51.922  1.00  0.00    +0.000 C 
ATOM    112  H21 UNL A   1      27.236  36.876  51.806  1.00  0.00    +0.000 H 
BRANCH   23   22
ATOM    110  H19 UNL A   1      29.943  36.475  50.856  1.00  0.00    +0.000 H 
ATOM    109  H18 UNL A   1      29.654  37.811  52.015  1.00  0.00    +0.000 H 
ATOM     22  C17 UNL A   1      29.240  37.169  51.266  1.00  0.00    +0.000 C 
BRANCH   22   21
ATOM    107  H16 UNL A   1      27.735  37.887  49.947  1.00  0.00    +0.000 H 
ATOM    108  H17 UNL A   1      29.026  39.054  50.361  1.00  0.00    +0.000 H 
ATOM     21  C16 UNL A   1      28.783  38.047  50.093  1.00  0.00    +0.000 C 
BRANCH   21   20
ATOM    105  H14 UNL A   1      29.884  36.777  48.781  1.00  0.00    +0.000 H 
ATOM    106  H15 UNL A   1      28.783  37.895  47.976  1.00  0.00    +0.000 H 
ATOM     20  C15 UNL A   1      29.494  37.773  48.766  1.00  0.00    +0.000 C 
BRANCH   20   19
ATOM     19  N2  UNL A   1      30.584  38.701  48.543  1.00  0.00    +0.000 N 
ATOM    104  H13 UNL A   1      30.814  39.339  49.255  1.00  0.00    +0.000 H 
BRANCH   19    2
ATOM      1  O1  UNL A   1      32.434  38.236  47.261  1.00  0.00    +0.000 O 
ATOM      2  C1  UNL A   1      31.312  38.726  47.370  1.00  0.00    +0.000 C 
BRANCH    2    3
ATOM      3  C2  UNL A   1      30.658  39.504  46.233  1.00  0.00    +0.000 C 
ATOM     92  H1  UNL A   1      29.635  39.204  46.148  1.00  0.00    +0.000 H 
ATOM     93  H2  UNL A   1      31.192  39.292  45.330  1.00  0.00    +0.000 H 
BRANCH    3    4
ATOM      4  C3  UNL A   1      30.714  40.987  46.479  1.00  0.00    +0.000 C 
ATOM      5  C4  UNL A   1      31.826  41.811  46.414  1.00  0.00    +0.000 C 
ATOM      6  C5  UNL A   1      31.387  43.145  46.529  1.00  0.00    +0.000 C 
ATOM      7  C6  UNL A   1      30.020  43.109  46.668  1.00  0.00    +0.000 C 
ATOM      8  N1  UNL A   1      29.608  41.792  46.727  1.00  0.00    +0.000 N 
ATOM     94  H3  UNL A   1      32.804  41.503  46.301  1.00  0.00    +0.000 H 
ATOM     95  H4  UNL A   1      31.980  43.991  46.512  1.00  0.00    +0.000 H 
ATOM     96  H5  UNL A   1      29.401  43.933  46.721  1.00  0.00    +0.000 H 
BRANCH    8    9
ATOM     97  H6  UNL A   1      27.672  41.500  44.955  1.00  0.00    +0.000 H 
ATOM     98  H7  UNL A   1      25.400  40.746  45.375  1.00  0.00    +0.000 H 
ATOM     99  H8  UNL A   1      28.515  41.235  49.078  1.00  0.00    +0.000 H 
ATOM    100  H9  UNL A   1      24.573  39.935  50.949  1.00  0.00    +0.000 H 
ATOM    101  H10 UNL A   1      25.099  38.810  49.702  1.00  0.00    +0.000 H 
ATOM    102  H11 UNL A   1      23.782  41.453  49.188  1.00  0.00    +0.000 H 
ATOM    103  H12 UNL A   1      22.985  39.889  49.126  1.00  0.00    +0.000 H 
ATOM      9  C7  UNL A   1      28.273  41.388  46.981  1.00  0.00    +0.000 C 
ATOM     10  C8  UNL A   1      27.369  41.277  45.916  1.00  0.00    +0.000 C 
ATOM     11  C9  UNL A   1      26.058  40.864  46.160  1.00  0.00    +0.000 C 
ATOM     12  C10 UNL A   1      25.638  40.614  47.466  1.00  0.00    +0.000 C 
ATOM     13  C11 UNL A   1      26.535  40.745  48.530  1.00  0.00    +0.000 C 
ATOM     14  C12 UNL A   1      27.853  41.134  48.292  1.00  0.00    +0.000 C 
ATOM     15  O2  UNL A   1      26.188  40.530  49.840  1.00  0.00    +0.000 O 
ATOM     16  C13 UNL A   1      24.939  39.839  49.948  1.00  0.00    +0.000 C 
ATOM     17  C14 UNL A   1      23.908  40.410  48.987  1.00  0.00    +0.000 C 
ATOM     18  O3  UNL A   1      24.330  40.241  47.629  1.00  0.00    +0.000 O 
ENDBRANCH    8    9
ENDBRANCH    3    4
ENDBRANCH    2    3
ENDBRANCH   19    2
ENDBRANCH   20   19
ENDBRANCH   21   20
ENDBRANCH   22   21
ENDBRANCH   23   22
ENDBRANCH   24   23
ENDBRANCH   25   24
ENDBRANCH   26   25
ENDBRANCH   27   26
ENDBRANCH   29   27
ENDBRANCH   33   32
BRANCH   37   38
ATOM     38  C30 UNL A   1      26.692  36.056  45.067  1.00  0.00    +0.000 C 
ATOM     39  C31 UNL A   1      26.804  34.657  44.865  1.00  0.00    +0.000 C 
ATOM     40  F1  UNL A   1      25.758  33.846  45.092  1.00  0.00    +0.000 F 
ATOM     41  C32 UNL A   1      28.007  34.053  44.507  1.00  0.00    +0.000 C 
ATOM     42  F2  UNL A   1      28.098  32.716  44.463  1.00  0.00    +0.000 F 
ATOM     43  C33 UNL A   1      29.122  34.830  44.265  1.00  0.00    +0.000 C 
ATOM     44  F3  UNL A   1      30.299  34.252  43.987  1.00  0.00    +0.000 F 
ATOM     45  C34 UNL A   1      29.021  36.209  44.349  1.00  0.00    +0.000 C 
ATOM     46  F4  UNL A   1      30.100  36.966  44.109  1.00  0.00    +0.000 F 
ATOM     47  C35 UNL A   1      27.828  36.816  44.757  1.00  0.00    +0.000 C 
ATOM     48  F5  UNL A   1      27.843  38.143  44.937  1.00  0.00    +0.000 F 
ENDBRANCH   37   38
BRANCH   54   55
ATOM     65  F10 UNL A   1      19.929  33.366  43.786  1.00  0.00    +0.000 F 
ATOM     55  C41 UNL A   1      21.303  34.197  45.535  1.00  0.00    +0.000 C 
ATOM     56  C42 UNL A   1      22.142  33.850  46.603  1.00  0.00    +0.000 C 
ATOM     57  F6  UNL A   1      22.723  34.812  47.336  1.00  0.00    +0.000 F 
ATOM     58  C43 UNL A   1      22.394  32.515  46.928  1.00  0.00    +0.000 C 
ATOM     59  F7  UNL A   1      23.206  32.221  47.953  1.00  0.00    +0.000 F 
ATOM     60  C44 UNL A   1      21.808  31.490  46.202  1.00  0.00    +0.000 C 
ATOM     61  F8  UNL A   1      22.043  30.209  46.521  1.00  0.00    +0.000 F 
ATOM     62  C45 UNL A   1      20.971  31.798  45.149  1.00  0.00    +0.000 C 
ATOM     63  F9  UNL A   1      20.382  30.819  44.445  1.00  0.00    +0.000 F 
ATOM     64  C46 UNL A   1      20.732  33.132  44.821  1.00  0.00    +0.000 C 
ENDBRANCH   54   55
BRANCH   69   70
ATOM     70  C50 UNL A   1      16.875  36.999  48.712  1.00  0.00    +0.000 C 
ATOM     71  C51 UNL A   1      15.807  36.362  48.065  1.00  0.00    +0.000 C 
ATOM     72  F11 UNL A   1      16.008  35.540  47.032  1.00  0.00    +0.000 F 
ATOM     73  C52 UNL A   1      14.465  36.582  48.429  1.00  0.00    +0.000 C 
ATOM     74  F12 UNL A   1      13.488  35.921  47.789  1.00  0.00    +0.000 F 
ATOM     75  C53 UNL A   1      14.132  37.464  49.439  1.00  0.00    +0.000 C 
ATOM     76  F13 UNL A   1      12.858  37.635  49.815  1.00  0.00    +0.000 F 
ATOM     77  C54 UNL A   1      15.134  38.185  50.039  1.00  0.00    +0.000 C 
ATOM     78  F14 UNL A   1      14.847  39.072  51.002  1.00  0.00    +0.000 F 
ATOM     79  C55 UNL A   1      16.462  37.983  49.657  1.00  0.00    +0.000 C 
ATOM     80  F15 UNL A   1      17.340  38.802  50.251  1.00  0.00    +0.000 F 
ENDBRANCH   69   70
TORSDOF 17
ENDMDL
MODEL 10
REMARK VINA RESULT:     -10.2     37.407     42.643
ROOT
ATOM    129  H38 UNL A   1       8.997  47.692   9.700  1.00  0.00    +0.000 H 
ATOM     33  C26 UNL A   1      10.039  50.357   9.186  1.00  0.00    +0.000 C 
ATOM     34  C27 UNL A   1       9.994  49.571  10.505  1.00  0.00    +0.000 C 
ATOM     35  N4  UNL A   1      10.357  49.921  11.704  1.00  0.00    +0.000 N 
ATOM     36  C28 UNL A   1      10.207  48.791  12.536  1.00  0.00    +0.000 C 
ATOM     37  C29 UNL A   1      10.764  48.686  13.777  1.00  0.00    +0.000 C 
ATOM     49  C36 UNL A   1      11.443  49.884  14.132  1.00  0.00    +0.000 C 
ATOM     50  C37 UNL A   1      11.024  51.110  14.575  1.00  0.00    +0.000 C 
ATOM     51  C38 UNL A   1      12.029  52.004  14.147  1.00  0.00    +0.000 C 
ATOM     52  C39 UNL A   1      13.049  51.282  13.519  1.00  0.00    +0.000 C 
ATOM     53  N5  UNL A   1      12.772  49.967  13.804  1.00  0.00    +0.000 N 
ATOM     54  C40 UNL A   1      14.094  51.551  12.557  1.00  0.00    +0.000 C 
ATOM     66  C47 UNL A   1      14.198  52.820  12.089  1.00  0.00    +0.000 C 
ATOM     67  N6  UNL A   1      14.399  53.036  10.744  1.00  0.00    +0.000 N 
ATOM     68  C48 UNL A   1      13.530  53.965  10.476  1.00  0.00    +0.000 C 
ATOM     69  C49 UNL A   1      13.065  54.326   9.123  1.00  0.00    +0.000 C 
ATOM     81  C56 UNL A   1      12.220  53.319   8.738  1.00  0.00    +0.000 C 
ATOM     82  C57 UNL A   1      11.525  53.171   7.473  1.00  0.00    +0.000 C 
ATOM     83  C58 UNL A   1      10.723  52.090   7.514  1.00  0.00    +0.000 C 
ATOM     84  C59 UNL A   1      10.798  51.433   8.831  1.00  0.00    +0.000 C 
ATOM     85  N7  UNL A   1      11.759  52.195   9.471  1.00  0.00    +0.000 N 
ATOM     86  C60 UNL A   1      12.925  54.643  11.631  1.00  0.00    +0.000 C 
ATOM     87  C61 UNL A   1      13.552  53.999  12.609  1.00  0.00    +0.000 C 
ATOM     88  C62 UNL A   1       9.519  47.802  11.764  1.00  0.00    +0.000 C 
ATOM     89  C63 UNL A   1       9.402  48.206  10.498  1.00  0.00    +0.000 C 
ATOM    120  H29 UNL A   1      10.166  51.330  15.104  1.00  0.00    +0.000 H 
ATOM    121  H30 UNL A   1      12.014  53.028  14.276  1.00  0.00    +0.000 H 
ATOM    122  H31 UNL A   1      13.412  49.219  13.778  1.00  0.00    +0.000 H 
ATOM    123  H32 UNL A   1      11.629  53.801   6.662  1.00  0.00    +0.000 H 
ATOM    124  H33 UNL A   1      10.135  51.766   6.730  1.00  0.00    +0.000 H 
ATOM    125  H34 UNL A   1      12.097  51.974  10.368  1.00  0.00    +0.000 H 
ATOM    126  H35 UNL A   1      12.221  55.396  11.669  1.00  0.00    +0.000 H 
ATOM    127  H36 UNL A   1      13.572  54.298  13.597  1.00  0.00    +0.000 H 
ATOM    128  H37 UNL A   1       9.165  46.906  12.133  1.00  0.00    +0.000 H 
ENDROOT
BRANCH   33   32
ATOM    130  H39 UNL A   1       7.472  51.093   8.728  1.00  0.00    +0.000 H 
ATOM    131  H40 UNL A   1       6.047  50.424   6.879  1.00  0.00    +0.000 H 
ATOM    118  H27 UNL A   1       9.045  47.798   5.521  1.00  0.00    +0.000 H 
ATOM    119  H28 UNL A   1      10.450  48.420   7.397  1.00  0.00    +0.000 H 
ATOM     90  C64 UNL A   1       7.810  50.404   8.039  1.00  0.00    +0.000 C 
ATOM     91  C65 UNL A   1       6.997  50.029   6.969  1.00  0.00    +0.000 C 
ATOM     29  C22 UNL A   1       7.469  49.118   6.020  1.00  0.00    +0.000 C 
ATOM     30  C23 UNL A   1       8.721  48.511   6.193  1.00  0.00    +0.000 C 
ATOM     31  C24 UNL A   1       9.529  48.869   7.268  1.00  0.00    +0.000 C 
ATOM     32  C25 UNL A   1       9.087  49.840   8.173  1.00  0.00    +0.000 C 
BRANCH   29   27
ATOM     27  C21 UNL A   1       6.661  48.688   4.854  1.00  0.00    +0.000 C 
ATOM     28  O4  UNL A   1       5.484  48.425   5.001  1.00  0.00    +0.000 O 
BRANCH   27   26
ATOM     26  N3  UNL A   1       7.228  48.557   3.605  1.00  0.00    +0.000 N 
ATOM    117  H26 UNL A   1       6.965  47.757   3.095  1.00  0.00    +0.000 H 
BRANCH   26   25
ATOM     25  C20 UNL A   1       8.164  49.451   2.943  1.00  0.00    +0.000 C 
ATOM    115  H24 UNL A   1       7.698  49.864   2.073  1.00  0.00    +0.000 H 
ATOM    116  H25 UNL A   1       8.435  50.227   3.628  1.00  0.00    +0.000 H 
BRANCH   25   24
ATOM    113  H22 UNL A   1       9.641  48.946   1.503  1.00  0.00    +0.000 H 
ATOM    114  H23 UNL A   1      10.209  49.025   3.191  1.00  0.00    +0.000 H 
ATOM     24  C19 UNL A   1       9.434  48.708   2.525  1.00  0.00    +0.000 C 
BRANCH   24   23
ATOM    111  H20 UNL A   1       8.341  46.929   2.925  1.00  0.00    +0.000 H 
ATOM     23  C18 UNL A   1       9.345  47.180   2.654  1.00  0.00    +0.000 C 
ATOM    112  H21 UNL A   1       9.645  46.787   1.705  1.00  0.00    +0.000 H 
BRANCH   23   22
ATOM    110  H19 UNL A   1      10.603  45.620   3.269  1.00  0.00    +0.000 H 
ATOM    109  H18 UNL A   1       9.746  46.451   4.605  1.00  0.00    +0.000 H 
ATOM     22  C17 UNL A   1      10.285  46.552   3.687  1.00  0.00    +0.000 C 
BRANCH   22   21
ATOM    107  H16 UNL A   1      11.341  48.385   3.905  1.00  0.00    +0.000 H 
ATOM    108  H17 UNL A   1      11.887  47.043   4.955  1.00  0.00    +0.000 H 
ATOM     21  C16 UNL A   1      11.568  47.342   3.978  1.00  0.00    +0.000 C 
BRANCH   21   20
ATOM    105  H14 UNL A   1      13.610  46.841   3.620  1.00  0.00    +0.000 H 
ATOM    106  H15 UNL A   1      12.473  46.200   2.434  1.00  0.00    +0.000 H 
ATOM     20  C15 UNL A   1      12.737  47.044   3.036  1.00  0.00    +0.000 C 
BRANCH   20   19
ATOM     19  N2  UNL A   1      13.011  48.160   2.155  1.00  0.00    +0.000 N 
ATOM    104  H13 UNL A   1      12.870  48.044   1.188  1.00  0.00    +0.000 H 
BRANCH   19    2
ATOM      1  O1  UNL A   1      12.716  50.323   2.875  1.00  0.00    +0.000 O 
ATOM      2  C1  UNL A   1      13.462  49.381   2.616  1.00  0.00    +0.000 C 
BRANCH    2    3
ATOM      3  C2  UNL A   1      14.980  49.511   2.688  1.00  0.00    +0.000 C 
ATOM     92  H1  UNL A   1      15.269  50.456   2.275  1.00  0.00    +0.000 H 
ATOM     93  H2  UNL A   1      15.413  48.706   2.132  1.00  0.00    +0.000 H 
BRANCH    3    4
ATOM      4  C3  UNL A   1      15.472  49.427   4.106  1.00  0.00    +0.000 C 
ATOM      5  C4  UNL A   1      15.580  48.292   4.895  1.00  0.00    +0.000 C 
ATOM      6  C5  UNL A   1      16.259  48.647   6.077  1.00  0.00    +0.000 C 
ATOM      7  C6  UNL A   1      16.547  49.988   5.990  1.00  0.00    +0.000 C 
ATOM      8  N1  UNL A   1      15.993  50.494   4.830  1.00  0.00    +0.000 N 
ATOM     94  H3  UNL A   1      15.225  47.353   4.659  1.00  0.00    +0.000 H 
ATOM     95  H4  UNL A   1      16.497  48.018   6.861  1.00  0.00    +0.000 H 
ATOM     96  H5  UNL A   1      17.088  50.531   6.681  1.00  0.00    +0.000 H 
BRANCH    8    9
ATOM     97  H6  UNL A   1      14.328  52.359   5.683  1.00  0.00    +0.000 H 
ATOM     98  H7  UNL A   1      14.376  54.727   5.137  1.00  0.00    +0.000 H 
ATOM     99  H8  UNL A   1      17.630  51.715   3.140  1.00  0.00    +0.000 H 
ATOM    100  H9  UNL A   1      18.499  55.817   1.366  1.00  0.00    +0.000 H 
ATOM    101  H10 UNL A   1      18.528  55.854   3.125  1.00  0.00    +0.000 H 
ATOM    102  H11 UNL A   1      16.044  55.847   1.447  1.00  0.00    +0.000 H 
ATOM    103  H12 UNL A   1      16.753  57.261   2.212  1.00  0.00    +0.000 H 
ATOM      9  C7  UNL A   1      15.999  51.867   4.480  1.00  0.00    +0.000 C 
ATOM     10  C8  UNL A   1      15.041  52.727   5.034  1.00  0.00    +0.000 C 
ATOM     11  C9  UNL A   1      15.056  54.084   4.704  1.00  0.00    +0.000 C 
ATOM     12  C10 UNL A   1      15.988  54.568   3.787  1.00  0.00    +0.000 C 
ATOM     13  C11 UNL A   1      16.929  53.705   3.220  1.00  0.00    +0.000 C 
ATOM     14  C12 UNL A   1      16.938  52.353   3.562  1.00  0.00    +0.000 C 
ATOM     15  O2  UNL A   1      17.865  54.109   2.301  1.00  0.00    +0.000 O 
ATOM     16  C13 UNL A   1      17.984  55.535   2.260  1.00  0.00    +0.000 C 
ATOM     17  C14 UNL A   1      16.618  56.203   2.277  1.00  0.00    +0.000 C 
ATOM     18  O3  UNL A   1      15.921  55.904   3.492  1.00  0.00    +0.000 O 
ENDBRANCH    8    9
ENDBRANCH    3    4
ENDBRANCH    2    3
ENDBRANCH   19    2
ENDBRANCH   20   19
ENDBRANCH   21   20
ENDBRANCH   22   21
ENDBRANCH   23   22
ENDBRANCH   24   23
ENDBRANCH   25   24
ENDBRANCH   26   25
ENDBRANCH   27   26
ENDBRANCH   29   27
ENDBRANCH   33   32
BRANCH   37   38
ATOM     38  C30 UNL A   1      10.966  47.499  14.683  1.00  0.00    +0.000 C 
ATOM     39  C31 UNL A   1      10.116  47.357  15.809  1.00  0.00    +0.000 C 
ATOM     40  F1  UNL A   1       8.951  48.021  15.878  1.00  0.00    +0.000 F 
ATOM     41  C32 UNL A   1      10.480  46.600  16.921  1.00  0.00    +0.000 C 
ATOM     42  F2  UNL A   1       9.707  46.607  18.017  1.00  0.00    +0.000 F 
ATOM     43  C33 UNL A   1      11.668  45.898  16.918  1.00  0.00    +0.000 C 
ATOM     44  F3  UNL A   1      12.055  45.224  18.009  1.00  0.00    +0.000 F 
ATOM     45  C34 UNL A   1      12.472  45.928  15.791  1.00  0.00    +0.000 C 
ATOM     46  F4  UNL A   1      13.624  45.243  15.782  1.00  0.00    +0.000 F 
ATOM     47  C35 UNL A   1      12.135  46.727  14.692  1.00  0.00    +0.000 C 
ATOM     48  F5  UNL A   1      13.023  46.804  13.692  1.00  0.00    +0.000 F 
ENDBRANCH   37   38
BRANCH   54   55
ATOM     65  F10 UNL A   1      12.744  49.631  10.824  1.00  0.00    +0.000 F 
ATOM     55  C41 UNL A   1      14.772  50.528  11.673  1.00  0.00    +0.000 C 
ATOM     56  C42 UNL A   1      16.171  50.497  11.583  1.00  0.00    +0.000 C 
ATOM     57  F6  UNL A   1      16.908  51.291  12.373  1.00  0.00    +0.000 F 
ATOM     58  C43 UNL A   1      16.825  49.654  10.682  1.00  0.00    +0.000 C 
ATOM     59  F7  UNL A   1      18.164  49.655  10.619  1.00  0.00    +0.000 F 
ATOM     60  C44 UNL A   1      16.101  48.812   9.852  1.00  0.00    +0.000 C 
ATOM     61  F8  UNL A   1      16.731  47.996   8.994  1.00  0.00    +0.000 F 
ATOM     62  C45 UNL A   1      14.723  48.812   9.921  1.00  0.00    +0.000 C 
ATOM     63  F9  UNL A   1      14.007  47.991   9.137  1.00  0.00    +0.000 F 
ATOM     64  C46 UNL A   1      14.074  49.664  10.814  1.00  0.00    +0.000 C 
ENDBRANCH   54   55
BRANCH   69   70
ATOM     70  C50 UNL A   1      13.525  55.664   8.572  1.00  0.00    +0.000 C 
ATOM     71  C51 UNL A   1      14.737  55.911   7.912  1.00  0.00    +0.000 C 
ATOM     72  F11 UNL A   1      15.717  55.004   7.890  1.00  0.00    +0.000 F 
ATOM     73  C52 UNL A   1      15.012  57.136   7.275  1.00  0.00    +0.000 C 
ATOM     74  F12 UNL A   1      16.179  57.302   6.635  1.00  0.00    +0.000 F 
ATOM     75  C53 UNL A   1      14.099  58.173   7.290  1.00  0.00    +0.000 C 
ATOM     76  F13 UNL A   1      14.345  59.319   6.643  1.00  0.00    +0.000 F 
ATOM     77  C54 UNL A   1      12.938  58.015   8.005  1.00  0.00    +0.000 C 
ATOM     78  F14 UNL A   1      12.042  59.010   8.069  1.00  0.00    +0.000 F 
ATOM     79  C55 UNL A   1      12.680  56.808   8.657  1.00  0.00    +0.000 C 
ATOM     80  F15 UNL A   1      11.558  56.803   9.390  1.00  0.00    +0.000 F 
ENDBRANCH   69   70
TORSDOF 17
ENDMDL
