MODEL 1
REMARK VINA RESULT:      -9.7      0.000      0.000
ROOT
ATOM     34  C26 UNL A   1      13.074  49.726   3.556  1.00  0.00    +0.000 C 
ATOM     35  C27 UNL A   1      13.078  51.132   4.086  1.00  0.00    +0.000 C 
ATOM     36  N4  UNL A   1      13.773  52.164   3.676  1.00  0.00    +0.000 N 
ATOM     37  C28 UNL A   1      13.396  53.227   4.486  1.00  0.00    +0.000 C 
ATOM     38  C29 UNL A   1      13.859  54.501   4.477  1.00  0.00    +0.000 C 
ATOM     50  C36 UNL A   1      14.870  54.995   3.576  1.00  0.00    +0.000 C 
ATOM     51  C37 UNL A   1      15.409  56.267   3.492  1.00  0.00    +0.000 C 
ATOM     52  C38 UNL A   1      16.340  56.284   2.448  1.00  0.00    +0.000 C 
ATOM     53  C39 UNL A   1      16.414  55.011   1.907  1.00  0.00    +0.000 C 
ATOM     54  N5  UNL A   1      15.499  54.233   2.601  1.00  0.00    +0.000 N 
ATOM     55  C40 UNL A   1      17.256  54.539   0.841  1.00  0.00    +0.000 C 
ATOM     67  C47 UNL A   1      17.279  53.268   0.370  1.00  0.00    +0.000 C 
ATOM     68  N6  UNL A   1      16.514  52.180   0.761  1.00  0.00    +0.000 N 
ATOM     69  C48 UNL A   1      16.865  51.193  -0.027  1.00  0.00    +0.000 C 
ATOM     70  C49 UNL A   1      16.360  49.781  -0.054  1.00  0.00    +0.000 C 
ATOM     82  C56 UNL A   1      15.400  49.415   0.814  1.00  0.00    +0.000 C 
ATOM     83  C57 UNL A   1      14.828  48.077   0.915  1.00  0.00    +0.000 C 
ATOM     84  C58 UNL A   1      13.893  48.076   1.875  1.00  0.00    +0.000 C 
ATOM     85  C59 UNL A   1      13.839  49.402   2.494  1.00  0.00    +0.000 C 
ATOM     86  N7  UNL A   1      14.737  50.144   1.771  1.00  0.00    +0.000 N 
ATOM     87  C60 UNL A   1      17.902  51.542  -1.007  1.00  0.00    +0.000 C 
ATOM     88  C61 UNL A   1      18.146  52.807  -0.697  1.00  0.00    +0.000 C 
ATOM     89  C62 UNL A   1      12.387  52.724   5.394  1.00  0.00    +0.000 C 
ATOM     90  C63 UNL A   1      12.181  51.426   5.214  1.00  0.00    +0.000 C 
ATOM    118  H26 UNL A   1      15.165  57.068   4.097  1.00  0.00    +0.000 H 
ATOM    119  H27 UNL A   1      16.882  57.106   2.135  1.00  0.00    +0.000 H 
ATOM    120  H28 UNL A   1      15.323  53.280   2.428  1.00  0.00    +0.000 H 
ATOM    121  H29 UNL A   1      15.101  47.263   0.342  1.00  0.00    +0.000 H 
ATOM    122  H30 UNL A   1      13.305  47.269   2.136  1.00  0.00    +0.000 H 
ATOM    123  H31 UNL A   1      14.893  51.103   1.923  1.00  0.00    +0.000 H 
ATOM    124  H32 UNL A   1      18.328  50.957  -1.743  1.00  0.00    +0.000 H 
ATOM    125  H33 UNL A   1      18.862  53.391  -1.156  1.00  0.00    +0.000 H 
ATOM    126  H34 UNL A   1      11.892  53.301   6.091  1.00  0.00    +0.000 H 
ATOM    127  H35 UNL A   1      11.556  50.789   5.732  1.00  0.00    +0.000 H 
ENDROOT
BRANCH   34   33
ATOM    129  H37 UNL A   1       9.243  47.250   4.398  1.00  0.00    +0.000 H 
ATOM     33  C25 UNL A   1      12.297  48.645   4.214  1.00  0.00    +0.000 C 
ATOM    116  H24 UNL A   1      12.825  45.995   6.211  1.00  0.00    +0.000 H 
ATOM    117  H25 UNL A   1      13.958  47.938   5.317  1.00  0.00    +0.000 H 
ATOM     91  C64 UNL A   1      10.939  48.425   3.937  1.00  0.00    +0.000 C 
ATOM     92  C65 UNL A   1      10.250  47.388   4.577  1.00  0.00    +0.000 C 
ATOM    128  H36 UNL A   1      10.447  49.029   3.260  1.00  0.00    +0.000 H 
ATOM     30  C22 UNL A   1      10.928  46.540   5.458  1.00  0.00    +0.000 C 
ATOM     31  C23 UNL A   1      12.302  46.688   5.652  1.00  0.00    +0.000 C 
ATOM     32  C24 UNL A   1      12.965  47.773   5.089  1.00  0.00    +0.000 C 
BRANCH   30    2
ATOM      1  O1  UNL A   1      10.691  44.407   6.407  1.00  0.00    +0.000 O 
ATOM      2  C1  UNL A   1      10.171  45.497   6.187  1.00  0.00    +0.000 C 
BRANCH    2    3
ATOM      3  N1  UNL A   1       8.876  45.743   6.581  1.00  0.00    +0.000 N 
ATOM     93  H1  UNL A   1       8.201  45.721   5.864  1.00  0.00    +0.000 H 
BRANCH    3    4
ATOM      4  C2  UNL A   1       8.369  46.033   7.912  1.00  0.00    +0.000 C 
ATOM     94  H2  UNL A   1       7.813  45.186   8.253  1.00  0.00    +0.000 H 
ATOM     95  H3  UNL A   1       7.762  46.911   7.833  1.00  0.00    +0.000 H 
BRANCH    4    5
ATOM     97  H5  UNL A   1       9.008  46.219   9.888  1.00  0.00    +0.000 H 
ATOM      5  C3  UNL A   1       9.462  46.334   8.925  1.00  0.00    +0.000 C 
ATOM     96  H4  UNL A   1      10.271  45.658   8.747  1.00  0.00    +0.000 H 
BRANCH    5    6
ATOM     98  H6  UNL A   1       9.572  48.300   9.696  1.00  0.00    +0.000 H 
ATOM     99  H7  UNL A   1       9.787  48.134   7.920  1.00  0.00    +0.000 H 
ATOM      6  C4  UNL A   1      10.020  47.755   8.893  1.00  0.00    +0.000 C 
BRANCH    6    7
ATOM    100  H8  UNL A   1      11.737  48.540   9.853  1.00  0.00    +0.000 H 
ATOM    101  H9  UNL A   1      11.882  48.244   8.083  1.00  0.00    +0.000 H 
ATOM      7  C5  UNL A   1      11.540  47.883   9.031  1.00  0.00    +0.000 C 
BRANCH    7    8
ATOM    102  H10 UNL A   1      12.137  45.933   8.445  1.00  0.00    +0.000 H 
ATOM    103  H11 UNL A   1      11.964  46.207  10.212  1.00  0.00    +0.000 H 
ATOM      8  C6  UNL A   1      12.318  46.584   9.275  1.00  0.00    +0.000 C 
BRANCH    8    9
ATOM      9  C7  UNL A   1      13.829  46.730   9.433  1.00  0.00    +0.000 C 
ATOM    105  H13 UNL A   1      14.009  47.320  10.307  1.00  0.00    +0.000 H 
ATOM    104  H12 UNL A   1      14.261  45.754   9.523  1.00  0.00    +0.000 H 
BRANCH    9   10
ATOM     10  N2  UNL A   1      14.442  47.408   8.307  1.00  0.00    +0.000 N 
ATOM    106  H14 UNL A   1      13.850  47.574   7.537  1.00  0.00    +0.000 H 
BRANCH   10   11
ATOM     11  C8  UNL A   1      15.731  47.851   8.168  1.00  0.00    +0.000 C 
ATOM     12  O2  UNL A   1      16.556  47.628   9.049  1.00  0.00    +0.000 O 
BRANCH   11   13
ATOM    107  H15 UNL A   1      15.892  46.831   5.775  1.00  0.00    +0.000 H 
ATOM    108  H16 UNL A   1      16.564  47.875   3.690  1.00  0.00    +0.000 H 
ATOM     13  C9  UNL A   1      16.150  48.574   6.949  1.00  0.00    +0.000 C 
ATOM     14  C10 UNL A   1      16.167  47.826   5.761  1.00  0.00    +0.000 C 
ATOM     15  C11 UNL A   1      16.555  48.423   4.564  1.00  0.00    +0.000 C 
ATOM    110  H18 UNL A   1      17.207  51.496   5.717  1.00  0.00    +0.000 H 
ATOM     17  C13 UNL A   1      16.931  50.501   5.742  1.00  0.00    +0.000 C 
ATOM     18  C14 UNL A   1      16.561  49.923   6.967  1.00  0.00    +0.000 C 
ATOM     16  C12 UNL A   1      16.932  49.762   4.554  1.00  0.00    +0.000 C 
ATOM    109  H17 UNL A   1      17.212  50.210   3.669  1.00  0.00    +0.000 H 
BRANCH   18   19
ATOM     19  N3  UNL A   1      16.567  50.680   8.158  1.00  0.00    +0.000 N 
ATOM    111  H19 UNL A   1      17.458  50.788   8.565  1.00  0.00    +0.000 H 
BRANCH   19   20
ATOM    112  H20 UNL A   1      14.175  51.217   7.248  1.00  0.00    +0.000 H 
ATOM    113  H21 UNL A   1      12.309  52.190   8.442  1.00  0.00    +0.000 H 
ATOM    114  H22 UNL A   1      12.560  52.858  10.758  1.00  0.00    +0.000 H 
ATOM    115  H23 UNL A   1      16.556  51.545  10.689  1.00  0.00    +0.000 H 
ATOM     20  C15 UNL A   1      15.527  51.304   8.866  1.00  0.00    +0.000 C 
ATOM     21  C16 UNL A   1      14.291  51.496   8.235  1.00  0.00    +0.000 C 
ATOM     22  C17 UNL A   1      13.214  52.059   8.922  1.00  0.00    +0.000 C 
ATOM     23  C18 UNL A   1      13.358  52.444  10.253  1.00  0.00    +0.000 C 
ATOM     24  C19 UNL A   1      14.586  52.272  10.908  1.00  0.00    +0.000 C 
ATOM     25  C20 UNL A   1      14.739  52.690  12.349  1.00  0.00    +0.000 C 
ATOM     26  F1  UNL A   1      14.306  53.962  12.571  1.00  0.00    +0.000 F 
ATOM     27  F2  UNL A   1      14.031  51.898  13.199  1.00  0.00    +0.000 F 
ATOM     28  F3  UNL A   1      16.027  52.656  12.791  1.00  0.00    +0.000 F 
ATOM     29  C21 UNL A   1      15.655  51.690  10.206  1.00  0.00    +0.000 C 
ENDBRANCH   19   20
ENDBRANCH   18   19
ENDBRANCH   11   13
ENDBRANCH   10   11
ENDBRANCH    9   10
ENDBRANCH    8    9
ENDBRANCH    7    8
ENDBRANCH    6    7
ENDBRANCH    5    6
ENDBRANCH    4    5
ENDBRANCH    3    4
ENDBRANCH    2    3
ENDBRANCH   30    2
ENDBRANCH   34   33
BRANCH   38   39
ATOM     39  C30 UNL A   1      13.276  55.464   5.471  1.00  0.00    +0.000 C 
ATOM     40  C31 UNL A   1      12.256  56.357   5.114  1.00  0.00    +0.000 C 
ATOM     41  F4  UNL A   1      11.828  56.420   3.845  1.00  0.00    +0.000 F 
ATOM     42  C32 UNL A   1      11.686  57.209   6.058  1.00  0.00    +0.000 C 
ATOM     43  F5  UNL A   1      10.734  58.075   5.687  1.00  0.00    +0.000 F 
ATOM     44  C33 UNL A   1      12.104  57.165   7.380  1.00  0.00    +0.000 C 
ATOM     45  F6  UNL A   1      11.545  57.975   8.289  1.00  0.00    +0.000 F 
ATOM     46  C34 UNL A   1      13.106  56.282   7.757  1.00  0.00    +0.000 C 
ATOM     47  F7  UNL A   1      13.503  56.231   9.036  1.00  0.00    +0.000 F 
ATOM     48  C35 UNL A   1      13.694  55.447   6.811  1.00  0.00    +0.000 C 
ATOM     49  F8  UNL A   1      14.663  54.607   7.206  1.00  0.00    +0.000 F 
ENDBRANCH   38   39
BRANCH   55   56
ATOM     65  C46 UNL A   1      19.408  55.854   0.820  1.00  0.00    +0.000 C 
ATOM     66  F13 UNL A   1      19.734  55.317   2.005  1.00  0.00    +0.000 F 
ATOM     56  C41 UNL A   1      18.200  55.511   0.197  1.00  0.00    +0.000 C 
ATOM     57  C42 UNL A   1      17.904  56.104  -1.040  1.00  0.00    +0.000 C 
ATOM     58  F9  UNL A   1      16.768  55.792  -1.683  1.00  0.00    +0.000 F 
ATOM     59  C43 UNL A   1      18.800  56.979  -1.646  1.00  0.00    +0.000 C 
ATOM     60  F10 UNL A   1      18.522  57.489  -2.853  1.00  0.00    +0.000 F 
ATOM     61  C44 UNL A   1      19.989  57.304  -1.012  1.00  0.00    +0.000 C 
ATOM     62  F11 UNL A   1      20.855  58.143  -1.599  1.00  0.00    +0.000 F 
ATOM     63  C45 UNL A   1      20.289  56.751   0.224  1.00  0.00    +0.000 C 
ATOM     64  F12 UNL A   1      21.436  57.070   0.840  1.00  0.00    +0.000 F 
ENDBRANCH   55   56
BRANCH   70   71
ATOM     71  C50 UNL A   1      16.894  48.789  -1.023  1.00  0.00    +0.000 C 
ATOM     72  C51 UNL A   1      18.009  48.000  -0.714  1.00  0.00    +0.000 C 
ATOM     73  F14 UNL A   1      18.635  48.155   0.463  1.00  0.00    +0.000 F 
ATOM     74  C52 UNL A   1      18.506  47.071  -1.626  1.00  0.00    +0.000 C 
ATOM     75  F15 UNL A   1      19.598  46.357  -1.323  1.00  0.00    +0.000 F 
ATOM     76  C53 UNL A   1      17.878  46.892  -2.849  1.00  0.00    +0.000 C 
ATOM     77  F16 UNL A   1      18.351  45.991  -3.722  1.00  0.00    +0.000 F 
ATOM     78  C54 UNL A   1      16.763  47.651  -3.171  1.00  0.00    +0.000 C 
ATOM     79  F17 UNL A   1      16.142  47.469  -4.343  1.00  0.00    +0.000 F 
ATOM     80  C55 UNL A   1      16.285  48.601  -2.273  1.00  0.00    +0.000 C 
ATOM     81  F18 UNL A   1      15.211  49.328  -2.613  1.00  0.00    +0.000 F 
ENDBRANCH   70   71
TORSDOF 17
ENDMDL
MODEL 2
REMARK VINA RESULT:      -9.5     64.826     70.628
ROOT
ATOM     34  C26 UNL A   1      28.957 -14.339  31.023  1.00  0.00    +0.000 C 
ATOM     35  C27 UNL A   1      28.730 -14.403  32.506  1.00  0.00    +0.000 C 
ATOM     36  N4  UNL A   1      27.756 -13.885  33.212  1.00  0.00    +0.000 N 
ATOM     37  C28 UNL A   1      28.002 -14.247  34.530  1.00  0.00    +0.000 C 
ATOM     38  C29 UNL A   1      27.294 -13.925  35.641  1.00  0.00    +0.000 C 
ATOM     50  C36 UNL A   1      26.103 -13.113  35.641  1.00  0.00    +0.000 C 
ATOM     51  C37 UNL A   1      25.320 -12.726  36.715  1.00  0.00    +0.000 C 
ATOM     52  C38 UNL A   1      24.251 -11.963  36.230  1.00  0.00    +0.000 C 
ATOM     53  C39 UNL A   1      24.391 -11.839  34.858  1.00  0.00    +0.000 C 
ATOM     54  N5  UNL A   1      25.525 -12.557  34.508  1.00  0.00    +0.000 N 
ATOM     55  C40 UNL A   1      23.557 -11.117  33.934  1.00  0.00    +0.000 C 
ATOM     67  C47 UNL A   1      23.764 -11.032  32.597  1.00  0.00    +0.000 C 
ATOM     68  N6  UNL A   1      24.763 -11.616  31.832  1.00  0.00    +0.000 N 
ATOM     69  C48 UNL A   1      24.503 -11.284  30.591  1.00  0.00    +0.000 C 
ATOM     70  C49 UNL A   1      25.253 -11.639  29.341  1.00  0.00    +0.000 C 
ATOM     82  C56 UNL A   1      26.345 -12.419  29.436  1.00  0.00    +0.000 C 
ATOM     83  C57 UNL A   1      27.182 -12.829  28.313  1.00  0.00    +0.000 C 
ATOM     84  C58 UNL A   1      28.171 -13.609  28.772  1.00  0.00    +0.000 C 
ATOM     85  C59 UNL A   1      28.068 -13.708  30.229  1.00  0.00    +0.000 C 
ATOM     86  N7  UNL A   1      26.930 -13.006  30.532  1.00  0.00    +0.000 N 
ATOM     87  C60 UNL A   1      23.310 -10.443  30.428  1.00  0.00    +0.000 C 
ATOM     88  C61 UNL A   1      22.919 -10.289  31.684  1.00  0.00    +0.000 C 
ATOM     89  C62 UNL A   1      29.203 -15.055  34.525  1.00  0.00    +0.000 C 
ATOM     90  C63 UNL A   1      29.714 -15.150  33.305  1.00  0.00    +0.000 C 
ATOM    118  H26 UNL A   1      25.494 -12.960  37.706  1.00  0.00    +0.000 H 
ATOM    119  H27 UNL A   1      23.489 -11.561  36.798  1.00  0.00    +0.000 H 
ATOM    120  H28 UNL A   1      25.870 -12.658  33.591  1.00  0.00    +0.000 H 
ATOM    121  H29 UNL A   1      27.036 -12.561  27.327  1.00  0.00    +0.000 H 
ATOM    122  H30 UNL A   1      28.890 -14.066  28.190  1.00  0.00    +0.000 H 
ATOM    123  H31 UNL A   1      26.568 -12.930  31.443  1.00  0.00    +0.000 H 
ATOM    124  H32 UNL A   1      22.887 -10.072  29.563  1.00  0.00    +0.000 H 
ATOM    125  H33 UNL A   1      22.116  -9.711  31.977  1.00  0.00    +0.000 H 
ATOM    126  H34 UNL A   1      29.609 -15.500  35.362  1.00  0.00    +0.000 H 
ATOM    127  H35 UNL A   1      30.577 -15.624  32.996  1.00  0.00    +0.000 H 
ENDROOT
BRANCH   34   33
ATOM    129  H37 UNL A   1      31.367 -17.520  28.658  1.00  0.00    +0.000 H 
ATOM     33  C25 UNL A   1      30.183 -14.896  30.395  1.00  0.00    +0.000 C 
ATOM    116  H24 UNL A   1      33.337 -13.958  29.718  1.00  0.00    +0.000 H 
ATOM    117  H25 UNL A   1      31.380 -13.242  30.949  1.00  0.00    +0.000 H 
ATOM     91  C64 UNL A   1      30.183 -16.121  29.711  1.00  0.00    +0.000 C 
ATOM     92  C65 UNL A   1      31.361 -16.602  29.130  1.00  0.00    +0.000 C 
ATOM    128  H36 UNL A   1      29.311 -16.669  29.637  1.00  0.00    +0.000 H 
ATOM     30  C22 UNL A   1      32.531 -15.837  29.189  1.00  0.00    +0.000 C 
ATOM     31  C23 UNL A   1      32.508 -14.570  29.773  1.00  0.00    +0.000 C 
ATOM     32  C24 UNL A   1      31.363 -14.134  30.431  1.00  0.00    +0.000 C 
BRANCH   30    2
ATOM      1  O1  UNL A   1      34.512 -17.086  29.347  1.00  0.00    +0.000 O 
ATOM      2  C1  UNL A   1      33.789 -16.392  28.638  1.00  0.00    +0.000 C 
BRANCH    2    3
ATOM      3  N1  UNL A   1      34.157 -16.095  27.346  1.00  0.00    +0.000 N 
ATOM     93  H1  UNL A   1      35.016 -16.472  27.050  1.00  0.00    +0.000 H 
BRANCH    3    4
ATOM      4  C2  UNL A   1      33.446 -15.300  26.358  1.00  0.00    +0.000 C 
ATOM     94  H2  UNL A   1      32.396 -15.426  26.515  1.00  0.00    +0.000 H 
ATOM     95  H3  UNL A   1      33.757 -15.646  25.394  1.00  0.00    +0.000 H 
BRANCH    4    5
ATOM     97  H5  UNL A   1      33.875 -13.586  27.466  1.00  0.00    +0.000 H 
ATOM      5  C3  UNL A   1      33.771 -13.816  26.426  1.00  0.00    +0.000 C 
ATOM     96  H4  UNL A   1      34.661 -13.647  25.856  1.00  0.00    +0.000 H 
BRANCH    5    6
ATOM     98  H6  UNL A   1      32.323 -13.286  24.978  1.00  0.00    +0.000 H 
ATOM     99  H7  UNL A   1      33.159 -11.922  25.796  1.00  0.00    +0.000 H 
ATOM      6  C4  UNL A   1      32.689 -12.878  25.897  1.00  0.00    +0.000 C 
BRANCH    6    7
ATOM    100  H8  UNL A   1      31.375 -13.522  27.429  1.00  0.00    +0.000 H 
ATOM    101  H9  UNL A   1      30.661 -12.455  26.166  1.00  0.00    +0.000 H 
ATOM      7  C5  UNL A   1      31.487 -12.649  26.819  1.00  0.00    +0.000 C 
BRANCH    7    8
ATOM    102  H10 UNL A   1      32.319 -11.629  28.483  1.00  0.00    +0.000 H 
ATOM    103  H11 UNL A   1      30.579 -11.323  28.160  1.00  0.00    +0.000 H 
ATOM      8  C6  UNL A   1      31.562 -11.435  27.752  1.00  0.00    +0.000 C 
BRANCH    8    9
ATOM      9  C7  UNL A   1      31.886 -10.100  27.086  1.00  0.00    +0.000 C 
ATOM    105  H13 UNL A   1      32.619 -10.283  26.329  1.00  0.00    +0.000 H 
ATOM    104  H12 UNL A   1      30.985  -9.695  26.672  1.00  0.00    +0.000 H 
BRANCH    9   10
ATOM     10  N2  UNL A   1      32.443  -9.136  28.017  1.00  0.00    +0.000 N 
ATOM    106  H14 UNL A   1      33.408  -9.222  28.191  1.00  0.00    +0.000 H 
BRANCH   10   11
ATOM     11  C8  UNL A   1      31.809  -8.121  28.686  1.00  0.00    +0.000 C 
ATOM     12  O2  UNL A   1      32.272  -6.985  28.659  1.00  0.00    +0.000 O 
BRANCH   11   13
ATOM    107  H15 UNL A   1      31.614  -9.242  31.031  1.00  0.00    +0.000 H 
ATOM    108  H16 UNL A   1      29.640  -9.731  32.353  1.00  0.00    +0.000 H 
ATOM     13  C9  UNL A   1      30.551  -8.375  29.419  1.00  0.00    +0.000 C 
ATOM     14  C10 UNL A   1      30.679  -8.995  30.671  1.00  0.00    +0.000 C 
ATOM     15  C11 UNL A   1      29.546  -9.279  31.430  1.00  0.00    +0.000 C 
ATOM    110  H18 UNL A   1      27.221  -8.105  29.330  1.00  0.00    +0.000 H 
ATOM     17  C13 UNL A   1      28.161  -8.348  29.680  1.00  0.00    +0.000 C 
ATOM     18  C14 UNL A   1      29.283  -8.065  28.884  1.00  0.00    +0.000 C 
ATOM     16  C12 UNL A   1      28.288  -8.950  30.936  1.00  0.00    +0.000 C 
ATOM    109  H17 UNL A   1      27.447  -9.152  31.498  1.00  0.00    +0.000 H 
BRANCH   18   19
ATOM     19  N3  UNL A   1      29.141  -7.459  27.618  1.00  0.00    +0.000 N 
ATOM    111  H19 UNL A   1      29.405  -6.510  27.590  1.00  0.00    +0.000 H 
BRANCH   19   20
ATOM    112  H20 UNL A   1      28.327  -6.064  25.562  1.00  0.00    +0.000 H 
ATOM    113  H21 UNL A   1      27.637  -6.874  23.388  1.00  0.00    +0.000 H 
ATOM    114  H22 UNL A   1      27.584  -9.255  22.937  1.00  0.00    +0.000 H 
ATOM    115  H23 UNL A   1      28.944 -10.012  26.845  1.00  0.00    +0.000 H 
ATOM     20  C15 UNL A   1      28.688  -7.970  26.391  1.00  0.00    +0.000 C 
ATOM     21  C16 UNL A   1      28.310  -7.080  25.378  1.00  0.00    +0.000 C 
ATOM     22  C17 UNL A   1      27.910  -7.545  24.124  1.00  0.00    +0.000 C 
ATOM     23  C18 UNL A   1      27.878  -8.913  23.865  1.00  0.00    +0.000 C 
ATOM     24  C19 UNL A   1      28.244  -9.829  24.861  1.00  0.00    +0.000 C 
ATOM     25  C20 UNL A   1      28.208 -11.311  24.577  1.00  0.00    +0.000 C 
ATOM     26  F1  UNL A   1      27.022 -11.709  24.039  1.00  0.00    +0.000 F 
ATOM     27  F2  UNL A   1      29.170 -11.694  23.695  1.00  0.00    +0.000 F 
ATOM     28  F3  UNL A   1      28.387 -12.080  25.686  1.00  0.00    +0.000 F 
ATOM     29  C21 UNL A   1      28.657  -9.342  26.113  1.00  0.00    +0.000 C 
ENDBRANCH   19   20
ENDBRANCH   18   19
ENDBRANCH   11   13
ENDBRANCH   10   11
ENDBRANCH    9   10
ENDBRANCH    8    9
ENDBRANCH    7    8
ENDBRANCH    6    7
ENDBRANCH    5    6
ENDBRANCH    4    5
ENDBRANCH    3    4
ENDBRANCH    2    3
ENDBRANCH   30    2
ENDBRANCH   34   33
BRANCH   38   39
ATOM     39  C30 UNL A   1      27.783 -14.452  36.959  1.00  0.00    +0.000 C 
ATOM     40  C31 UNL A   1      28.784 -13.791  37.686  1.00  0.00    +0.000 C 
ATOM     41  F4  UNL A   1      29.383 -12.705  37.176  1.00  0.00    +0.000 F 
ATOM     42  C32 UNL A   1      29.192 -14.260  38.933  1.00  0.00    +0.000 C 
ATOM     43  F5  UNL A   1      30.172 -13.630  39.596  1.00  0.00    +0.000 F 
ATOM     44  C33 UNL A   1      28.589 -15.379  39.489  1.00  0.00    +0.000 C 
ATOM     45  F6  UNL A   1      28.974 -15.819  40.694  1.00  0.00    +0.000 F 
ATOM     46  C34 UNL A   1      27.591 -16.042  38.792  1.00  0.00    +0.000 C 
ATOM     47  F7  UNL A   1      27.000 -17.116  39.333  1.00  0.00    +0.000 F 
ATOM     48  C35 UNL A   1      27.198 -15.590  37.534  1.00  0.00    +0.000 C 
ATOM     49  F8  UNL A   1      26.232 -16.255  36.884  1.00  0.00    +0.000 F 
ENDBRANCH   38   39
BRANCH   55   56
ATOM     65  C46 UNL A   1      22.517  -9.130  35.087  1.00  0.00    +0.000 C 
ATOM     66  F13 UNL A   1      23.731  -8.572  35.195  1.00  0.00    +0.000 F 
ATOM     56  C41 UNL A   1      22.366 -10.384  34.477  1.00  0.00    +0.000 C 
ATOM     57  C42 UNL A   1      21.075 -10.926  34.392  1.00  0.00    +0.000 C 
ATOM     58  F9  UNL A   1      20.880 -12.114  33.801  1.00  0.00    +0.000 F 
ATOM     59  C43 UNL A   1      19.973 -10.223  34.868  1.00  0.00    +0.000 C 
ATOM     60  F10 UNL A   1      18.743 -10.735  34.726  1.00  0.00    +0.000 F 
ATOM     61  C44 UNL A   1      20.143  -8.985  35.468  1.00  0.00    +0.000 C 
ATOM     62  F11 UNL A   1      19.080  -8.306  35.921  1.00  0.00    +0.000 F 
ATOM     63  C45 UNL A   1      21.415  -8.442  35.586  1.00  0.00    +0.000 C 
ATOM     64  F12 UNL A   1      21.581  -7.248  36.171  1.00  0.00    +0.000 F 
ENDBRANCH   55   56
BRANCH   70   71
ATOM     71  C50 UNL A   1      24.809 -11.153  28.010  1.00  0.00    +0.000 C 
ATOM     72  C51 UNL A   1      25.243  -9.922  27.505  1.00  0.00    +0.000 C 
ATOM     73  F14 UNL A   1      26.050  -9.142  28.240  1.00  0.00    +0.000 F 
ATOM     74  C52 UNL A   1      24.823  -9.470  26.255  1.00  0.00    +0.000 C 
ATOM     75  F15 UNL A   1      25.220  -8.270  25.811  1.00  0.00    +0.000 F 
ATOM     76  C53 UNL A   1      23.988 -10.256  25.475  1.00  0.00    +0.000 C 
ATOM     77  F16 UNL A   1      23.593  -9.826  24.269  1.00  0.00    +0.000 F 
ATOM     78  C54 UNL A   1      23.558 -11.486  25.948  1.00  0.00    +0.000 C 
ATOM     79  F17 UNL A   1      22.766 -12.257  25.192  1.00  0.00    +0.000 F 
ATOM     80  C55 UNL A   1      23.952 -11.924  27.209  1.00  0.00    +0.000 C 
ATOM     81  F18 UNL A   1      23.514 -13.114  27.647  1.00  0.00    +0.000 F 
ENDBRANCH   70   71
TORSDOF 17
ENDMDL
MODEL 3
REMARK VINA RESULT:      -9.4      0.971      2.090
ROOT
ATOM     34  C26 UNL A   1      13.183  49.675   3.487  1.00  0.00    +0.000 C 
ATOM     35  C27 UNL A   1      13.205  51.084   4.007  1.00  0.00    +0.000 C 
ATOM     36  N4  UNL A   1      13.912  52.105   3.588  1.00  0.00    +0.000 N 
ATOM     37  C28 UNL A   1      13.550  53.178   4.391  1.00  0.00    +0.000 C 
ATOM     38  C29 UNL A   1      14.028  54.446   4.371  1.00  0.00    +0.000 C 
ATOM     50  C36 UNL A   1      15.042  54.921   3.464  1.00  0.00    +0.000 C 
ATOM     51  C37 UNL A   1      15.596  56.187   3.369  1.00  0.00    +0.000 C 
ATOM     52  C38 UNL A   1      16.525  56.185   2.323  1.00  0.00    +0.000 C 
ATOM     53  C39 UNL A   1      16.581  54.908   1.791  1.00  0.00    +0.000 C 
ATOM     54  N5  UNL A   1      15.659  54.145   2.492  1.00  0.00    +0.000 N 
ATOM     55  C40 UNL A   1      17.415  54.417   0.725  1.00  0.00    +0.000 C 
ATOM     67  C47 UNL A   1      17.421  53.143   0.263  1.00  0.00    +0.000 C 
ATOM     68  N6  UNL A   1      16.643  52.067   0.664  1.00  0.00    +0.000 N 
ATOM     69  C48 UNL A   1      16.981  51.071  -0.118  1.00  0.00    +0.000 C 
ATOM     70  C49 UNL A   1      16.458  49.664  -0.133  1.00  0.00    +0.000 C 
ATOM     82  C56 UNL A   1      15.496  49.316   0.740  1.00  0.00    +0.000 C 
ATOM     83  C57 UNL A   1      14.909  47.985   0.853  1.00  0.00    +0.000 C 
ATOM     84  C58 UNL A   1      13.977  48.003   1.816  1.00  0.00    +0.000 C 
ATOM     85  C59 UNL A   1      13.940  49.334   2.425  1.00  0.00    +0.000 C 
ATOM     86  N7  UNL A   1      14.846  50.060   1.694  1.00  0.00    +0.000 N 
ATOM     87  C60 UNL A   1      18.018  51.400  -1.103  1.00  0.00    +0.000 C 
ATOM     88  C61 UNL A   1      18.278  52.664  -0.803  1.00  0.00    +0.000 C 
ATOM     89  C62 UNL A   1      12.538  52.694   5.306  1.00  0.00    +0.000 C 
ATOM     90  C63 UNL A   1      12.316  51.397   5.136  1.00  0.00    +0.000 C 
ATOM    118  H26 UNL A   1      15.364  56.994   3.970  1.00  0.00    +0.000 H 
ATOM    119  H27 UNL A   1      17.075  56.998   2.002  1.00  0.00    +0.000 H 
ATOM    120  H28 UNL A   1      15.471  53.193   2.327  1.00  0.00    +0.000 H 
ATOM    121  H29 UNL A   1      15.170  47.164   0.284  1.00  0.00    +0.000 H 
ATOM    122  H30 UNL A   1      13.380  47.205   2.084  1.00  0.00    +0.000 H 
ATOM    123  H31 UNL A   1      15.014  51.018   1.838  1.00  0.00    +0.000 H 
ATOM    124  H32 UNL A   1      18.435  50.805  -1.836  1.00  0.00    +0.000 H 
ATOM    125  H33 UNL A   1      19.000  53.236  -1.269  1.00  0.00    +0.000 H 
ATOM    126  H34 UNL A   1      12.051  53.282   6.000  1.00  0.00    +0.000 H 
ATOM    127  H35 UNL A   1      11.684  50.771   5.660  1.00  0.00    +0.000 H 
ENDROOT
BRANCH   34   33
ATOM    129  H37 UNL A   1       9.348  47.191   4.290  1.00  0.00    +0.000 H 
ATOM     33  C25 UNL A   1      12.395  48.608   4.155  1.00  0.00    +0.000 C 
ATOM    116  H24 UNL A   1      12.882  46.028   6.251  1.00  0.00    +0.000 H 
ATOM    117  H25 UNL A   1      14.027  47.952   5.331  1.00  0.00    +0.000 H 
ATOM     91  C64 UNL A   1      11.048  48.366   3.844  1.00  0.00    +0.000 C 
ATOM     92  C65 UNL A   1      10.348  47.344   4.495  1.00  0.00    +0.000 C 
ATOM    128  H36 UNL A   1      10.572  48.944   3.133  1.00  0.00    +0.000 H 
ATOM     30  C22 UNL A   1      11.006  46.530   5.424  1.00  0.00    +0.000 C 
ATOM     31  C23 UNL A   1      12.372  46.698   5.655  1.00  0.00    +0.000 C 
ATOM     32  C24 UNL A   1      13.043  47.770   5.078  1.00  0.00    +0.000 C 
BRANCH   30    2
ATOM      1  O1  UNL A   1      10.735  44.404   6.378  1.00  0.00    +0.000 O 
ATOM      2  C1  UNL A   1      10.235  45.504   6.162  1.00  0.00    +0.000 C 
BRANCH    2    3
ATOM      3  N1  UNL A   1       8.949  45.777   6.567  1.00  0.00    +0.000 N 
ATOM     93  H1  UNL A   1       8.288  45.882   5.846  1.00  0.00    +0.000 H 
BRANCH    3    4
ATOM      4  C2  UNL A   1       8.435  45.932   7.918  1.00  0.00    +0.000 C 
ATOM     94  H2  UNL A   1       8.000  45.003   8.223  1.00  0.00    +0.000 H 
ATOM     95  H3  UNL A   1       7.718  46.726   7.892  1.00  0.00    +0.000 H 
BRANCH    4    5
ATOM     97  H5  UNL A   1       9.032  46.245   9.892  1.00  0.00    +0.000 H 
ATOM      5  C3  UNL A   1       9.499  46.323   8.932  1.00  0.00    +0.000 C 
ATOM     96  H4  UNL A   1      10.333  45.666   8.803  1.00  0.00    +0.000 H 
BRANCH    5    6
ATOM     98  H6  UNL A   1       9.474  48.347   9.545  1.00  0.00    +0.000 H 
ATOM     99  H7  UNL A   1       9.857  48.049   7.814  1.00  0.00    +0.000 H 
ATOM      6  C4  UNL A   1      10.011  47.758   8.832  1.00  0.00    +0.000 C 
BRANCH    6    7
ATOM    100  H8  UNL A   1      11.606  48.619   9.929  1.00  0.00    +0.000 H 
ATOM    101  H9  UNL A   1      11.908  48.337   8.176  1.00  0.00    +0.000 H 
ATOM      7  C5  UNL A   1      11.507  47.957   9.093  1.00  0.00    +0.000 C 
BRANCH    7    8
ATOM    102  H10 UNL A   1      12.174  46.004   8.596  1.00  0.00    +0.000 H 
ATOM    103  H11 UNL A   1      11.970  46.346  10.348  1.00  0.00    +0.000 H 
ATOM      8  C6  UNL A   1      12.323  46.695   9.400  1.00  0.00    +0.000 C 
BRANCH    8    9
ATOM      9  C7  UNL A   1      13.827  46.897   9.569  1.00  0.00    +0.000 C 
ATOM    105  H13 UNL A   1      13.977  47.542  10.409  1.00  0.00    +0.000 H 
ATOM    104  H12 UNL A   1      14.287  45.941   9.721  1.00  0.00    +0.000 H 
BRANCH    9   10
ATOM     10  N2  UNL A   1      14.436  47.526   8.413  1.00  0.00    +0.000 N 
ATOM    106  H14 UNL A   1      13.862  47.597   7.616  1.00  0.00    +0.000 H 
BRANCH   10   11
ATOM     11  C8  UNL A   1      15.700  48.039   8.279  1.00  0.00    +0.000 C 
ATOM     12  O2  UNL A   1      16.550  47.808   9.133  1.00  0.00    +0.000 O 
BRANCH   11   13
ATOM    107  H15 UNL A   1      16.052  47.126   5.863  1.00  0.00    +0.000 H 
ATOM    108  H16 UNL A   1      16.649  48.312   3.833  1.00  0.00    +0.000 H 
ATOM     13  C9  UNL A   1      16.061  48.847   7.096  1.00  0.00    +0.000 C 
ATOM     14  C10 UNL A   1      16.203  48.147   5.888  1.00  0.00    +0.000 C 
ATOM     15  C11 UNL A   1      16.549  48.826   4.722  1.00  0.00    +0.000 C 
ATOM    110  H18 UNL A   1      16.788  51.915   5.985  1.00  0.00    +0.000 H 
ATOM     17  C13 UNL A   1      16.634  50.894   5.972  1.00  0.00    +0.000 C 
ATOM     18  C14 UNL A   1      16.304  50.235   7.167  1.00  0.00    +0.000 C 
ATOM     16  C12 UNL A   1      16.759  50.201   4.764  1.00  0.00    +0.000 C 
ATOM    109  H17 UNL A   1      17.008  50.709   3.901  1.00  0.00    +0.000 H 
BRANCH   18   19
ATOM     19  N3  UNL A   1      16.184  50.947   8.379  1.00  0.00    +0.000 N 
ATOM    111  H19 UNL A   1      17.039  51.108   8.842  1.00  0.00    +0.000 H 
BRANCH   19   20
ATOM    112  H20 UNL A   1      16.198  52.387  10.562  1.00  0.00    +0.000 H 
ATOM    113  H21 UNL A   1      14.313  53.397  11.695  1.00  0.00    +0.000 H 
ATOM    114  H22 UNL A   1      12.065  53.065  10.852  1.00  0.00    +0.000 H 
ATOM    115  H23 UNL A   1      13.603  50.726   7.712  1.00  0.00    +0.000 H 
ATOM     20  C15 UNL A   1      15.060  51.465   9.044  1.00  0.00    +0.000 C 
ATOM     21  C16 UNL A   1      15.244  52.242  10.194  1.00  0.00    +0.000 C 
ATOM     22  C17 UNL A   1      14.158  52.824  10.850  1.00  0.00    +0.000 C 
ATOM     23  C18 UNL A   1      12.866  52.633  10.366  1.00  0.00    +0.000 C 
ATOM     24  C19 UNL A   1      12.649  51.853   9.222  1.00  0.00    +0.000 C 
ATOM     25  C20 UNL A   1      11.248  51.648   8.700  1.00  0.00    +0.000 C 
ATOM     26  F1  UNL A   1      10.387  51.238   9.672  1.00  0.00    +0.000 F 
ATOM     27  F2  UNL A   1      10.715  52.786   8.180  1.00  0.00    +0.000 F 
ATOM     28  F3  UNL A   1      11.167  50.711   7.715  1.00  0.00    +0.000 F 
ATOM     29  C21 UNL A   1      13.755  51.287   8.566  1.00  0.00    +0.000 C 
ENDBRANCH   19   20
ENDBRANCH   18   19
ENDBRANCH   11   13
ENDBRANCH   10   11
ENDBRANCH    9   10
ENDBRANCH    8    9
ENDBRANCH    7    8
ENDBRANCH    6    7
ENDBRANCH    5    6
ENDBRANCH    4    5
ENDBRANCH    3    4
ENDBRANCH    2    3
ENDBRANCH   30    2
ENDBRANCH   34   33
BRANCH   38   39
ATOM     39  C30 UNL A   1      13.460  55.423   5.360  1.00  0.00    +0.000 C 
ATOM     40  C31 UNL A   1      12.511  56.383   4.980  1.00  0.00    +0.000 C 
ATOM     41  F4  UNL A   1      12.144  56.496   3.695  1.00  0.00    +0.000 F 
ATOM     42  C32 UNL A   1      11.951  57.249   5.916  1.00  0.00    +0.000 C 
ATOM     43  F5  UNL A   1      11.069  58.178   5.524  1.00  0.00    +0.000 F 
ATOM     44  C33 UNL A   1      12.308  57.154   7.254  1.00  0.00    +0.000 C 
ATOM     45  F6  UNL A   1      11.758  57.979   8.155  1.00  0.00    +0.000 F 
ATOM     46  C34 UNL A   1      13.238  56.207   7.654  1.00  0.00    +0.000 C 
ATOM     47  F7  UNL A   1      13.575  56.107   8.948  1.00  0.00    +0.000 F 
ATOM     48  C35 UNL A   1      13.817  55.355   6.716  1.00  0.00    +0.000 C 
ATOM     49  F8  UNL A   1      14.716  54.452   7.134  1.00  0.00    +0.000 F 
ENDBRANCH   38   39
BRANCH   55   56
ATOM     65  C46 UNL A   1      18.098  55.892  -1.203  1.00  0.00    +0.000 C 
ATOM     66  F13 UNL A   1      16.982  55.536  -1.856  1.00  0.00    +0.000 F 
ATOM     56  C41 UNL A   1      18.368  55.374   0.072  1.00  0.00    +0.000 C 
ATOM     57  C42 UNL A   1      19.550  55.775   0.711  1.00  0.00    +0.000 C 
ATOM     58  F9  UNL A   1      19.841  55.319   1.939  1.00  0.00    +0.000 F 
ATOM     59  C43 UNL A   1      20.411  56.689   0.112  1.00  0.00    +0.000 C 
ATOM     60  F10 UNL A   1      21.506  57.102   0.765  1.00  0.00    +0.000 F 
ATOM     61  C44 UNL A   1      20.125  57.191  -1.148  1.00  0.00    +0.000 C 
ATOM     62  F11 UNL A   1      20.952  58.075  -1.722  1.00  0.00    +0.000 F 
ATOM     63  C45 UNL A   1      18.975  56.786  -1.810  1.00  0.00    +0.000 C 
ATOM     64  F12 UNL A   1      18.702  57.265  -3.032  1.00  0.00    +0.000 F 
ENDBRANCH   55   56
BRANCH   70   71
ATOM     71  C50 UNL A   1      16.977  48.659  -1.096  1.00  0.00    +0.000 C 
ATOM     72  C51 UNL A   1      16.328  48.417  -2.313  1.00  0.00    +0.000 C 
ATOM     73  F14 UNL A   1      15.199  49.076  -2.614  1.00  0.00    +0.000 F 
ATOM     74  C52 UNL A   1      16.819  47.472  -3.212  1.00  0.00    +0.000 C 
ATOM     75  F15 UNL A   1      16.158  47.230  -4.352  1.00  0.00    +0.000 F 
ATOM     76  C53 UNL A   1      17.983  46.776  -2.925  1.00  0.00    +0.000 C 
ATOM     77  F16 UNL A   1      18.460  45.875  -3.796  1.00  0.00    +0.000 F 
ATOM     78  C54 UNL A   1      18.651  47.010  -1.734  1.00  0.00    +0.000 C 
ATOM     79  F17 UNL A   1      19.787  46.354  -1.460  1.00  0.00    +0.000 F 
ATOM     80  C55 UNL A   1      18.145  47.931  -0.820  1.00  0.00    +0.000 C 
ATOM     81  F18 UNL A   1      18.806  48.131   0.329  1.00  0.00    +0.000 F 
ENDBRANCH   70   71
TORSDOF 17
ENDMDL
MODEL 4
REMARK VINA RESULT:      -9.4     43.502     46.345
ROOT
ATOM     34  C26 UNL A   1      25.934  35.166  45.678  1.00  0.00    +0.000 C 
ATOM     35  C27 UNL A   1      25.693  36.291  46.644  1.00  0.00    +0.000 C 
ATOM     36  N4  UNL A   1      26.480  37.292  46.954  1.00  0.00    +0.000 N 
ATOM     37  C28 UNL A   1      25.782  38.057  47.879  1.00  0.00    +0.000 C 
ATOM     38  C29 UNL A   1      26.186  39.179  48.523  1.00  0.00    +0.000 C 
ATOM     50  C36 UNL A   1      27.474  39.802  48.346  1.00  0.00    +0.000 C 
ATOM     51  C37 UNL A   1      27.978  40.937  48.957  1.00  0.00    +0.000 C 
ATOM     52  C38 UNL A   1      29.261  41.177  48.452  1.00  0.00    +0.000 C 
ATOM     53  C39 UNL A   1      29.574  40.168  47.557  1.00  0.00    +0.000 C 
ATOM     54  N5  UNL A   1      28.465  39.338  47.493  1.00  0.00    +0.000 N 
ATOM     55  C40 UNL A   1      30.793  39.973  46.817  1.00  0.00    +0.000 C 
ATOM     67  C47 UNL A   1      31.031  38.950  45.961  1.00  0.00    +0.000 C 
ATOM     68  N6  UNL A   1      30.189  37.913  45.587  1.00  0.00    +0.000 N 
ATOM     69  C48 UNL A   1      30.853  37.215  44.699  1.00  0.00    +0.000 C 
ATOM     70  C49 UNL A   1      30.428  35.983  43.956  1.00  0.00    +0.000 C 
ATOM     82  C56 UNL A   1      29.198  35.483  44.173  1.00  0.00    +0.000 C 
ATOM     83  C57 UNL A   1      28.658  34.285  43.539  1.00  0.00    +0.000 C 
ATOM     84  C58 UNL A   1      27.406  34.089  43.978  1.00  0.00    +0.000 C 
ATOM     85  C59 UNL A   1      27.078  35.119  44.967  1.00  0.00    +0.000 C 
ATOM     86  N7  UNL A   1      28.185  35.927  44.986  1.00  0.00    +0.000 N 
ATOM     87  C60 UNL A   1      32.199  37.727  44.412  1.00  0.00    +0.000 C 
ATOM     88  C61 UNL A   1      32.271  38.763  45.235  1.00  0.00    +0.000 C 
ATOM     89  C62 UNL A   1      24.493  37.422  48.060  1.00  0.00    +0.000 C 
ATOM     90  C63 UNL A   1      24.402  36.306  47.349  1.00  0.00    +0.000 C 
ATOM    118  H26 UNL A   1      27.491  41.509  49.666  1.00  0.00    +0.000 H 
ATOM    119  H27 UNL A   1      29.871  41.971  48.705  1.00  0.00    +0.000 H 
ATOM    120  H28 UNL A   1      28.392  38.535  46.926  1.00  0.00    +0.000 H 
ATOM    121  H29 UNL A   1      29.158  33.685  42.864  1.00  0.00    +0.000 H 
ATOM    122  H30 UNL A   1      26.776  33.334  43.668  1.00  0.00    +0.000 H 
ATOM    123  H31 UNL A   1      28.248  36.745  45.529  1.00  0.00    +0.000 H 
ATOM    124  H32 UNL A   1      32.903  37.374  43.745  1.00  0.00    +0.000 H 
ATOM    125  H33 UNL A   1      33.105  39.361  45.346  1.00  0.00    +0.000 H 
ATOM    126  H34 UNL A   1      23.742  37.791  48.664  1.00  0.00    +0.000 H 
ATOM    127  H35 UNL A   1      23.628  35.626  47.303  1.00  0.00    +0.000 H 
ENDROOT
BRANCH   34   33
ATOM    129  H37 UNL A   1      22.634  32.759  43.479  1.00  0.00    +0.000 H 
ATOM     33  C25 UNL A   1      24.969  34.047  45.527  1.00  0.00    +0.000 C 
ATOM    116  H24 UNL A   1      24.167  31.164  47.056  1.00  0.00    +0.000 H 
ATOM    117  H25 UNL A   1      25.512  33.153  47.366  1.00  0.00    +0.000 H 
ATOM     91  C64 UNL A   1      24.150  33.913  44.396  1.00  0.00    +0.000 C 
ATOM     92  C65 UNL A   1      23.261  32.836  44.295  1.00  0.00    +0.000 C 
ATOM    128  H36 UNL A   1      24.202  34.610  43.637  1.00  0.00    +0.000 H 
ATOM     30  C22 UNL A   1      23.224  31.865  45.302  1.00  0.00    +0.000 C 
ATOM     31  C23 UNL A   1      24.114  31.937  46.374  1.00  0.00    +0.000 C 
ATOM     32  C24 UNL A   1      24.930  33.053  46.520  1.00  0.00    +0.000 C 
BRANCH   30    2
ATOM      1  O1  UNL A   1      22.515  29.724  44.657  1.00  0.00    +0.000 O 
ATOM      2  C1  UNL A   1      22.225  30.775  45.220  1.00  0.00    +0.000 C 
BRANCH    2    3
ATOM      3  N1  UNL A   1      20.967  30.961  45.745  1.00  0.00    +0.000 N 
ATOM     93  H1  UNL A   1      20.919  31.019  46.726  1.00  0.00    +0.000 H 
BRANCH    3    4
ATOM      4  C2  UNL A   1      19.699  31.084  45.046  1.00  0.00    +0.000 C 
ATOM     94  H2  UNL A   1      19.022  31.629  45.669  1.00  0.00    +0.000 H 
ATOM     95  H3  UNL A   1      19.354  30.091  44.844  1.00  0.00    +0.000 H 
BRANCH    4    5
ATOM     97  H5  UNL A   1      20.791  32.226  43.685  1.00  0.00    +0.000 H 
ATOM      5  C3  UNL A   1      19.809  31.800  43.709  1.00  0.00    +0.000 C 
ATOM     96  H4  UNL A   1      19.632  31.082  42.935  1.00  0.00    +0.000 H 
BRANCH    5    6
ATOM     98  H6  UNL A   1      19.112  33.452  42.587  1.00  0.00    +0.000 H 
ATOM     99  H7  UNL A   1      18.939  33.578  44.372  1.00  0.00    +0.000 H 
ATOM      6  C4  UNL A   1      18.844  32.964  43.501  1.00  0.00    +0.000 C 
BRANCH    6    7
ATOM    100  H8  UNL A   1      17.257  31.580  43.732  1.00  0.00    +0.000 H 
ATOM    101  H9  UNL A   1      17.078  32.778  42.400  1.00  0.00    +0.000 H 
ATOM      7  C5  UNL A   1      17.359  32.598  43.417  1.00  0.00    +0.000 C 
BRANCH    7    8
ATOM    102  H10 UNL A   1      16.068  32.846  45.083  1.00  0.00    +0.000 H 
ATOM    103  H11 UNL A   1      15.612  33.740  43.593  1.00  0.00    +0.000 H 
ATOM      8  C6  UNL A   1      16.396  33.445  44.259  1.00  0.00    +0.000 C 
BRANCH    8    9
ATOM      9  C7  UNL A   1      16.969  34.743  44.824  1.00  0.00    +0.000 C 
ATOM    105  H13 UNL A   1      17.890  34.507  45.314  1.00  0.00    +0.000 H 
ATOM    104  H12 UNL A   1      17.118  35.432  44.018  1.00  0.00    +0.000 H 
BRANCH    9   10
ATOM     10  N2  UNL A   1      16.091  35.357  45.803  1.00  0.00    +0.000 N 
ATOM    106  H14 UNL A   1      15.317  34.815  46.079  1.00  0.00    +0.000 H 
BRANCH   10   11
ATOM     11  C8  UNL A   1      16.194  36.588  46.397  1.00  0.00    +0.000 C 
ATOM     12  O2  UNL A   1      16.491  37.571  45.726  1.00  0.00    +0.000 O 
BRANCH   11   13
ATOM    107  H15 UNL A   1      13.880  36.261  47.552  1.00  0.00    +0.000 H 
ATOM    108  H16 UNL A   1      13.271  36.495  49.889  1.00  0.00    +0.000 H 
ATOM     13  C9  UNL A   1      15.920  36.750  47.840  1.00  0.00    +0.000 C 
ATOM     14  C10 UNL A   1      14.595  36.527  48.248  1.00  0.00    +0.000 C 
ATOM     15  C11 UNL A   1      14.243  36.664  49.588  1.00  0.00    +0.000 C 
ATOM    110  H18 UNL A   1      17.234  37.533  50.812  1.00  0.00    +0.000 H 
ATOM     17  C13 UNL A   1      16.526  37.268  50.108  1.00  0.00    +0.000 C 
ATOM     18  C14 UNL A   1      16.908  37.155  48.762  1.00  0.00    +0.000 C 
ATOM     16  C12 UNL A   1      15.211  37.029  50.519  1.00  0.00    +0.000 C 
ATOM    109  H17 UNL A   1      14.956  37.124  51.514  1.00  0.00    +0.000 H 
BRANCH   18   19
ATOM     19  N3  UNL A   1      18.238  37.402  48.361  1.00  0.00    +0.000 N 
ATOM    111  H19 UNL A   1      18.567  38.305  48.578  1.00  0.00    +0.000 H 
BRANCH   19   20
ATOM    112  H20 UNL A   1      18.910  34.964  49.027  1.00  0.00    +0.000 H 
ATOM    113  H21 UNL A   1      20.433  33.471  47.885  1.00  0.00    +0.000 H 
ATOM    114  H22 UNL A   1      21.603  34.213  45.896  1.00  0.00    +0.000 H 
ATOM    115  H23 UNL A   1      19.692  37.950  46.184  1.00  0.00    +0.000 H 
ATOM     20  C15 UNL A   1      19.176  36.587  47.706  1.00  0.00    +0.000 C 
ATOM     21  C16 UNL A   1      19.401  35.288  48.180  1.00  0.00    +0.000 C 
ATOM     22  C17 UNL A   1      20.281  34.426  47.523  1.00  0.00    +0.000 C 
ATOM     23  C18 UNL A   1      20.955  34.853  46.381  1.00  0.00    +0.000 C 
ATOM     24  C19 UNL A   1      20.756  36.150  45.887  1.00  0.00    +0.000 C 
ATOM     25  C20 UNL A   1      21.487  36.609  44.650  1.00  0.00    +0.000 C 
ATOM     26  F1  UNL A   1      22.826  36.375  44.721  1.00  0.00    +0.000 F 
ATOM     27  F2  UNL A   1      21.053  35.979  43.525  1.00  0.00    +0.000 F 
ATOM     28  F3  UNL A   1      21.357  37.943  44.407  1.00  0.00    +0.000 F 
ATOM     29  C21 UNL A   1      19.856  36.999  46.553  1.00  0.00    +0.000 C 
ENDBRANCH   19   20
ENDBRANCH   18   19
ENDBRANCH   11   13
ENDBRANCH   10   11
ENDBRANCH    9   10
ENDBRANCH    8    9
ENDBRANCH    7    8
ENDBRANCH    6    7
ENDBRANCH    5    6
ENDBRANCH    4    5
ENDBRANCH    3    4
ENDBRANCH    2    3
ENDBRANCH   30    2
ENDBRANCH   34   33
BRANCH   38   39
ATOM     39  C30 UNL A   1      25.226  39.817  49.485  1.00  0.00    +0.000 C 
ATOM     40  C31 UNL A   1      24.299  40.781  49.064  1.00  0.00    +0.000 C 
ATOM     41  F4  UNL A   1      24.302  41.210  47.793  1.00  0.00    +0.000 F 
ATOM     42  C32 UNL A   1      23.376  41.327  49.954  1.00  0.00    +0.000 C 
ATOM     43  F5  UNL A   1      22.521  42.269  49.536  1.00  0.00    +0.000 F 
ATOM     44  C33 UNL A   1      23.345  40.901  51.274  1.00  0.00    +0.000 C 
ATOM     45  F6  UNL A   1      22.449  41.418  52.125  1.00  0.00    +0.000 F 
ATOM     46  C34 UNL A   1      24.247  39.942  51.711  1.00  0.00    +0.000 C 
ATOM     47  F7  UNL A   1      24.211  39.522  52.983  1.00  0.00    +0.000 F 
ATOM     48  C35 UNL A   1      25.186  39.412  50.829  1.00  0.00    +0.000 C 
ATOM     49  F8  UNL A   1      26.046  38.489  51.282  1.00  0.00    +0.000 F 
ENDBRANCH   38   39
BRANCH   55   56
ATOM     65  C46 UNL A   1      31.854  42.220  46.384  1.00  0.00    +0.000 C 
ATOM     66  F13 UNL A   1      30.812  42.550  45.609  1.00  0.00    +0.000 F 
ATOM     56  C41 UNL A   1      31.904  40.964  47.006  1.00  0.00    +0.000 C 
ATOM     57  C42 UNL A   1      33.018  40.665  47.804  1.00  0.00    +0.000 C 
ATOM     58  F9  UNL A   1      33.100  39.483  48.434  1.00  0.00    +0.000 F 
ATOM     59  C43 UNL A   1      34.027  41.602  48.002  1.00  0.00    +0.000 C 
ATOM     60  F10 UNL A   1      35.054  41.317  48.813  1.00  0.00    +0.000 F 
ATOM     61  C44 UNL A   1      33.959  42.839  47.378  1.00  0.00    +0.000 C 
ATOM     62  F11 UNL A   1      34.929  43.743  47.573  1.00  0.00    +0.000 F 
ATOM     63  C45 UNL A   1      32.879  43.145  46.563  1.00  0.00    +0.000 C 
ATOM     64  F12 UNL A   1      32.816  44.337  45.954  1.00  0.00    +0.000 F 
ENDBRANCH   55   56
BRANCH   70   71
ATOM     71  C50 UNL A   1      31.334  35.316  42.986  1.00  0.00    +0.000 C 
ATOM     72  C51 UNL A   1      31.397  35.729  41.650  1.00  0.00    +0.000 C 
ATOM     73  F14 UNL A   1      30.607  36.724  41.217  1.00  0.00    +0.000 F 
ATOM     74  C52 UNL A   1      32.248  35.099  40.744  1.00  0.00    +0.000 C 
ATOM     75  F15 UNL A   1      32.260  35.485  39.461  1.00  0.00    +0.000 F 
ATOM     76  C53 UNL A   1      33.073  34.067  41.164  1.00  0.00    +0.000 C 
ATOM     77  F16 UNL A   1      33.898  33.469  40.294  1.00  0.00    +0.000 F 
ATOM     78  C54 UNL A   1      33.039  33.651  42.486  1.00  0.00    +0.000 C 
ATOM     79  F17 UNL A   1      33.847  32.667  42.902  1.00  0.00    +0.000 F 
ATOM     80  C55 UNL A   1      32.166  34.259  43.385  1.00  0.00    +0.000 C 
ATOM     81  F18 UNL A   1      32.147  33.831  44.656  1.00  0.00    +0.000 F 
ENDBRANCH   70   71
TORSDOF 17
ENDMDL
MODEL 5
REMARK VINA RESULT:      -9.3     43.360     46.337
ROOT
ATOM     34  C26 UNL A   1      25.113  35.734  45.633  1.00  0.00    +0.000 C 
ATOM     35  C27 UNL A   1      24.852  36.895  46.549  1.00  0.00    +0.000 C 
ATOM     36  N4  UNL A   1      25.655  37.873  46.888  1.00  0.00    +0.000 N 
ATOM     37  C28 UNL A   1      24.927  38.691  47.740  1.00  0.00    +0.000 C 
ATOM     38  C29 UNL A   1      25.330  39.815  48.382  1.00  0.00    +0.000 C 
ATOM     50  C36 UNL A   1      26.651  40.382  48.279  1.00  0.00    +0.000 C 
ATOM     51  C37 UNL A   1      27.158  41.514  48.895  1.00  0.00    +0.000 C 
ATOM     52  C38 UNL A   1      28.481  41.690  48.475  1.00  0.00    +0.000 C 
ATOM     53  C39 UNL A   1      28.814  40.644  47.631  1.00  0.00    +0.000 C 
ATOM     54  N5  UNL A   1      27.680  39.855  47.511  1.00  0.00    +0.000 N 
ATOM     55  C40 UNL A   1      30.072  40.381  46.984  1.00  0.00    +0.000 C 
ATOM     67  C47 UNL A   1      30.327  39.324  46.175  1.00  0.00    +0.000 C 
ATOM     68  N6  UNL A   1      29.472  38.311  45.769  1.00  0.00    +0.000 N 
ATOM     69  C48 UNL A   1      30.168  37.562  44.949  1.00  0.00    +0.000 C 
ATOM     70  C49 UNL A   1      29.745  36.326  44.210  1.00  0.00    +0.000 C 
ATOM     82  C56 UNL A   1      28.484  35.880  44.353  1.00  0.00    +0.000 C 
ATOM     83  C57 UNL A   1      27.941  34.687  43.714  1.00  0.00    +0.000 C 
ATOM     84  C58 UNL A   1      26.655  34.552  44.069  1.00  0.00    +0.000 C 
ATOM     85  C59 UNL A   1      26.300  35.622  45.005  1.00  0.00    +0.000 C 
ATOM     86  N7  UNL A   1      27.435  36.387  45.081  1.00  0.00    +0.000 N 
ATOM     87  C60 UNL A   1      31.550  38.013  44.744  1.00  0.00    +0.000 C 
ATOM     88  C61 UNL A   1      31.607  39.069  45.543  1.00  0.00    +0.000 C 
ATOM     89  C62 UNL A   1      23.604  38.112  47.847  1.00  0.00    +0.000 C 
ATOM     90  C63 UNL A   1      23.516  36.981  47.161  1.00  0.00    +0.000 C 
ATOM    118  H26 UNL A   1      26.646  42.125  49.552  1.00  0.00    +0.000 H 
ATOM    119  H27 UNL A   1      29.104  42.467  48.749  1.00  0.00    +0.000 H 
ATOM    120  H28 UNL A   1      27.614  39.040  46.962  1.00  0.00    +0.000 H 
ATOM    121  H29 UNL A   1      28.462  34.049  43.092  1.00  0.00    +0.000 H 
ATOM    122  H30 UNL A   1      26.017  33.813  43.736  1.00  0.00    +0.000 H 
ATOM    123  H31 UNL A   1      27.494  37.218  45.605  1.00  0.00    +0.000 H 
ATOM    124  H32 UNL A   1      32.284  37.614  44.137  1.00  0.00    +0.000 H 
ATOM    125  H33 UNL A   1      32.454  39.637  45.697  1.00  0.00    +0.000 H 
ATOM    126  H34 UNL A   1      22.828  38.527  48.387  1.00  0.00    +0.000 H 
ATOM    127  H35 UNL A   1      22.720  36.329  47.078  1.00  0.00    +0.000 H 
ENDROOT
BRANCH   34   33
ATOM    129  H37 UNL A   1      21.493  33.696  43.568  1.00  0.00    +0.000 H 
ATOM     33  C25 UNL A   1      24.117  34.649  45.443  1.00  0.00    +0.000 C 
ATOM    116  H24 UNL A   1      23.486  31.554  46.590  1.00  0.00    +0.000 H 
ATOM    117  H25 UNL A   1      24.897  33.473  47.019  1.00  0.00    +0.000 H 
ATOM     91  C64 UNL A   1      23.143  34.694  44.434  1.00  0.00    +0.000 C 
ATOM     92  C65 UNL A   1      22.230  33.644  44.289  1.00  0.00    +0.000 C 
ATOM    128  H36 UNL A   1      23.101  35.505  43.796  1.00  0.00    +0.000 H 
ATOM     30  C22 UNL A   1      22.317  32.524  45.123  1.00  0.00    +0.000 C 
ATOM     31  C23 UNL A   1      23.352  32.426  46.055  1.00  0.00    +0.000 C 
ATOM     32  C24 UNL A   1      24.200  33.508  46.260  1.00  0.00    +0.000 C 
BRANCH   30    2
ATOM      1  O1  UNL A   1      21.633  30.326  44.664  1.00  0.00    +0.000 O 
ATOM      2  C1  UNL A   1      21.298  31.455  45.011  1.00  0.00    +0.000 C 
BRANCH    2    3
ATOM      3  N1  UNL A   1      19.976  31.745  45.260  1.00  0.00    +0.000 N 
ATOM     93  H1  UNL A   1      19.807  32.338  46.026  1.00  0.00    +0.000 H 
BRANCH    3    4
ATOM      4  C2  UNL A   1      18.795  31.292  44.543  1.00  0.00    +0.000 C 
ATOM     94  H2  UNL A   1      17.934  31.737  44.997  1.00  0.00    +0.000 H 
ATOM     95  H3  UNL A   1      18.780  30.224  44.605  1.00  0.00    +0.000 H 
BRANCH    4    5
ATOM     97  H5  UNL A   1      19.803  31.973  42.849  1.00  0.00    +0.000 H 
ATOM      5  C3  UNL A   1      18.805  31.655  43.066  1.00  0.00    +0.000 C 
ATOM     96  H4  UNL A   1      18.497  30.793  42.513  1.00  0.00    +0.000 H 
BRANCH    5    6
ATOM     98  H6  UNL A   1      17.876  32.861  41.597  1.00  0.00    +0.000 H 
ATOM     99  H7  UNL A   1      18.320  33.685  43.131  1.00  0.00    +0.000 H 
ATOM      6  C4  UNL A   1      17.900  32.818  42.666  1.00  0.00    +0.000 C 
BRANCH    6    7
ATOM    100  H8  UNL A   1      16.266  31.738  43.473  1.00  0.00    +0.000 H 
ATOM    101  H9  UNL A   1      15.853  33.075  42.339  1.00  0.00    +0.000 H 
ATOM      7  C5  UNL A   1      16.453  32.746  43.163  1.00  0.00    +0.000 C 
BRANCH    7    8
ATOM    102  H10 UNL A   1      16.123  33.093  45.230  1.00  0.00    +0.000 H 
ATOM    103  H11 UNL A   1      15.110  34.052  44.098  1.00  0.00    +0.000 H 
ATOM      8  C6  UNL A   1      16.082  33.670  44.330  1.00  0.00    +0.000 C 
BRANCH    8    9
ATOM      9  C7  UNL A   1      16.973  34.895  44.520  1.00  0.00    +0.000 C 
ATOM    105  H13 UNL A   1      17.467  35.086  43.590  1.00  0.00    +0.000 H 
ATOM    104  H12 UNL A   1      16.361  35.722  44.816  1.00  0.00    +0.000 H 
BRANCH    9   10
ATOM     10  N2  UNL A   1      17.994  34.688  45.529  1.00  0.00    +0.000 N 
ATOM    106  H14 UNL A   1      17.937  33.839  46.024  1.00  0.00    +0.000 H 
BRANCH   10   11
ATOM     11  C8  UNL A   1      19.030  35.511  45.886  1.00  0.00    +0.000 C 
ATOM     12  O2  UNL A   1      19.509  36.288  45.064  1.00  0.00    +0.000 O 
BRANCH   11   13
ATOM    107  H15 UNL A   1      21.036  34.077  46.728  1.00  0.00    +0.000 H 
ATOM    108  H16 UNL A   1      22.016  33.936  48.943  1.00  0.00    +0.000 H 
ATOM     13  C9  UNL A   1      19.561  35.497  47.265  1.00  0.00    +0.000 C 
ATOM     14  C10 UNL A   1      20.651  34.644  47.499  1.00  0.00    +0.000 C 
ATOM     15  C11 UNL A   1      21.212  34.560  48.771  1.00  0.00    +0.000 C 
ATOM    110  H18 UNL A   1      19.208  36.721  50.355  1.00  0.00    +0.000 H 
ATOM     17  C13 UNL A   1      19.586  36.158  49.576  1.00  0.00    +0.000 C 
ATOM     18  C14 UNL A   1      18.987  36.251  48.309  1.00  0.00    +0.000 C 
ATOM     16  C12 UNL A   1      20.682  35.321  49.808  1.00  0.00    +0.000 C 
ATOM    109  H17 UNL A   1      21.100  35.268  50.749  1.00  0.00    +0.000 H 
BRANCH   18   19
ATOM     19  N3  UNL A   1      17.879  37.097  48.090  1.00  0.00    +0.000 N 
ATOM    111  H19 UNL A   1      18.091  37.924  47.597  1.00  0.00    +0.000 H 
BRANCH   19   20
ATOM    112  H20 UNL A   1      15.976  36.047  46.637  1.00  0.00    +0.000 H 
ATOM    113  H21 UNL A   1      13.658  35.700  47.240  1.00  0.00    +0.000 H 
ATOM    114  H22 UNL A   1      12.841  36.424  49.404  1.00  0.00    +0.000 H 
ATOM    115  H23 UNL A   1      16.689  37.821  50.373  1.00  0.00    +0.000 H 
ATOM     20  C15 UNL A   1      16.528  36.970  48.452  1.00  0.00    +0.000 C 
ATOM     21  C16 UNL A   1      15.638  36.356  47.562  1.00  0.00    +0.000 C 
ATOM     22  C17 UNL A   1      14.300  36.157  47.908  1.00  0.00    +0.000 C 
ATOM     23  C18 UNL A   1      13.830  36.574  49.151  1.00  0.00    +0.000 C 
ATOM     24  C19 UNL A   1      14.696  37.199  50.059  1.00  0.00    +0.000 C 
ATOM     25  C20 UNL A   1      14.183  37.649  51.405  1.00  0.00    +0.000 C 
ATOM     26  F1  UNL A   1      13.050  38.397  51.306  1.00  0.00    +0.000 F 
ATOM     27  F2  UNL A   1      13.877  36.605  52.221  1.00  0.00    +0.000 F 
ATOM     28  F3  UNL A   1      15.072  38.417  52.095  1.00  0.00    +0.000 F 
ATOM     29  C21 UNL A   1      16.043  37.378  49.701  1.00  0.00    +0.000 C 
ENDBRANCH   19   20
ENDBRANCH   18   19
ENDBRANCH   11   13
ENDBRANCH   10   11
ENDBRANCH    9   10
ENDBRANCH    8    9
ENDBRANCH    7    8
ENDBRANCH    6    7
ENDBRANCH    5    6
ENDBRANCH    4    5
ENDBRANCH    3    4
ENDBRANCH    2    3
ENDBRANCH   30    2
ENDBRANCH   34   33
BRANCH   38   39
ATOM     39  C30 UNL A   1      24.332  40.517  49.257  1.00  0.00    +0.000 C 
ATOM     40  C31 UNL A   1      23.523  41.550  48.762  1.00  0.00    +0.000 C 
ATOM     41  F4  UNL A   1      23.680  41.986  47.503  1.00  0.00    +0.000 F 
ATOM     42  C32 UNL A   1      22.563  42.159  49.568  1.00  0.00    +0.000 C 
ATOM     43  F5  UNL A   1      21.823  43.165  49.083  1.00  0.00    +0.000 F 
ATOM     44  C33 UNL A   1      22.375  41.728  50.873  1.00  0.00    +0.000 C 
ATOM     45  F6  UNL A   1      21.442  42.305  51.642  1.00  0.00    +0.000 F 
ATOM     46  C34 UNL A   1      23.157  40.702  51.381  1.00  0.00    +0.000 C 
ATOM     47  F7  UNL A   1      22.968  40.277  52.638  1.00  0.00    +0.000 F 
ATOM     48  C35 UNL A   1      24.134  40.108  50.585  1.00  0.00    +0.000 C 
ATOM     49  F8  UNL A   1      24.877  39.120  51.106  1.00  0.00    +0.000 F 
ENDBRANCH   38   39
BRANCH   55   56
ATOM     65  C46 UNL A   1      31.246  42.576  46.578  1.00  0.00    +0.000 C 
ATOM     66  F13 UNL A   1      30.267  42.929  45.732  1.00  0.00    +0.000 F 
ATOM     56  C41 UNL A   1      31.207  41.332  47.225  1.00  0.00    +0.000 C 
ATOM     57  C42 UNL A   1      32.256  41.009  48.098  1.00  0.00    +0.000 C 
ATOM     58  F9  UNL A   1      32.253  39.838  48.753  1.00  0.00    +0.000 F 
ATOM     59  C43 UNL A   1      33.287  41.912  48.342  1.00  0.00    +0.000 C 
ATOM     60  F10 UNL A   1      34.249  41.605  49.222  1.00  0.00    +0.000 F 
ATOM     61  C44 UNL A   1      33.306  43.137  47.692  1.00  0.00    +0.000 C 
ATOM     62  F11 UNL A   1      34.296  44.008  47.931  1.00  0.00    +0.000 F 
ATOM     63  C45 UNL A   1      32.292  43.465  46.804  1.00  0.00    +0.000 C 
ATOM     64  F12 UNL A   1      32.313  44.646  46.171  1.00  0.00    +0.000 F 
ENDBRANCH   55   56
BRANCH   70   71
ATOM     71  C50 UNL A   1      30.688  35.596  43.324  1.00  0.00    +0.000 C 
ATOM     72  C51 UNL A   1      31.294  34.403  43.735  1.00  0.00    +0.000 C 
ATOM     73  F14 UNL A   1      31.051  33.915  44.961  1.00  0.00    +0.000 F 
ATOM     74  C52 UNL A   1      32.178  33.723  42.900  1.00  0.00    +0.000 C 
ATOM     75  F15 UNL A   1      32.776  32.604  43.331  1.00  0.00    +0.000 F 
ATOM     76  C53 UNL A   1      32.447  34.206  41.628  1.00  0.00    +0.000 C 
ATOM     77  F16 UNL A   1      33.289  33.546  40.822  1.00  0.00    +0.000 F 
ATOM     78  C54 UNL A   1      31.847  35.378  41.194  1.00  0.00    +0.000 C 
ATOM     79  F17 UNL A   1      32.089  35.840  39.961  1.00  0.00    +0.000 F 
ATOM     80  C55 UNL A   1      30.988  36.075  42.039  1.00  0.00    +0.000 C 
ATOM     81  F18 UNL A   1      30.428  37.211  41.598  1.00  0.00    +0.000 F 
ENDBRANCH   70   71
TORSDOF 17
ENDMDL
MODEL 6
REMARK VINA RESULT:      -9.3      3.180      7.828
ROOT
ATOM     34  C26 UNL A   1      13.631  53.786   4.832  1.00  0.00    +0.000 C 
ATOM     35  C27 UNL A   1      14.618  54.248   3.798  1.00  0.00    +0.000 C 
ATOM     36  N4  UNL A   1      15.180  53.564   2.833  1.00  0.00    +0.000 N 
ATOM     37  C28 UNL A   1      15.996  54.458   2.152  1.00  0.00    +0.000 C 
ATOM     38  C29 UNL A   1      16.810  54.221   1.095  1.00  0.00    +0.000 C 
ATOM     50  C36 UNL A   1      16.973  52.936   0.462  1.00  0.00    +0.000 C 
ATOM     51  C37 UNL A   1      17.778  52.595  -0.611  1.00  0.00    +0.000 C 
ATOM     52  C38 UNL A   1      17.587  51.238  -0.892  1.00  0.00    +0.000 C 
ATOM     53  C39 UNL A   1      16.694  50.722   0.033  1.00  0.00    +0.000 C 
ATOM     54  N5  UNL A   1      16.317  51.776   0.850  1.00  0.00    +0.000 N 
ATOM     55  C40 UNL A   1      16.222  49.368   0.163  1.00  0.00    +0.000 C 
ATOM     67  C47 UNL A   1      15.351  48.934   1.106  1.00  0.00    +0.000 C 
ATOM     68  N6  UNL A   1      14.712  49.658   2.101  1.00  0.00    +0.000 N 
ATOM     69  C48 UNL A   1      13.930  48.805   2.718  1.00  0.00    +0.000 C 
ATOM     70  C49 UNL A   1      13.005  49.039   3.876  1.00  0.00    +0.000 C 
ATOM     82  C56 UNL A   1      12.905  50.278   4.390  1.00  0.00    +0.000 C 
ATOM     83  C57 UNL A   1      12.064  50.649   5.523  1.00  0.00    +0.000 C 
ATOM     84  C58 UNL A   1      12.202  51.962   5.754  1.00  0.00    +0.000 C 
ATOM     85  C59 UNL A   1      13.184  52.514   4.818  1.00  0.00    +0.000 C 
ATOM     86  N7  UNL A   1      13.515  51.451   4.018  1.00  0.00    +0.000 N 
ATOM     87  C60 UNL A   1      13.989  47.438   2.186  1.00  0.00    +0.000 C 
ATOM     88  C61 UNL A   1      14.897  47.563   1.230  1.00  0.00    +0.000 C 
ATOM     89  C62 UNL A   1      15.836  55.744   2.796  1.00  0.00    +0.000 C 
ATOM     90  C63 UNL A   1      15.025  55.661   3.843  1.00  0.00    +0.000 C 
ATOM    118  H26 UNL A   1      18.412  53.234  -1.118  1.00  0.00    +0.000 H 
ATOM    119  H27 UNL A   1      18.036  50.710  -1.657  1.00  0.00    +0.000 H 
ATOM    120  H28 UNL A   1      15.679  51.712   1.598  1.00  0.00    +0.000 H 
ATOM    121  H29 UNL A   1      11.463  50.005   6.061  1.00  0.00    +0.000 H 
ATOM    122  H30 UNL A   1      11.696  52.498   6.476  1.00  0.00    +0.000 H 
ATOM    123  H31 UNL A   1      14.129  51.521   3.253  1.00  0.00    +0.000 H 
ATOM    124  H32 UNL A   1      13.461  46.600   2.479  1.00  0.00    +0.000 H 
ATOM    125  H33 UNL A   1      15.240  46.783   0.647  1.00  0.00    +0.000 H 
ATOM    126  H34 UNL A   1      16.293  56.614   2.482  1.00  0.00    +0.000 H 
ATOM    127  H35 UNL A   1      14.751  56.396   4.514  1.00  0.00    +0.000 H 
ENDROOT
BRANCH   34   33
ATOM    129  H37 UNL A   1      10.823  56.926   6.774  1.00  0.00    +0.000 H 
ATOM     33  C25 UNL A   1      13.175  54.676   5.929  1.00  0.00    +0.000 C 
ATOM    116  H24 UNL A   1      13.875  55.286   9.158  1.00  0.00    +0.000 H 
ATOM    117  H25 UNL A   1      14.720  54.072   7.243  1.00  0.00    +0.000 H 
ATOM     91  C64 UNL A   1      12.036  55.487   5.811  1.00  0.00    +0.000 C 
ATOM     92  C65 UNL A   1      11.641  56.304   6.876  1.00  0.00    +0.000 C 
ATOM    128  H36 UNL A   1      11.489  55.481   4.935  1.00  0.00    +0.000 H 
ATOM     30  C22 UNL A   1      12.354  56.277   8.079  1.00  0.00    +0.000 C 
ATOM     31  C23 UNL A   1      13.420  55.390   8.238  1.00  0.00    +0.000 C 
ATOM     32  C24 UNL A   1      13.869  54.649   7.151  1.00  0.00    +0.000 C 
BRANCH   30    2
ATOM      1  O1  UNL A   1      11.830  58.398   8.934  1.00  0.00    +0.000 O 
ATOM      2  C1  UNL A   1      11.972  57.202   9.170  1.00  0.00    +0.000 C 
BRANCH    2    3
ATOM      3  N1  UNL A   1      11.814  56.720  10.449  1.00  0.00    +0.000 N 
ATOM     93  H1  UNL A   1      12.443  57.074  11.118  1.00  0.00    +0.000 H 
BRANCH    3    4
ATOM      4  C2  UNL A   1      10.842  55.760  10.946  1.00  0.00    +0.000 C 
ATOM     94  H2  UNL A   1      10.932  54.862  10.372  1.00  0.00    +0.000 H 
ATOM     95  H3  UNL A   1       9.877  56.210  10.847  1.00  0.00    +0.000 H 
BRANCH    4    5
ATOM     97  H5  UNL A   1      11.643  56.190  12.823  1.00  0.00    +0.000 H 
ATOM      5  C3  UNL A   1      11.027  55.415  12.416  1.00  0.00    +0.000 C 
ATOM     96  H4  UNL A   1      10.057  55.354  12.864  1.00  0.00    +0.000 H 
BRANCH    5    6
ATOM     98  H6  UNL A   1      11.551  53.434  11.894  1.00  0.00    +0.000 H 
ATOM     99  H7  UNL A   1      11.399  53.775  13.652  1.00  0.00    +0.000 H 
ATOM      6  C4  UNL A   1      11.759  54.106  12.700  1.00  0.00    +0.000 C 
BRANCH    6    7
ATOM    100  H8  UNL A   1      13.575  53.534  13.629  1.00  0.00    +0.000 H 
ATOM    101  H9  UNL A   1      13.480  55.236  13.049  1.00  0.00    +0.000 H 
ATOM      7  C5  UNL A   1      13.280  54.204  12.848  1.00  0.00    +0.000 C 
BRANCH    7    8
ATOM    102  H10 UNL A   1      14.848  54.633  11.484  1.00  0.00    +0.000 H 
ATOM    103  H11 UNL A   1      13.412  53.800  10.797  1.00  0.00    +0.000 H 
ATOM      8  C6  UNL A   1      14.112  53.865  11.604  1.00  0.00    +0.000 C 
BRANCH    8    9
ATOM      9  C7  UNL A   1      14.838  52.522  11.632  1.00  0.00    +0.000 C 
ATOM    105  H13 UNL A   1      15.722  52.642  12.222  1.00  0.00    +0.000 H 
ATOM    104  H12 UNL A   1      14.182  51.786  12.051  1.00  0.00    +0.000 H 
BRANCH    9   10
ATOM     10  N2  UNL A   1      15.244  52.084  10.310  1.00  0.00    +0.000 N 
ATOM    106  H14 UNL A   1      16.196  52.211  10.094  1.00  0.00    +0.000 H 
BRANCH   10   11
ATOM     11  C8  UNL A   1      14.483  51.515   9.322  1.00  0.00    +0.000 C 
ATOM     12  O2  UNL A   1      13.261  51.622   9.349  1.00  0.00    +0.000 O 
BRANCH   11   13
ATOM    107  H15 UNL A   1      15.641  52.621   7.266  1.00  0.00    +0.000 H 
ATOM    108  H16 UNL A   1      16.723  51.586   5.357  1.00  0.00    +0.000 H 
ATOM     13  C9  UNL A   1      15.124  50.794   8.202  1.00  0.00    +0.000 C 
ATOM     14  C10 UNL A   1      15.686  51.592   7.194  1.00  0.00    +0.000 C 
ATOM     15  C11 UNL A   1      16.305  51.000   6.096  1.00  0.00    +0.000 C 
ATOM    110  H18 UNL A   1      15.832  47.791   6.918  1.00  0.00    +0.000 H 
ATOM     17  C13 UNL A   1      15.780  48.819   6.999  1.00  0.00    +0.000 C 
ATOM     18  C14 UNL A   1      15.134  49.387   8.109  1.00  0.00    +0.000 C 
ATOM     16  C12 UNL A   1      16.357  49.612   6.002  1.00  0.00    +0.000 C 
ATOM    109  H17 UNL A   1      16.821  49.169   5.195  1.00  0.00    +0.000 H 
BRANCH   18   19
ATOM     19  N3  UNL A   1      14.555  48.574   9.107  1.00  0.00    +0.000 N 
ATOM    111  H19 UNL A   1      15.129  48.426   9.893  1.00  0.00    +0.000 H 
BRANCH   19   20
ATOM    112  H20 UNL A   1      14.068  46.212  10.116  1.00  0.00    +0.000 H 
ATOM    113  H21 UNL A   1      11.929  45.106  10.361  1.00  0.00    +0.000 H 
ATOM    114  H22 UNL A   1       9.907  46.175   9.559  1.00  0.00    +0.000 H 
ATOM    115  H23 UNL A   1      12.176  49.481   8.287  1.00  0.00    +0.000 H 
ATOM     20  C15 UNL A   1      13.304  47.939   9.175  1.00  0.00    +0.000 C 
ATOM     21  C16 UNL A   1      13.212  46.676   9.774  1.00  0.00    +0.000 C 
ATOM     22  C17 UNL A   1      11.979  46.036   9.914  1.00  0.00    +0.000 C 
ATOM     23  C18 UNL A   1      10.817  46.649   9.452  1.00  0.00    +0.000 C 
ATOM     24  C19 UNL A   1      10.879  47.909   8.841  1.00  0.00    +0.000 C 
ATOM     25  C20 UNL A   1       9.619  48.570   8.342  1.00  0.00    +0.000 C 
ATOM     26  F1  UNL A   1       8.875  47.745   7.554  1.00  0.00    +0.000 F 
ATOM     27  F2  UNL A   1       8.800  48.963   9.355  1.00  0.00    +0.000 F 
ATOM     28  F3  UNL A   1       9.850  49.685   7.593  1.00  0.00    +0.000 F 
ATOM     29  C21 UNL A   1      12.127  48.545   8.721  1.00  0.00    +0.000 C 
ENDBRANCH   19   20
ENDBRANCH   18   19
ENDBRANCH   11   13
ENDBRANCH   10   11
ENDBRANCH    9   10
ENDBRANCH    8    9
ENDBRANCH    7    8
ENDBRANCH    6    7
ENDBRANCH    5    6
ENDBRANCH    4    5
ENDBRANCH    3    4
ENDBRANCH    2    3
ENDBRANCH   30    2
ENDBRANCH   34   33
BRANCH   38   39
ATOM     39  C30 UNL A   1      17.594  55.377   0.544  1.00  0.00    +0.000 C 
ATOM     40  C31 UNL A   1      18.852  55.722   1.059  1.00  0.00    +0.000 C 
ATOM     41  F4  UNL A   1      19.351  55.065   2.117  1.00  0.00    +0.000 F 
ATOM     42  C32 UNL A   1      19.594  56.763   0.505  1.00  0.00    +0.000 C 
ATOM     43  F5  UNL A   1      20.779  57.094   1.034  1.00  0.00    +0.000 F 
ATOM     44  C33 UNL A   1      19.107  57.459  -0.591  1.00  0.00    +0.000 C 
ATOM     45  F6  UNL A   1      19.828  58.450  -1.132  1.00  0.00    +0.000 F 
ATOM     46  C34 UNL A   1      17.870  57.129  -1.124  1.00  0.00    +0.000 C 
ATOM     47  F7  UNL A   1      17.403  57.794  -2.190  1.00  0.00    +0.000 F 
ATOM     48  C35 UNL A   1      17.115  56.105  -0.557  1.00  0.00    +0.000 C 
ATOM     49  F8  UNL A   1      15.921  55.812  -1.093  1.00  0.00    +0.000 F 
ENDBRANCH   38   39
BRANCH   55   56
ATOM     65  C46 UNL A   1      17.986  47.739  -0.606  1.00  0.00    +0.000 C 
ATOM     66  F13 UNL A   1      18.742  48.077   0.448  1.00  0.00    +0.000 F 
ATOM     56  C41 UNL A   1      16.736  48.341  -0.802  1.00  0.00    +0.000 C 
ATOM     57  C42 UNL A   1      15.985  47.956  -1.923  1.00  0.00    +0.000 C 
ATOM     58  F9  UNL A   1      14.775  48.492  -2.142  1.00  0.00    +0.000 F 
ATOM     59  C43 UNL A   1      16.454  46.978  -2.794  1.00  0.00    +0.000 C 
ATOM     60  F10 UNL A   1      15.696  46.584  -3.827  1.00  0.00    +0.000 F 
ATOM     61  C44 UNL A   1      17.694  46.394  -2.583  1.00  0.00    +0.000 C 
ATOM     62  F11 UNL A   1      18.142  45.448  -3.419  1.00  0.00    +0.000 F 
ATOM     63  C45 UNL A   1      18.464  46.780  -1.495  1.00  0.00    +0.000 C 
ATOM     64  F12 UNL A   1      19.665  46.221  -1.293  1.00  0.00    +0.000 F 
ENDBRANCH   55   56
BRANCH   70   71
ATOM     71  C50 UNL A   1      12.199  47.934   4.455  1.00  0.00    +0.000 C 
ATOM     72  C51 UNL A   1      12.741  47.061   5.406  1.00  0.00    +0.000 C 
ATOM     73  F14 UNL A   1      14.021  47.195   5.787  1.00  0.00    +0.000 F 
ATOM     74  C52 UNL A   1      11.980  46.026   5.946  1.00  0.00    +0.000 C 
ATOM     75  F15 UNL A   1      12.534  45.179   6.824  1.00  0.00    +0.000 F 
ATOM     76  C53 UNL A   1      10.656  45.865   5.569  1.00  0.00    +0.000 C 
ATOM     77  F16 UNL A   1       9.922  44.875   6.096  1.00  0.00    +0.000 F 
ATOM     78  C54 UNL A   1      10.093  46.727   4.640  1.00  0.00    +0.000 C 
ATOM     79  F17 UNL A   1       8.809  46.587   4.286  1.00  0.00    +0.000 F 
ATOM     80  C55 UNL A   1      10.861  47.742   4.077  1.00  0.00    +0.000 C 
ATOM     81  F18 UNL A   1      10.295  48.555   3.174  1.00  0.00    +0.000 F 
ENDBRANCH   70   71
TORSDOF 17
ENDMDL
MODEL 7
REMARK VINA RESULT:      -9.3     46.846     51.804
ROOT
ATOM     34  C26 UNL A   1      56.395  18.725   9.931  1.00  0.00    +0.000 C 
ATOM     35  C27 UNL A   1      57.091  18.828  11.259  1.00  0.00    +0.000 C 
ATOM     36  N4  UNL A   1      56.690  19.425  12.354  1.00  0.00    +0.000 N 
ATOM     37  C28 UNL A   1      57.688  19.211  13.295  1.00  0.00    +0.000 C 
ATOM     38  C29 UNL A   1      57.753  19.657  14.573  1.00  0.00    +0.000 C 
ATOM     50  C36 UNL A   1      56.744  20.469  15.205  1.00  0.00    +0.000 C 
ATOM     51  C37 UNL A   1      56.721  20.976  16.493  1.00  0.00    +0.000 C 
ATOM     52  C38 UNL A   1      55.527  21.683  16.669  1.00  0.00    +0.000 C 
ATOM     53  C39 UNL A   1      54.822  21.653  15.477  1.00  0.00    +0.000 C 
ATOM     54  N5  UNL A   1      55.575  20.897  14.591  1.00  0.00    +0.000 N 
ATOM     55  C40 UNL A   1      53.560  22.271  15.166  1.00  0.00    +0.000 C 
ATOM     67  C47 UNL A   1      52.934  22.206  13.966  1.00  0.00    +0.000 C 
ATOM     68  N6  UNL A   1      53.323  21.536  12.816  1.00  0.00    +0.000 N 
ATOM     69  C48 UNL A   1      52.361  21.729  11.947  1.00  0.00    +0.000 C 
ATOM     70  C49 UNL A   1      52.251  21.234  10.535  1.00  0.00    +0.000 C 
ATOM     82  C56 UNL A   1      53.236  20.465  10.035  1.00  0.00    +0.000 C 
ATOM     83  C57 UNL A   1      53.273  19.930   8.678  1.00  0.00    +0.000 C 
ATOM     84  C58 UNL A   1      54.389  19.202   8.530  1.00  0.00    +0.000 C 
ATOM     85  C59 UNL A   1      55.172  19.266   9.766  1.00  0.00    +0.000 C 
ATOM     86  N7  UNL A   1      54.390  20.002  10.618  1.00  0.00    +0.000 N 
ATOM     87  C60 UNL A   1      51.252  22.551  12.446  1.00  0.00    +0.000 C 
ATOM     88  C61 UNL A   1      51.668  22.846  13.669  1.00  0.00    +0.000 C 
ATOM     89  C62 UNL A   1      58.703  18.402  12.653  1.00  0.00    +0.000 C 
ATOM     90  C63 UNL A   1      58.401  18.170  11.382  1.00  0.00    +0.000 C 
ATOM    118  H26 UNL A   1      57.461  20.853  17.204  1.00  0.00    +0.000 H 
ATOM    119  H27 UNL A   1      55.222  22.149  17.539  1.00  0.00    +0.000 H 
ATOM    120  H28 UNL A   1      55.318  20.693  13.662  1.00  0.00    +0.000 H 
ATOM    121  H29 UNL A   1      52.557  20.087   7.951  1.00  0.00    +0.000 H 
ATOM    122  H30 UNL A   1      54.653  18.680   7.680  1.00  0.00    +0.000 H 
ATOM    123  H31 UNL A   1      54.630  20.181  11.555  1.00  0.00    +0.000 H 
ATOM    124  H32 UNL A   1      50.377  22.825  11.971  1.00  0.00    +0.000 H 
ATOM    125  H33 UNL A   1      51.157  23.456  14.326  1.00  0.00    +0.000 H 
ATOM    126  H34 UNL A   1      59.552  18.052  13.123  1.00  0.00    +0.000 H 
ATOM    127  H35 UNL A   1      58.944  17.662  10.667  1.00  0.00    +0.000 H 
ENDROOT
BRANCH   34   33
ATOM    129  H37 UNL A   1      57.384  15.196   7.088  1.00  0.00    +0.000 H 
ATOM     33  C25 UNL A   1      57.047  18.097   8.754  1.00  0.00    +0.000 C 
ATOM    116  H24 UNL A   1      58.843  19.005   6.063  1.00  0.00    +0.000 H 
ATOM    117  H25 UNL A   1      57.978  19.895   8.141  1.00  0.00    +0.000 H 
ATOM     91  C64 UNL A   1      56.863  16.744   8.429  1.00  0.00    +0.000 C 
ATOM     92  C65 UNL A   1      57.493  16.199   7.305  1.00  0.00    +0.000 C 
ATOM    128  H36 UNL A   1      56.261  16.150   9.021  1.00  0.00    +0.000 H 
ATOM     30  C22 UNL A   1      58.270  17.015   6.475  1.00  0.00    +0.000 C 
ATOM     31  C23 UNL A   1      58.366  18.383   6.734  1.00  0.00    +0.000 C 
ATOM     32  C24 UNL A   1      57.818  18.904   7.900  1.00  0.00    +0.000 C 
BRANCH   30    2
ATOM      1  O1  UNL A   1      60.212  16.278   5.385  1.00  0.00    +0.000 O 
ATOM      2  C1  UNL A   1      58.993  16.409   5.334  1.00  0.00    +0.000 C 
BRANCH    2    3
ATOM      3  N1  UNL A   1      58.297  16.031   4.209  1.00  0.00    +0.000 N 
ATOM     93  H1  UNL A   1      58.711  15.319   3.671  1.00  0.00    +0.000 H 
BRANCH    3    4
ATOM      4  C2  UNL A   1      57.032  16.543   3.706  1.00  0.00    +0.000 C 
ATOM     94  H2  UNL A   1      57.225  17.441   3.159  1.00  0.00    +0.000 H 
ATOM     95  H3  UNL A   1      56.403  16.713   4.555  1.00  0.00    +0.000 H 
BRANCH    4    5
ATOM     97  H5  UNL A   1      57.035  14.853   2.484  1.00  0.00    +0.000 H 
ATOM      5  C3  UNL A   1      56.302  15.569   2.795  1.00  0.00    +0.000 C 
ATOM     96  H4  UNL A   1      55.492  15.143   3.349  1.00  0.00    +0.000 H 
BRANCH    5    6
ATOM     98  H6  UNL A   1      56.463  16.048   0.741  1.00  0.00    +0.000 H 
ATOM     99  H7  UNL A   1      55.499  17.185   1.745  1.00  0.00    +0.000 H 
ATOM      6  C4  UNL A   1      55.730  16.167   1.512  1.00  0.00    +0.000 C 
BRANCH    6    7
ATOM    100  H8  UNL A   1      54.652  14.938   0.164  1.00  0.00    +0.000 H 
ATOM    101  H9  UNL A   1      53.782  16.384   0.792  1.00  0.00    +0.000 H 
ATOM      7  C5  UNL A   1      54.420  15.553   1.010  1.00  0.00    +0.000 C 
BRANCH    7    8
ATOM    102  H10 UNL A   1      54.346  14.230   2.668  1.00  0.00    +0.000 H 
ATOM    103  H11 UNL A   1      53.074  14.002   1.420  1.00  0.00    +0.000 H 
ATOM      8  C6  UNL A   1      53.639  14.693   2.011  1.00  0.00    +0.000 C 
BRANCH    8    9
ATOM      9  C7  UNL A   1      52.617  15.432   2.871  1.00  0.00    +0.000 C 
ATOM    105  H13 UNL A   1      52.563  16.440   2.518  1.00  0.00    +0.000 H 
ATOM    104  H12 UNL A   1      51.672  14.935   2.787  1.00  0.00    +0.000 H 
BRANCH    9   10
ATOM     10  N2  UNL A   1      52.996  15.473   4.271  1.00  0.00    +0.000 N 
ATOM    106  H14 UNL A   1      53.137  14.597   4.699  1.00  0.00    +0.000 H 
BRANCH   10   11
ATOM     11  C8  UNL A   1      53.187  16.564   5.079  1.00  0.00    +0.000 C 
ATOM     12  O2  UNL A   1      53.867  17.507   4.686  1.00  0.00    +0.000 O 
BRANCH   11   13
ATOM    107  H15 UNL A   1      54.144  15.524   7.269  1.00  0.00    +0.000 H 
ATOM    108  H16 UNL A   1      53.233  15.541   9.517  1.00  0.00    +0.000 H 
ATOM     13  C9  UNL A   1      52.555  16.631   6.413  1.00  0.00    +0.000 C 
ATOM     14  C10 UNL A   1      53.246  15.997   7.457  1.00  0.00    +0.000 C 
ATOM     15  C11 UNL A   1      52.723  16.003   8.748  1.00  0.00    +0.000 C 
ATOM    110  H18 UNL A   1      49.915  17.722   8.148  1.00  0.00    +0.000 H 
ATOM     17  C13 UNL A   1      50.812  17.252   7.948  1.00  0.00    +0.000 C 
ATOM     18  C14 UNL A   1      51.306  17.247   6.634  1.00  0.00    +0.000 C 
ATOM     16  C12 UNL A   1      51.508  16.635   8.994  1.00  0.00    +0.000 C 
ATOM    109  H17 UNL A   1      51.120  16.649   9.949  1.00  0.00    +0.000 H 
BRANCH   18   19
ATOM     19  N3  UNL A   1      50.593  17.871   5.588  1.00  0.00    +0.000 N 
ATOM    111  H19 UNL A   1      51.155  18.180   4.841  1.00  0.00    +0.000 H 
BRANCH   19   20
ATOM    112  H20 UNL A   1      49.479  20.219   5.302  1.00  0.00    +0.000 H 
ATOM    113  H21 UNL A   1      47.145  20.726   4.913  1.00  0.00    +0.000 H 
ATOM    114  H22 UNL A   1      45.511  18.939   4.815  1.00  0.00    +0.000 H 
ATOM    115  H23 UNL A   1      48.569  16.126   5.470  1.00  0.00    +0.000 H 
ATOM     20  C15 UNL A   1      49.222  18.129   5.426  1.00  0.00    +0.000 C 
ATOM     21  C16 UNL A   1      48.791  19.451   5.259  1.00  0.00    +0.000 C 
ATOM     22  C17 UNL A   1      47.445  19.746   5.037  1.00  0.00    +0.000 C 
ATOM     23  C18 UNL A   1      46.505  18.719   4.981  1.00  0.00    +0.000 C 
ATOM     24  C19 UNL A   1      46.905  17.386   5.152  1.00  0.00    +0.000 C 
ATOM     25  C20 UNL A   1      45.885  16.277   5.091  1.00  0.00    +0.000 C 
ATOM     26  F1  UNL A   1      44.812  16.512   5.897  1.00  0.00    +0.000 F 
ATOM     27  F2  UNL A   1      45.384  16.098   3.839  1.00  0.00    +0.000 F 
ATOM     28  F3  UNL A   1      46.376  15.066   5.476  1.00  0.00    +0.000 F 
ATOM     29  C21 UNL A   1      48.266  17.107   5.361  1.00  0.00    +0.000 C 
ENDBRANCH   19   20
ENDBRANCH   18   19
ENDBRANCH   11   13
ENDBRANCH   10   11
ENDBRANCH    9   10
ENDBRANCH    8    9
ENDBRANCH    7    8
ENDBRANCH    6    7
ENDBRANCH    5    6
ENDBRANCH    4    5
ENDBRANCH    3    4
ENDBRANCH    2    3
ENDBRANCH   30    2
ENDBRANCH   34   33
BRANCH   38   39
ATOM     39  C30 UNL A   1      58.957  19.279  15.386  1.00  0.00    +0.000 C 
ATOM     40  C31 UNL A   1      59.019  18.063  16.082  1.00  0.00    +0.000 C 
ATOM     41  F4  UNL A   1      57.960  17.239  16.095  1.00  0.00    +0.000 F 
ATOM     42  C32 UNL A   1      60.163  17.698  16.789  1.00  0.00    +0.000 C 
ATOM     43  F5  UNL A   1      60.187  16.546  17.472  1.00  0.00    +0.000 F 
ATOM     44  C33 UNL A   1      61.275  18.527  16.791  1.00  0.00    +0.000 C 
ATOM     45  F6  UNL A   1      62.378  18.168  17.461  1.00  0.00    +0.000 F 
ATOM     46  C34 UNL A   1      61.240  19.730  16.102  1.00  0.00    +0.000 C 
ATOM     47  F7  UNL A   1      62.318  20.526  16.094  1.00  0.00    +0.000 F 
ATOM     48  C35 UNL A   1      60.090  20.108  15.414  1.00  0.00    +0.000 C 
ATOM     49  F8  UNL A   1      60.086  21.279  14.760  1.00  0.00    +0.000 F 
ENDBRANCH   38   39
BRANCH   55   56
ATOM     65  C46 UNL A   1      53.039  24.455  16.313  1.00  0.00    +0.000 C 
ATOM     66  F13 UNL A   1      53.813  25.094  15.424  1.00  0.00    +0.000 F 
ATOM     56  C41 UNL A   1      52.876  23.065  16.239  1.00  0.00    +0.000 C 
ATOM     57  C42 UNL A   1      52.058  22.445  17.195  1.00  0.00    +0.000 C 
ATOM     58  F9  UNL A   1      51.857  21.118  17.154  1.00  0.00    +0.000 F 
ATOM     59  C43 UNL A   1      51.399  23.193  18.166  1.00  0.00    +0.000 C 
ATOM     60  F10 UNL A   1      50.579  22.586  19.034  1.00  0.00    +0.000 F 
ATOM     61  C44 UNL A   1      51.574  24.567  18.222  1.00  0.00    +0.000 C 
ATOM     62  F11 UNL A   1      50.935  25.288  19.153  1.00  0.00    +0.000 F 
ATOM     63  C45 UNL A   1      52.400  25.197  17.302  1.00  0.00    +0.000 C 
ATOM     64  F12 UNL A   1      52.574  26.525  17.359  1.00  0.00    +0.000 F 
ENDBRANCH   55   56
BRANCH   70   71
ATOM     71  C50 UNL A   1      51.078  21.570   9.688  1.00  0.00    +0.000 C 
ATOM     72  C51 UNL A   1      50.946  22.834   9.100  1.00  0.00    +0.000 C 
ATOM     73  F14 UNL A   1      51.873  23.778   9.322  1.00  0.00    +0.000 F 
ATOM     74  C52 UNL A   1      49.842  23.144   8.307  1.00  0.00    +0.000 C 
ATOM     75  F15 UNL A   1      49.718  24.373   7.788  1.00  0.00    +0.000 F 
ATOM     76  C53 UNL A   1      48.869  22.187   8.062  1.00  0.00    +0.000 C 
ATOM     77  F16 UNL A   1      47.814  22.483   7.291  1.00  0.00    +0.000 F 
ATOM     78  C54 UNL A   1      48.987  20.924   8.622  1.00  0.00    +0.000 C 
ATOM     79  F17 UNL A   1      48.059  19.990   8.374  1.00  0.00    +0.000 F 
ATOM     80  C55 UNL A   1      50.072  20.623   9.439  1.00  0.00    +0.000 C 
ATOM     81  F18 UNL A   1      50.157  19.397   9.976  1.00  0.00    +0.000 F 
ENDBRANCH   70   71
TORSDOF 17
ENDMDL
MODEL 8
REMARK VINA RESULT:      -9.1     42.156     46.571
ROOT
ATOM     34  C26 UNL A   1      26.026  36.233  45.770  1.00  0.00    +0.000 C 
ATOM     35  C27 UNL A   1      27.324  36.094  45.026  1.00  0.00    +0.000 C 
ATOM     36  N4  UNL A   1      28.412  36.816  45.128  1.00  0.00    +0.000 N 
ATOM     37  C28 UNL A   1      29.324  36.265  44.238  1.00  0.00    +0.000 C 
ATOM     38  C29 UNL A   1      30.584  36.678  43.955  1.00  0.00    +0.000 C 
ATOM     50  C36 UNL A   1      31.225  37.816  44.565  1.00  0.00    +0.000 C 
ATOM     51  C37 UNL A   1      32.495  38.318  44.340  1.00  0.00    +0.000 C 
ATOM     52  C38 UNL A   1      32.689  39.420  45.180  1.00  0.00    +0.000 C 
ATOM     53  C39 UNL A   1      31.525  39.632  45.899  1.00  0.00    +0.000 C 
ATOM     54  N5  UNL A   1      30.638  38.635  45.519  1.00  0.00    +0.000 N 
ATOM     55  C40 UNL A   1      31.239  40.667  46.857  1.00  0.00    +0.000 C 
ATOM     67  C47 UNL A   1      30.065  40.817  47.517  1.00  0.00    +0.000 C 
ATOM     68  N6  UNL A   1      28.924  40.032  47.454  1.00  0.00    +0.000 N 
ATOM     69  C48 UNL A   1      28.084  40.552  48.315  1.00  0.00    +0.000 C 
ATOM     70  C49 UNL A   1      26.694  40.108  48.664  1.00  0.00    +0.000 C 
ATOM     82  C56 UNL A   1      26.185  39.021  48.056  1.00  0.00    +0.000 C 
ATOM     83  C57 UNL A   1      24.846  38.486  48.281  1.00  0.00    +0.000 C 
ATOM     84  C58 UNL A   1      24.682  37.395  47.520  1.00  0.00    +0.000 C 
ATOM     85  C59 UNL A   1      25.887  37.186  46.713  1.00  0.00    +0.000 C 
ATOM     86  N7  UNL A   1      26.741  38.174  47.130  1.00  0.00    +0.000 N 
ATOM     87  C60 UNL A   1      28.595  41.734  49.020  1.00  0.00    +0.000 C 
ATOM     88  C61 UNL A   1      29.792  41.876  48.469  1.00  0.00    +0.000 C 
ATOM     89  C62 UNL A   1      28.673  35.127  43.623  1.00  0.00    +0.000 C 
ATOM     90  C63 UNL A   1      27.423  35.001  44.047  1.00  0.00    +0.000 C 
ATOM    118  H26 UNL A   1      33.183  37.943  43.667  1.00  0.00    +0.000 H 
ATOM    119  H27 UNL A   1      33.554  39.980  45.251  1.00  0.00    +0.000 H 
ATOM    120  H28 UNL A   1      29.726  38.525  45.875  1.00  0.00    +0.000 H 
ATOM    121  H29 UNL A   1      24.140  38.884  48.920  1.00  0.00    +0.000 H 
ATOM    122  H30 UNL A   1      23.841  36.797  47.506  1.00  0.00    +0.000 H 
ATOM    123  H31 UNL A   1      27.663  38.267  46.798  1.00  0.00    +0.000 H 
ATOM    124  H32 UNL A   1      28.143  42.304  49.752  1.00  0.00    +0.000 H 
ATOM    125  H33 UNL A   1      30.447  42.642  48.689  1.00  0.00    +0.000 H 
ATOM    126  H34 UNL A   1      29.124  34.496  42.943  1.00  0.00    +0.000 H 
ATOM    127  H35 UNL A   1      26.706  34.315  43.763  1.00  0.00    +0.000 H 
ENDROOT
BRANCH   34   33
ATOM    129  H37 UNL A   1      23.352  32.464  46.170  1.00  0.00    +0.000 H 
ATOM     33  C25 UNL A   1      24.848  35.388  45.450  1.00  0.00    +0.000 C 
ATOM    116  H24 UNL A   1      21.981  35.586  43.708  1.00  0.00    +0.000 H 
ATOM    117  H25 UNL A   1      24.054  36.782  44.070  1.00  0.00    +0.000 H 
ATOM     91  C64 UNL A   1      24.625  34.149  46.069  1.00  0.00    +0.000 C 
ATOM     92  C65 UNL A   1      23.496  33.391  45.739  1.00  0.00    +0.000 C 
ATOM    128  H36 UNL A   1      25.296  33.795  46.769  1.00  0.00    +0.000 H 
ATOM     30  C22 UNL A   1      22.561  33.891  44.826  1.00  0.00    +0.000 C 
ATOM     31  C23 UNL A   1      22.724  35.170  44.292  1.00  0.00    +0.000 C 
ATOM     32  C24 UNL A   1      23.890  35.882  44.547  1.00  0.00    +0.000 C 
BRANCH   30    2
ATOM      1  O1  UNL A   1      21.600  32.038  43.755  1.00  0.00    +0.000 O 
ATOM      2  C1  UNL A   1      21.412  33.047  44.429  1.00  0.00    +0.000 C 
BRANCH    2    3
ATOM      3  N1  UNL A   1      20.136  33.419  44.785  1.00  0.00    +0.000 N 
ATOM     93  H1  UNL A   1      19.922  33.341  45.743  1.00  0.00    +0.000 H 
BRANCH    3    4
ATOM      4  C2  UNL A   1      19.062  33.912  43.939  1.00  0.00    +0.000 C 
ATOM     94  H2  UNL A   1      18.680  33.092  43.368  1.00  0.00    +0.000 H 
ATOM     95  H3  UNL A   1      19.477  34.679  43.320  1.00  0.00    +0.000 H 
BRANCH    4    5
ATOM     97  H5  UNL A   1      18.336  34.874  45.641  1.00  0.00    +0.000 H 
ATOM      5  C3  UNL A   1      17.914  34.536  44.717  1.00  0.00    +0.000 C 
ATOM     96  H4  UNL A   1      17.499  35.320  44.120  1.00  0.00    +0.000 H 
BRANCH    5    6
ATOM     98  H6  UNL A   1      16.604  33.693  46.148  1.00  0.00    +0.000 H 
ATOM     99  H7  UNL A   1      17.110  32.611  44.805  1.00  0.00    +0.000 H 
ATOM      6  C4  UNL A   1      16.781  33.586  45.099  1.00  0.00    +0.000 C 
BRANCH    6    7
ATOM    100  H8  UNL A   1      14.798  34.331  45.045  1.00  0.00    +0.000 H 
ATOM    101  H9  UNL A   1      15.109  32.827  44.103  1.00  0.00    +0.000 H 
ATOM      7  C5  UNL A   1      15.449  33.805  44.376  1.00  0.00    +0.000 C 
BRANCH    7    8
ATOM    102  H10 UNL A   1      16.387  35.199  43.080  1.00  0.00    +0.000 H 
ATOM    103  H11 UNL A   1      14.593  35.156  43.024  1.00  0.00    +0.000 H 
ATOM      8  C6  UNL A   1      15.503  34.596  43.062  1.00  0.00    +0.000 C 
BRANCH    8    9
ATOM      9  C7  UNL A   1      15.531  33.764  41.783  1.00  0.00    +0.000 C 
ATOM    105  H13 UNL A   1      14.684  34.045  41.193  1.00  0.00    +0.000 H 
ATOM    104  H12 UNL A   1      16.450  33.957  41.267  1.00  0.00    +0.000 H 
BRANCH    9   10
ATOM     10  N2  UNL A   1      15.435  32.340  42.045  1.00  0.00    +0.000 N 
ATOM    106  H14 UNL A   1      14.694  32.065  42.631  1.00  0.00    +0.000 H 
BRANCH   10   11
ATOM     11  C8  UNL A   1      16.235  31.326  41.585  1.00  0.00    +0.000 C 
ATOM     12  O2  UNL A   1      16.454  31.213  40.383  1.00  0.00    +0.000 O 
BRANCH   11   13
ATOM    107  H15 UNL A   1      18.350  31.800  43.032  1.00  0.00    +0.000 H 
ATOM    108  H16 UNL A   1      19.500  30.360  44.610  1.00  0.00    +0.000 H 
ATOM     13  C9  UNL A   1      16.864  30.379  42.529  1.00  0.00    +0.000 C 
ATOM     14  C10 UNL A   1      18.003  30.843  43.205  1.00  0.00    +0.000 C 
ATOM     15  C11 UNL A   1      18.666  30.017  44.109  1.00  0.00    +0.000 C 
ATOM    110  H18 UNL A   1      16.731  27.301  43.825  1.00  0.00    +0.000 H 
ATOM     17  C13 UNL A   1      17.071  28.259  43.644  1.00  0.00    +0.000 C 
ATOM     18  C14 UNL A   1      16.392  29.063  42.714  1.00  0.00    +0.000 C 
ATOM     16  C12 UNL A   1      18.196  28.727  44.332  1.00  0.00    +0.000 C 
ATOM    109  H17 UNL A   1      18.679  28.114  45.006  1.00  0.00    +0.000 H 
BRANCH   18   19
ATOM     19  N3  UNL A   1      15.260  28.578  42.026  1.00  0.00    +0.000 N 
ATOM    111  H19 UNL A   1      14.478  29.177  42.057  1.00  0.00    +0.000 H 
BRANCH   19   20
ATOM    112  H20 UNL A   1      15.546  28.257  39.446  1.00  0.00    +0.000 H 
ATOM    113  H21 UNL A   1      15.306  26.221  38.160  1.00  0.00    +0.000 H 
ATOM    114  H22 UNL A   1      14.663  24.158  39.256  1.00  0.00    +0.000 H 
ATOM    115  H23 UNL A   1      14.527  26.176  42.945  1.00  0.00    +0.000 H 
ATOM     20  C15 UNL A   1      15.051  27.391  41.305  1.00  0.00    +0.000 C 
ATOM     21  C16 UNL A   1      15.274  27.383  39.922  1.00  0.00    +0.000 C 
ATOM     22  C17 UNL A   1      15.135  26.210  39.179  1.00  0.00    +0.000 C 
ATOM     23  C18 UNL A   1      14.764  25.024  39.808  1.00  0.00    +0.000 C 
ATOM     24  C19 UNL A   1      14.525  25.002  41.189  1.00  0.00    +0.000 C 
ATOM     25  C20 UNL A   1      14.123  23.716  41.868  1.00  0.00    +0.000 C 
ATOM     26  F1  UNL A   1      13.083  23.100  41.241  1.00  0.00    +0.000 F 
ATOM     27  F2  UNL A   1      15.135  22.807  41.901  1.00  0.00    +0.000 F 
ATOM     28  F3  UNL A   1      13.727  23.885  43.160  1.00  0.00    +0.000 F 
ATOM     29  C21 UNL A   1      14.684  26.189  41.925  1.00  0.00    +0.000 C 
ENDBRANCH   19   20
ENDBRANCH   18   19
ENDBRANCH   11   13
ENDBRANCH   10   11
ENDBRANCH    9   10
ENDBRANCH    8    9
ENDBRANCH    7    8
ENDBRANCH    6    7
ENDBRANCH    5    6
ENDBRANCH    4    5
ENDBRANCH    3    4
ENDBRANCH    2    3
ENDBRANCH   30    2
ENDBRANCH   34   33
BRANCH   38   39
ATOM     39  C30 UNL A   1      31.365  35.895  42.940  1.00  0.00    +0.000 C 
ATOM     40  C31 UNL A   1      32.031  34.709  43.284  1.00  0.00    +0.000 C 
ATOM     41  F4  UNL A   1      32.044  34.287  44.557  1.00  0.00    +0.000 F 
ATOM     42  C32 UNL A   1      32.708  33.962  42.322  1.00  0.00    +0.000 C 
ATOM     43  F5  UNL A   1      33.363  32.849  42.679  1.00  0.00    +0.000 F 
ATOM     44  C33 UNL A   1      32.710  34.371  40.996  1.00  0.00    +0.000 C 
ATOM     45  F6  UNL A   1      33.350  33.644  40.071  1.00  0.00    +0.000 F 
ATOM     46  C34 UNL A   1      32.051  35.535  40.632  1.00  0.00    +0.000 C 
ATOM     47  F7  UNL A   1      32.042  35.924  39.350  1.00  0.00    +0.000 F 
ATOM     48  C35 UNL A   1      31.393  36.296  41.595  1.00  0.00    +0.000 C 
ATOM     49  F8  UNL A   1      30.767  37.419  41.212  1.00  0.00    +0.000 F 
ENDBRANCH   38   39
BRANCH   55   56
ATOM     65  C46 UNL A   1      33.407  41.341  47.955  1.00  0.00    +0.000 C 
ATOM     66  F13 UNL A   1      33.513  40.109  48.475  1.00  0.00    +0.000 F 
ATOM     56  C41 UNL A   1      32.309  41.677  47.151  1.00  0.00    +0.000 C 
ATOM     57  C42 UNL A   1      32.244  42.979  46.634  1.00  0.00    +0.000 C 
ATOM     58  F9  UNL A   1      31.222  43.342  45.844  1.00  0.00    +0.000 F 
ATOM     59  C43 UNL A   1      33.258  43.899  46.883  1.00  0.00    +0.000 C 
ATOM     60  F10 UNL A   1      33.203  45.119  46.333  1.00  0.00    +0.000 F 
ATOM     61  C44 UNL A   1      34.336  43.546  47.681  1.00  0.00    +0.000 C 
ATOM     62  F11 UNL A   1      35.315  44.430  47.916  1.00  0.00    +0.000 F 
ATOM     63  C45 UNL A   1      34.406  42.272  48.225  1.00  0.00    +0.000 C 
ATOM     64  F12 UNL A   1      35.444  41.932  49.001  1.00  0.00    +0.000 F 
ENDBRANCH   55   56
BRANCH   70   71
ATOM     71  C50 UNL A   1      25.879  40.840  49.668  1.00  0.00    +0.000 C 
ATOM     72  C51 UNL A   1      25.048  41.902  49.293  1.00  0.00    +0.000 C 
ATOM     73  F14 UNL A   1      25.002  42.298  48.011  1.00  0.00    +0.000 F 
ATOM     74  C52 UNL A   1      24.286  42.586  50.238  1.00  0.00    +0.000 C 
ATOM     75  F15 UNL A   1      23.530  43.625  49.861  1.00  0.00    +0.000 F 
ATOM     76  C53 UNL A   1      24.317  42.198  51.569  1.00  0.00    +0.000 C 
ATOM     77  F16 UNL A   1      23.576  42.849  52.477  1.00  0.00    +0.000 F 
ATOM     78  C54 UNL A   1      25.120  41.139  51.962  1.00  0.00    +0.000 C 
ATOM     79  F17 UNL A   1      25.140  40.748  53.242  1.00  0.00    +0.000 F 
ATOM     80  C55 UNL A   1      25.906  40.475  51.023  1.00  0.00    +0.000 C 
ATOM     81  F18 UNL A   1      26.681  39.460  51.430  1.00  0.00    +0.000 F 
ENDBRANCH   70   71
TORSDOF 17
ENDMDL
MODEL 9
REMARK VINA RESULT:      -9.0     21.360     27.355
ROOT
ATOM     34  C26 UNL A   1      10.978  27.334   2.022  1.00  0.00    +0.000 C 
ATOM     35  C27 UNL A   1      10.483  26.844   3.354  1.00  0.00    +0.000 C 
ATOM     36  N4  UNL A   1      10.726  25.704   3.952  1.00  0.00    +0.000 N 
ATOM     37  C28 UNL A   1      10.048  25.754   5.163  1.00  0.00    +0.000 C 
ATOM     38  C29 UNL A   1       9.962  24.801   6.123  1.00  0.00    +0.000 C 
ATOM     50  C36 UNL A   1      10.598  23.509   6.049  1.00  0.00    +0.000 C 
ATOM     51  C37 UNL A   1      10.566  22.474   6.967  1.00  0.00    +0.000 C 
ATOM     52  C38 UNL A   1      11.352  21.426   6.478  1.00  0.00    +0.000 C 
ATOM     53  C39 UNL A   1      11.841  21.789   5.234  1.00  0.00    +0.000 C 
ATOM     54  N5  UNL A   1      11.380  23.074   4.988  1.00  0.00    +0.000 N 
ATOM     55  C40 UNL A   1      12.664  21.023   4.336  1.00  0.00    +0.000 C 
ATOM     67  C47 UNL A   1      13.097  21.445   3.123  1.00  0.00    +0.000 C 
ATOM     68  N6  UNL A   1      12.889  22.667   2.500  1.00  0.00    +0.000 N 
ATOM     69  C48 UNL A   1      13.553  22.611   1.372  1.00  0.00    +0.000 C 
ATOM     70  C49 UNL A   1      13.682  23.652   0.300  1.00  0.00    +0.000 C 
ATOM     82  C56 UNL A   1      13.068  24.838   0.465  1.00  0.00    +0.000 C 
ATOM     83  C57 UNL A   1      13.090  25.934  -0.498  1.00  0.00    +0.000 C 
ATOM     84  C58 UNL A   1      12.386  26.961  -0.002  1.00  0.00    +0.000 C 
ATOM     85  C59 UNL A   1      11.818  26.574   1.292  1.00  0.00    +0.000 C 
ATOM     86  N7  UNL A   1      12.311  25.313   1.508  1.00  0.00    +0.000 N 
ATOM     87  C60 UNL A   1      14.257  21.342   1.147  1.00  0.00    +0.000 C 
ATOM     88  C61 UNL A   1      13.915  20.653   2.226  1.00  0.00    +0.000 C 
ATOM     89  C62 UNL A   1       9.405  27.049   5.229  1.00  0.00    +0.000 C 
ATOM     90  C63 UNL A   1       9.611  27.747   4.119  1.00  0.00    +0.000 C 
ATOM    118  H26 UNL A   1      10.050  22.476   7.862  1.00  0.00    +0.000 H 
ATOM    119  H27 UNL A   1      11.537  20.532   6.962  1.00  0.00    +0.000 H 
ATOM    120  H28 UNL A   1      11.577  23.599   4.178  1.00  0.00    +0.000 H 
ATOM    121  H29 UNL A   1      13.568  25.919  -1.412  1.00  0.00    +0.000 H 
ATOM    122  H30 UNL A   1      12.265  27.878  -0.459  1.00  0.00    +0.000 H 
ATOM    123  H31 UNL A   1      12.140  24.798   2.329  1.00  0.00    +0.000 H 
ATOM    124  H32 UNL A   1      14.859  21.060   0.357  1.00  0.00    +0.000 H 
ATOM    125  H33 UNL A   1      14.195  19.676   2.406  1.00  0.00    +0.000 H 
ATOM    126  H34 UNL A   1       8.857  27.387   6.035  1.00  0.00    +0.000 H 
ATOM    127  H35 UNL A   1       9.252  28.679   3.861  1.00  0.00    +0.000 H 
ENDROOT
BRANCH   34   33
ATOM    129  H37 UNL A   1      11.054  31.938   1.462  1.00  0.00    +0.000 H 
ATOM     33  C25 UNL A   1      10.514  28.619   1.442  1.00  0.00    +0.000 C 
ATOM    116  H24 UNL A   1       8.414  29.715  -0.942  1.00  0.00    +0.000 H 
ATOM    117  H25 UNL A   1       9.033  27.698   0.244  1.00  0.00    +0.000 H 
ATOM     91  C64 UNL A   1      11.107  29.847   1.771  1.00  0.00    +0.000 C 
ATOM     92  C65 UNL A   1      10.639  31.033   1.192  1.00  0.00    +0.000 C 
ATOM    128  H36 UNL A   1      11.891  29.877   2.442  1.00  0.00    +0.000 H 
ATOM     30  C22 UNL A   1       9.609  30.988   0.246  1.00  0.00    +0.000 C 
ATOM     31  C23 UNL A   1       9.092  29.758  -0.164  1.00  0.00    +0.000 C 
ATOM     32  C24 UNL A   1       9.491  28.592   0.478  1.00  0.00    +0.000 C 
BRANCH   30    2
ATOM      1  O1  UNL A   1       8.399  32.991   0.415  1.00  0.00    +0.000 O 
ATOM      2  C1  UNL A   1       9.072  32.254  -0.301  1.00  0.00    +0.000 C 
BRANCH    2    3
ATOM      3  N1  UNL A   1       9.299  32.580  -1.618  1.00  0.00    +0.000 N 
ATOM     93  H1  UNL A   1       8.616  32.272  -2.257  1.00  0.00    +0.000 H 
BRANCH    3    4
ATOM      4  C2  UNL A   1      10.412  33.316  -2.195  1.00  0.00    +0.000 C 
ATOM     94  H2  UNL A   1      10.634  34.146  -1.557  1.00  0.00    +0.000 H 
ATOM     95  H3  UNL A   1      10.110  33.627  -3.173  1.00  0.00    +0.000 H 
BRANCH    4    5
ATOM     97  H5  UNL A   1      12.253  32.973  -3.112  1.00  0.00    +0.000 H 
ATOM      5  C3  UNL A   1      11.672  32.482  -2.359  1.00  0.00    +0.000 C 
ATOM     96  H4  UNL A   1      12.158  32.428  -1.407  1.00  0.00    +0.000 H 
BRANCH    5    6
ATOM     98  H6  UNL A   1      11.530  31.070  -3.927  1.00  0.00    +0.000 H 
ATOM     99  H7  UNL A   1      10.502  30.758  -2.487  1.00  0.00    +0.000 H 
ATOM      6  C4  UNL A   1      11.459  31.055  -2.860  1.00  0.00    +0.000 C 
BRANCH    6    7
ATOM    100  H8  UNL A   1      12.118  29.049  -2.691  1.00  0.00    +0.000 H 
ATOM    101  H9  UNL A   1      12.441  30.114  -1.275  1.00  0.00    +0.000 H 
ATOM      7  C5  UNL A   1      12.446  30.006  -2.340  1.00  0.00    +0.000 C 
BRANCH    7    8
ATOM    102  H10 UNL A   1      14.235  31.144  -2.429  1.00  0.00    +0.000 H 
ATOM    103  H11 UNL A   1      13.927  30.050  -3.819  1.00  0.00    +0.000 H 
ATOM      8  C6  UNL A   1      13.912  30.178  -2.757  1.00  0.00    +0.000 C 
BRANCH    8    9
ATOM      9  C7  UNL A   1      14.890  29.145  -2.202  1.00  0.00    +0.000 C 
ATOM    105  H13 UNL A   1      14.720  29.068  -1.149  1.00  0.00    +0.000 H 
ATOM    104  H12 UNL A   1      14.720  28.211  -2.697  1.00  0.00    +0.000 H 
BRANCH    9   10
ATOM     10  N2  UNL A   1      16.275  29.529  -2.400  1.00  0.00    +0.000 N 
ATOM    106  H14 UNL A   1      16.420  30.457  -2.698  1.00  0.00    +0.000 H 
BRANCH   10   11
ATOM     11  C8  UNL A   1      17.409  28.779  -2.227  1.00  0.00    +0.000 C 
ATOM     12  O2  UNL A   1      17.347  27.554  -2.267  1.00  0.00    +0.000 O 
BRANCH   11   13
ATOM    107  H15 UNL A   1      19.347  28.885  -3.966  1.00  0.00    +0.000 H 
ATOM    108  H16 UNL A   1      21.540  29.905  -3.779  1.00  0.00    +0.000 H 
ATOM     13  C9  UNL A   1      18.718  29.432  -2.020  1.00  0.00    +0.000 C 
ATOM     14  C10 UNL A   1      19.619  29.367  -3.094  1.00  0.00    +0.000 C 
ATOM     15  C11 UNL A   1      20.879  29.949  -2.987  1.00  0.00    +0.000 C 
ATOM    110  H18 UNL A   1      20.631  31.124   0.136  1.00  0.00    +0.000 H 
ATOM     17  C13 UNL A   1      20.349  30.640  -0.731  1.00  0.00    +0.000 C 
ATOM     18  C14 UNL A   1      19.078  30.047  -0.803  1.00  0.00    +0.000 C 
ATOM     16  C12 UNL A   1      21.242  30.590  -1.807  1.00  0.00    +0.000 C 
ATOM    109  H17 UNL A   1      22.171  31.029  -1.726  1.00  0.00    +0.000 H 
BRANCH   18   19
ATOM     19  N3  UNL A   1      18.189  30.102   0.291  1.00  0.00    +0.000 N 
ATOM    111  H19 UNL A   1      18.033  29.235   0.732  1.00  0.00    +0.000 H 
BRANCH   19   20
ATOM    112  H20 UNL A   1      19.156  31.897   1.928  1.00  0.00    +0.000 H 
ATOM    113  H21 UNL A   1      18.031  33.827   2.860  1.00  0.00    +0.000 H 
ATOM    114  H22 UNL A   1      15.698  34.240   2.351  1.00  0.00    +0.000 H 
ATOM    115  H23 UNL A   1      15.628  30.790  -0.056  1.00  0.00    +0.000 H 
ATOM     20  C15 UNL A   1      17.485  31.176   0.861  1.00  0.00    +0.000 C 
ATOM     21  C16 UNL A   1      18.163  32.066   1.703  1.00  0.00    +0.000 C 
ATOM     22  C17 UNL A   1      17.515  33.179   2.243  1.00  0.00    +0.000 C 
ATOM     23  C18 UNL A   1      16.174  33.416   1.952  1.00  0.00    +0.000 C 
ATOM     24  C19 UNL A   1      15.467  32.538   1.118  1.00  0.00    +0.000 C 
ATOM     25  C20 UNL A   1      14.014  32.797   0.805  1.00  0.00    +0.000 C 
ATOM     26  F1  UNL A   1      13.272  33.021   1.925  1.00  0.00    +0.000 F 
ATOM     27  F2  UNL A   1      13.840  33.889   0.013  1.00  0.00    +0.000 F 
ATOM     28  F3  UNL A   1      13.405  31.764   0.159  1.00  0.00    +0.000 F 
ATOM     29  C21 UNL A   1      16.139  31.431   0.572  1.00  0.00    +0.000 C 
ENDBRANCH   19   20
ENDBRANCH   18   19
ENDBRANCH   11   13
ENDBRANCH   10   11
ENDBRANCH    9   10
ENDBRANCH    8    9
ENDBRANCH    7    8
ENDBRANCH    6    7
ENDBRANCH    5    6
ENDBRANCH    4    5
ENDBRANCH    3    4
ENDBRANCH    2    3
ENDBRANCH   30    2
ENDBRANCH   34   33
BRANCH   38   39
ATOM     39  C30 UNL A   1       9.154  25.114   7.349  1.00  0.00    +0.000 C 
ATOM     40  C31 UNL A   1       9.757  25.583   8.524  1.00  0.00    +0.000 C 
ATOM     41  F4  UNL A   1      11.091  25.691   8.601  1.00  0.00    +0.000 F 
ATOM     42  C32 UNL A   1       8.991  25.921   9.638  1.00  0.00    +0.000 C 
ATOM     43  F5  UNL A   1       9.591  26.337  10.761  1.00  0.00    +0.000 F 
ATOM     44  C33 UNL A   1       7.608  25.823   9.589  1.00  0.00    +0.000 C 
ATOM     45  F6  UNL A   1       6.872  26.162  10.656  1.00  0.00    +0.000 F 
ATOM     46  C34 UNL A   1       6.989  25.371   8.433  1.00  0.00    +0.000 C 
ATOM     47  F7  UNL A   1       5.652  25.287   8.380  1.00  0.00    +0.000 F 
ATOM     48  C35 UNL A   1       7.754  25.009   7.326  1.00  0.00    +0.000 C 
ATOM     49  F8  UNL A   1       7.126  24.572   6.225  1.00  0.00    +0.000 F 
ENDBRANCH   38   39
BRANCH   55   56
ATOM     65  C46 UNL A   1      14.253  19.435   5.482  1.00  0.00    +0.000 C 
ATOM     66  F13 UNL A   1      15.033  20.473   5.815  1.00  0.00    +0.000 F 
ATOM     56  C41 UNL A   1      13.073  19.641   4.753  1.00  0.00    +0.000 C 
ATOM     57  C42 UNL A   1      12.294  18.522   4.427  1.00  0.00    +0.000 C 
ATOM     58  F9  UNL A   1      11.147  18.672   3.746  1.00  0.00    +0.000 F 
ATOM     59  C43 UNL A   1      12.663  17.247   4.846  1.00  0.00    +0.000 C 
ATOM     60  F10 UNL A   1      11.874  16.199   4.573  1.00  0.00    +0.000 F 
ATOM     61  C44 UNL A   1      13.833  17.065   5.567  1.00  0.00    +0.000 C 
ATOM     62  F11 UNL A   1      14.185  15.838   5.976  1.00  0.00    +0.000 F 
ATOM     63  C45 UNL A   1      14.632  18.155   5.877  1.00  0.00    +0.000 C 
ATOM     64  F12 UNL A   1      15.767  17.979   6.568  1.00  0.00    +0.000 F 
ENDBRANCH   55   56
BRANCH   70   71
ATOM     71  C50 UNL A   1      14.478  23.400  -0.929  1.00  0.00    +0.000 C 
ATOM     72  C51 UNL A   1      13.873  22.933  -2.102  1.00  0.00    +0.000 C 
ATOM     73  F14 UNL A   1      12.557  22.674  -2.121  1.00  0.00    +0.000 F 
ATOM     74  C52 UNL A   1      14.624  22.698  -3.252  1.00  0.00    +0.000 C 
ATOM     75  F15 UNL A   1      14.029  22.212  -4.350  1.00  0.00    +0.000 F 
ATOM     76  C53 UNL A   1      15.986  22.956  -3.259  1.00  0.00    +0.000 C 
ATOM     77  F16 UNL A   1      16.706  22.739  -4.369  1.00  0.00    +0.000 F 
ATOM     78  C54 UNL A   1      16.604  23.434  -2.114  1.00  0.00    +0.000 C 
ATOM     79  F17 UNL A   1      17.916  23.703  -2.121  1.00  0.00    +0.000 F 
ATOM     80  C55 UNL A   1      15.861  23.639  -0.956  1.00  0.00    +0.000 C 
ATOM     81  F18 UNL A   1      16.485  24.093   0.141  1.00  0.00    +0.000 F 
ENDBRANCH   70   71
TORSDOF 17
ENDMDL
MODEL 10
REMARK VINA RESULT:      -9.0     65.685     70.885
ROOT
ATOM     34  C26 UNL A   1      28.951 -14.259  30.911  1.00  0.00    +0.000 C 
ATOM     35  C27 UNL A   1      28.745 -14.331  32.398  1.00  0.00    +0.000 C 
ATOM     36  N4  UNL A   1      27.782 -13.815  33.121  1.00  0.00    +0.000 N 
ATOM     37  C28 UNL A   1      28.046 -14.185  34.433  1.00  0.00    +0.000 C 
ATOM     38  C29 UNL A   1      27.356 -13.868  35.555  1.00  0.00    +0.000 C 
ATOM     50  C36 UNL A   1      26.167 -13.053  35.578  1.00  0.00    +0.000 C 
ATOM     51  C37 UNL A   1      25.400 -12.671  36.665  1.00  0.00    +0.000 C 
ATOM     52  C38 UNL A   1      24.327 -11.903  36.200  1.00  0.00    +0.000 C 
ATOM     53  C39 UNL A   1      24.447 -11.771  34.827  1.00  0.00    +0.000 C 
ATOM     54  N5  UNL A   1      25.574 -12.490  34.457  1.00  0.00    +0.000 N 
ATOM     55  C40 UNL A   1      23.601 -11.042  33.919  1.00  0.00    +0.000 C 
ATOM     67  C47 UNL A   1      23.790 -10.949  32.581  1.00  0.00    +0.000 C 
ATOM     68  N6  UNL A   1      24.775 -11.531  31.797  1.00  0.00    +0.000 N 
ATOM     69  C48 UNL A   1      24.499 -11.191  30.562  1.00  0.00    +0.000 C 
ATOM     70  C49 UNL A   1      25.230 -11.540  29.300  1.00  0.00    +0.000 C 
ATOM     82  C56 UNL A   1      26.321 -12.324  29.374  1.00  0.00    +0.000 C 
ATOM     83  C57 UNL A   1      27.140 -12.729  28.237  1.00  0.00    +0.000 C 
ATOM     84  C58 UNL A   1      28.134 -13.514  28.676  1.00  0.00    +0.000 C 
ATOM     85  C59 UNL A   1      28.053 -13.622  30.135  1.00  0.00    +0.000 C 
ATOM     86  N7  UNL A   1      26.921 -12.919  30.458  1.00  0.00    +0.000 N 
ATOM     87  C60 UNL A   1      23.306 -10.346  30.422  1.00  0.00    +0.000 C 
ATOM     88  C61 UNL A   1      22.934 -10.198  31.684  1.00  0.00    +0.000 C 
ATOM     89  C62 UNL A   1      29.245 -14.997  34.406  1.00  0.00    +0.000 C 
ATOM     90  C63 UNL A   1      29.739 -15.086  33.178  1.00  0.00    +0.000 C 
ATOM    118  H26 UNL A   1      25.588 -12.911  37.652  1.00  0.00    +0.000 H 
ATOM    119  H27 UNL A   1      23.574 -11.503  36.782  1.00  0.00    +0.000 H 
ATOM    120  H28 UNL A   1      25.906 -12.586  33.535  1.00  0.00    +0.000 H 
ATOM    121  H29 UNL A   1      26.981 -12.454  27.255  1.00  0.00    +0.000 H 
ATOM    122  H30 UNL A   1      28.843 -13.969  28.081  1.00  0.00    +0.000 H 
ATOM    123  H31 UNL A   1      26.571 -12.847  31.375  1.00  0.00    +0.000 H 
ATOM    124  H32 UNL A   1      22.871  -9.968  29.564  1.00  0.00    +0.000 H 
ATOM    125  H33 UNL A   1      22.136  -9.620  31.992  1.00  0.00    +0.000 H 
ATOM    126  H34 UNL A   1      29.663 -15.448  35.235  1.00  0.00    +0.000 H 
ATOM    127  H35 UNL A   1      30.596 -15.560  32.853  1.00  0.00    +0.000 H 
ENDROOT
BRANCH   34   33
ATOM    129  H37 UNL A   1      31.361 -17.503  28.635  1.00  0.00    +0.000 H 
ATOM     33  C25 UNL A   1      30.166 -14.815  30.263  1.00  0.00    +0.000 C 
ATOM    116  H24 UNL A   1      33.254 -13.823  29.385  1.00  0.00    +0.000 H 
ATOM    117  H25 UNL A   1      31.330 -13.094  30.660  1.00  0.00    +0.000 H 
ATOM     91  C64 UNL A   1      30.177 -16.080  29.656  1.00  0.00    +0.000 C 
ATOM     92  C65 UNL A   1      31.345 -16.559  29.051  1.00  0.00    +0.000 C 
ATOM    128  H36 UNL A   1      29.323 -16.659  29.655  1.00  0.00    +0.000 H 
ATOM     30  C22 UNL A   1      32.490 -15.756  29.010  1.00  0.00    +0.000 C 
ATOM     31  C23 UNL A   1      32.449 -14.456  29.516  1.00  0.00    +0.000 C 
ATOM     32  C24 UNL A   1      31.320 -14.016  30.198  1.00  0.00    +0.000 C 
BRANCH   30    2
ATOM      1  O1  UNL A   1      34.425 -17.079  29.095  1.00  0.00    +0.000 O 
ATOM      2  C1  UNL A   1      33.740 -16.304  28.436  1.00  0.00    +0.000 C 
BRANCH    2    3
ATOM      3  N1  UNL A   1      34.144 -15.911  27.180  1.00  0.00    +0.000 N 
ATOM     93  H1  UNL A   1      34.963 -15.366  27.147  1.00  0.00    +0.000 H 
BRANCH    3    4
ATOM      4  C2  UNL A   1      33.525 -16.192  25.896  1.00  0.00    +0.000 C 
ATOM     94  H2  UNL A   1      33.195 -17.210  25.895  1.00  0.00    +0.000 H 
ATOM     95  H3  UNL A   1      34.262 -16.004  25.144  1.00  0.00    +0.000 H 
BRANCH    4    5
ATOM     97  H5  UNL A   1      32.180 -15.369  24.531  1.00  0.00    +0.000 H 
ATOM      5  C3  UNL A   1      32.333 -15.298  25.587  1.00  0.00    +0.000 C 
ATOM     96  H4  UNL A   1      31.504 -15.644  26.167  1.00  0.00    +0.000 H 
BRANCH    5    6
ATOM     98  H6  UNL A   1      32.823 -13.334  24.974  1.00  0.00    +0.000 H 
ATOM     99  H7  UNL A   1      33.260 -13.768  26.662  1.00  0.00    +0.000 H 
ATOM      6  C4  UNL A   1      32.527 -13.813  25.884  1.00  0.00    +0.000 C 
BRANCH    6    7
ATOM    100  H8  UNL A   1      31.656 -12.285  27.063  1.00  0.00    +0.000 H 
ATOM    101  H9  UNL A   1      30.717 -13.816  26.925  1.00  0.00    +0.000 H 
ATOM      7  C5  UNL A   1      31.303 -13.071  26.427  1.00  0.00    +0.000 C 
BRANCH    7    8
ATOM    102  H10 UNL A   1      29.460 -12.168  25.888  1.00  0.00    +0.000 H 
ATOM    103  H11 UNL A   1      30.236 -13.187  24.629  1.00  0.00    +0.000 H 
ATOM      8  C6  UNL A   1      30.365 -12.444  25.388  1.00  0.00    +0.000 C 
BRANCH    8    9
ATOM      9  C7  UNL A   1      30.897 -11.207  24.668  1.00  0.00    +0.000 C 
ATOM    105  H13 UNL A   1      31.908 -11.057  24.984  1.00  0.00    +0.000 H 
ATOM    104  H12 UNL A   1      30.835 -11.371  23.612  1.00  0.00    +0.000 H 
BRANCH    9   10
ATOM     10  N2  UNL A   1      30.148 -10.009  24.997  1.00  0.00    +0.000 N 
ATOM    106  H14 UNL A   1      29.351  -9.841  24.445  1.00  0.00    +0.000 H 
BRANCH   10   11
ATOM     11  C8  UNL A   1      30.398  -9.080  25.974  1.00  0.00    +0.000 C 
ATOM     12  O2  UNL A   1      30.431  -7.886  25.692  1.00  0.00    +0.000 O 
BRANCH   11   13
ATOM    107  H15 UNL A   1      28.521  -9.821  27.624  1.00  0.00    +0.000 H 
ATOM    108  H16 UNL A   1      28.687 -10.526  29.940  1.00  0.00    +0.000 H 
ATOM     13  C9  UNL A   1      30.599  -9.499  27.376  1.00  0.00    +0.000 C 
ATOM     14  C10 UNL A   1      29.443  -9.856  28.088  1.00  0.00    +0.000 C 
ATOM     15  C11 UNL A   1      29.536 -10.258  29.417  1.00  0.00    +0.000 C 
ATOM    110  H18 UNL A   1      32.846  -9.964  29.807  1.00  0.00    +0.000 H 
ATOM     17  C13 UNL A   1      31.930  -9.924  29.333  1.00  0.00    +0.000 C 
ATOM     18  C14 UNL A   1      31.865  -9.498  27.997  1.00  0.00    +0.000 C 
ATOM     16  C12 UNL A   1      30.780 -10.297  30.038  1.00  0.00    +0.000 C 
ATOM    109  H17 UNL A   1      30.855 -10.601  31.021  1.00  0.00    +0.000 H 
BRANCH   18   19
ATOM     19  N3  UNL A   1      33.033  -9.122  27.298  1.00  0.00    +0.000 N 
ATOM    111  H19 UNL A   1      33.277  -8.173  27.396  1.00  0.00    +0.000 H 
BRANCH   19   20
ATOM    112  H20 UNL A   1      34.469 -11.178  28.038  1.00  0.00    +0.000 H 
ATOM    113  H21 UNL A   1      35.909 -12.561  26.671  1.00  0.00    +0.000 H 
ATOM    114  H22 UNL A   1      36.204 -12.059  24.318  1.00  0.00    +0.000 H 
ATOM    115  H23 UNL A   1      33.581  -8.792  24.702  1.00  0.00    +0.000 H 
ATOM     20  C15 UNL A   1      33.907  -9.863  26.487  1.00  0.00    +0.000 C 
ATOM     21  C16 UNL A   1      34.586 -10.958  27.036  1.00  0.00    +0.000 C 
ATOM     22  C17 UNL A   1      35.419 -11.756  26.250  1.00  0.00    +0.000 C 
ATOM     23  C18 UNL A   1      35.589 -11.467  24.898  1.00  0.00    +0.000 C 
ATOM     24  C19 UNL A   1      34.929 -10.373  24.321  1.00  0.00    +0.000 C 
ATOM     25  C20 UNL A   1      35.116 -10.062  22.857  1.00  0.00    +0.000 C 
ATOM     26  F1  UNL A   1      36.429 -10.011  22.499  1.00  0.00    +0.000 F 
ATOM     27  F2  UNL A   1      34.542 -10.995  22.050  1.00  0.00    +0.000 F 
ATOM     28  F3  UNL A   1      34.586  -8.865  22.484  1.00  0.00    +0.000 F 
ATOM     29  C21 UNL A   1      34.084  -9.589  25.125  1.00  0.00    +0.000 C 
ENDBRANCH   19   20
ENDBRANCH   18   19
ENDBRANCH   11   13
ENDBRANCH   10   11
ENDBRANCH    9   10
ENDBRANCH    8    9
ENDBRANCH    7    8
ENDBRANCH    6    7
ENDBRANCH    5    6
ENDBRANCH    4    5
ENDBRANCH    3    4
ENDBRANCH    2    3
ENDBRANCH   30    2
ENDBRANCH   34   33
BRANCH   38   39
ATOM     39  C30 UNL A   1      27.863 -14.404  36.863  1.00  0.00    +0.000 C 
ATOM     40  C31 UNL A   1      28.831 -13.718  37.610  1.00  0.00    +0.000 C 
ATOM     41  F4  UNL A   1      29.384 -12.595  37.129  1.00  0.00    +0.000 F 
ATOM     42  C32 UNL A   1      29.255 -14.197  38.848  1.00  0.00    +0.000 C 
ATOM     43  F5  UNL A   1      30.203 -13.541  39.530  1.00  0.00    +0.000 F 
ATOM     44  C33 UNL A   1      28.699 -15.354  39.375  1.00  0.00    +0.000 C 
ATOM     45  F6  UNL A   1      29.098 -15.805  40.572  1.00  0.00    +0.000 F 
ATOM     46  C34 UNL A   1      27.733 -16.044  38.658  1.00  0.00    +0.000 C 
ATOM     47  F7  UNL A   1      27.188 -17.155  39.171  1.00  0.00    +0.000 F 
ATOM     48  C35 UNL A   1      27.325 -15.580  37.410  1.00  0.00    +0.000 C 
ATOM     49  F8  UNL A   1      26.391 -16.271  36.739  1.00  0.00    +0.000 F 
ENDBRANCH   38   39
BRANCH   55   56
ATOM     65  C46 UNL A   1      21.133 -10.856  34.401  1.00  0.00    +0.000 C 
ATOM     66  F13 UNL A   1      20.940 -12.045  33.811  1.00  0.00    +0.000 F 
ATOM     56  C41 UNL A   1      22.421 -10.308  34.484  1.00  0.00    +0.000 C 
ATOM     57  C42 UNL A   1      22.568  -9.061  35.108  1.00  0.00    +0.000 C 
ATOM     58  F9  UNL A   1      23.784  -8.505  35.227  1.00  0.00    +0.000 F 
ATOM     59  C43 UNL A   1      21.473  -8.403  35.659  1.00  0.00    +0.000 C 
ATOM     60  F10 UNL A   1      21.646  -7.239  36.300  1.00  0.00    +0.000 F 
ATOM     61  C44 UNL A   1      20.208  -8.962  35.566  1.00  0.00    +0.000 C 
ATOM     62  F11 UNL A   1      19.154  -8.332  36.103  1.00  0.00    +0.000 F 
ATOM     63  C45 UNL A   1      20.035 -10.183  34.930  1.00  0.00    +0.000 C 
ATOM     64  F12 UNL A   1      18.812 -10.721  34.834  1.00  0.00    +0.000 F 
ENDBRANCH   55   56
BRANCH   70   71
ATOM     71  C50 UNL A   1      24.768 -11.046  27.978  1.00  0.00    +0.000 C 
ATOM     72  C51 UNL A   1      25.313  -9.890  27.405  1.00  0.00    +0.000 C 
ATOM     73  F14 UNL A   1      26.247  -9.190  28.065  1.00  0.00    +0.000 F 
ATOM     74  C52 UNL A   1      24.875  -9.430  26.164  1.00  0.00    +0.000 C 
ATOM     75  F15 UNL A   1      25.383  -8.299  25.655  1.00  0.00    +0.000 F 
ATOM     76  C53 UNL A   1      23.909 -10.134  25.461  1.00  0.00    +0.000 C 
ATOM     77  F16 UNL A   1      23.497  -9.696  24.263  1.00  0.00    +0.000 F 
ATOM     78  C54 UNL A   1      23.367 -11.289  26.002  1.00  0.00    +0.000 C 
ATOM     79  F17 UNL A   1      22.447 -11.983  25.319  1.00  0.00    +0.000 F 
ATOM     80  C55 UNL A   1      23.780 -11.733  27.255  1.00  0.00    +0.000 C 
ATOM     81  F18 UNL A   1      23.233 -12.848  27.759  1.00  0.00    +0.000 F 
ENDBRANCH   70   71
TORSDOF 17
ENDMDL
