MODEL 1
REMARK VINA RESULT:      -8.5      0.000      0.000
ROOT
ATOM    129  H32 UNL A   1      29.684 -15.224  35.266  1.00  0.00    +0.000 H 
ATOM    130  H33 UNL A   1      30.733 -15.128  32.931  1.00  0.00    +0.000 H 
ATOM     28  C21 UNL A   1      29.082 -13.861  30.987  1.00  0.00    +0.000 C 
ATOM     29  C22 UNL A   1      28.827 -13.990  32.461  1.00  0.00    +0.000 C 
ATOM     30  N4  UNL A   1      27.814 -13.556  33.168  1.00  0.00    +0.000 N 
ATOM     31  C23 UNL A   1      28.052 -13.980  34.469  1.00  0.00    +0.000 C 
ATOM     32  C24 UNL A   1      27.317 -13.740  35.580  1.00  0.00    +0.000 C 
ATOM     44  C31 UNL A   1      26.107 -12.961  35.601  1.00  0.00    +0.000 C 
ATOM     45  C32 UNL A   1      25.335 -12.596  36.690  1.00  0.00    +0.000 C 
ATOM     46  C33 UNL A   1      24.229 -11.879  36.221  1.00  0.00    +0.000 C 
ATOM     47  C34 UNL A   1      24.332 -11.765  34.844  1.00  0.00    +0.000 C 
ATOM     48  N5  UNL A   1      25.492 -12.428  34.478  1.00  0.00    +0.000 N 
ATOM     49  C35 UNL A   1      23.436 -11.108  33.927  1.00  0.00    +0.000 C 
ATOM     61  C42 UNL A   1      23.641 -10.983  32.594  1.00  0.00    +0.000 C 
ATOM     62  N6  UNL A   1      24.705 -11.442  31.830  1.00  0.00    +0.000 N 
ATOM     63  C43 UNL A   1      24.441 -11.088  30.597  1.00  0.00    +0.000 C 
ATOM     64  C44 UNL A   1      25.253 -11.316  29.351  1.00  0.00    +0.000 C 
ATOM     76  C51 UNL A   1      26.432 -11.959  29.440  1.00  0.00    +0.000 C 
ATOM     77  C52 UNL A   1      27.312 -12.271  28.317  1.00  0.00    +0.000 C 
ATOM     78  C53 UNL A   1      28.350 -12.997  28.763  1.00  0.00    +0.000 C 
ATOM     79  C54 UNL A   1      28.229 -13.164  30.212  1.00  0.00    +0.000 C 
ATOM     80  N7  UNL A   1      27.079 -12.487  30.531  1.00  0.00    +0.000 N 
ATOM     81  C55 UNL A   1      23.166 -10.376  30.436  1.00  0.00    +0.000 C 
ATOM     82  C56 UNL A   1      22.734 -10.313  31.688  1.00  0.00    +0.000 C 
ATOM     83  C57 UNL A   1      29.285 -14.737  34.448  1.00  0.00    +0.000 C 
ATOM     84  C58 UNL A   1      29.834 -14.725  33.242  1.00  0.00    +0.000 C 
ATOM    121  H24 UNL A   1      25.539 -12.814  37.678  1.00  0.00    +0.000 H 
ATOM    122  H25 UNL A   1      23.465 -11.500  36.802  1.00  0.00    +0.000 H 
ATOM    123  H26 UNL A   1      25.830 -12.510  33.557  1.00  0.00    +0.000 H 
ATOM    124  H27 UNL A   1      27.160 -11.981  27.339  1.00  0.00    +0.000 H 
ATOM    125  H28 UNL A   1      29.111 -13.375  28.178  1.00  0.00    +0.000 H 
ATOM    126  H29 UNL A   1      26.748 -12.389  31.454  1.00  0.00    +0.000 H 
ATOM    127  H30 UNL A   1      22.722 -10.020  29.574  1.00  0.00    +0.000 H 
ATOM    128  H31 UNL A   1      21.861  -9.845  31.979  1.00  0.00    +0.000 H 
ENDROOT
BRANCH   28   27
ATOM    131  H34 UNL A   1      31.569 -12.962  30.606  1.00  0.00    +0.000 H 
ATOM    132  H35 UNL A   1      33.455 -14.093  29.587  1.00  0.00    +0.000 H 
ATOM     27  C20 UNL A   1      30.222 -14.576  30.362  1.00  0.00    +0.000 C 
ATOM     85  C59 UNL A   1      31.465 -13.931  30.266  1.00  0.00    +0.000 C 
ATOM     86  C60 UNL A   1      32.560 -14.591  29.714  1.00  0.00    +0.000 C 
ATOM    119  H22 UNL A   1      31.106 -17.541  29.048  1.00  0.00    +0.000 H 
ATOM     24  C17 UNL A   1      32.443 -15.931  29.330  1.00  0.00    +0.000 C 
ATOM     25  C18 UNL A   1      31.201 -16.569  29.380  1.00  0.00    +0.000 C 
ATOM     26  C19 UNL A   1      30.089 -15.888  29.881  1.00  0.00    +0.000 C 
ATOM    120  H23 UNL A   1      29.167 -16.350  29.898  1.00  0.00    +0.000 H 
BRANCH   24   22
ATOM     22  C16 UNL A   1      33.619 -16.688  28.851  1.00  0.00    +0.000 C 
ATOM     23  O4  UNL A   1      34.401 -17.176  29.663  1.00  0.00    +0.000 O 
BRANCH   22   21
ATOM     21  N3  UNL A   1      33.840 -16.836  27.505  1.00  0.00    +0.000 N 
ATOM    118  H21 UNL A   1      33.380 -17.598  27.083  1.00  0.00    +0.000 H 
BRANCH   21   20
ATOM    116  H19 UNL A   1      35.221 -15.332  27.194  1.00  0.00    +0.000 H 
ATOM     20  C15 UNL A   1      34.657 -16.029  26.610  1.00  0.00    +0.000 C 
ATOM    117  H20 UNL A   1      35.299 -16.688  26.065  1.00  0.00    +0.000 H 
BRANCH   20   19
ATOM    114  H17 UNL A   1      34.471 -14.814  24.884  1.00  0.00    +0.000 H 
ATOM     19  C14 UNL A   1      33.812 -15.255  25.601  1.00  0.00    +0.000 C 
ATOM    115  H18 UNL A   1      33.133 -15.961  25.172  1.00  0.00    +0.000 H 
BRANCH   19   18
ATOM    113  H16 UNL A   1      32.566 -14.532  27.125  1.00  0.00    +0.000 H 
ATOM     18  C13 UNL A   1      32.952 -14.142  26.207  1.00  0.00    +0.000 C 
ATOM    112  H15 UNL A   1      32.193 -13.886  25.497  1.00  0.00    +0.000 H 
BRANCH   18   17
ATOM     17  C12 UNL A   1      33.707 -12.858  26.575  1.00  0.00    +0.000 C 
ATOM    110  H13 UNL A   1      33.046 -12.030  26.425  1.00  0.00    +0.000 H 
ATOM    111  H14 UNL A   1      34.018 -12.977  27.592  1.00  0.00    +0.000 H 
BRANCH   17   16
ATOM    108  H11 UNL A   1      35.724 -13.314  26.061  1.00  0.00    +0.000 H 
ATOM    109  H12 UNL A   1      34.725 -12.685  24.732  1.00  0.00    +0.000 H 
ATOM     16  C11 UNL A   1      34.985 -12.598  25.766  1.00  0.00    +0.000 C 
BRANCH   16   15
ATOM    106  H9  UNL A   1      35.099 -10.748  26.822  1.00  0.00    +0.000 H 
ATOM    107  H10 UNL A   1      36.619 -11.281  26.110  1.00  0.00    +0.000 H 
ATOM     15  C10 UNL A   1      35.562 -11.195  25.967  1.00  0.00    +0.000 C 
BRANCH   15   14
ATOM    105  H8  UNL A   1      35.847 -10.579  24.007  1.00  0.00    +0.000 H 
ATOM     14  N2  UNL A   1      35.321 -10.359  24.809  1.00  0.00    +0.000 N 
BRANCH   14   12
ATOM     12  C9  UNL A   1      34.461  -9.304  24.681  1.00  0.00    +0.000 C 
ATOM     13  O3  UNL A   1      34.937  -8.168  24.633  1.00  0.00    +0.000 O 
BRANCH   12   11
ATOM     11  C8  UNL A   1      32.960  -9.529  24.710  1.00  0.00    +0.000 C 
ATOM    103  H6  UNL A   1      32.496  -8.828  24.049  1.00  0.00    +0.000 H 
ATOM    104  H7  UNL A   1      32.778 -10.539  24.405  1.00  0.00    +0.000 H 
BRANCH   11   10
ATOM      7  C6  UNL A   1      31.277  -9.159  27.977  1.00  0.00    +0.000 C 
ATOM      8  N1  UNL A   1      32.455  -8.543  28.153  1.00  0.00    +0.000 N 
ATOM      9  O2  UNL A   1      33.149  -8.690  26.969  1.00  0.00    +0.000 O 
ATOM     10  C7  UNL A   1      32.384  -9.359  26.065  1.00  0.00    +0.000 C 
ATOM     87  C61 UNL A   1      31.192  -9.716  26.664  1.00  0.00    +0.000 C 
BRANCH    7    6
ATOM     97  C70 UNL A   1      28.297  -8.168  30.059  1.00  0.00    +0.000 C 
ATOM      3  C2  UNL A   1      28.404  -9.053  31.130  1.00  0.00    +0.000 C 
ATOM      4  C3  UNL A   1      29.427 -10.004  31.135  1.00  0.00    +0.000 C 
ATOM    101  H4  UNL A   1      29.509 -10.663  31.926  1.00  0.00    +0.000 H 
ATOM      5  C4  UNL A   1      30.341 -10.074  30.081  1.00  0.00    +0.000 C 
ATOM    102  H5  UNL A   1      31.084 -10.791  30.089  1.00  0.00    +0.000 H 
ATOM      6  C5  UNL A   1      30.253  -9.172  29.016  1.00  0.00    +0.000 C 
ATOM    140  H43 UNL A   1      29.131  -7.573  28.214  1.00  0.00    +0.000 H 
ATOM    141  H44 UNL A   1      27.541  -7.467  30.043  1.00  0.00    +0.000 H 
ATOM     96  C69 UNL A   1      29.217  -8.229  29.006  1.00  0.00    +0.000 C 
BRANCH    3    2
ATOM      2  O1  UNL A   1      27.592  -9.075  32.232  1.00  0.00    +0.000 O 
BRANCH    2    1
ATOM      1  C1  UNL A   1      27.818 -10.124  33.165  1.00  0.00    +0.000 C 
ATOM     98  H1  UNL A   1      28.821 -10.482  33.063  1.00  0.00    +0.000 H 
ATOM     99  H2  UNL A   1      27.134 -10.924  32.976  1.00  0.00    +0.000 H 
ATOM    100  H3  UNL A   1      27.670  -9.755  34.159  1.00  0.00    +0.000 H 
ENDBRANCH    2    1
ENDBRANCH    3    2
ENDBRANCH    7    6
BRANCH   87   88
ATOM    133  H36 UNL A   1      28.919  -8.618  25.833  1.00  0.00    +0.000 H 
ATOM    134  H37 UNL A   1      27.062  -9.687  24.709  1.00  0.00    +0.000 H 
ATOM    138  H41 UNL A   1      29.078 -13.366  24.849  1.00  0.00    +0.000 H 
ATOM    139  H42 UNL A   1      30.941 -12.301  25.984  1.00  0.00    +0.000 H 
ATOM     88  C62 UNL A   1      30.086 -10.371  25.991  1.00  0.00    +0.000 C 
ATOM     89  C63 UNL A   1      28.958  -9.628  25.624  1.00  0.00    +0.000 C 
ATOM     90  C64 UNL A   1      27.888 -10.246  24.977  1.00  0.00    +0.000 C 
ATOM     91  C65 UNL A   1      27.924 -11.609  24.686  1.00  0.00    +0.000 C 
ATOM     94  C67 UNL A   1      29.043 -12.357  25.057  1.00  0.00    +0.000 C 
ATOM     95  C68 UNL A   1      30.119 -11.740  25.710  1.00  0.00    +0.000 C 
BRANCH   91   92
ATOM     92  O5  UNL A   1      26.812 -12.082  24.047  1.00  0.00    +0.000 O 
BRANCH   92   93
ATOM    137  H40 UNL A   1      26.743 -13.706  25.285  1.00  0.00    +0.000 H 
ATOM     93  C66 UNL A   1      26.077 -13.106  24.702  1.00  0.00    +0.000 C 
ATOM    135  H38 UNL A   1      25.593 -13.719  23.971  1.00  0.00    +0.000 H 
ATOM    136  H39 UNL A   1      25.342 -12.665  25.342  1.00  0.00    +0.000 H 
ENDBRANCH   92   93
ENDBRANCH   91   92
ENDBRANCH   87   88
ENDBRANCH   11   10
ENDBRANCH   12   11
ENDBRANCH   14   12
ENDBRANCH   15   14
ENDBRANCH   16   15
ENDBRANCH   17   16
ENDBRANCH   18   17
ENDBRANCH   19   18
ENDBRANCH   20   19
ENDBRANCH   21   20
ENDBRANCH   22   21
ENDBRANCH   24   22
ENDBRANCH   28   27
BRANCH   32   33
ATOM     33  C25 UNL A   1      27.800 -14.329  36.872  1.00  0.00    +0.000 C 
ATOM     34  C26 UNL A   1      27.255 -15.515  37.388  1.00  0.00    +0.000 C 
ATOM     35  F1  UNL A   1      26.244 -16.125  36.752  1.00  0.00    +0.000 F 
ATOM     36  C27 UNL A   1      27.727 -16.060  38.579  1.00  0.00    +0.000 C 
ATOM     37  F2  UNL A   1      27.164 -17.171  39.073  1.00  0.00    +0.000 F 
ATOM     38  C28 UNL A   1      28.770 -15.450  39.260  1.00  0.00    +0.000 C 
ATOM     39  F3  UNL A   1      29.228 -15.981  40.402  1.00  0.00    +0.000 F 
ATOM     40  C29 UNL A   1      29.336 -14.288  38.758  1.00  0.00    +0.000 C 
ATOM     41  F4  UNL A   1      30.352 -13.703  39.408  1.00  0.00    +0.000 F 
ATOM     42  C30 UNL A   1      28.850 -13.725  37.580  1.00  0.00    +0.000 C 
ATOM     43  F5  UNL A   1      29.409 -12.594  37.127  1.00  0.00    +0.000 F 
ENDBRANCH   32   33
BRANCH   49   50
ATOM     50  C36 UNL A   1      22.186 -10.502  34.489  1.00  0.00    +0.000 C 
ATOM     51  C37 UNL A   1      20.968 -11.199  34.477  1.00  0.00    +0.000 C 
ATOM     52  F6  UNL A   1      20.888 -12.406  33.897  1.00  0.00    +0.000 F 
ATOM     53  C38 UNL A   1      19.821 -10.641  35.034  1.00  0.00    +0.000 C 
ATOM     54  F7  UNL A   1      18.661 -11.309  34.980  1.00  0.00    +0.000 F 
ATOM     55  C39 UNL A   1      19.875  -9.393  35.636  1.00  0.00    +0.000 C 
ATOM     56  F8  UNL A   1      18.771  -8.862  36.181  1.00  0.00    +0.000 F 
ATOM     57  C40 UNL A   1      21.071  -8.691  35.667  1.00  0.00    +0.000 C 
ATOM     58  F9  UNL A   1      21.126  -7.489  36.258  1.00  0.00    +0.000 F 
ATOM     59  C41 UNL A   1      22.215  -9.235  35.090  1.00  0.00    +0.000 C 
ATOM     60  F10 UNL A   1      23.356  -8.531  35.129  1.00  0.00    +0.000 F 
ENDBRANCH   49   50
BRANCH   64   65
ATOM     65  C45 UNL A   1      24.772 -10.833  28.032  1.00  0.00    +0.000 C 
ATOM     66  C46 UNL A   1      23.765 -11.520  27.341  1.00  0.00    +0.000 C 
ATOM     67  F11 UNL A   1      23.245 -12.642  27.859  1.00  0.00    +0.000 F 
ATOM     68  C47 UNL A   1      23.315 -11.078  26.099  1.00  0.00    +0.000 C 
ATOM     69  F12 UNL A   1      22.377 -11.774  25.442  1.00  0.00    +0.000 F 
ATOM     70  C48 UNL A   1      23.845  -9.926  25.537  1.00  0.00    +0.000 C 
ATOM     71  F13 UNL A   1      23.409  -9.498  24.344  1.00  0.00    +0.000 F 
ATOM     72  C49 UNL A   1      24.834  -9.223  26.208  1.00  0.00    +0.000 C 
ATOM     73  F14 UNL A   1      25.341  -8.104  25.672  1.00  0.00    +0.000 F 
ATOM     74  C50 UNL A   1      25.302  -9.677  27.439  1.00  0.00    +0.000 C 
ATOM     75  F15 UNL A   1      26.266  -8.985  28.062  1.00  0.00    +0.000 F 
ENDBRANCH   64   65
TORSDOF 22
ENDMDL
MODEL 2
REMARK VINA RESULT:      -7.3     65.865     70.987
ROOT
ATOM    129  H32 UNL A   1      15.516  46.996   0.248  1.00  0.00    +0.000 H 
ATOM    130  H33 UNL A   1      13.736  47.031   2.090  1.00  0.00    +0.000 H 
ATOM     28  C21 UNL A   1      13.446  49.568   3.352  1.00  0.00    +0.000 C 
ATOM     29  C22 UNL A   1      14.309  49.225   2.172  1.00  0.00    +0.000 C 
ATOM     30  N4  UNL A   1      15.102  49.998   1.473  1.00  0.00    +0.000 N 
ATOM     31  C23 UNL A   1      15.696  49.173   0.527  1.00  0.00    +0.000 C 
ATOM     32  C24 UNL A   1      16.559  49.509  -0.460  1.00  0.00    +0.000 C 
ATOM     44  C31 UNL A   1      17.023  50.848  -0.712  1.00  0.00    +0.000 C 
ATOM     45  C32 UNL A   1      17.835  51.301  -1.737  1.00  0.00    +0.000 C 
ATOM     46  C33 UNL A   1      18.056  52.669  -1.548  1.00  0.00    +0.000 C 
ATOM     47  C34 UNL A   1      17.351  53.076  -0.427  1.00  0.00    +0.000 C 
ATOM     48  N5  UNL A   1      16.717  51.950   0.073  1.00  0.00    +0.000 N 
ATOM     49  C35 UNL A   1      17.267  54.392   0.153  1.00  0.00    +0.000 C 
ATOM     61  C42 UNL A   1      16.499  54.724   1.219  1.00  0.00    +0.000 C 
ATOM     62  N6  UNL A   1      15.660  53.917   1.974  1.00  0.00    +0.000 N 
ATOM     63  C43 UNL A   1      15.150  54.693   2.898  1.00  0.00    +0.000 C 
ATOM     64  C44 UNL A   1      14.170  54.352   3.987  1.00  0.00    +0.000 C 
ATOM     76  C51 UNL A   1      13.699  53.094   4.081  1.00  0.00    +0.000 C 
ATOM     77  C52 UNL A   1      12.765  52.615   5.096  1.00  0.00    +0.000 C 
ATOM     78  C53 UNL A   1      12.590  51.292   4.939  1.00  0.00    +0.000 C 
ATOM     79  C54 UNL A   1      13.366  50.840   3.784  1.00  0.00    +0.000 C 
ATOM     80  N7  UNL A   1      13.966  51.984   3.318  1.00  0.00    +0.000 N 
ATOM     81  C55 UNL A   1      15.624  56.083   2.845  1.00  0.00    +0.000 C 
ATOM     82  C56 UNL A   1      16.420  56.054   1.785  1.00  0.00    +0.000 C 
ATOM     83  C57 UNL A   1      15.204  47.833   0.766  1.00  0.00    +0.000 C 
ATOM     84  C58 UNL A   1      14.299  47.820   1.735  1.00  0.00    +0.000 C 
ATOM    121  H24 UNL A   1      18.213  50.729  -2.509  1.00  0.00    +0.000 H 
ATOM    122  H25 UNL A   1      18.645  53.274  -2.142  1.00  0.00    +0.000 H 
ATOM    123  H26 UNL A   1      16.136  51.933   0.867  1.00  0.00    +0.000 H 
ATOM    124  H27 UNL A   1      12.315  53.198   5.818  1.00  0.00    +0.000 H 
ATOM    125  H28 UNL A   1      12.001  50.692   5.537  1.00  0.00    +0.000 H 
ATOM    126  H29 UNL A   1      14.533  52.006   2.513  1.00  0.00    +0.000 H 
ATOM    127  H30 UNL A   1      15.397  56.873   3.469  1.00  0.00    +0.000 H 
ATOM    128  H31 UNL A   1      16.920  56.876   1.411  1.00  0.00    +0.000 H 
ENDROOT
BRANCH   28   27
ATOM    131  H34 UNL A   1      14.468  47.923   5.193  1.00  0.00    +0.000 H 
ATOM    132  H35 UNL A   1      13.365  46.159   6.436  1.00  0.00    +0.000 H 
ATOM     27  C20 UNL A   1      12.748  48.495   4.102  1.00  0.00    +0.000 C 
ATOM     85  C59 UNL A   1      13.463  47.742   5.047  1.00  0.00    +0.000 C 
ATOM     86  C60 UNL A   1      12.823  46.752   5.789  1.00  0.00    +0.000 C 
ATOM    119  H22 UNL A   1       9.724  47.097   4.549  1.00  0.00    +0.000 H 
ATOM     24  C17 UNL A   1      11.445  46.563   5.652  1.00  0.00    +0.000 C 
ATOM     25  C18 UNL A   1      10.731  47.275   4.684  1.00  0.00    +0.000 C 
ATOM     26  C19 UNL A   1      11.384  48.229   3.900  1.00  0.00    +0.000 C 
ATOM    120  H23 UNL A   1      10.864  48.739   3.171  1.00  0.00    +0.000 H 
BRANCH   24   22
ATOM     22  C16 UNL A   1      10.722  45.600   6.510  1.00  0.00    +0.000 C 
ATOM     23  O4  UNL A   1      11.010  44.407   6.462  1.00  0.00    +0.000 O 
BRANCH   22   21
ATOM     21  N3  UNL A   1       9.727  46.037   7.349  1.00  0.00    +0.000 N 
ATOM    118  H21 UNL A   1       8.850  46.177   6.925  1.00  0.00    +0.000 H 
BRANCH   21   20
ATOM    116  H19 UNL A   1       8.814  46.633   9.104  1.00  0.00    +0.000 H 
ATOM     20  C15 UNL A   1       9.784  46.322   8.776  1.00  0.00    +0.000 C 
ATOM    117  H20 UNL A   1      10.097  45.431   9.278  1.00  0.00    +0.000 H 
BRANCH   20   19
ATOM    114  H17 UNL A   1      11.235  47.750   8.187  1.00  0.00    +0.000 H 
ATOM     19  C14 UNL A   1      10.790  47.423   9.102  1.00  0.00    +0.000 C 
ATOM    115  H18 UNL A   1      10.243  48.193   9.604  1.00  0.00    +0.000 H 
BRANCH   19   18
ATOM    113  H16 UNL A   1      11.571  46.112  10.541  1.00  0.00    +0.000 H 
ATOM     18  C13 UNL A   1      11.913  47.001  10.054  1.00  0.00    +0.000 C 
ATOM    112  H15 UNL A   1      12.099  47.813  10.727  1.00  0.00    +0.000 H 
BRANCH   18   17
ATOM     17  C12 UNL A   1      13.240  46.632   9.380  1.00  0.00    +0.000 C 
ATOM    110  H13 UNL A   1      13.733  45.906   9.991  1.00  0.00    +0.000 H 
ATOM    111  H14 UNL A   1      12.987  46.269   8.406  1.00  0.00    +0.000 H 
BRANCH   17   16
ATOM    108  H11 UNL A   1      14.121  48.129   8.145  1.00  0.00    +0.000 H 
ATOM    109  H12 UNL A   1      13.937  48.568   9.858  1.00  0.00    +0.000 H 
ATOM     16  C11 UNL A   1      14.208  47.803   9.160  1.00  0.00    +0.000 C 
BRANCH   16   15
ATOM    106  H9  UNL A   1      15.798  47.270  10.479  1.00  0.00    +0.000 H 
ATOM    107  H10 UNL A   1      15.917  46.572   8.868  1.00  0.00    +0.000 H 
ATOM     15  C10 UNL A   1      15.671  47.447   9.431  1.00  0.00    +0.000 C 
BRANCH   15   14
ATOM    105  H8  UNL A   1      16.757  48.563   8.060  1.00  0.00    +0.000 H 
ATOM     14  N2  UNL A   1      16.556  48.519   9.023  1.00  0.00    +0.000 N 
BRANCH   14   12
ATOM     12  C9  UNL A   1      17.149  49.479   9.796  1.00  0.00    +0.000 C 
ATOM     13  O3  UNL A   1      18.358  49.671   9.656  1.00  0.00    +0.000 O 
BRANCH   12   11
ATOM     11  C8  UNL A   1      16.354  50.200  10.869  1.00  0.00    +0.000 C 
ATOM    103  H6  UNL A   1      15.712  49.493  11.352  1.00  0.00    +0.000 H 
ATOM    104  H7  UNL A   1      17.053  50.630  11.555  1.00  0.00    +0.000 H 
BRANCH   11   10
ATOM      7  C6  UNL A   1      14.082  52.851   9.665  1.00  0.00    +0.000 C 
ATOM      8  N1  UNL A   1      15.058  52.825   8.745  1.00  0.00    +0.000 N 
ATOM      9  O2  UNL A   1      15.965  51.876   9.171  1.00  0.00    +0.000 O 
ATOM     10  C7  UNL A   1      15.526  51.301  10.323  1.00  0.00    +0.000 C 
ATOM     87  C61 UNL A   1      14.347  51.909  10.705  1.00  0.00    +0.000 C 
BRANCH    7    6
ATOM     97  C70 UNL A   1      10.958  54.424   8.266  1.00  0.00    +0.000 C 
ATOM      3  C2  UNL A   1      10.791  55.512   9.122  1.00  0.00    +0.000 C 
ATOM      4  C3  UNL A   1      11.681  55.692  10.184  1.00  0.00    +0.000 C 
ATOM    101  H4  UNL A   1      11.560  56.496  10.821  1.00  0.00    +0.000 H 
ATOM      5  C4  UNL A   1      12.731  54.796  10.394  1.00  0.00    +0.000 C 
ATOM    102  H5  UNL A   1      13.373  54.931  11.192  1.00  0.00    +0.000 H 
ATOM      6  C5  UNL A   1      12.916  53.716   9.525  1.00  0.00    +0.000 C 
ATOM    140  H43 UNL A   1      12.131  52.725   7.833  1.00  0.00    +0.000 H 
ATOM    141  H44 UNL A   1      10.302  54.280   7.483  1.00  0.00    +0.000 H 
ATOM     96  C69 UNL A   1      12.015  53.530   8.469  1.00  0.00    +0.000 C 
BRANCH    3    2
ATOM      2  O1  UNL A   1       9.823  56.473   9.013  1.00  0.00    +0.000 O 
BRANCH    2    1
ATOM      1  C1  UNL A   1       9.091  56.774  10.194  1.00  0.00    +0.000 C 
ATOM     98  H1  UNL A   1       8.058  56.910   9.949  1.00  0.00    +0.000 H 
ATOM     99  H2  UNL A   1       9.473  57.671  10.633  1.00  0.00    +0.000 H 
ATOM    100  H3  UNL A   1       9.188  55.966  10.890  1.00  0.00    +0.000 H 
ENDBRANCH    2    1
ENDBRANCH    3    2
ENDBRANCH    7    6
BRANCH   87   88
ATOM    133  H36 UNL A   1      14.148  53.121  13.062  1.00  0.00    +0.000 H 
ATOM    134  H37 UNL A   1      12.803  52.479  14.969  1.00  0.00    +0.000 H 
ATOM    138  H41 UNL A   1      11.366  49.152  12.852  1.00  0.00    +0.000 H 
ATOM    139  H42 UNL A   1      12.719  49.786  10.938  1.00  0.00    +0.000 H 
ATOM     88  C62 UNL A   1      13.535  51.511  11.841  1.00  0.00    +0.000 C 
ATOM     89  C63 UNL A   1      13.557  52.277  13.012  1.00  0.00    +0.000 C 
ATOM     90  C64 UNL A   1      12.781  51.906  14.111  1.00  0.00    +0.000 C 
ATOM     91  C65 UNL A   1      11.975  50.768  14.061  1.00  0.00    +0.000 C 
ATOM     94  C67 UNL A   1      11.956  49.996  12.897  1.00  0.00    +0.000 C 
ATOM     95  C68 UNL A   1      12.736  50.365  11.793  1.00  0.00    +0.000 C 
BRANCH   91   92
ATOM     92  O5  UNL A   1      11.268  50.525  15.204  1.00  0.00    +0.000 O 
BRANCH   92   93
ATOM    137  H40 UNL A   1      10.699  48.592  14.859  1.00  0.00    +0.000 H 
ATOM     93  C66 UNL A   1      11.168  49.172  15.626  1.00  0.00    +0.000 C 
ATOM    135  H38 UNL A   1      10.582  49.120  16.520  1.00  0.00    +0.000 H 
ATOM    136  H39 UNL A   1      12.146  48.784  15.818  1.00  0.00    +0.000 H 
ENDBRANCH   92   93
ENDBRANCH   91   92
ENDBRANCH   87   88
ENDBRANCH   11   10
ENDBRANCH   12   11
ENDBRANCH   14   12
ENDBRANCH   15   14
ENDBRANCH   16   15
ENDBRANCH   17   16
ENDBRANCH   18   17
ENDBRANCH   19   18
ENDBRANCH   20   19
ENDBRANCH   21   20
ENDBRANCH   22   21
ENDBRANCH   24   22
ENDBRANCH   28   27
BRANCH   32   33
ATOM     33  C25 UNL A   1      17.061  48.409  -1.347  1.00  0.00    +0.000 C 
ATOM     34  C26 UNL A   1      16.455  48.126  -2.581  1.00  0.00    +0.000 C 
ATOM     35  F1  UNL A   1      15.370  48.811  -2.972  1.00  0.00    +0.000 F 
ATOM     36  C27 UNL A   1      16.944  47.115  -3.403  1.00  0.00    +0.000 C 
ATOM     37  F2  UNL A   1      16.324  46.836  -4.558  1.00  0.00    +0.000 F 
ATOM     38  C28 UNL A   1      18.063  46.388  -3.024  1.00  0.00    +0.000 C 
ATOM     39  F3  UNL A   1      18.536  45.420  -3.820  1.00  0.00    +0.000 F 
ATOM     40  C29 UNL A   1      18.688  46.663  -1.817  1.00  0.00    +0.000 C 
ATOM     41  F4  UNL A   1      19.777  45.970  -1.455  1.00  0.00    +0.000 F 
ATOM     42  C30 UNL A   1      18.187  47.657  -0.980  1.00  0.00    +0.000 C 
ATOM     43  F5  UNL A   1      18.807  47.892   0.185  1.00  0.00    +0.000 F 
ENDBRANCH   32   33
BRANCH   49   50
ATOM     50  C36 UNL A   1      18.078  55.484  -0.476  1.00  0.00    +0.000 C 
ATOM     51  C37 UNL A   1      17.561  56.268  -1.517  1.00  0.00    +0.000 C 
ATOM     52  F6  UNL A   1      16.343  56.009  -2.017  1.00  0.00    +0.000 F 
ATOM     53  C38 UNL A   1      18.309  57.304  -2.069  1.00  0.00    +0.000 C 
ATOM     54  F7  UNL A   1      17.810  58.019  -3.087  1.00  0.00    +0.000 F 
ATOM     55  C39 UNL A   1      19.572  57.592  -1.575  1.00  0.00    +0.000 C 
ATOM     56  F8  UNL A   1      20.287  58.596  -2.102  1.00  0.00    +0.000 F 
ATOM     57  C40 UNL A   1      20.098  56.834  -0.539  1.00  0.00    +0.000 C 
ATOM     58  F9  UNL A   1      21.316  57.118  -0.054  1.00  0.00    +0.000 F 
ATOM     59  C41 UNL A   1      19.363  55.782  -0.001  1.00  0.00    +0.000 C 
ATOM     60  F10 UNL A   1      19.900  55.063   0.996  1.00  0.00    +0.000 F 
ENDBRANCH   49   50
BRANCH   64   65
ATOM     65  C45 UNL A   1      13.713  55.386   4.949  1.00  0.00    +0.000 C 
ATOM     66  C46 UNL A   1      12.631  56.222   4.643  1.00  0.00    +0.000 C 
ATOM     67  F11 UNL A   1      12.015  56.109   3.456  1.00  0.00    +0.000 F 
ATOM     68  C47 UNL A   1      12.202  57.200   5.535  1.00  0.00    +0.000 C 
ATOM     69  F12 UNL A   1      11.189  58.012   5.202  1.00  0.00    +0.000 F 
ATOM     70  C48 UNL A   1      12.830  57.344   6.764  1.00  0.00    +0.000 C 
ATOM     71  F13 UNL A   1      12.414  58.282   7.626  1.00  0.00    +0.000 F 
ATOM     72  C49 UNL A   1      13.895  56.520   7.095  1.00  0.00    +0.000 C 
ATOM     73  F14 UNL A   1      14.497  56.649   8.285  1.00  0.00    +0.000 F 
ATOM     74  C50 UNL A   1      14.340  55.557   6.192  1.00  0.00    +0.000 C 
ATOM     75  F15 UNL A   1      15.379  54.780   6.532  1.00  0.00    +0.000 F 
ENDBRANCH   64   65
TORSDOF 22
ENDMDL
MODEL 3
REMARK VINA RESULT:      -7.3     43.696     49.794
ROOT
ATOM    129  H32 UNL A   1      55.316  21.654  12.424  1.00  0.00    +0.000 H 
ATOM    130  H33 UNL A   1      56.711  21.339  10.298  1.00  0.00    +0.000 H 
ATOM     28  C21 UNL A   1      56.687  23.600   8.568  1.00  0.00    +0.000 C 
ATOM     29  C22 UNL A   1      56.074  23.485   9.934  1.00  0.00    +0.000 C 
ATOM     30  N4  UNL A   1      55.408  24.379  10.621  1.00  0.00    +0.000 N 
ATOM     31  C23 UNL A   1      55.028  23.745  11.796  1.00  0.00    +0.000 C 
ATOM     32  C24 UNL A   1      54.359  24.262  12.854  1.00  0.00    +0.000 C 
ATOM     44  C31 UNL A   1      53.916  25.629  12.944  1.00  0.00    +0.000 C 
ATOM     45  C32 UNL A   1      53.301  26.268  14.008  1.00  0.00    +0.000 C 
ATOM     46  C33 UNL A   1      53.012  27.580  13.621  1.00  0.00    +0.000 C 
ATOM     47  C34 UNL A   1      53.479  27.771  12.330  1.00  0.00    +0.000 C 
ATOM     48  N5  UNL A   1      54.037  26.567  11.930  1.00  0.00    +0.000 N 
ATOM     49  C35 UNL A   1      53.416  28.957  11.517  1.00  0.00    +0.000 C 
ATOM     61  C42 UNL A   1      53.957  29.084  10.282  1.00  0.00    +0.000 C 
ATOM     62  N6  UNL A   1      54.659  28.146   9.538  1.00  0.00    +0.000 N 
ATOM     63  C43 UNL A   1      54.962  28.736   8.409  1.00  0.00    +0.000 C 
ATOM     64  C44 UNL A   1      55.726  28.194   7.231  1.00  0.00    +0.000 C 
ATOM     76  C51 UNL A   1      56.205  26.937   7.277  1.00  0.00    +0.000 C 
ATOM     77  C52 UNL A   1      56.940  26.273   6.205  1.00  0.00    +0.000 C 
ATOM     78  C53 UNL A   1      57.178  25.000   6.561  1.00  0.00    +0.000 C 
ATOM     79  C54 UNL A   1      56.648  24.772   7.906  1.00  0.00    +0.000 C 
ATOM     80  N7  UNL A   1      56.117  25.986   8.265  1.00  0.00    +0.000 N 
ATOM     81  C55 UNL A   1      54.469  30.116   8.300  1.00  0.00    +0.000 C 
ATOM     82  C56 UNL A   1      53.891  30.288   9.481  1.00  0.00    +0.000 C 
ATOM     83  C57 UNL A   1      55.501  22.380  11.713  1.00  0.00    +0.000 C 
ATOM     84  C58 UNL A   1      56.205  22.184  10.607  1.00  0.00    +0.000 C 
ATOM    121  H24 UNL A   1      53.093  25.849  14.928  1.00  0.00    +0.000 H 
ATOM    122  H25 UNL A   1      52.530  28.288  14.198  1.00  0.00    +0.000 H 
ATOM    123  H26 UNL A   1      54.456  26.401  11.055  1.00  0.00    +0.000 H 
ATOM    124  H27 UNL A   1      57.229  26.710   5.317  1.00  0.00    +0.000 H 
ATOM    125  H28 UNL A   1      57.658  24.296   5.979  1.00  0.00    +0.000 H 
ATOM    126  H29 UNL A   1      55.713  26.159   9.146  1.00  0.00    +0.000 H 
ATOM    127  H30 UNL A   1      54.552  30.778   7.512  1.00  0.00    +0.000 H 
ATOM    128  H31 UNL A   1      53.449  31.168   9.789  1.00  0.00    +0.000 H 
ENDROOT
BRANCH   28   27
ATOM    131  H34 UNL A   1      55.401  21.759   7.120  1.00  0.00    +0.000 H 
ATOM    132  H35 UNL A   1      56.295  19.790   6.024  1.00  0.00    +0.000 H 
ATOM     27  C20 UNL A   1      57.258  22.403   7.904  1.00  0.00    +0.000 C 
ATOM     85  C59 UNL A   1      56.412  21.557   7.170  1.00  0.00    +0.000 C 
ATOM     86  C60 UNL A   1      56.929  20.444   6.509  1.00  0.00    +0.000 C 
ATOM    119  H22 UNL A   1      60.166  20.825   7.306  1.00  0.00    +0.000 H 
ATOM     24  C17 UNL A   1      58.308  20.217   6.506  1.00  0.00    +0.000 C 
ATOM     25  C18 UNL A   1      59.155  21.026   7.268  1.00  0.00    +0.000 C 
ATOM     26  C19 UNL A   1      58.629  22.109   7.977  1.00  0.00    +0.000 C 
ATOM    120  H23 UNL A   1      59.249  22.694   8.558  1.00  0.00    +0.000 H 
BRANCH   24   22
ATOM     22  C16 UNL A   1      58.893  19.112   5.717  1.00  0.00    +0.000 C 
ATOM     23  O4  UNL A   1      59.994  19.256   5.192  1.00  0.00    +0.000 O 
BRANCH   22   21
ATOM     21  N3  UNL A   1      58.203  17.935   5.563  1.00  0.00    +0.000 N 
ATOM    118  H21 UNL A   1      57.707  17.845   4.718  1.00  0.00    +0.000 H 
BRANCH   21   20
ATOM    116  H19 UNL A   1      58.307  15.904   5.927  1.00  0.00    +0.000 H 
ATOM     20  C15 UNL A   1      58.101  16.802   6.471  1.00  0.00    +0.000 C 
ATOM    117  H20 UNL A   1      58.806  16.949   7.262  1.00  0.00    +0.000 H 
BRANCH   20   19
ATOM    114  H17 UNL A   1      56.006  17.122   6.418  1.00  0.00    +0.000 H 
ATOM     19  C14 UNL A   1      56.711  16.690   7.096  1.00  0.00    +0.000 C 
ATOM    115  H18 UNL A   1      56.543  15.649   7.274  1.00  0.00    +0.000 H 
BRANCH   19   18
ATOM    113  H16 UNL A   1      56.670  18.436   8.258  1.00  0.00    +0.000 H 
ATOM     18  C13 UNL A   1      56.561  17.390   8.450  1.00  0.00    +0.000 C 
ATOM    112  H15 UNL A   1      57.307  16.996   9.110  1.00  0.00    +0.000 H 
BRANCH   18   17
ATOM     17  C12 UNL A   1      55.195  17.221   9.126  1.00  0.00    +0.000 C 
ATOM    110  H13 UNL A   1      54.540  16.734   8.434  1.00  0.00    +0.000 H 
ATOM    111  H14 UNL A   1      55.372  16.655  10.017  1.00  0.00    +0.000 H 
BRANCH   17   16
ATOM    108  H11 UNL A   1      55.282  19.272   9.695  1.00  0.00    +0.000 H 
ATOM    109  H12 UNL A   1      53.810  18.787   8.825  1.00  0.00    +0.000 H 
ATOM     16  C11 UNL A   1      54.525  18.526   9.577  1.00  0.00    +0.000 C 
BRANCH   16   15
ATOM    106  H9  UNL A   1      52.871  17.827  10.730  1.00  0.00    +0.000 H 
ATOM    107  H10 UNL A   1      54.394  17.911  11.609  1.00  0.00    +0.000 H 
ATOM     15  C10 UNL A   1      53.761  18.398  10.897  1.00  0.00    +0.000 C 
BRANCH   15   14
ATOM    105  H8  UNL A   1      54.006  20.071  12.098  1.00  0.00    +0.000 H 
ATOM     14  N2  UNL A   1      53.397  19.699  11.420  1.00  0.00    +0.000 N 
BRANCH   14   12
ATOM     12  C9  UNL A   1      52.321  20.478  11.099  1.00  0.00    +0.000 C 
ATOM     13  O3  UNL A   1      51.296  20.360  11.774  1.00  0.00    +0.000 O 
BRANCH   12   11
ATOM     11  C8  UNL A   1      52.361  21.376   9.876  1.00  0.00    +0.000 C 
ATOM    103  H6  UNL A   1      52.539  22.382  10.196  1.00  0.00    +0.000 H 
ATOM    104  H7  UNL A   1      53.143  21.021   9.239  1.00  0.00    +0.000 H 
BRANCH   11   10
ATOM      7  C6  UNL A   1      49.309  21.057   7.820  1.00  0.00    +0.000 C 
ATOM      8  N1  UNL A   1      49.290  22.335   8.223  1.00  0.00    +0.000 N 
ATOM      9  O2  UNL A   1      50.392  22.500   9.038  1.00  0.00    +0.000 O 
ATOM     10  C7  UNL A   1      51.098  21.340   9.100  1.00  0.00    +0.000 C 
ATOM     87  C61 UNL A   1      50.435  20.373   8.371  1.00  0.00    +0.000 C 
BRANCH    7    6
ATOM     97  C70 UNL A   1      47.015  18.646   6.053  1.00  0.00    +0.000 C 
ATOM      3  C2  UNL A   1      46.546  19.433   5.002  1.00  0.00    +0.000 C 
ATOM      4  C3  UNL A   1      46.950  20.768   4.911  1.00  0.00    +0.000 C 
ATOM    101  H4  UNL A   1      46.603  21.354   4.135  1.00  0.00    +0.000 H 
ATOM      5  C4  UNL A   1      47.817  21.317   5.859  1.00  0.00    +0.000 C 
ATOM    102  H5  UNL A   1      48.095  22.309   5.790  1.00  0.00    +0.000 H 
ATOM      6  C5  UNL A   1      48.308  20.525   6.902  1.00  0.00    +0.000 C 
ATOM    140  H43 UNL A   1      48.232  18.604   7.776  1.00  0.00    +0.000 H 
ATOM    141  H44 UNL A   1      46.718  17.662   6.132  1.00  0.00    +0.000 H 
ATOM     96  C69 UNL A   1      47.890  19.191   6.999  1.00  0.00    +0.000 C 
BRANCH    3    2
ATOM      2  O1  UNL A   1      45.717  19.014   3.998  1.00  0.00    +0.000 O 
BRANCH    2    1
ATOM      1  C1  UNL A   1      46.171  17.915   3.217  1.00  0.00    +0.000 C 
ATOM     98  H1  UNL A   1      45.380  17.202   3.112  1.00  0.00    +0.000 H 
ATOM     99  H2  UNL A   1      47.004  17.453   3.702  1.00  0.00    +0.000 H 
ATOM    100  H3  UNL A   1      46.468  18.264   2.250  1.00  0.00    +0.000 H 
ENDBRANCH    2    1
ENDBRANCH    3    2
ENDBRANCH    7    6
BRANCH   87   88
ATOM    133  H36 UNL A   1      51.817  19.491   6.279  1.00  0.00    +0.000 H 
ATOM    134  H37 UNL A   1      52.644  17.254   5.865  1.00  0.00    +0.000 H 
ATOM    138  H41 UNL A   1      50.988  15.954   9.496  1.00  0.00    +0.000 H 
ATOM    139  H42 UNL A   1      50.149  18.194   9.914  1.00  0.00    +0.000 H 
ATOM     88  C62 UNL A   1      50.924  19.027   8.136  1.00  0.00    +0.000 C 
ATOM     89  C63 UNL A   1      51.640  18.742   6.967  1.00  0.00    +0.000 C 
ATOM     90  C64 UNL A   1      52.116  17.452   6.729  1.00  0.00    +0.000 C 
ATOM     91  C65 UNL A   1      51.886  16.429   7.648  1.00  0.00    +0.000 C 
ATOM     94  C67 UNL A   1      51.165  16.705   8.812  1.00  0.00    +0.000 C 
ATOM     95  C68 UNL A   1      50.684  17.999   9.053  1.00  0.00    +0.000 C 
BRANCH   91   92
ATOM     92  O5  UNL A   1      52.410  15.219   7.291  1.00  0.00    +0.000 O 
BRANCH   92   93
ATOM    137  H40 UNL A   1      52.430  13.745   5.875  1.00  0.00    +0.000 H 
ATOM     93  C66 UNL A   1      52.180  14.782   5.958  1.00  0.00    +0.000 C 
ATOM    135  H38 UNL A   1      52.788  15.350   5.287  1.00  0.00    +0.000 H 
ATOM    136  H39 UNL A   1      51.148  14.920   5.710  1.00  0.00    +0.000 H 
ENDBRANCH   92   93
ENDBRANCH   91   92
ENDBRANCH   87   88
ENDBRANCH   11   10
ENDBRANCH   12   11
ENDBRANCH   14   12
ENDBRANCH   15   14
ENDBRANCH   16   15
ENDBRANCH   17   16
ENDBRANCH   18   17
ENDBRANCH   19   18
ENDBRANCH   20   19
ENDBRANCH   21   20
ENDBRANCH   22   21
ENDBRANCH   24   22
ENDBRANCH   28   27
BRANCH   32   33
ATOM     33  C25 UNL A   1      54.065  23.347  14.004  1.00  0.00    +0.000 C 
ATOM     34  C26 UNL A   1      52.846  22.660  14.103  1.00  0.00    +0.000 C 
ATOM     35  F1  UNL A   1      51.888  22.850  13.183  1.00  0.00    +0.000 F 
ATOM     36  C27 UNL A   1      52.594  21.798  15.167  1.00  0.00    +0.000 C 
ATOM     37  F2  UNL A   1      51.406  21.184  15.261  1.00  0.00    +0.000 F 
ATOM     38  C28 UNL A   1      53.564  21.583  16.134  1.00  0.00    +0.000 C 
ATOM     39  F3  UNL A   1      53.323  20.747  17.154  1.00  0.00    +0.000 F 
ATOM     40  C29 UNL A   1      54.784  22.237  16.046  1.00  0.00    +0.000 C 
ATOM     41  F4  UNL A   1      55.727  22.021  16.974  1.00  0.00    +0.000 F 
ATOM     42  C30 UNL A   1      55.030  23.120  14.998  1.00  0.00    +0.000 C 
ATOM     43  F5  UNL A   1      56.214  23.747  14.947  1.00  0.00    +0.000 F 
ENDBRANCH   32   33
BRANCH   49   50
ATOM     50  C36 UNL A   1      52.710  30.153  12.083  1.00  0.00    +0.000 C 
ATOM     51  C37 UNL A   1      53.392  31.104  12.856  1.00  0.00    +0.000 C 
ATOM     52  F6  UNL A   1      54.686  30.924  13.159  1.00  0.00    +0.000 F 
ATOM     53  C38 UNL A   1      52.735  32.229  13.345  1.00  0.00    +0.000 C 
ATOM     54  F7  UNL A   1      53.397  33.107  14.111  1.00  0.00    +0.000 F 
ATOM     55  C39 UNL A   1      51.397  32.438  13.050  1.00  0.00    +0.000 C 
ATOM     56  F8  UNL A   1      50.768  33.527  13.515  1.00  0.00    +0.000 F 
ATOM     57  C40 UNL A   1      50.706  31.514  12.280  1.00  0.00    +0.000 C 
ATOM     58  F9  UNL A   1      49.414  31.721  11.986  1.00  0.00    +0.000 F 
ATOM     59  C41 UNL A   1      51.353  30.376  11.809  1.00  0.00    +0.000 C 
ATOM     60  F10 UNL A   1      50.658  29.497  11.071  1.00  0.00    +0.000 F 
ENDBRANCH   49   50
BRANCH   64   65
ATOM     65  C45 UNL A   1      55.963  29.032   6.029  1.00  0.00    +0.000 C 
ATOM     66  C46 UNL A   1      57.088  29.864   5.945  1.00  0.00    +0.000 C 
ATOM     67  F11 UNL A   1      57.948  29.929   6.972  1.00  0.00    +0.000 F 
ATOM     68  C47 UNL A   1      57.313  30.659   4.825  1.00  0.00    +0.000 C 
ATOM     69  F12 UNL A   1      58.376  31.474   4.786  1.00  0.00    +0.000 F 
ATOM     70  C48 UNL A   1      56.431  30.618   3.755  1.00  0.00    +0.000 C 
ATOM     71  F13 UNL A   1      56.650  31.380   2.674  1.00  0.00    +0.000 F 
ATOM     72  C49 UNL A   1      55.318  29.793   3.809  1.00  0.00    +0.000 C 
ATOM     73  F14 UNL A   1      54.470  29.744   2.772  1.00  0.00    +0.000 F 
ATOM     74  C50 UNL A   1      55.079  29.015   4.940  1.00  0.00    +0.000 C 
ATOM     75  F15 UNL A   1      53.990  28.234   4.971  1.00  0.00    +0.000 F 
ENDBRANCH   64   65
TORSDOF 22
ENDMDL
MODEL 4
REMARK VINA RESULT:      -7.2     66.016     71.145
ROOT
ATOM    129  H32 UNL A   1      15.569  47.371   0.913  1.00  0.00    +0.000 H 
ATOM    130  H33 UNL A   1      14.017  47.578   2.941  1.00  0.00    +0.000 H 
ATOM     28  C21 UNL A   1      13.883  50.212   4.014  1.00  0.00    +0.000 C 
ATOM     29  C22 UNL A   1      14.601  49.763   2.774  1.00  0.00    +0.000 C 
ATOM     30  N4  UNL A   1      15.309  50.467   1.927  1.00  0.00    +0.000 N 
ATOM     31  C23 UNL A   1      15.786  49.561   0.990  1.00  0.00    +0.000 C 
ATOM     32  C24 UNL A   1      16.529  49.805  -0.116  1.00  0.00    +0.000 C 
ATOM     44  C31 UNL A   1      16.963  51.113  -0.529  1.00  0.00    +0.000 C 
ATOM     45  C32 UNL A   1      17.652  51.471  -1.676  1.00  0.00    +0.000 C 
ATOM     46  C33 UNL A   1      17.897  52.847  -1.627  1.00  0.00    +0.000 C 
ATOM     47  C34 UNL A   1      17.328  53.353  -0.469  1.00  0.00    +0.000 C 
ATOM     48  N5  UNL A   1      16.754  52.279   0.192  1.00  0.00    +0.000 N 
ATOM     49  C35 UNL A   1      17.316  54.712   0.007  1.00  0.00    +0.000 C 
ATOM     61  C42 UNL A   1      16.679  55.140   1.123  1.00  0.00    +0.000 C 
ATOM     62  N6  UNL A   1      15.931  54.407   2.034  1.00  0.00    +0.000 N 
ATOM     63  C43 UNL A   1      15.535  55.262   2.944  1.00  0.00    +0.000 C 
ATOM     64  C44 UNL A   1      14.688  55.023   4.164  1.00  0.00    +0.000 C 
ATOM     76  C51 UNL A   1      14.227  53.783   4.416  1.00  0.00    +0.000 C 
ATOM     77  C52 UNL A   1      13.418  53.399   5.569  1.00  0.00    +0.000 C 
ATOM     78  C53 UNL A   1      13.222  52.071   5.542  1.00  0.00    +0.000 C 
ATOM     79  C54 UNL A   1      13.857  51.517   4.346  1.00  0.00    +0.000 C 
ATOM     80  N7  UNL A   1      14.401  52.611   3.721  1.00  0.00    +0.000 N 
ATOM     81  C55 UNL A   1      16.003  56.637   2.722  1.00  0.00    +0.000 C 
ATOM     82  C56 UNL A   1      16.670  56.513   1.583  1.00  0.00    +0.000 C 
ATOM     83  C57 UNL A   1      15.322  48.251   1.393  1.00  0.00    +0.000 C 
ATOM     84  C58 UNL A   1      14.537  48.328   2.459  1.00  0.00    +0.000 C 
ATOM    121  H24 UNL A   1      17.935  50.833  -2.436  1.00  0.00    +0.000 H 
ATOM    122  H25 UNL A   1      18.414  53.394  -2.333  1.00  0.00    +0.000 H 
ATOM    123  H26 UNL A   1      16.270  52.334   1.047  1.00  0.00    +0.000 H 
ATOM    124  H27 UNL A   1      13.056  54.045   6.287  1.00  0.00    +0.000 H 
ATOM    125  H28 UNL A   1      12.706  51.529   6.253  1.00  0.00    +0.000 H 
ATOM    126  H29 UNL A   1      14.871  52.560   2.856  1.00  0.00    +0.000 H 
ATOM    127  H30 UNL A   1      15.852  57.479   3.301  1.00  0.00    +0.000 H 
ATOM    128  H31 UNL A   1      17.125  57.295   1.087  1.00  0.00    +0.000 H 
ENDROOT
BRANCH   28   27
ATOM    131  H34 UNL A   1      15.066  48.869   5.997  1.00  0.00    +0.000 H 
ATOM    132  H35 UNL A   1      14.111  47.228   7.504  1.00  0.00    +0.000 H 
ATOM     27  C20 UNL A   1      13.274  49.213   4.926  1.00  0.00    +0.000 C 
ATOM     85  C59 UNL A   1      14.067  48.623   5.923  1.00  0.00    +0.000 C 
ATOM     86  C60 UNL A   1      13.511  47.707   6.814  1.00  0.00    +0.000 C 
ATOM    119  H22 UNL A   1      10.350  47.742   5.691  1.00  0.00    +0.000 H 
ATOM     24  C17 UNL A   1      12.141  47.437   6.768  1.00  0.00    +0.000 C 
ATOM     25  C18 UNL A   1      11.351  47.983   5.753  1.00  0.00    +0.000 C 
ATOM     26  C19 UNL A   1      11.919  48.858   4.825  1.00  0.00    +0.000 C 
ATOM    120  H23 UNL A   1      11.343  49.245   4.063  1.00  0.00    +0.000 H 
BRANCH   24   22
ATOM     22  C16 UNL A   1      11.506  46.559   7.775  1.00  0.00    +0.000 C 
ATOM     23  O4  UNL A   1      12.109  45.570   8.186  1.00  0.00    +0.000 O 
BRANCH   22   21
ATOM     21  N3  UNL A   1      10.247  46.842   8.240  1.00  0.00    +0.000 N 
ATOM    118  H21 UNL A   1       9.513  46.655   7.611  1.00  0.00    +0.000 H 
BRANCH   21   20
ATOM    116  H19 UNL A   1       8.932  46.900   9.833  1.00  0.00    +0.000 H 
ATOM     20  C15 UNL A   1       9.840  47.379   9.531  1.00  0.00    +0.000 C 
ATOM    117  H20 UNL A   1      10.629  47.193  10.228  1.00  0.00    +0.000 H 
BRANCH   20   19
ATOM    114  H17 UNL A   1       8.893  49.087   8.706  1.00  0.00    +0.000 H 
ATOM     19  C14 UNL A   1       9.606  48.887   9.477  1.00  0.00    +0.000 C 
ATOM    115  H18 UNL A   1       9.267  49.175  10.450  1.00  0.00    +0.000 H 
BRANCH   19   18
ATOM    113  H16 UNL A   1      11.580  49.041   8.786  1.00  0.00    +0.000 H 
ATOM     18  C13 UNL A   1      10.861  49.719   9.194  1.00  0.00    +0.000 C 
ATOM    112  H15 UNL A   1      11.171  50.172  10.113  1.00  0.00    +0.000 H 
BRANCH   18   17
ATOM     17  C12 UNL A   1      10.687  50.832   8.153  1.00  0.00    +0.000 C 
ATOM    110  H13 UNL A   1      11.642  51.022   7.709  1.00  0.00    +0.000 H 
ATOM    111  H14 UNL A   1       9.956  50.477   7.458  1.00  0.00    +0.000 H 
BRANCH   17   16
ATOM    108  H11 UNL A   1       9.152  52.298   8.329  1.00  0.00    +0.000 H 
ATOM    109  H12 UNL A   1      10.175  52.093   9.769  1.00  0.00    +0.000 H 
ATOM     16  C11 UNL A   1      10.145  52.159   8.701  1.00  0.00    +0.000 C 
BRANCH   16   15
ATOM    106  H9  UNL A   1      11.992  53.058   8.121  1.00  0.00    +0.000 H 
ATOM    107  H10 UNL A   1      10.560  53.807   7.423  1.00  0.00    +0.000 H 
ATOM     15  C10 UNL A   1      10.986  53.374   8.304  1.00  0.00    +0.000 C 
BRANCH   15   14
ATOM    105  H8  UNL A   1      10.166  54.434   9.888  1.00  0.00    +0.000 H 
ATOM     14  N2  UNL A   1      10.989  54.375   9.352  1.00  0.00    +0.000 N 
BRANCH   14   12
ATOM     12  C9  UNL A   1      11.983  55.248   9.696  1.00  0.00    +0.000 C 
ATOM     13  O3  UNL A   1      11.977  56.368   9.179  1.00  0.00    +0.000 O 
BRANCH   12   11
ATOM     11  C8  UNL A   1      13.117  54.804  10.601  1.00  0.00    +0.000 C 
ATOM    103  H6  UNL A   1      13.973  54.589   9.997  1.00  0.00    +0.000 H 
ATOM    104  H7  UNL A   1      13.311  55.598  11.291  1.00  0.00    +0.000 H 
BRANCH   11   10
ATOM      7  C6  UNL A   1      12.414  51.647  12.387  1.00  0.00    +0.000 C 
ATOM      8  N1  UNL A   1      11.478  52.490  12.847  1.00  0.00    +0.000 N 
ATOM      9  O2  UNL A   1      11.722  53.707  12.242  1.00  0.00    +0.000 O 
ATOM     10  C7  UNL A   1      12.776  53.597  11.391  1.00  0.00    +0.000 C 
ATOM     87  C61 UNL A   1      13.282  52.314  11.468  1.00  0.00    +0.000 C 
BRANCH    7    6
ATOM     97  C70 UNL A   1      12.472  47.887  12.173  1.00  0.00    +0.000 C 
ATOM      3  C2  UNL A   1      12.284  47.532  13.509  1.00  0.00    +0.000 C 
ATOM      4  C3  UNL A   1      12.188  48.535  14.477  1.00  0.00    +0.000 C 
ATOM    101  H4  UNL A   1      12.050  48.277  15.467  1.00  0.00    +0.000 H 
ATOM      5  C4  UNL A   1      12.278  49.882  14.121  1.00  0.00    +0.000 C 
ATOM    102  H5  UNL A   1      12.222  50.613  14.848  1.00  0.00    +0.000 H 
ATOM      6  C5  UNL A   1      12.444  50.243  12.779  1.00  0.00    +0.000 C 
ATOM    140  H43 UNL A   1      12.697  49.491  10.822  1.00  0.00    +0.000 H 
ATOM    141  H44 UNL A   1      12.551  47.154  11.452  1.00  0.00    +0.000 H 
ATOM     96  C69 UNL A   1      12.554  49.236  11.812  1.00  0.00    +0.000 C 
BRANCH    3    2
ATOM      2  O1  UNL A   1      12.155  46.257  13.986  1.00  0.00    +0.000 O 
BRANCH    2    1
ATOM      1  C1  UNL A   1      12.394  45.205  13.060  1.00  0.00    +0.000 C 
ATOM     98  H1  UNL A   1      13.313  45.387  12.543  1.00  0.00    +0.000 H 
ATOM     99  H2  UNL A   1      11.591  45.162  12.354  1.00  0.00    +0.000 H 
ATOM    100  H3  UNL A   1      12.458  44.274  13.585  1.00  0.00    +0.000 H 
ENDBRANCH    2    1
ENDBRANCH    3    2
ENDBRANCH    7    6
BRANCH   87   88
ATOM    133  H36 UNL A   1      13.243  51.837   8.854  1.00  0.00    +0.000 H 
ATOM    134  H37 UNL A   1      15.024  50.970   7.463  1.00  0.00    +0.000 H 
ATOM    138  H41 UNL A   1      17.541  50.725  10.813  1.00  0.00    +0.000 H 
ATOM    139  H42 UNL A   1      15.757  51.587  12.216  1.00  0.00    +0.000 H 
ATOM     88  C62 UNL A   1      14.358  51.792  10.647  1.00  0.00    +0.000 C 
ATOM     89  C63 UNL A   1      14.156  51.604   9.274  1.00  0.00    +0.000 C 
ATOM     90  C64 UNL A   1      15.183  51.103   8.474  1.00  0.00    +0.000 C 
ATOM     91  C65 UNL A   1      16.424  50.784   9.025  1.00  0.00    +0.000 C 
ATOM     94  C67 UNL A   1      16.628  50.962  10.395  1.00  0.00    +0.000 C 
ATOM     95  C68 UNL A   1      15.598  51.462  11.203  1.00  0.00    +0.000 C 
BRANCH   91   92
ATOM     92  O5  UNL A   1      17.337  50.308   8.128  1.00  0.00    +0.000 O 
BRANCH   92   93
ATOM    137  H40 UNL A   1      16.168  50.991   6.597  1.00  0.00    +0.000 H 
ATOM     93  C66 UNL A   1      16.945  50.274   6.762  1.00  0.00    +0.000 C 
ATOM    135  H38 UNL A   1      16.586  49.297   6.518  1.00  0.00    +0.000 H 
ATOM    136  H39 UNL A   1      17.785  50.511   6.144  1.00  0.00    +0.000 H 
ENDBRANCH   92   93
ENDBRANCH   91   92
ENDBRANCH   87   88
ENDBRANCH   11   10
ENDBRANCH   12   11
ENDBRANCH   14   12
ENDBRANCH   15   14
ENDBRANCH   16   15
ENDBRANCH   17   16
ENDBRANCH   18   17
ENDBRANCH   19   18
ENDBRANCH   20   19
ENDBRANCH   21   20
ENDBRANCH   22   21
ENDBRANCH   24   22
ENDBRANCH   28   27
BRANCH   32   33
ATOM     33  C25 UNL A   1      16.921  48.630  -0.961  1.00  0.00    +0.000 C 
ATOM     34  C26 UNL A   1      16.179  48.260  -2.093  1.00  0.00    +0.000 C 
ATOM     35  F1  UNL A   1      15.062  48.928  -2.416  1.00  0.00    +0.000 F 
ATOM     36  C27 UNL A   1      16.566  47.178  -2.880  1.00  0.00    +0.000 C 
ATOM     37  F2  UNL A   1      15.819  46.818  -3.933  1.00  0.00    +0.000 F 
ATOM     38  C28 UNL A   1      17.715  46.466  -2.570  1.00  0.00    +0.000 C 
ATOM     39  F3  UNL A   1      18.090  45.431  -3.333  1.00  0.00    +0.000 F 
ATOM     40  C29 UNL A   1      18.474  46.827  -1.467  1.00  0.00    +0.000 C 
ATOM     41  F4  UNL A   1      19.592  46.148  -1.172  1.00  0.00    +0.000 F 
ATOM     42  C30 UNL A   1      18.076  47.892  -0.662  1.00  0.00    +0.000 C 
ATOM     43  F5  UNL A   1      18.824  48.209   0.405  1.00  0.00    +0.000 F 
ENDBRANCH   32   33
BRANCH   49   50
ATOM     50  C36 UNL A   1      18.051  55.740  -0.800  1.00  0.00    +0.000 C 
ATOM     51  C37 UNL A   1      17.411  56.459  -1.820  1.00  0.00    +0.000 C 
ATOM     52  F6  UNL A   1      16.136  56.191  -2.138  1.00  0.00    +0.000 F 
ATOM     53  C38 UNL A   1      18.093  57.437  -2.539  1.00  0.00    +0.000 C 
ATOM     54  F7  UNL A   1      17.474  58.088  -3.533  1.00  0.00    +0.000 F 
ATOM     55  C39 UNL A   1      19.413  57.732  -2.235  1.00  0.00    +0.000 C 
ATOM     56  F8  UNL A   1      20.065  58.681  -2.922  1.00  0.00    +0.000 F 
ATOM     57  C40 UNL A   1      20.062  57.038  -1.224  1.00  0.00    +0.000 C 
ATOM     58  F9  UNL A   1      21.335  57.330  -0.922  1.00  0.00    +0.000 F 
ATOM     59  C41 UNL A   1      19.391  56.043  -0.519  1.00  0.00    +0.000 C 
ATOM     60  F10 UNL A   1      20.045  55.385   0.450  1.00  0.00    +0.000 F 
ENDBRANCH   49   50
BRANCH   64   65
ATOM     65  C45 UNL A   1      14.349  56.138   5.084  1.00  0.00    +0.000 C 
ATOM     66  C46 UNL A   1      13.075  56.721   5.064  1.00  0.00    +0.000 C 
ATOM     67  F11 UNL A   1      12.156  56.291   4.187  1.00  0.00    +0.000 F 
ATOM     68  C47 UNL A   1      12.752  57.773   5.917  1.00  0.00    +0.000 C 
ATOM     69  F12 UNL A   1      11.539  58.339   5.852  1.00  0.00    +0.000 F 
ATOM     70  C48 UNL A   1      13.689  58.244   6.826  1.00  0.00    +0.000 C 
ATOM     71  F13 UNL A   1      13.376  59.253   7.651  1.00  0.00    +0.000 F 
ATOM     72  C49 UNL A   1      14.951  57.674   6.873  1.00  0.00    +0.000 C 
ATOM     73  F14 UNL A   1      15.855  58.120   7.757  1.00  0.00    +0.000 F 
ATOM     74  C50 UNL A   1      15.283  56.638   6.003  1.00  0.00    +0.000 C 
ATOM     75  F15 UNL A   1      16.515  56.111   6.062  1.00  0.00    +0.000 F 
ENDBRANCH   64   65
TORSDOF 22
ENDMDL
MODEL 5
REMARK VINA RESULT:      -7.1      4.783     11.084
ROOT
ATOM    129  H32 UNL A   1      23.553 -13.558  36.496  1.00  0.00    +0.000 H 
ATOM    130  H33 UNL A   1      25.574 -14.653  35.363  1.00  0.00    +0.000 H 
ATOM     28  C21 UNL A   1      27.725 -15.204  37.146  1.00  0.00    +0.000 C 
ATOM     29  C22 UNL A   1      26.363 -14.674  37.490  1.00  0.00    +0.000 C 
ATOM     30  N4  UNL A   1      25.870 -14.355  38.660  1.00  0.00    +0.000 N 
ATOM     31  C23 UNL A   1      24.590 -13.877  38.413  1.00  0.00    +0.000 C 
ATOM     32  C24 UNL A   1      23.658 -13.466  39.304  1.00  0.00    +0.000 C 
ATOM     44  C31 UNL A   1      23.844 -13.464  40.732  1.00  0.00    +0.000 C 
ATOM     45  C32 UNL A   1      22.931 -13.141  41.721  1.00  0.00    +0.000 C 
ATOM     46  C33 UNL A   1      23.575 -13.238  42.959  1.00  0.00    +0.000 C 
ATOM     47  C34 UNL A   1      24.878 -13.658  42.744  1.00  0.00    +0.000 C 
ATOM     48  N5  UNL A   1      25.027 -13.798  41.373  1.00  0.00    +0.000 N 
ATOM     49  C35 UNL A   1      25.913 -13.905  43.713  1.00  0.00    +0.000 C 
ATOM     61  C42 UNL A   1      27.150 -14.379  43.427  1.00  0.00    +0.000 C 
ATOM     62  N6  UNL A   1      27.690 -14.715  42.193  1.00  0.00    +0.000 N 
ATOM     63  C43 UNL A   1      28.915 -15.110  42.432  1.00  0.00    +0.000 C 
ATOM     64  C44 UNL A   1      29.960 -15.597  41.466  1.00  0.00    +0.000 C 
ATOM     76  C51 UNL A   1      29.662 -15.674  40.155  1.00  0.00    +0.000 C 
ATOM     77  C52 UNL A   1      30.579 -16.104  39.104  1.00  0.00    +0.000 C 
ATOM     78  C53 UNL A   1      29.974 -15.967  37.913  1.00  0.00    +0.000 C 
ATOM     79  C54 UNL A   1      28.610 -15.480  38.122  1.00  0.00    +0.000 C 
ATOM     80  N7  UNL A   1      28.503 -15.366  39.486  1.00  0.00    +0.000 N 
ATOM     81  C55 UNL A   1      29.300 -15.052  43.850  1.00  0.00    +0.000 C 
ATOM     82  C56 UNL A   1      28.177 -14.630  44.415  1.00  0.00    +0.000 C 
ATOM     83  C57 UNL A   1      24.396 -13.909  36.979  1.00  0.00    +0.000 C 
ATOM     84  C58 UNL A   1      25.441 -14.447  36.367  1.00  0.00    +0.000 C 
ATOM    121  H24 UNL A   1      21.944 -12.875  41.571  1.00  0.00    +0.000 H 
ATOM    122  H25 UNL A   1      23.151 -13.032  43.877  1.00  0.00    +0.000 H 
ATOM    123  H26 UNL A   1      25.852 -14.091  40.921  1.00  0.00    +0.000 H 
ATOM    124  H27 UNL A   1      31.538 -16.454  39.252  1.00  0.00    +0.000 H 
ATOM    125  H28 UNL A   1      30.402 -16.173  36.997  1.00  0.00    +0.000 H 
ATOM    126  H29 UNL A   1      27.674 -15.091  39.941  1.00  0.00    +0.000 H 
ATOM    127  H30 UNL A   1      30.205 -15.281  44.289  1.00  0.00    +0.000 H 
ATOM    128  H31 UNL A   1      28.052 -14.496  45.431  1.00  0.00    +0.000 H 
ENDROOT
BRANCH   28   27
ATOM    131  H34 UNL A   1      28.907 -13.377  35.596  1.00  0.00    +0.000 H 
ATOM    132  H35 UNL A   1      29.587 -13.561  33.277  1.00  0.00    +0.000 H 
ATOM     27  C20 UNL A   1      28.134 -15.342  35.726  1.00  0.00    +0.000 C 
ATOM     85  C59 UNL A   1      28.761 -14.262  35.086  1.00  0.00    +0.000 C 
ATOM     86  C60 UNL A   1      29.185 -14.377  33.764  1.00  0.00    +0.000 C 
ATOM    119  H22 UNL A   1      28.268 -17.555  33.199  1.00  0.00    +0.000 H 
ATOM     24  C17 UNL A   1      29.064 -15.601  33.099  1.00  0.00    +0.000 C 
ATOM     25  C18 UNL A   1      28.403 -16.669  33.711  1.00  0.00    +0.000 C 
ATOM     26  C19 UNL A   1      27.926 -16.536  35.017  1.00  0.00    +0.000 C 
ATOM    120  H23 UNL A   1      27.419 -17.316  35.462  1.00  0.00    +0.000 H 
BRANCH   24   22
ATOM     22  C16 UNL A   1      29.611 -15.783  31.738  1.00  0.00    +0.000 C 
ATOM     23  O4  UNL A   1      30.605 -16.485  31.571  1.00  0.00    +0.000 O 
BRANCH   22   21
ATOM     21  N3  UNL A   1      29.017 -15.161  30.668  1.00  0.00    +0.000 N 
ATOM    118  H21 UNL A   1      28.131 -15.509  30.417  1.00  0.00    +0.000 H 
BRANCH   21   20
ATOM    116  H19 UNL A   1      29.907 -13.305  30.494  1.00  0.00    +0.000 H 
ATOM     20  C15 UNL A   1      29.510 -14.062  29.851  1.00  0.00    +0.000 C 
ATOM    117  H20 UNL A   1      30.262 -14.449  29.196  1.00  0.00    +0.000 H 
BRANCH   20   19
ATOM    114  H17 UNL A   1      28.800 -13.296  28.006  1.00  0.00    +0.000 H 
ATOM     19  C14 UNL A   1      28.409 -13.447  28.990  1.00  0.00    +0.000 C 
ATOM    115  H18 UNL A   1      27.587 -14.132  29.017  1.00  0.00    +0.000 H 
BRANCH   19   18
ATOM    113  H16 UNL A   1      26.826 -12.252  29.672  1.00  0.00    +0.000 H 
ATOM     18  C13 UNL A   1      27.871 -12.107  29.501  1.00  0.00    +0.000 C 
ATOM    112  H15 UNL A   1      28.086 -11.362  28.763  1.00  0.00    +0.000 H 
BRANCH   18   17
ATOM     17  C12 UNL A   1      28.458 -11.632  30.836  1.00  0.00    +0.000 C 
ATOM    110  H13 UNL A   1      27.647 -11.330  31.466  1.00  0.00    +0.000 H 
ATOM    111  H14 UNL A   1      29.015 -12.458  31.226  1.00  0.00    +0.000 H 
BRANCH   17   16
ATOM    108  H11 UNL A   1      30.387 -10.778  31.132  1.00  0.00    +0.000 H 
ATOM    109  H12 UNL A   1      29.508 -10.192  29.703  1.00  0.00    +0.000 H 
ATOM     16  C11 UNL A   1      29.445 -10.461  30.736  1.00  0.00    +0.000 C 
BRANCH   16   15
ATOM    106  H9  UNL A   1      29.038  -9.412  32.549  1.00  0.00    +0.000 H 
ATOM    107  H10 UNL A   1      29.643  -8.404  31.239  1.00  0.00    +0.000 H 
ATOM     15  C10 UNL A   1      28.993  -9.214  31.498  1.00  0.00    +0.000 C 
BRANCH   15   14
ATOM    105  H8  UNL A   1      27.485  -8.640  30.194  1.00  0.00    +0.000 H 
ATOM     14  N2  UNL A   1      27.637  -8.846  31.145  1.00  0.00    +0.000 N 
BRANCH   14   12
ATOM     12  C9  UNL A   1      26.540  -8.746  31.955  1.00  0.00    +0.000 C 
ATOM     13  O3  UNL A   1      25.565  -8.118  31.537  1.00  0.00    +0.000 O 
BRANCH   12   11
ATOM     11  C8  UNL A   1      26.576  -9.299  33.367  1.00  0.00    +0.000 C 
ATOM    103  H6  UNL A   1      27.218 -10.154  33.383  1.00  0.00    +0.000 H 
ATOM    104  H7  UNL A   1      26.936  -8.523  34.010  1.00  0.00    +0.000 H 
BRANCH   11   10
ATOM      7  C6  UNL A   1      23.222 -10.476  34.373  1.00  0.00    +0.000 C 
ATOM      8  N1  UNL A   1      23.359  -9.310  35.020  1.00  0.00    +0.000 N 
ATOM      9  O2  UNL A   1      24.621  -8.843  34.714  1.00  0.00    +0.000 O 
ATOM     10  C7  UNL A   1      25.236  -9.701  33.856  1.00  0.00    +0.000 C 
ATOM     87  C61 UNL A   1      24.404 -10.781  33.631  1.00  0.00    +0.000 C 
BRANCH    7    6
ATOM     97  C70 UNL A   1      20.842 -13.385  34.630  1.00  0.00    +0.000 C 
ATOM      3  C2  UNL A   1      19.628 -12.775  34.320  1.00  0.00    +0.000 C 
ATOM      4  C3  UNL A   1      19.593 -11.399  34.076  1.00  0.00    +0.000 C 
ATOM    101  H4  UNL A   1      18.696 -10.944  33.848  1.00  0.00    +0.000 H 
ATOM      5  C4  UNL A   1      20.760 -10.635  34.140  1.00  0.00    +0.000 C 
ATOM    102  H5  UNL A   1      20.720  -9.616  33.974  1.00  0.00    +0.000 H 
ATOM      6  C5  UNL A   1      21.985 -11.246  34.428  1.00  0.00    +0.000 C 
ATOM    140  H43 UNL A   1      22.910 -13.081  34.919  1.00  0.00    +0.000 H 
ATOM    141  H44 UNL A   1      20.876 -14.399  34.817  1.00  0.00    +0.000 H 
ATOM     96  C69 UNL A   1      22.014 -12.623  34.686  1.00  0.00    +0.000 C 
BRANCH    3    2
ATOM      2  O1  UNL A   1      18.422 -13.410  34.201  1.00  0.00    +0.000 O 
BRANCH    2    1
ATOM      1  C1  UNL A   1      18.160 -14.049  32.958  1.00  0.00    +0.000 C 
ATOM     98  H1  UNL A   1      18.276 -13.342  32.163  1.00  0.00    +0.000 H 
ATOM     99  H2  UNL A   1      17.160 -14.428  32.954  1.00  0.00    +0.000 H 
ATOM    100  H3  UNL A   1      18.849 -14.857  32.820  1.00  0.00    +0.000 H 
ENDBRANCH    2    1
ENDBRANCH    3    2
ENDBRANCH    7    6
BRANCH   87   88
ATOM    133  H36 UNL A   1      25.950 -12.905  34.036  1.00  0.00    +0.000 H 
ATOM    134  H37 UNL A   1      26.424 -14.725  32.512  1.00  0.00    +0.000 H 
ATOM    138  H41 UNL A   1      23.978 -12.944  29.602  1.00  0.00    +0.000 H 
ATOM    139  H42 UNL A   1      23.505 -11.111  31.122  1.00  0.00    +0.000 H 
ATOM     88  C62 UNL A   1      24.680 -11.864  32.707  1.00  0.00    +0.000 C 
ATOM     89  C63 UNL A   1      25.527 -12.910  33.094  1.00  0.00    +0.000 C 
ATOM     90  C64 UNL A   1      25.800 -13.958  32.215  1.00  0.00    +0.000 C 
ATOM     91  C65 UNL A   1      25.236 -13.981  30.939  1.00  0.00    +0.000 C 
ATOM     94  C67 UNL A   1      24.397 -12.937  30.544  1.00  0.00    +0.000 C 
ATOM     95  C68 UNL A   1      24.123 -11.881  31.424  1.00  0.00    +0.000 C 
BRANCH   91   92
ATOM     92  O5  UNL A   1      25.585 -15.066  30.186  1.00  0.00    +0.000 O 
BRANCH   92   93
ATOM    137  H40 UNL A   1      23.925 -15.197  29.002  1.00  0.00    +0.000 H 
ATOM     93  C66 UNL A   1      24.989 -15.180  28.900  1.00  0.00    +0.000 C 
ATOM    135  H38 UNL A   1      25.317 -16.085  28.434  1.00  0.00    +0.000 H 
ATOM    136  H39 UNL A   1      25.277 -14.344  28.299  1.00  0.00    +0.000 H 
ENDBRANCH   92   93
ENDBRANCH   91   92
ENDBRANCH   87   88
ENDBRANCH   11   10
ENDBRANCH   12   11
ENDBRANCH   14   12
ENDBRANCH   15   14
ENDBRANCH   16   15
ENDBRANCH   17   16
ENDBRANCH   18   17
ENDBRANCH   19   18
ENDBRANCH   20   19
ENDBRANCH   21   20
ENDBRANCH   22   21
ENDBRANCH   24   22
ENDBRANCH   28   27
BRANCH   32   33
ATOM     33  C25 UNL A   1      22.345 -12.983  38.763  1.00  0.00    +0.000 C 
ATOM     34  C26 UNL A   1      21.213 -13.811  38.733  1.00  0.00    +0.000 C 
ATOM     35  F1  UNL A   1      21.298 -15.084  39.147  1.00  0.00    +0.000 F 
ATOM     36  C27 UNL A   1      19.996 -13.343  38.245  1.00  0.00    +0.000 C 
ATOM     37  F2  UNL A   1      18.939 -14.165  38.188  1.00  0.00    +0.000 F 
ATOM     38  C28 UNL A   1      19.879 -12.032  37.807  1.00  0.00    +0.000 C 
ATOM     39  F3  UNL A   1      18.705 -11.581  37.345  1.00  0.00    +0.000 F 
ATOM     40  C29 UNL A   1      20.980 -11.190  37.846  1.00  0.00    +0.000 C 
ATOM     41  F4  UNL A   1      20.866  -9.919  37.435  1.00  0.00    +0.000 F 
ATOM     42  C30 UNL A   1      22.206 -11.662  38.309  1.00  0.00    +0.000 C 
ATOM     43  F5  UNL A   1      23.255 -10.828  38.323  1.00  0.00    +0.000 F 
ENDBRANCH   32   33
BRANCH   49   50
ATOM     50  C36 UNL A   1      25.600 -13.632  45.153  1.00  0.00    +0.000 C 
ATOM     51  C37 UNL A   1      24.951 -14.586  45.951  1.00  0.00    +0.000 C 
ATOM     52  F6  UNL A   1      24.538 -15.745  45.416  1.00  0.00    +0.000 F 
ATOM     53  C38 UNL A   1      24.697 -14.336  47.297  1.00  0.00    +0.000 C 
ATOM     54  F7  UNL A   1      24.045 -15.247  48.033  1.00  0.00    +0.000 F 
ATOM     55  C39 UNL A   1      25.110 -13.146  47.875  1.00  0.00    +0.000 C 
ATOM     56  F8  UNL A   1      24.873 -12.912  49.173  1.00  0.00    +0.000 F 
ATOM     57  C40 UNL A   1      25.761 -12.193  47.105  1.00  0.00    +0.000 C 
ATOM     58  F9  UNL A   1      26.169 -11.045  47.666  1.00  0.00    +0.000 F 
ATOM     59  C41 UNL A   1      25.995 -12.428  45.754  1.00  0.00    +0.000 C 
ATOM     60  F10 UNL A   1      26.622 -11.486  45.033  1.00  0.00    +0.000 F 
ENDBRANCH   49   50
BRANCH   64   65
ATOM     65  C45 UNL A   1      31.307 -15.999  41.942  1.00  0.00    +0.000 C 
ATOM     66  C46 UNL A   1      32.294 -15.038  42.201  1.00  0.00    +0.000 C 
ATOM     67  F11 UNL A   1      32.032 -13.740  41.990  1.00  0.00    +0.000 F 
ATOM     68  C47 UNL A   1      33.562 -15.409  42.639  1.00  0.00    +0.000 C 
ATOM     69  F12 UNL A   1      34.499 -14.472  42.842  1.00  0.00    +0.000 F 
ATOM     70  C48 UNL A   1      33.861 -16.747  42.853  1.00  0.00    +0.000 C 
ATOM     71  F13 UNL A   1      35.081 -17.103  43.280  1.00  0.00    +0.000 F 
ATOM     72  C49 UNL A   1      32.897 -17.715  42.616  1.00  0.00    +0.000 C 
ATOM     73  F14 UNL A   1      33.179 -19.007  42.832  1.00  0.00    +0.000 F 
ATOM     74  C50 UNL A   1      31.635 -17.347  42.155  1.00  0.00    +0.000 C 
ATOM     75  F15 UNL A   1      30.725 -18.304  41.923  1.00  0.00    +0.000 F 
ENDBRANCH   64   65
TORSDOF 22
ENDMDL
MODEL 6
REMARK VINA RESULT:      -7.0     20.778     24.855
ROOT
ATOM    129  H32 UNL A   1       8.083  -6.583  22.623  1.00  0.00    +0.000 H 
ATOM    130  H33 UNL A   1       8.129  -6.215  20.088  1.00  0.00    +0.000 H 
ATOM     28  C21 UNL A   1       8.755  -3.542  19.331  1.00  0.00    +0.000 C 
ATOM     29  C22 UNL A   1       8.751  -4.126  20.715  1.00  0.00    +0.000 C 
ATOM     30  N4  UNL A   1       9.030  -3.550  21.857  1.00  0.00    +0.000 N 
ATOM     31  C23 UNL A   1       8.829  -4.522  22.828  1.00  0.00    +0.000 C 
ATOM     32  C24 UNL A   1       9.030  -4.432  24.164  1.00  0.00    +0.000 C 
ATOM     44  C31 UNL A   1       9.519  -3.255  24.834  1.00  0.00    +0.000 C 
ATOM     45  C32 UNL A   1       9.830  -3.091  26.173  1.00  0.00    +0.000 C 
ATOM     46  C33 UNL A   1      10.222  -1.763  26.371  1.00  0.00    +0.000 C 
ATOM     47  C34 UNL A   1      10.191  -1.109  25.150  1.00  0.00    +0.000 C 
ATOM     48  N5  UNL A   1       9.762  -2.038  24.215  1.00  0.00    +0.000 N 
ATOM     49  C35 UNL A   1      10.517   0.262  24.856  1.00  0.00    +0.000 C 
ATOM     61  C42 UNL A   1      10.524   0.812  23.617  1.00  0.00    +0.000 C 
ATOM     62  N6  UNL A   1      10.225   0.218  22.399  1.00  0.00    +0.000 N 
ATOM     63  C43 UNL A   1      10.361   1.159  21.498  1.00  0.00    +0.000 C 
ATOM     64  C44 UNL A   1      10.171   1.078  20.008  1.00  0.00    +0.000 C 
ATOM     76  C51 UNL A   1       9.822  -0.096  19.449  1.00  0.00    +0.000 C 
ATOM     77  C52 UNL A   1       9.581  -0.317  18.026  1.00  0.00    +0.000 C 
ATOM     78  C53 UNL A   1       9.163  -1.580  17.845  1.00  0.00    +0.000 C 
ATOM     79  C54 UNL A   1       9.147  -2.269  19.135  1.00  0.00    +0.000 C 
ATOM     80  N7  UNL A   1       9.585  -1.320  20.025  1.00  0.00    +0.000 N 
ATOM     81  C55 UNL A   1      10.747   2.467  22.047  1.00  0.00    +0.000 C 
ATOM     82  C56 UNL A   1      10.863   2.191  23.339  1.00  0.00    +0.000 C 
ATOM     83  C57 UNL A   1       8.367  -5.712  22.147  1.00  0.00    +0.000 C 
ATOM     84  C58 UNL A   1       8.356  -5.538  20.833  1.00  0.00    +0.000 C 
ATOM    121  H24 UNL A   1       9.783  -3.823  26.900  1.00  0.00    +0.000 H 
ATOM    122  H25 UNL A   1      10.489  -1.341  27.274  1.00  0.00    +0.000 H 
ATOM    123  H26 UNL A   1       9.648  -1.861  23.253  1.00  0.00    +0.000 H 
ATOM    124  H27 UNL A   1       9.711   0.385  17.281  1.00  0.00    +0.000 H 
ATOM    125  H28 UNL A   1       8.895  -1.997  16.939  1.00  0.00    +0.000 H 
ATOM    126  H29 UNL A   1       9.718  -1.500  20.985  1.00  0.00    +0.000 H 
ATOM    127  H30 UNL A   1      10.890   3.363  21.556  1.00  0.00    +0.000 H 
ATOM    128  H31 UNL A   1      11.157   2.874  24.055  1.00  0.00    +0.000 H 
ENDROOT
BRANCH   28   27
ATOM    131  H34 UNL A   1      10.042  -5.415  17.927  1.00  0.00    +0.000 H 
ATOM    132  H35 UNL A   1       9.244  -6.726  16.051  1.00  0.00    +0.000 H 
ATOM     27  C20 UNL A   1       8.242  -4.335  18.186  1.00  0.00    +0.000 C 
ATOM     85  C59 UNL A   1       9.077  -5.290  17.586  1.00  0.00    +0.000 C 
ATOM     86  C60 UNL A   1       8.608  -6.070  16.531  1.00  0.00    +0.000 C 
ATOM    119  H22 UNL A   1       5.480  -4.869  16.346  1.00  0.00    +0.000 H 
ATOM     24  C17 UNL A   1       7.275  -5.961  16.124  1.00  0.00    +0.000 C 
ATOM     25  C18 UNL A   1       6.448  -4.983  16.684  1.00  0.00    +0.000 C 
ATOM     26  C19 UNL A   1       6.935  -4.162  17.704  1.00  0.00    +0.000 C 
ATOM    120  H23 UNL A   1       6.333  -3.425  18.103  1.00  0.00    +0.000 H 
BRANCH   24   22
ATOM     22  C16 UNL A   1       6.722  -6.858  15.087  1.00  0.00    +0.000 C 
ATOM     23  O4  UNL A   1       7.270  -6.930  13.990  1.00  0.00    +0.000 O 
BRANCH   22   21
ATOM     21  N3  UNL A   1       5.596  -7.599  15.346  1.00  0.00    +0.000 N 
ATOM    118  H21 UNL A   1       4.772  -7.276  14.917  1.00  0.00    +0.000 H 
BRANCH   21   20
ATOM    116  H19 UNL A   1       4.434  -9.131  16.100  1.00  0.00    +0.000 H 
ATOM     20  C15 UNL A   1       5.447  -8.793  16.165  1.00  0.00    +0.000 C 
ATOM    117  H20 UNL A   1       6.128  -9.531  15.797  1.00  0.00    +0.000 H 
BRANCH   20   19
ATOM    114  H17 UNL A   1       5.976  -9.471  18.102  1.00  0.00    +0.000 H 
ATOM     19  C14 UNL A   1       5.785  -8.531  17.631  1.00  0.00    +0.000 C 
ATOM    115  H18 UNL A   1       6.632  -7.878  17.633  1.00  0.00    +0.000 H 
BRANCH   19   18
ATOM    113  H16 UNL A   1       4.076  -8.586  18.846  1.00  0.00    +0.000 H 
ATOM     18  C13 UNL A   1       4.685  -7.816  18.422  1.00  0.00    +0.000 C 
ATOM    112  H15 UNL A   1       4.157  -7.174  17.748  1.00  0.00    +0.000 H 
BRANCH   18   17
ATOM     17  C12 UNL A   1       5.175  -6.964  19.600  1.00  0.00    +0.000 C 
ATOM    110  H13 UNL A   1       5.067  -7.542  20.494  1.00  0.00    +0.000 H 
ATOM    111  H14 UNL A   1       6.189  -6.705  19.378  1.00  0.00    +0.000 H 
BRANCH   17   16
ATOM    108  H11 UNL A   1       4.715  -4.968  19.015  1.00  0.00    +0.000 H 
ATOM    109  H12 UNL A   1       3.383  -5.860  19.783  1.00  0.00    +0.000 H 
ATOM     16  C11 UNL A   1       4.430  -5.637  19.799  1.00  0.00    +0.000 C 
BRANCH   16   15
ATOM    106  H9  UNL A   1       3.929  -5.183  21.823  1.00  0.00    +0.000 H 
ATOM    107  H10 UNL A   1       5.654  -5.344  21.513  1.00  0.00    +0.000 H 
ATOM     15  C10 UNL A   1       4.725  -4.965  21.142  1.00  0.00    +0.000 C 
BRANCH   15   14
ATOM    105  H8  UNL A   1       4.921  -3.200  20.071  1.00  0.00    +0.000 H 
ATOM     14  N2  UNL A   1       4.841  -3.528  20.995  1.00  0.00    +0.000 N 
BRANCH   14   12
ATOM     12  C9  UNL A   1       4.853  -2.569  21.968  1.00  0.00    +0.000 C 
ATOM     13  O3  UNL A   1       3.827  -1.907  22.144  1.00  0.00    +0.000 O 
BRANCH   12   11
ATOM     11  C8  UNL A   1       6.130  -2.260  22.726  1.00  0.00    +0.000 C 
ATOM    103  H6  UNL A   1       6.063  -2.694  23.702  1.00  0.00    +0.000 H 
ATOM    104  H7  UNL A   1       6.946  -2.671  22.168  1.00  0.00    +0.000 H 
BRANCH   11   10
ATOM      7  C6  UNL A   1       6.589   1.358  23.316  1.00  0.00    +0.000 C 
ATOM      8  N1  UNL A   1       6.851   1.212  22.009  1.00  0.00    +0.000 N 
ATOM      9  O2  UNL A   1       6.737  -0.138  21.740  1.00  0.00    +0.000 O 
ATOM     10  C7  UNL A   1       6.372  -0.804  22.868  1.00  0.00    +0.000 C 
ATOM     87  C61 UNL A   1       6.298   0.094  23.914  1.00  0.00    +0.000 C 
BRANCH    7    6
ATOM     97  C70 UNL A   1       7.769   4.547  24.938  1.00  0.00    +0.000 C 
ATOM      3  C2  UNL A   1       6.564   5.091  25.382  1.00  0.00    +0.000 C 
ATOM      4  C3  UNL A   1       5.367   4.428  25.101  1.00  0.00    +0.000 C 
ATOM    101  H4  UNL A   1       4.473   4.829  25.427  1.00  0.00    +0.000 H 
ATOM      5  C4  UNL A   1       5.366   3.230  24.383  1.00  0.00    +0.000 C 
ATOM    102  H5  UNL A   1       4.473   2.758  24.168  1.00  0.00    +0.000 H 
ATOM      6  C5  UNL A   1       6.574   2.668  23.955  1.00  0.00    +0.000 C 
ATOM    140  H43 UNL A   1       8.667   2.946  23.898  1.00  0.00    +0.000 H 
ATOM    141  H44 UNL A   1       8.657   5.032  25.136  1.00  0.00    +0.000 H 
ATOM     96  C69 UNL A   1       7.772   3.342  24.226  1.00  0.00    +0.000 C 
BRANCH    3    2
ATOM      2  O1  UNL A   1       6.428   6.239  26.113  1.00  0.00    +0.000 O 
BRANCH    2    1
ATOM      1  C1  UNL A   1       5.289   6.321  26.961  1.00  0.00    +0.000 C 
ATOM     98  H1  UNL A   1       5.454   5.730  27.838  1.00  0.00    +0.000 H 
ATOM     99  H2  UNL A   1       4.430   5.954  26.441  1.00  0.00    +0.000 H 
ATOM    100  H3  UNL A   1       5.128   7.341  27.244  1.00  0.00    +0.000 H 
ENDBRANCH    2    1
ENDBRANCH    3    2
ENDBRANCH    7    6
BRANCH   87   88
ATOM    133  H36 UNL A   1       7.691  -1.109  25.831  1.00  0.00    +0.000 H 
ATOM    134  H37 UNL A   1       6.982  -1.658  28.080  1.00  0.00    +0.000 H 
ATOM    138  H41 UNL A   1       3.202  -0.004  27.306  1.00  0.00    +0.000 H 
ATOM    139  H42 UNL A   1       3.904   0.542  25.047  1.00  0.00    +0.000 H 
ATOM     88  C62 UNL A   1       5.858  -0.230  25.259  1.00  0.00    +0.000 C 
ATOM     89  C63 UNL A   1       6.736  -0.871  26.141  1.00  0.00    +0.000 C 
ATOM     90  C64 UNL A   1       6.326  -1.187  27.437  1.00  0.00    +0.000 C 
ATOM     91  C65 UNL A   1       5.039  -0.871  27.872  1.00  0.00    +0.000 C 
ATOM     94  C67 UNL A   1       4.157  -0.239  26.994  1.00  0.00    +0.000 C 
ATOM     95  C68 UNL A   1       4.564   0.078  25.691  1.00  0.00    +0.000 C 
BRANCH   91   92
ATOM     92  O5  UNL A   1       4.773  -1.234  29.162  1.00  0.00    +0.000 O 
BRANCH   92   93
ATOM    137  H40 UNL A   1       6.353  -2.530  29.112  1.00  0.00    +0.000 H 
ATOM     93  C66 UNL A   1       5.450  -2.378  29.665  1.00  0.00    +0.000 C 
ATOM    135  H38 UNL A   1       4.821  -3.238  29.564  1.00  0.00    +0.000 H 
ATOM    136  H39 UNL A   1       5.686  -2.229  30.697  1.00  0.00    +0.000 H 
ENDBRANCH   92   93
ENDBRANCH   91   92
ENDBRANCH   87   88
ENDBRANCH   11   10
ENDBRANCH   12   11
ENDBRANCH   14   12
ENDBRANCH   15   14
ENDBRANCH   16   15
ENDBRANCH   17   16
ENDBRANCH   18   17
ENDBRANCH   19   18
ENDBRANCH   20   19
ENDBRANCH   21   20
ENDBRANCH   22   21
ENDBRANCH   24   22
ENDBRANCH   28   27
BRANCH   32   33
ATOM     33  C25 UNL A   1       8.723  -5.641  24.996  1.00  0.00    +0.000 C 
ATOM     34  C26 UNL A   1       7.459  -5.831  25.577  1.00  0.00    +0.000 C 
ATOM     35  F1  UNL A   1       6.506  -4.898  25.439  1.00  0.00    +0.000 F 
ATOM     36  C27 UNL A   1       7.182  -6.968  26.330  1.00  0.00    +0.000 C 
ATOM     37  F2  UNL A   1       5.982  -7.109  26.909  1.00  0.00    +0.000 F 
ATOM     38  C28 UNL A   1       8.149  -7.950  26.493  1.00  0.00    +0.000 C 
ATOM     39  F3  UNL A   1       7.877  -9.047  27.212  1.00  0.00    +0.000 F 
ATOM     40  C29 UNL A   1       9.398  -7.791  25.912  1.00  0.00    +0.000 C 
ATOM     41  F4  UNL A   1      10.329  -8.744  26.057  1.00  0.00    +0.000 F 
ATOM     42  C30 UNL A   1       9.688  -6.643  25.178  1.00  0.00    +0.000 C 
ATOM     43  F5  UNL A   1      10.908  -6.513  24.639  1.00  0.00    +0.000 F 
ENDBRANCH   32   33
BRANCH   49   50
ATOM     50  C36 UNL A   1      10.893   1.150  26.003  1.00  0.00    +0.000 C 
ATOM     51  C37 UNL A   1      12.236   1.426  26.302  1.00  0.00    +0.000 C 
ATOM     52  F6  UNL A   1      13.217   0.841  25.598  1.00  0.00    +0.000 F 
ATOM     53  C38 UNL A   1      12.573   2.281  27.347  1.00  0.00    +0.000 C 
ATOM     54  F7  UNL A   1      13.862   2.504  27.638  1.00  0.00    +0.000 F 
ATOM     55  C39 UNL A   1      11.579   2.897  28.092  1.00  0.00    +0.000 C 
ATOM     56  F8  UNL A   1      11.906   3.727  29.092  1.00  0.00    +0.000 F 
ATOM     57  C40 UNL A   1      10.245   2.644  27.808  1.00  0.00    +0.000 C 
ATOM     58  F9  UNL A   1       9.283   3.247  28.522  1.00  0.00    +0.000 F 
ATOM     59  C41 UNL A   1       9.904   1.771  26.779  1.00  0.00    +0.000 C 
ATOM     60  F10 UNL A   1       8.606   1.541  26.531  1.00  0.00    +0.000 F 
ENDBRANCH   49   50
BRANCH   64   65
ATOM     65  C45 UNL A   1      10.374   2.273  19.150  1.00  0.00    +0.000 C 
ATOM     66  C46 UNL A   1      11.631   2.555  18.598  1.00  0.00    +0.000 C 
ATOM     67  F11 UNL A   1      12.673   1.755  18.867  1.00  0.00    +0.000 F 
ATOM     68  C47 UNL A   1      11.831   3.678  17.801  1.00  0.00    +0.000 C 
ATOM     69  F12 UNL A   1      13.051   3.946  17.316  1.00  0.00    +0.000 F 
ATOM     70  C48 UNL A   1      10.771   4.528  17.518  1.00  0.00    +0.000 C 
ATOM     71  F13 UNL A   1      10.962   5.607  16.745  1.00  0.00    +0.000 F 
ATOM     72  C49 UNL A   1       9.515   4.263  18.042  1.00  0.00    +0.000 C 
ATOM     73  F14 UNL A   1       8.487   5.075  17.762  1.00  0.00    +0.000 F 
ATOM     74  C50 UNL A   1       9.320   3.152  18.860  1.00  0.00    +0.000 C 
ATOM     75  F15 UNL A   1       8.098   2.924  19.363  1.00  0.00    +0.000 F 
ENDBRANCH   64   65
TORSDOF 22
ENDMDL
MODEL 7
REMARK VINA RESULT:      -7.0     25.758     30.884
ROOT
ATOM    129  H32 UNL A   1      11.149   9.945  24.550  1.00  0.00    +0.000 H 
ATOM    130  H33 UNL A   1      12.010   8.927  22.362  1.00  0.00    +0.000 H 
ATOM     28  C21 UNL A   1      12.087  10.772  20.195  1.00  0.00    +0.000 C 
ATOM     29  C22 UNL A   1      11.743  11.057  21.629  1.00  0.00    +0.000 C 
ATOM     30  N4  UNL A   1      11.412  12.192  22.191  1.00  0.00    +0.000 N 
ATOM     31  C23 UNL A   1      11.155  11.892  23.522  1.00  0.00    +0.000 C 
ATOM     32  C24 UNL A   1      10.821  12.737  24.527  1.00  0.00    +0.000 C 
ATOM     44  C31 UNL A   1      10.678  14.161  24.376  1.00  0.00    +0.000 C 
ATOM     45  C32 UNL A   1      10.420  15.110  25.350  1.00  0.00    +0.000 C 
ATOM     46  C33 UNL A   1      10.321  16.359  24.728  1.00  0.00    +0.000 C 
ATOM     47  C34 UNL A   1      10.554  16.194  23.372  1.00  0.00    +0.000 C 
ATOM     48  N5  UNL A   1      10.777  14.841  23.171  1.00  0.00    +0.000 N 
ATOM     49  C35 UNL A   1      10.563  17.192  22.333  1.00  0.00    +0.000 C 
ATOM     61  C42 UNL A   1      10.865  16.958  21.033  1.00  0.00    +0.000 C 
ATOM     62  N6  UNL A   1      11.211  15.762  20.420  1.00  0.00    +0.000 N 
ATOM     63  C43 UNL A   1      11.395  16.047  19.155  1.00  0.00    +0.000 C 
ATOM     64  C44 UNL A   1      11.793  15.135  18.027  1.00  0.00    +0.000 C 
ATOM     76  C51 UNL A   1      12.018  13.831  18.279  1.00  0.00    +0.000 C 
ATOM     77  C52 UNL A   1      12.385  12.828  17.284  1.00  0.00    +0.000 C 
ATOM     78  C53 UNL A   1      12.436  11.624  17.875  1.00  0.00    +0.000 C 
ATOM     79  C54 UNL A   1      12.147  11.778  19.301  1.00  0.00    +0.000 C 
ATOM     80  N7  UNL A   1      11.943  13.127  19.456  1.00  0.00    +0.000 N 
ATOM     81  C55 UNL A   1      11.168  17.459  18.817  1.00  0.00    +0.000 C 
ATOM     82  C56 UNL A   1      10.878  17.975  20.003  1.00  0.00    +0.000 C 
ATOM     83  C57 UNL A   1      11.329  10.464  23.676  1.00  0.00    +0.000 C 
ATOM     84  C58 UNL A   1      11.749   9.909  22.548  1.00  0.00    +0.000 C 
ATOM    121  H24 UNL A   1      10.320  14.929  26.361  1.00  0.00    +0.000 H 
ATOM    122  H25 UNL A   1      10.109  17.253  25.198  1.00  0.00    +0.000 H 
ATOM    123  H26 UNL A   1      10.976  14.424  22.302  1.00  0.00    +0.000 H 
ATOM    124  H27 UNL A   1      12.573  13.015  16.287  1.00  0.00    +0.000 H 
ATOM    125  H28 UNL A   1      12.646  10.733  17.399  1.00  0.00    +0.000 H 
ATOM    126  H29 UNL A   1      11.762  13.549  20.328  1.00  0.00    +0.000 H 
ATOM    127  H30 UNL A   1      11.222  17.926  17.898  1.00  0.00    +0.000 H 
ATOM    128  H31 UNL A   1      10.685  18.975  20.171  1.00  0.00    +0.000 H 
ENDROOT
BRANCH   28   27
ATOM    131  H34 UNL A   1      10.199   8.965  19.638  1.00  0.00    +0.000 H 
ATOM    132  H35 UNL A   1      10.460   6.674  18.892  1.00  0.00    +0.000 H 
ATOM     27  C20 UNL A   1      12.273   9.374  19.736  1.00  0.00    +0.000 C 
ATOM     85  C59 UNL A   1      11.143   8.580  19.481  1.00  0.00    +0.000 C 
ATOM     86  C60 UNL A   1      11.290   7.275  19.018  1.00  0.00    +0.000 C 
ATOM    119  H22 UNL A   1      14.639   7.158  18.847  1.00  0.00    +0.000 H 
ATOM     24  C17 UNL A   1      12.564   6.781  18.725  1.00  0.00    +0.000 C 
ATOM     25  C18 UNL A   1      13.698   7.545  19.016  1.00  0.00    +0.000 C 
ATOM     26  C19 UNL A   1      13.553   8.834  19.534  1.00  0.00    +0.000 C 
ATOM    120  H23 UNL A   1      14.388   9.391  19.770  1.00  0.00    +0.000 H 
BRANCH   24   22
ATOM     22  C16 UNL A   1      12.739   5.442  18.122  1.00  0.00    +0.000 C 
ATOM     23  O4  UNL A   1      13.645   5.251  17.315  1.00  0.00    +0.000 O 
BRANCH   22   21
ATOM     21  N3  UNL A   1      11.886   4.420  18.457  1.00  0.00    +0.000 N 
ATOM    118  H21 UNL A   1      10.928   4.640  18.418  1.00  0.00    +0.000 H 
BRANCH   21   20
ATOM    116  H19 UNL A   1      11.720   2.378  18.184  1.00  0.00    +0.000 H 
ATOM     20  C15 UNL A   1      12.196   3.056  18.862  1.00  0.00    +0.000 C 
ATOM    117  H20 UNL A   1      13.260   2.941  18.844  1.00  0.00    +0.000 H 
BRANCH   20   19
ATOM    114  H17 UNL A   1      11.865   3.628  20.876  1.00  0.00    +0.000 H 
ATOM     19  C14 UNL A   1      11.715   2.753  20.279  1.00  0.00    +0.000 C 
ATOM    115  H18 UNL A   1      10.686   2.471  20.194  1.00  0.00    +0.000 H 
BRANCH   19   18
ATOM    113  H16 UNL A   1      13.476   1.781  20.872  1.00  0.00    +0.000 H 
ATOM     18  C13 UNL A   1      12.429   1.582  20.960  1.00  0.00    +0.000 C 
ATOM    112  H15 UNL A   1      12.121   0.680  20.474  1.00  0.00    +0.000 H 
BRANCH   18   17
ATOM     17  C12 UNL A   1      12.151   1.430  22.461  1.00  0.00    +0.000 C 
ATOM    110  H13 UNL A   1      12.555   2.285  22.962  1.00  0.00    +0.000 H 
ATOM    111  H14 UNL A   1      11.090   1.340  22.559  1.00  0.00    +0.000 H 
BRANCH   17   16
ATOM    108  H11 UNL A   1      12.034  -0.620  23.031  1.00  0.00    +0.000 H 
ATOM    109  H12 UNL A   1      13.658  -0.045  22.593  1.00  0.00    +0.000 H 
ATOM     16  C11 UNL A   1      12.747   0.173  23.111  1.00  0.00    +0.000 C 
BRANCH   16   15
ATOM    106  H9  UNL A   1      13.046  -0.590  25.081  1.00  0.00    +0.000 H 
ATOM    107  H10 UNL A   1      14.094   0.758  24.650  1.00  0.00    +0.000 H 
ATOM     15  C10 UNL A   1      13.103   0.358  24.587  1.00  0.00    +0.000 C 
BRANCH   15   14
ATOM    105  H8  UNL A   1      11.513   1.689  24.651  1.00  0.00    +0.000 H 
ATOM     14  N2  UNL A   1      12.194   1.282  25.234  1.00  0.00    +0.000 N 
BRANCH   14   12
ATOM     12  C9  UNL A   1      12.154   1.664  26.546  1.00  0.00    +0.000 C 
ATOM     13  O3  UNL A   1      13.151   2.213  27.021  1.00  0.00    +0.000 O 
BRANCH   12   11
ATOM     11  C8  UNL A   1      10.957   1.317  27.411  1.00  0.00    +0.000 C 
ATOM    103  H6  UNL A   1      10.356   0.600  26.892  1.00  0.00    +0.000 H 
ATOM    104  H7  UNL A   1      11.327   0.925  28.335  1.00  0.00    +0.000 H 
BRANCH   11   10
ATOM      7  C6  UNL A   1       8.810   4.277  27.932  1.00  0.00    +0.000 C 
ATOM      8  N1  UNL A   1       9.573   4.239  29.034  1.00  0.00    +0.000 N 
ATOM      9  O2  UNL A   1      10.370   3.118  28.913  1.00  0.00    +0.000 O 
ATOM     10  C7  UNL A   1      10.120   2.499  27.728  1.00  0.00    +0.000 C 
ATOM     87  C61 UNL A   1       9.107   3.174  27.076  1.00  0.00    +0.000 C 
BRANCH    7    6
ATOM     97  C70 UNL A   1       5.674   6.116  26.942  1.00  0.00    +0.000 C 
ATOM      3  C2  UNL A   1       6.099   7.442  27.012  1.00  0.00    +0.000 C 
ATOM      4  C3  UNL A   1       7.402   7.724  27.434  1.00  0.00    +0.000 C 
ATOM    101  H4  UNL A   1       7.720   8.704  27.488  1.00  0.00    +0.000 H 
ATOM      5  C4  UNL A   1       8.277   6.693  27.782  1.00  0.00    +0.000 C 
ATOM    102  H5  UNL A   1       9.232   6.914  28.107  1.00  0.00    +0.000 H 
ATOM      6  C5  UNL A   1       7.863   5.360  27.691  1.00  0.00    +0.000 C 
ATOM    140  H43 UNL A   1       6.230   4.101  27.230  1.00  0.00    +0.000 H 
ATOM    141  H44 UNL A   1       4.713   5.899  26.638  1.00  0.00    +0.000 H 
ATOM     96  C69 UNL A   1       6.552   5.081  27.282  1.00  0.00    +0.000 C 
BRANCH    3    2
ATOM      2  O1  UNL A   1       5.353   8.539  26.677  1.00  0.00    +0.000 O 
BRANCH    2    1
ATOM      1  C1  UNL A   1       4.503   8.406  25.545  1.00  0.00    +0.000 C 
ATOM     98  H1  UNL A   1       4.930   7.705  24.859  1.00  0.00    +0.000 H 
ATOM     99  H2  UNL A   1       4.397   9.356  25.065  1.00  0.00    +0.000 H 
ATOM    100  H3  UNL A   1       3.541   8.056  25.861  1.00  0.00    +0.000 H 
ENDBRANCH    2    1
ENDBRANCH    3    2
ENDBRANCH    7    6
BRANCH   87   88
ATOM    133  H36 UNL A   1      10.113   3.975  24.749  1.00  0.00    +0.000 H 
ATOM    134  H37 UNL A   1       9.321   3.465  22.520  1.00  0.00    +0.000 H 
ATOM    138  H41 UNL A   1       6.205   1.164  24.138  1.00  0.00    +0.000 H 
ATOM    139  H42 UNL A   1       6.989   1.679  26.377  1.00  0.00    +0.000 H 
ATOM     88  C62 UNL A   1       8.621   2.860  25.745  1.00  0.00    +0.000 C 
ATOM     89  C63 UNL A   1       9.282   3.375  24.624  1.00  0.00    +0.000 C 
ATOM     90  C64 UNL A   1       8.824   3.081  23.339  1.00  0.00    +0.000 C 
ATOM     91  C65 UNL A   1       7.704   2.271  23.151  1.00  0.00    +0.000 C 
ATOM     94  C67 UNL A   1       7.036   1.761  24.266  1.00  0.00    +0.000 C 
ATOM     95  C68 UNL A   1       7.491   2.057  25.558  1.00  0.00    +0.000 C 
BRANCH   91   92
ATOM     92  O5  UNL A   1       7.369   2.062  21.843  1.00  0.00    +0.000 O 
BRANCH   92   93
ATOM    137  H40 UNL A   1       7.059   3.434  20.361  1.00  0.00    +0.000 H 
ATOM     93  C66 UNL A   1       7.874   2.988  20.891  1.00  0.00    +0.000 C 
ATOM    135  H38 UNL A   1       8.511   2.477  20.200  1.00  0.00    +0.000 H 
ATOM    136  H39 UNL A   1       8.431   3.750  21.393  1.00  0.00    +0.000 H 
ENDBRANCH   92   93
ENDBRANCH   91   92
ENDBRANCH   87   88
ENDBRANCH   11   10
ENDBRANCH   12   11
ENDBRANCH   14   12
ENDBRANCH   15   14
ENDBRANCH   16   15
ENDBRANCH   17   16
ENDBRANCH   18   17
ENDBRANCH   19   18
ENDBRANCH   20   19
ENDBRANCH   21   20
ENDBRANCH   22   21
ENDBRANCH   24   22
ENDBRANCH   28   27
BRANCH   32   33
ATOM     33  C25 UNL A   1      10.587  12.144  25.883  1.00  0.00    +0.000 C 
ATOM     34  C26 UNL A   1      11.636  11.965  26.798  1.00  0.00    +0.000 C 
ATOM     35  F1  UNL A   1      12.893  12.279  26.452  1.00  0.00    +0.000 F 
ATOM     36  C27 UNL A   1      11.400  11.430  28.062  1.00  0.00    +0.000 C 
ATOM     37  F2  UNL A   1      12.425  11.231  28.903  1.00  0.00    +0.000 F 
ATOM     38  C28 UNL A   1      10.111  11.093  28.447  1.00  0.00    +0.000 C 
ATOM     39  F3  UNL A   1       9.886  10.586  29.667  1.00  0.00    +0.000 F 
ATOM     40  C29 UNL A   1       9.057  11.279  27.566  1.00  0.00    +0.000 C 
ATOM     41  F4  UNL A   1       7.808  10.965  27.940  1.00  0.00    +0.000 F 
ATOM     42  C30 UNL A   1       9.292  11.789  26.291  1.00  0.00    +0.000 C 
ATOM     43  F5  UNL A   1       8.253  11.947  25.458  1.00  0.00    +0.000 F 
ENDBRANCH   32   33
BRANCH   49   50
ATOM     50  C36 UNL A   1      10.228  18.601  22.718  1.00  0.00    +0.000 C 
ATOM     51  C37 UNL A   1      11.231  19.524  23.049  1.00  0.00    +0.000 C 
ATOM     52  F6  UNL A   1      12.515  19.139  23.090  1.00  0.00    +0.000 F 
ATOM     53  C38 UNL A   1      10.911  20.840  23.369  1.00  0.00    +0.000 C 
ATOM     54  F7  UNL A   1      11.882  21.697  23.716  1.00  0.00    +0.000 F 
ATOM     55  C39 UNL A   1       9.592  21.265  23.338  1.00  0.00    +0.000 C 
ATOM     56  F8  UNL A   1       9.287  22.535  23.637  1.00  0.00    +0.000 F 
ATOM     57  C40 UNL A   1       8.586  20.370  23.004  1.00  0.00    +0.000 C 
ATOM     58  F9  UNL A   1       7.310  20.782  22.964  1.00  0.00    +0.000 F 
ATOM     59  C41 UNL A   1       8.898  19.047  22.707  1.00  0.00    +0.000 C 
ATOM     60  F10 UNL A   1       7.904  18.202  22.394  1.00  0.00    +0.000 F 
ENDBRANCH   49   50
BRANCH   64   65
ATOM     65  C45 UNL A   1      11.947  15.657  16.646  1.00  0.00    +0.000 C 
ATOM     66  C46 UNL A   1      10.835  15.807  15.807  1.00  0.00    +0.000 C 
ATOM     67  F11 UNL A   1       9.618  15.449  16.242  1.00  0.00    +0.000 F 
ATOM     68  C47 UNL A   1      10.973  16.287  14.508  1.00  0.00    +0.000 C 
ATOM     69  F12 UNL A   1       9.899  16.385  13.713  1.00  0.00    +0.000 F 
ATOM     70  C48 UNL A   1      12.224  16.653  14.031  1.00  0.00    +0.000 C 
ATOM     71  F13 UNL A   1      12.356  17.121  12.782  1.00  0.00    +0.000 F 
ATOM     72  C49 UNL A   1      13.337  16.526  14.847  1.00  0.00    +0.000 C 
ATOM     73  F14 UNL A   1      14.545  16.889  14.393  1.00  0.00    +0.000 F 
ATOM     74  C50 UNL A   1      13.203  16.023  16.139  1.00  0.00    +0.000 C 
ATOM     75  F15 UNL A   1      14.298  15.900  16.904  1.00  0.00    +0.000 F 
ENDBRANCH   64   65
TORSDOF 22
ENDMDL
MODEL 8
REMARK VINA RESULT:      -7.0     21.282     27.408
ROOT
ATOM    129  H32 UNL A   1       3.912   5.504  23.341  1.00  0.00    +0.000 H 
ATOM    130  H33 UNL A   1       4.489   3.199  24.300  1.00  0.00    +0.000 H 
ATOM     28  C21 UNL A   1       6.790   3.201  25.976  1.00  0.00    +0.000 C 
ATOM     29  C22 UNL A   1       6.115   4.385  25.346  1.00  0.00    +0.000 C 
ATOM     30  N4  UNL A   1       6.425   5.655  25.426  1.00  0.00    +0.000 N 
ATOM     31  C23 UNL A   1       5.508   6.318  24.621  1.00  0.00    +0.000 C 
ATOM     32  C24 UNL A   1       5.380   7.650  24.411  1.00  0.00    +0.000 C 
ATOM     44  C31 UNL A   1       6.212   8.652  25.024  1.00  0.00    +0.000 C 
ATOM     45  C32 UNL A   1       6.111  10.030  24.935  1.00  0.00    +0.000 C 
ATOM     46  C33 UNL A   1       7.166  10.593  25.660  1.00  0.00    +0.000 C 
ATOM     47  C34 UNL A   1       7.902   9.568  26.231  1.00  0.00    +0.000 C 
ATOM     48  N5  UNL A   1       7.303   8.383  25.837  1.00  0.00    +0.000 N 
ATOM     49  C35 UNL A   1       9.072   9.659  27.067  1.00  0.00    +0.000 C 
ATOM     61  C42 UNL A   1       9.700   8.606  27.643  1.00  0.00    +0.000 C 
ATOM     62  N6  UNL A   1       9.389   7.256  27.563  1.00  0.00    +0.000 N 
ATOM     63  C43 UNL A   1      10.294   6.636  28.278  1.00  0.00    +0.000 C 
ATOM     64  C44 UNL A   1      10.442   5.164  28.551  1.00  0.00    +0.000 C 
ATOM     76  C51 UNL A   1       9.549   4.303  28.028  1.00  0.00    +0.000 C 
ATOM     77  C52 UNL A   1       9.580   2.852  28.187  1.00  0.00    +0.000 C 
ATOM     78  C53 UNL A   1       8.593   2.311  27.454  1.00  0.00    +0.000 C 
ATOM     79  C54 UNL A   1       7.834   3.382  26.808  1.00  0.00    +0.000 C 
ATOM     80  N7  UNL A   1       8.453   4.531  27.232  1.00  0.00    +0.000 N 
ATOM     81  C55 UNL A   1      11.297   7.525  28.881  1.00  0.00    +0.000 C 
ATOM     82  C56 UNL A   1      10.870   8.717  28.488  1.00  0.00    +0.000 C 
ATOM     83  C57 UNL A   1       4.655   5.309  24.031  1.00  0.00    +0.000 C 
ATOM     84  C58 UNL A   1       4.952   4.102  24.491  1.00  0.00    +0.000 C 
ATOM    121  H24 UNL A   1       5.382  10.551  24.423  1.00  0.00    +0.000 H 
ATOM    122  H25 UNL A   1       7.363  11.602  25.753  1.00  0.00    +0.000 H 
ATOM    123  H26 UNL A   1       7.606   7.482  26.096  1.00  0.00    +0.000 H 
ATOM    124  H27 UNL A   1      10.252   2.328  28.768  1.00  0.00    +0.000 H 
ATOM    125  H28 UNL A   1       8.401   1.301  27.363  1.00  0.00    +0.000 H 
ATOM    126  H29 UNL A   1       8.140   5.434  26.989  1.00  0.00    +0.000 H 
ATOM    127  H30 UNL A   1      12.118   7.284  29.459  1.00  0.00    +0.000 H 
ATOM    128  H31 UNL A   1      11.316   9.610  28.750  1.00  0.00    +0.000 H 
ENDROOT
BRANCH   28   27
ATOM    131  H34 UNL A   1       4.860   1.733  27.098  1.00  0.00    +0.000 H 
ATOM    132  H35 UNL A   1       4.146  -0.516  26.546  1.00  0.00    +0.000 H 
ATOM     27  C20 UNL A   1       6.369   1.825  25.618  1.00  0.00    +0.000 C 
ATOM     85  C59 UNL A   1       5.315   1.225  26.324  1.00  0.00    +0.000 C 
ATOM     86  C60 UNL A   1       4.878  -0.054  25.985  1.00  0.00    +0.000 C 
ATOM    119  H22 UNL A   1       6.959  -0.650  23.421  1.00  0.00    +0.000 H 
ATOM     24  C17 UNL A   1       5.436  -0.710  24.883  1.00  0.00    +0.000 C 
ATOM     25  C18 UNL A   1       6.516  -0.142  24.201  1.00  0.00    +0.000 C 
ATOM     26  C19 UNL A   1       6.991   1.117  24.577  1.00  0.00    +0.000 C 
ATOM    120  H23 UNL A   1       7.801   1.528  24.089  1.00  0.00    +0.000 H 
BRANCH   24   22
ATOM     22  C16 UNL A   1       4.912  -2.016  24.432  1.00  0.00    +0.000 C 
ATOM     23  O4  UNL A   1       4.441  -2.126  23.303  1.00  0.00    +0.000 O 
BRANCH   22   21
ATOM     21  N3  UNL A   1       4.941  -3.099  25.275  1.00  0.00    +0.000 N 
ATOM    118  H21 UNL A   1       4.118  -3.253  25.792  1.00  0.00    +0.000 H 
BRANCH   21   20
ATOM    116  H19 UNL A   1       5.687  -4.768  26.238  1.00  0.00    +0.000 H 
ATOM     20  C15 UNL A   1       6.016  -4.051  25.514  1.00  0.00    +0.000 C 
ATOM    117  H20 UNL A   1       6.254  -4.520  24.583  1.00  0.00    +0.000 H 
BRANCH   20   19
ATOM    114  H17 UNL A   1       8.009  -4.129  26.231  1.00  0.00    +0.000 H 
ATOM     19  C14 UNL A   1       7.281  -3.372  26.035  1.00  0.00    +0.000 C 
ATOM    115  H18 UNL A   1       7.585  -2.679  25.279  1.00  0.00    +0.000 H 
BRANCH   19   18
ATOM    113  H16 UNL A   1       7.169  -3.248  28.126  1.00  0.00    +0.000 H 
ATOM     18  C13 UNL A   1       7.086  -2.555  27.316  1.00  0.00    +0.000 C 
ATOM    112  H15 UNL A   1       6.131  -2.074  27.260  1.00  0.00    +0.000 H 
BRANCH   18   17
ATOM     17  C12 UNL A   1       8.144  -1.474  27.571  1.00  0.00    +0.000 C 
ATOM    110  H13 UNL A   1       7.845  -0.587  27.053  1.00  0.00    +0.000 H 
ATOM    111  H14 UNL A   1       8.194  -1.352  28.633  1.00  0.00    +0.000 H 
BRANCH   17   16
ATOM    108  H11 UNL A   1      10.209  -1.815  27.972  1.00  0.00    +0.000 H 
ATOM    109  H12 UNL A   1       9.515  -2.802  26.666  1.00  0.00    +0.000 H 
ATOM     16  C11 UNL A   1       9.566  -1.833  27.117  1.00  0.00    +0.000 C 
BRANCH   16   15
ATOM    106  H9  UNL A   1      10.002  -1.310  25.095  1.00  0.00    +0.000 H 
ATOM    107  H10 UNL A   1       9.607   0.053  26.135  1.00  0.00    +0.000 H 
ATOM     15  C10 UNL A   1      10.131  -0.877  26.065  1.00  0.00    +0.000 C 
BRANCH   15   14
ATOM    105  H8  UNL A   1      11.752   0.074  26.944  1.00  0.00    +0.000 H 
ATOM     14  N2  UNL A   1      11.541  -0.628  26.287  1.00  0.00    +0.000 N 
BRANCH   14   12
ATOM     12  C9  UNL A   1      12.618  -1.238  25.706  1.00  0.00    +0.000 C 
ATOM     13  O3  UNL A   1      13.639  -1.380  26.382  1.00  0.00    +0.000 O 
BRANCH   12   11
ATOM     11  C8  UNL A   1      12.583  -1.623  24.239  1.00  0.00    +0.000 C 
ATOM    103  H6  UNL A   1      13.450  -2.210  24.019  1.00  0.00    +0.000 H 
ATOM    104  H7  UNL A   1      11.681  -2.173  24.069  1.00  0.00    +0.000 H 
BRANCH   11   10
ATOM      7  C6  UNL A   1      12.393   1.163  21.820  1.00  0.00    +0.000 C 
ATOM      8  N1  UNL A   1      13.415   1.503  22.619  1.00  0.00    +0.000 N 
ATOM      9  O2  UNL A   1      13.503   0.512  23.577  1.00  0.00    +0.000 O 
ATOM     10  C7  UNL A   1      12.566  -0.444  23.340  1.00  0.00    +0.000 C 
ATOM     87  C61 UNL A   1      11.805  -0.065  22.252  1.00  0.00    +0.000 C 
BRANCH    7    6
ATOM     97  C70 UNL A   1      10.700   3.740  19.656  1.00  0.00    +0.000 C 
ATOM      3  C2  UNL A   1      11.147   3.371  18.388  1.00  0.00    +0.000 C 
ATOM      4  C3  UNL A   1      12.043   2.307  18.259  1.00  0.00    +0.000 C 
ATOM    101  H4  UNL A   1      12.377   2.031  17.322  1.00  0.00    +0.000 H 
ATOM      5  C4  UNL A   1      12.491   1.611  19.385  1.00  0.00    +0.000 C 
ATOM    102  H5  UNL A   1      13.165   0.836  19.278  1.00  0.00    +0.000 H 
ATOM      6  C5  UNL A   1      12.027   1.963  20.657  1.00  0.00    +0.000 C 
ATOM    140  H43 UNL A   1      10.808   3.320  21.721  1.00  0.00    +0.000 H 
ATOM    141  H44 UNL A   1      10.044   4.529  19.762  1.00  0.00    +0.000 H 
ATOM     96  C69 UNL A   1      11.140   3.040  20.785  1.00  0.00    +0.000 C 
BRANCH    3    2
ATOM      2  O1  UNL A   1      10.768   3.951  17.208  1.00  0.00    +0.000 O 
BRANCH    2    1
ATOM      1  C1  UNL A   1       9.917   3.181  16.368  1.00  0.00    +0.000 C 
ATOM     98  H1  UNL A   1      10.371   2.231  16.176  1.00  0.00    +0.000 H 
ATOM     99  H2  UNL A   1       9.768   3.697  15.443  1.00  0.00    +0.000 H 
ATOM    100  H3  UNL A   1       8.974   3.036  16.852  1.00  0.00    +0.000 H 
ENDBRANCH    2    1
ENDBRANCH    3    2
ENDBRANCH    7    6
BRANCH   87   88
ATOM    133  H36 UNL A   1      11.962  -1.541  20.047  1.00  0.00    +0.000 H 
ATOM    134  H37 UNL A   1      10.234  -2.890  19.021  1.00  0.00    +0.000 H 
ATOM    138  H41 UNL A   1       7.542  -1.763  22.038  1.00  0.00    +0.000 H 
ATOM    139  H42 UNL A   1       9.268  -0.401  23.068  1.00  0.00    +0.000 H 
ATOM     88  C62 UNL A   1      10.759  -0.869  21.648  1.00  0.00    +0.000 C 
ATOM     89  C63 UNL A   1      11.024  -1.587  20.475  1.00  0.00    +0.000 C 
ATOM     90  C64 UNL A   1      10.027  -2.364  19.884  1.00  0.00    +0.000 C 
ATOM     91  C65 UNL A   1       8.754  -2.437  20.449  1.00  0.00    +0.000 C 
ATOM     94  C67 UNL A   1       8.482  -1.717  21.614  1.00  0.00    +0.000 C 
ATOM     95  C68 UNL A   1       9.480  -0.933  22.210  1.00  0.00    +0.000 C 
BRANCH   91   92
ATOM     92  O5  UNL A   1       7.878  -3.236  19.770  1.00  0.00    +0.000 O 
BRANCH   92   93
ATOM    137  H40 UNL A   1       6.668  -3.037  18.136  1.00  0.00    +0.000 H 
ATOM     93  C66 UNL A   1       7.706  -2.975  18.384  1.00  0.00    +0.000 C 
ATOM    135  H38 UNL A   1       8.252  -3.697  17.815  1.00  0.00    +0.000 H 
ATOM    136  H39 UNL A   1       8.068  -1.994  18.157  1.00  0.00    +0.000 H 
ENDBRANCH   92   93
ENDBRANCH   91   92
ENDBRANCH   87   88
ENDBRANCH   11   10
ENDBRANCH   12   11
ENDBRANCH   14   12
ENDBRANCH   15   14
ENDBRANCH   16   15
ENDBRANCH   17   16
ENDBRANCH   18   17
ENDBRANCH   19   18
ENDBRANCH   20   19
ENDBRANCH   21   20
ENDBRANCH   22   21
ENDBRANCH   24   22
ENDBRANCH   28   27
BRANCH   32   33
ATOM     33  C25 UNL A   1       4.299   8.104  23.477  1.00  0.00    +0.000 C 
ATOM     34  C26 UNL A   1       3.007   8.398  23.937  1.00  0.00    +0.000 C 
ATOM     35  F1  UNL A   1       2.697   8.228  25.231  1.00  0.00    +0.000 F 
ATOM     36  C27 UNL A   1       2.018   8.838  23.061  1.00  0.00    +0.000 C 
ATOM     37  F2  UNL A   1       0.779   9.073  23.517  1.00  0.00    +0.000 F 
ATOM     38  C28 UNL A   1       2.308   9.021  21.717  1.00  0.00    +0.000 C 
ATOM     39  F3  UNL A   1       1.356   9.451  20.877  1.00  0.00    +0.000 F 
ATOM     40  C29 UNL A   1       3.584   8.754  21.244  1.00  0.00    +0.000 C 
ATOM     41  F4  UNL A   1       3.870   8.942  19.948  1.00  0.00    +0.000 F 
ATOM     42  C30 UNL A   1       4.569   8.289  22.112  1.00  0.00    +0.000 C 
ATOM     43  F5  UNL A   1       5.790   8.029  21.622  1.00  0.00    +0.000 F 
ENDBRANCH   32   33
BRANCH   49   50
ATOM     50  C36 UNL A   1       9.632  11.023  27.335  1.00  0.00    +0.000 C 
ATOM     51  C37 UNL A   1      10.744  11.506  26.630  1.00  0.00    +0.000 C 
ATOM     52  F6  UNL A   1      11.371  10.722  25.740  1.00  0.00    +0.000 F 
ATOM     53  C38 UNL A   1      11.233  12.789  26.861  1.00  0.00    +0.000 C 
ATOM     54  F7  UNL A   1      12.318  13.218  26.201  1.00  0.00    +0.000 F 
ATOM     55  C39 UNL A   1      10.606  13.620  27.777  1.00  0.00    +0.000 C 
ATOM     56  F8  UNL A   1      11.073  14.858  27.991  1.00  0.00    +0.000 F 
ATOM     57  C40 UNL A   1       9.500  13.165  28.479  1.00  0.00    +0.000 C 
ATOM     58  F9  UNL A   1       8.887  13.971  29.358  1.00  0.00    +0.000 F 
ATOM     59  C41 UNL A   1       9.022  11.875  28.268  1.00  0.00    +0.000 C 
ATOM     60  F10 UNL A   1       7.954  11.459  28.965  1.00  0.00    +0.000 F 
ENDBRANCH   49   50
BRANCH   64   65
ATOM     65  C45 UNL A   1      11.552   4.655  29.395  1.00  0.00    +0.000 C 
ATOM     66  C46 UNL A   1      11.501   4.766  30.791  1.00  0.00    +0.000 C 
ATOM     67  F11 UNL A   1      10.452   5.364  31.375  1.00  0.00    +0.000 F 
ATOM     68  C47 UNL A   1      12.542   4.300  31.589  1.00  0.00    +0.000 C 
ATOM     69  F12 UNL A   1      12.486   4.453  32.919  1.00  0.00    +0.000 F 
ATOM     70  C48 UNL A   1      13.643   3.688  31.007  1.00  0.00    +0.000 C 
ATOM     71  F13 UNL A   1      14.643   3.233  31.775  1.00  0.00    +0.000 F 
ATOM     72  C49 UNL A   1      13.710   3.554  29.629  1.00  0.00    +0.000 C 
ATOM     73  F14 UNL A   1      14.767   2.954  29.065  1.00  0.00    +0.000 F 
ATOM     74  C50 UNL A   1      12.680   4.043  28.828  1.00  0.00    +0.000 C 
ATOM     75  F15 UNL A   1      12.775   3.911  27.497  1.00  0.00    +0.000 F 
ENDBRANCH   64   65
TORSDOF 22
ENDMDL
MODEL 9
REMARK VINA RESULT:      -6.9     44.218     47.483
ROOT
ATOM    129  H32 UNL A   1      59.392  14.977  11.658  1.00  0.00    +0.000 H 
ATOM    130  H33 UNL A   1      58.081  16.331  13.393  1.00  0.00    +0.000 H 
ATOM     28  C21 UNL A   1      55.888  17.778  12.296  1.00  0.00    +0.000 C 
ATOM     29  C22 UNL A   1      56.790  16.807  11.590  1.00  0.00    +0.000 C 
ATOM     30  N4  UNL A   1      56.769  16.414  10.341  1.00  0.00    +0.000 N 
ATOM     31  C23 UNL A   1      57.844  15.548  10.200  1.00  0.00    +0.000 C 
ATOM     32  C24 UNL A   1      58.220  14.843   9.107  1.00  0.00    +0.000 C 
ATOM     44  C31 UNL A   1      57.526  14.869   7.846  1.00  0.00    +0.000 C 
ATOM     45  C32 UNL A   1      57.783  14.130   6.704  1.00  0.00    +0.000 C 
ATOM     46  C33 UNL A   1      56.879  14.528   5.713  1.00  0.00    +0.000 C 
ATOM     47  C34 UNL A   1      56.035  15.487   6.249  1.00  0.00    +0.000 C 
ATOM     48  N5  UNL A   1      56.440  15.683   7.559  1.00  0.00    +0.000 N 
ATOM     49  C35 UNL A   1      54.946  16.182   5.612  1.00  0.00    +0.000 C 
ATOM     61  C42 UNL A   1      54.122  17.065   6.227  1.00  0.00    +0.000 C 
ATOM     62  N6  UNL A   1      54.134  17.495   7.546  1.00  0.00    +0.000 N 
ATOM     63  C43 UNL A   1      53.153  18.356   7.652  1.00  0.00    +0.000 C 
ATOM     64  C44 UNL A   1      52.698  19.130   8.859  1.00  0.00    +0.000 C 
ATOM     76  C51 UNL A   1      53.335  18.959  10.033  1.00  0.00    +0.000 C 
ATOM     77  C52 UNL A   1      53.021  19.657  11.276  1.00  0.00    +0.000 C 
ATOM     78  C53 UNL A   1      53.917  19.307  12.212  1.00  0.00    +0.000 C 
ATOM     79  C54 UNL A   1      54.844  18.326  11.646  1.00  0.00    +0.000 C 
ATOM     80  N7  UNL A   1      54.402  18.156  10.357  1.00  0.00    +0.000 N 
ATOM     81  C55 UNL A   1      52.414  18.583   6.402  1.00  0.00    +0.000 C 
ATOM     82  C56 UNL A   1      53.026  17.749   5.574  1.00  0.00    +0.000 C 
ATOM     83  C57 UNL A   1      58.521  15.501  11.478  1.00  0.00    +0.000 C 
ATOM     84  C58 UNL A   1      57.875  16.216  12.388  1.00  0.00    +0.000 C 
ATOM    121  H24 UNL A   1      58.515  13.409   6.601  1.00  0.00    +0.000 H 
ATOM    122  H25 UNL A   1      56.846  14.168   4.746  1.00  0.00    +0.000 H 
ATOM    123  H26 UNL A   1      56.020  16.308   8.194  1.00  0.00    +0.000 H 
ATOM    124  H27 UNL A   1      52.237  20.313  11.412  1.00  0.00    +0.000 H 
ATOM    125  H28 UNL A   1      53.947  19.671  13.177  1.00  0.00    +0.000 H 
ATOM    126  H29 UNL A   1      54.809  17.518   9.727  1.00  0.00    +0.000 H 
ATOM    127  H30 UNL A   1      51.625  19.224   6.219  1.00  0.00    +0.000 H 
ATOM    128  H31 UNL A   1      52.756  17.605   4.588  1.00  0.00    +0.000 H 
ENDROOT
BRANCH   28   27
ATOM    131  H34 UNL A   1      57.072  20.037  13.090  1.00  0.00    +0.000 H 
ATOM    132  H35 UNL A   1      57.592  20.771  15.340  1.00  0.00    +0.000 H 
ATOM     27  C20 UNL A   1      56.193  18.206  13.683  1.00  0.00    +0.000 C 
ATOM     85  C59 UNL A   1      56.813  19.447  13.896  1.00  0.00    +0.000 C 
ATOM     86  C60 UNL A   1      57.080  19.888  15.190  1.00  0.00    +0.000 C 
ATOM    119  H22 UNL A   1      55.809  17.293  16.895  1.00  0.00    +0.000 H 
ATOM     24  C17 UNL A   1      56.653  19.130  16.285  1.00  0.00    +0.000 C 
ATOM     25  C18 UNL A   1      56.076  17.873  16.085  1.00  0.00    +0.000 C 
ATOM     26  C19 UNL A   1      55.859  17.406  14.787  1.00  0.00    +0.000 C 
ATOM    120  H23 UNL A   1      55.453  16.469  14.638  1.00  0.00    +0.000 H 
BRANCH   24   22
ATOM     22  C16 UNL A   1      56.820  19.630  17.666  1.00  0.00    +0.000 C 
ATOM     23  O4  UNL A   1      57.814  19.309  18.313  1.00  0.00    +0.000 O 
BRANCH   22   21
ATOM     21  N3  UNL A   1      55.865  20.441  18.225  1.00  0.00    +0.000 N 
ATOM    118  H21 UNL A   1      55.239  19.994  18.839  1.00  0.00    +0.000 H 
BRANCH   21   20
ATOM    116  H19 UNL A   1      55.679  22.350  18.995  1.00  0.00    +0.000 H 
ATOM     20  C15 UNL A   1      55.644  21.868  18.039  1.00  0.00    +0.000 C 
ATOM    117  H20 UNL A   1      56.408  22.238  17.389  1.00  0.00    +0.000 H 
BRANCH   20   19
ATOM    114  H17 UNL A   1      53.638  22.544  18.144  1.00  0.00    +0.000 H 
ATOM     19  C14 UNL A   1      54.293  22.161  17.391  1.00  0.00    +0.000 C 
ATOM    115  H18 UNL A   1      54.481  22.858  16.601  1.00  0.00    +0.000 H 
BRANCH   19   18
ATOM    113  H16 UNL A   1      52.800  20.687  17.383  1.00  0.00    +0.000 H 
ATOM     18  C13 UNL A   1      53.618  20.948  16.744  1.00  0.00    +0.000 C 
ATOM    112  H15 UNL A   1      54.351  20.173  16.649  1.00  0.00    +0.000 H 
BRANCH   18   17
ATOM     17  C12 UNL A   1      53.011  21.197  15.358  1.00  0.00    +0.000 C 
ATOM    110  H13 UNL A   1      52.945  20.257  14.851  1.00  0.00    +0.000 H 
ATOM    111  H14 UNL A   1      52.060  21.658  15.528  1.00  0.00    +0.000 H 
BRANCH   17   16
ATOM    108  H11 UNL A   1      54.770  22.305  14.892  1.00  0.00    +0.000 H 
ATOM    109  H12 UNL A   1      53.843  21.726  13.490  1.00  0.00    +0.000 H 
ATOM     16  C11 UNL A   1      53.799  22.165  14.465  1.00  0.00    +0.000 C 
BRANCH   16   15
ATOM    106  H9  UNL A   1      52.117  23.397  14.012  1.00  0.00    +0.000 H 
ATOM    107  H10 UNL A   1      53.187  24.044  15.251  1.00  0.00    +0.000 H 
ATOM     15  C10 UNL A   1      53.135  23.535  14.311  1.00  0.00    +0.000 C 
BRANCH   15   14
ATOM    105  H8  UNL A   1      54.262  25.148  13.654  1.00  0.00    +0.000 H 
ATOM     14  N2  UNL A   1      53.815  24.338  13.316  1.00  0.00    +0.000 N 
BRANCH   14   12
ATOM     12  C9  UNL A   1      53.920  24.122  11.970  1.00  0.00    +0.000 C 
ATOM     13  O3  UNL A   1      52.947  23.645  11.381  1.00  0.00    +0.000 O 
BRANCH   12   11
ATOM     11  C8  UNL A   1      55.235  24.361  11.253  1.00  0.00    +0.000 C 
ATOM    103  H6  UNL A   1      55.036  24.858  10.327  1.00  0.00    +0.000 H 
ATOM    104  H7  UNL A   1      55.851  24.956  11.895  1.00  0.00    +0.000 H 
BRANCH   11   10
ATOM      7  C6  UNL A   1      57.284  21.345  10.657  1.00  0.00    +0.000 C 
ATOM      8  N1  UNL A   1      56.234  21.185   9.839  1.00  0.00    +0.000 N 
ATOM      9  O2  UNL A   1      55.407  22.269  10.054  1.00  0.00    +0.000 O 
ATOM     10  C7  UNL A   1      55.967  23.104  10.970  1.00  0.00    +0.000 C 
ATOM     87  C61 UNL A   1      57.149  22.547  11.417  1.00  0.00    +0.000 C 
BRANCH    7    6
ATOM     97  C70 UNL A   1      59.628  18.578   9.637  1.00  0.00    +0.000 C 
ATOM      3  C2  UNL A   1      60.401  18.434  10.788  1.00  0.00    +0.000 C 
ATOM      4  C3  UNL A   1      60.178  19.284  11.875  1.00  0.00    +0.000 C 
ATOM    101  H4  UNL A   1      60.749  19.181  12.729  1.00  0.00    +0.000 H 
ATOM      5  C4  UNL A   1      59.190  20.270  11.819  1.00  0.00    +0.000 C 
ATOM    102  H5  UNL A   1      59.045  20.901  12.623  1.00  0.00    +0.000 H 
ATOM      6  C5  UNL A   1      58.397  20.403  10.674  1.00  0.00    +0.000 C 
ATOM    140  H43 UNL A   1      58.065  19.663   8.724  1.00  0.00    +0.000 H 
ATOM    141  H44 UNL A   1      59.790  17.961   8.827  1.00  0.00    +0.000 H 
ATOM     96  C69 UNL A   1      58.632  19.560   9.581  1.00  0.00    +0.000 C 
BRANCH    3    2
ATOM      2  O1  UNL A   1      61.379  17.497  10.982  1.00  0.00    +0.000 O 
BRANCH    2    1
ATOM      1  C1  UNL A   1      62.586  17.953  11.579  1.00  0.00    +0.000 C 
ATOM     98  H1  UNL A   1      62.360  18.477  12.485  1.00  0.00    +0.000 H 
ATOM     99  H2  UNL A   1      63.092  18.611  10.905  1.00  0.00    +0.000 H 
ATOM    100  H3  UNL A   1      63.214  17.115  11.799  1.00  0.00    +0.000 H 
ENDBRANCH    2    1
ENDBRANCH    3    2
ENDBRANCH    7    6
BRANCH   87   88
ATOM    133  H36 UNL A   1      59.376  23.874  10.829  1.00  0.00    +0.000 H 
ATOM    134  H37 UNL A   1      60.928  24.944  12.347  1.00  0.00    +0.000 H 
ATOM    138  H41 UNL A   1      58.590  23.732  15.615  1.00  0.00    +0.000 H 
ATOM    139  H42 UNL A   1      57.032  22.650  14.098  1.00  0.00    +0.000 H 
ATOM     88  C62 UNL A   1      58.072  23.183  12.340  1.00  0.00    +0.000 C 
ATOM     89  C63 UNL A   1      59.204  23.843  11.846  1.00  0.00    +0.000 C 
ATOM     90  C64 UNL A   1      60.098  24.459  12.722  1.00  0.00    +0.000 C 
ATOM     91  C65 UNL A   1      59.880  24.427  14.099  1.00  0.00    +0.000 C 
ATOM     94  C67 UNL A   1      58.757  23.763  14.598  1.00  0.00    +0.000 C 
ATOM     95  C68 UNL A   1      57.858  23.141  13.721  1.00  0.00    +0.000 C 
BRANCH   91   92
ATOM     92  O5  UNL A   1      60.832  25.072  14.838  1.00  0.00    +0.000 O 
BRANCH   92   93
ATOM    137  H40 UNL A   1      59.492  26.543  15.301  1.00  0.00    +0.000 H 
ATOM     93  C66 UNL A   1      60.551  26.408  15.229  1.00  0.00    +0.000 C 
ATOM    135  H38 UNL A   1      60.947  27.084  14.501  1.00  0.00    +0.000 H 
ATOM    136  H39 UNL A   1      61.000  26.604  16.180  1.00  0.00    +0.000 H 
ENDBRANCH   92   93
ENDBRANCH   91   92
ENDBRANCH   87   88
ENDBRANCH   11   10
ENDBRANCH   12   11
ENDBRANCH   14   12
ENDBRANCH   15   14
ENDBRANCH   16   15
ENDBRANCH   17   16
ENDBRANCH   18   17
ENDBRANCH   19   18
ENDBRANCH   20   19
ENDBRANCH   21   20
ENDBRANCH   22   21
ENDBRANCH   24   22
ENDBRANCH   28   27
BRANCH   32   33
ATOM     33  C25 UNL A   1      59.439  13.978   9.224  1.00  0.00    +0.000 C 
ATOM     34  C26 UNL A   1      59.358  12.652   9.678  1.00  0.00    +0.000 C 
ATOM     35  F1  UNL A   1      58.180  12.143  10.068  1.00  0.00    +0.000 F 
ATOM     36  C27 UNL A   1      60.496  11.855   9.763  1.00  0.00    +0.000 C 
ATOM     37  F2  UNL A   1      60.401  10.605  10.238  1.00  0.00    +0.000 F 
ATOM     38  C28 UNL A   1      61.729  12.354   9.369  1.00  0.00    +0.000 C 
ATOM     39  F3  UNL A   1      62.822  11.582   9.445  1.00  0.00    +0.000 F 
ATOM     40  C29 UNL A   1      61.828  13.655   8.900  1.00  0.00    +0.000 C 
ATOM     41  F4  UNL A   1      63.016  14.136   8.507  1.00  0.00    +0.000 F 
ATOM     42  C30 UNL A   1      60.697  14.465   8.837  1.00  0.00    +0.000 C 
ATOM     43  F5  UNL A   1      60.827  15.722   8.390  1.00  0.00    +0.000 F 
ENDBRANCH   32   33
BRANCH   49   50
ATOM     50  C36 UNL A   1      54.691  15.899   4.163  1.00  0.00    +0.000 C 
ATOM     51  C37 UNL A   1      55.559  16.368   3.165  1.00  0.00    +0.000 C 
ATOM     52  F6  UNL A   1      56.606  17.140   3.490  1.00  0.00    +0.000 F 
ATOM     53  C38 UNL A   1      55.332  16.068   1.825  1.00  0.00    +0.000 C 
ATOM     54  F7  UNL A   1      56.154  16.555   0.884  1.00  0.00    +0.000 F 
ATOM     55  C39 UNL A   1      54.255  15.275   1.460  1.00  0.00    +0.000 C 
ATOM     56  F8  UNL A   1      54.045  14.980   0.169  1.00  0.00    +0.000 F 
ATOM     57  C40 UNL A   1      53.391  14.794   2.432  1.00  0.00    +0.000 C 
ATOM     58  F9  UNL A   1      52.354  14.019   2.081  1.00  0.00    +0.000 F 
ATOM     59  C41 UNL A   1      53.599  15.111   3.771  1.00  0.00    +0.000 C 
ATOM     60  F10 UNL A   1      52.743  14.637   4.688  1.00  0.00    +0.000 F 
ENDBRANCH   49   50
BRANCH   64   65
ATOM     65  C45 UNL A   1      51.552  20.070   8.771  1.00  0.00    +0.000 C 
ATOM     66  C46 UNL A   1      51.753  21.455   8.851  1.00  0.00    +0.000 C 
ATOM     67  F11 UNL A   1      52.989  21.941   9.036  1.00  0.00    +0.000 F 
ATOM     68  C47 UNL A   1      50.683  22.342   8.779  1.00  0.00    +0.000 C 
ATOM     69  F12 UNL A   1      50.897  23.660   8.895  1.00  0.00    +0.000 F 
ATOM     70  C48 UNL A   1      49.393  21.863   8.599  1.00  0.00    +0.000 C 
ATOM     71  F13 UNL A   1      48.363  22.718   8.524  1.00  0.00    +0.000 F 
ATOM     72  C49 UNL A   1      49.171  20.498   8.505  1.00  0.00    +0.000 C 
ATOM     73  F14 UNL A   1      47.928  20.033   8.320  1.00  0.00    +0.000 F 
ATOM     74  C50 UNL A   1      50.238  19.608   8.601  1.00  0.00    +0.000 C 
ATOM     75  F15 UNL A   1      49.995  18.292   8.518  1.00  0.00    +0.000 F 
ENDBRANCH   64   65
TORSDOF 22
ENDMDL
MODEL 10
REMARK VINA RESULT:      -6.9     51.002     55.467
ROOT
ATOM    129  H32 UNL A   1      35.616  40.954  43.987  1.00  0.00    +0.000 H 
ATOM    130  H33 UNL A   1      33.762  39.196  43.793  1.00  0.00    +0.000 H 
ATOM     28  C21 UNL A   1      31.390  39.874  45.215  1.00  0.00    +0.000 C 
ATOM     29  C22 UNL A   1      32.618  40.718  45.026  1.00  0.00    +0.000 C 
ATOM     30  N4  UNL A   1      32.866  41.928  45.460  1.00  0.00    +0.000 N 
ATOM     31  C23 UNL A   1      34.159  42.220  45.045  1.00  0.00    +0.000 C 
ATOM     32  C24 UNL A   1      34.856  43.369  45.208  1.00  0.00    +0.000 C 
ATOM     44  C31 UNL A   1      34.344  44.543  45.865  1.00  0.00    +0.000 C 
ATOM     45  C32 UNL A   1      34.945  45.782  46.010  1.00  0.00    +0.000 C 
ATOM     46  C33 UNL A   1      34.092  46.596  46.762  1.00  0.00    +0.000 C 
ATOM     47  C34 UNL A   1      32.943  45.878  47.053  1.00  0.00    +0.000 C 
ATOM     48  N5  UNL A   1      33.110  44.622  46.492  1.00  0.00    +0.000 N 
ATOM     49  C35 UNL A   1      31.783  46.300  47.795  1.00  0.00    +0.000 C 
ATOM     61  C42 UNL A   1      30.667  45.555  47.983  1.00  0.00    +0.000 C 
ATOM     62  N6  UNL A   1      30.391  44.271  47.535  1.00  0.00    +0.000 N 
ATOM     63  C43 UNL A   1      29.194  43.984  47.982  1.00  0.00    +0.000 C 
ATOM     64  C44 UNL A   1      28.387  42.729  47.792  1.00  0.00    +0.000 C 
ATOM     76  C51 UNL A   1      28.899  41.719  47.064  1.00  0.00    +0.000 C 
ATOM     77  C52 UNL A   1      28.243  40.438  46.817  1.00  0.00    +0.000 C 
ATOM     78  C53 UNL A   1      29.082  39.642  46.133  1.00  0.00    +0.000 C 
ATOM     79  C54 UNL A   1      30.318  40.374  45.858  1.00  0.00    +0.000 C 
ATOM     80  N7  UNL A   1      30.107  41.609  46.419  1.00  0.00    +0.000 N 
ATOM     81  C55 UNL A   1      28.578  45.053  48.782  1.00  0.00    +0.000 C 
ATOM     82  C56 UNL A   1      29.506  45.998  48.725  1.00  0.00    +0.000 C 
ATOM     83  C57 UNL A   1      34.658  41.048  44.359  1.00  0.00    +0.000 C 
ATOM     84  C58 UNL A   1      33.724  40.112  44.269  1.00  0.00    +0.000 C 
ATOM    121  H24 UNL A   1      35.864  46.058  45.628  1.00  0.00    +0.000 H 
ATOM    122  H25 UNL A   1      34.285  47.568  47.051  1.00  0.00    +0.000 H 
ATOM    123  H26 UNL A   1      32.449  43.892  46.533  1.00  0.00    +0.000 H 
ATOM    124  H27 UNL A   1      27.290  40.185  47.119  1.00  0.00    +0.000 H 
ATOM    125  H28 UNL A   1      28.885  38.670  45.848  1.00  0.00    +0.000 H 
ATOM    126  H29 UNL A   1      30.758  42.346  46.364  1.00  0.00    +0.000 H 
ATOM    127  H30 UNL A   1      27.664  45.064  49.262  1.00  0.00    +0.000 H 
ATOM    128  H31 UNL A   1      29.412  46.932  49.156  1.00  0.00    +0.000 H 
ENDROOT
BRANCH   28   27
ATOM    131  H34 UNL A   1      32.067  37.713  46.633  1.00  0.00    +0.000 H 
ATOM    132  H35 UNL A   1      32.074  35.388  45.951  1.00  0.00    +0.000 H 
ATOM     27  C20 UNL A   1      31.384  38.457  44.774  1.00  0.00    +0.000 C 
ATOM     85  C59 UNL A   1      31.764  37.456  45.681  1.00  0.00    +0.000 C 
ATOM     86  C60 UNL A   1      31.735  36.115  45.303  1.00  0.00    +0.000 C 
ATOM    119  H22 UNL A   1      30.594  36.485  42.169  1.00  0.00    +0.000 H 
ATOM     24  C17 UNL A   1      31.245  35.759  44.043  1.00  0.00    +0.000 C 
ATOM     25  C18 UNL A   1      30.906  36.749  43.116  1.00  0.00    +0.000 C 
ATOM     26  C19 UNL A   1      30.989  38.096  43.476  1.00  0.00    +0.000 C 
ATOM    120  H23 UNL A   1      30.761  38.828  42.787  1.00  0.00    +0.000 H 
BRANCH   24   22
ATOM     22  C16 UNL A   1      31.094  34.339  43.661  1.00  0.00    +0.000 C 
ATOM     23  O4  UNL A   1      32.034  33.564  43.819  1.00  0.00    +0.000 O 
BRANCH   22   21
ATOM     21  N3  UNL A   1      29.914  33.892  43.123  1.00  0.00    +0.000 N 
ATOM    118  H21 UNL A   1      29.938  33.694  42.159  1.00  0.00    +0.000 H 
BRANCH   21   20
ATOM    116  H19 UNL A   1      28.220  32.746  43.419  1.00  0.00    +0.000 H 
ATOM     20  C15 UNL A   1      28.631  33.669  43.774  1.00  0.00    +0.000 C 
ATOM    117  H20 UNL A   1      28.798  33.639  44.830  1.00  0.00    +0.000 H 
BRANCH   20   19
ATOM    114  H17 UNL A   1      28.038  35.399  42.703  1.00  0.00    +0.000 H 
ATOM     19  C14 UNL A   1      27.637  34.792  43.487  1.00  0.00    +0.000 C 
ATOM    115  H18 UNL A   1      26.714  34.320  43.225  1.00  0.00    +0.000 H 
BRANCH   19   18
ATOM    113  H16 UNL A   1      26.278  35.642  44.839  1.00  0.00    +0.000 H 
ATOM     18  C13 UNL A   1      27.334  35.698  44.684  1.00  0.00    +0.000 C 
ATOM    112  H15 UNL A   1      27.681  36.683  44.449  1.00  0.00    +0.000 H 
BRANCH   18   17
ATOM     17  C12 UNL A   1      27.981  35.273  46.008  1.00  0.00    +0.000 C 
ATOM    110  H13 UNL A   1      28.478  34.338  45.849  1.00  0.00    +0.000 H 
ATOM    111  H14 UNL A   1      28.643  36.066  46.284  1.00  0.00    +0.000 H 
BRANCH   17   16
ATOM    108  H11 UNL A   1      26.308  34.332  46.933  1.00  0.00    +0.000 H 
ATOM    109  H12 UNL A   1      27.597  34.851  48.042  1.00  0.00    +0.000 H 
ATOM     16  C11 UNL A   1      27.009  35.100  47.183  1.00  0.00    +0.000 C 
BRANCH   16   15
ATOM    106  H9  UNL A   1      26.551  36.730  48.483  1.00  0.00    +0.000 H 
ATOM    107  H10 UNL A   1      26.423  37.102  46.767  1.00  0.00    +0.000 H 
ATOM     15  C10 UNL A   1      26.231  36.372  47.526  1.00  0.00    +0.000 C 
BRANCH   15   14
ATOM    105  H8  UNL A   1      24.284  36.715  48.155  1.00  0.00    +0.000 H 
ATOM     14  N2  UNL A   1      24.805  36.119  47.570  1.00  0.00    +0.000 N 
BRANCH   14   12
ATOM     12  C9  UNL A   1      24.087  35.163  46.908  1.00  0.00    +0.000 C 
ATOM     13  O3  UNL A   1      23.936  34.068  47.454  1.00  0.00    +0.000 O 
BRANCH   12   11
ATOM     11  C8  UNL A   1      23.592  35.415  45.496  1.00  0.00    +0.000 C 
ATOM    103  H6  UNL A   1      22.945  36.268  45.507  1.00  0.00    +0.000 H 
ATOM    104  H7  UNL A   1      24.448  35.578  44.876  1.00  0.00    +0.000 H 
BRANCH   11   10
ATOM      7  C6  UNL A   1      21.537  32.592  44.290  1.00  0.00    +0.000 C 
ATOM      8  N1  UNL A   1      22.764  32.315  43.826  1.00  0.00    +0.000 N 
ATOM      9  O2  UNL A   1      23.570  33.367  44.212  1.00  0.00    +0.000 O 
ATOM     10  C7  UNL A   1      22.847  34.261  44.938  1.00  0.00    +0.000 C 
ATOM     87  C61 UNL A   1      21.534  33.837  44.990  1.00  0.00    +0.000 C 
BRANCH    7    6
ATOM     97  C70 UNL A   1      18.198  31.205  43.231  1.00  0.00    +0.000 C 
ATOM      3  C2  UNL A   1      18.169  29.997  43.928  1.00  0.00    +0.000 C 
ATOM      4  C3  UNL A   1      19.270  29.625  44.703  1.00  0.00    +0.000 C 
ATOM    101  H4  UNL A   1      19.252  28.731  45.219  1.00  0.00    +0.000 H 
ATOM      5  C4  UNL A   1      20.395  30.450  44.786  1.00  0.00    +0.000 C 
ATOM    102  H5  UNL A   1      21.209  30.156  45.349  1.00  0.00    +0.000 H 
ATOM      6  C5  UNL A   1      20.420  31.672  44.107  1.00  0.00    +0.000 C 
ATOM    140  H43 UNL A   1      19.337  32.928  42.798  1.00  0.00    +0.000 H 
ATOM    141  H44 UNL A   1      17.392  31.485  42.651  1.00  0.00    +0.000 H 
ATOM     96  C69 UNL A   1      19.320  32.037  43.319  1.00  0.00    +0.000 C 
BRANCH    3    2
ATOM      2  O1  UNL A   1      17.124  29.114  43.952  1.00  0.00    +0.000 O 
BRANCH    2    1
ATOM      1  C1  UNL A   1      17.443  27.747  43.728  1.00  0.00    +0.000 C 
ATOM     98  H1  UNL A   1      17.318  27.517  42.690  1.00  0.00    +0.000 H 
ATOM     99  H2  UNL A   1      16.794  27.128  44.310  1.00  0.00    +0.000 H 
ATOM    100  H3  UNL A   1      18.459  27.566  44.013  1.00  0.00    +0.000 H 
ENDBRANCH    2    1
ENDBRANCH    3    2
ENDBRANCH    7    6
BRANCH   87   88
ATOM    133  H36 UNL A   1      21.052  33.651  47.598  1.00  0.00    +0.000 H 
ATOM    134  H37 UNL A   1      19.302  34.726  48.878  1.00  0.00    +0.000 H 
ATOM    138  H41 UNL A   1      17.860  36.564  45.390  1.00  0.00    +0.000 H 
ATOM    139  H42 UNL A   1      19.608  35.482  44.098  1.00  0.00    +0.000 H 
ATOM     88  C62 UNL A   1      20.479  34.487  45.745  1.00  0.00    +0.000 C 
ATOM     89  C63 UNL A   1      20.376  34.271  47.124  1.00  0.00    +0.000 C 
ATOM     90  C64 UNL A   1      19.366  34.891  47.861  1.00  0.00    +0.000 C 
ATOM     91  C65 UNL A   1      18.445  35.733  47.238  1.00  0.00    +0.000 C 
ATOM     94  C67 UNL A   1      18.538  35.946  45.861  1.00  0.00    +0.000 C 
ATOM     95  C68 UNL A   1      19.549  35.323  45.117  1.00  0.00    +0.000 C 
BRANCH   91   92
ATOM     92  O5  UNL A   1      17.514  36.274  48.078  1.00  0.00    +0.000 O 
BRANCH   92   93
ATOM    137  H40 UNL A   1      16.321  36.539  46.440  1.00  0.00    +0.000 H 
ATOM     93  C66 UNL A   1      16.289  36.700  47.498  1.00  0.00    +0.000 C 
ATOM    135  H38 UNL A   1      16.143  37.740  47.695  1.00  0.00    +0.000 H 
ATOM    136  H39 UNL A   1      15.481  36.139  47.918  1.00  0.00    +0.000 H 
ENDBRANCH   92   93
ENDBRANCH   91   92
ENDBRANCH   87   88
ENDBRANCH   11   10
ENDBRANCH   12   11
ENDBRANCH   14   12
ENDBRANCH   15   14
ENDBRANCH   16   15
ENDBRANCH   17   16
ENDBRANCH   18   17
ENDBRANCH   19   18
ENDBRANCH   20   19
ENDBRANCH   21   20
ENDBRANCH   22   21
ENDBRANCH   24   22
ENDBRANCH   28   27
BRANCH   32   33
ATOM     33  C25 UNL A   1      36.252  43.417  44.664  1.00  0.00    +0.000 C 
ATOM     34  C26 UNL A   1      36.526  43.926  43.385  1.00  0.00    +0.000 C 
ATOM     35  F1  UNL A   1      35.524  44.340  42.596  1.00  0.00    +0.000 F 
ATOM     36  C27 UNL A   1      37.830  43.981  42.901  1.00  0.00    +0.000 C 
ATOM     37  F2  UNL A   1      38.062  44.434  41.661  1.00  0.00    +0.000 F 
ATOM     38  C28 UNL A   1      38.887  43.559  43.694  1.00  0.00    +0.000 C 
ATOM     39  F3  UNL A   1      40.142  43.620  43.229  1.00  0.00    +0.000 F 
ATOM     40  C29 UNL A   1      38.641  43.069  44.968  1.00  0.00    +0.000 C 
ATOM     41  F4  UNL A   1      39.662  42.671  45.740  1.00  0.00    +0.000 F 
ATOM     42  C30 UNL A   1      37.335  42.988  45.446  1.00  0.00    +0.000 C 
ATOM     43  F5  UNL A   1      37.129  42.499  46.678  1.00  0.00    +0.000 F 
ENDBRANCH   32   33
BRANCH   49   50
ATOM     50  C36 UNL A   1      31.802  47.673  48.396  1.00  0.00    +0.000 C 
ATOM     51  C37 UNL A   1      32.323  47.900  49.678  1.00  0.00    +0.000 C 
ATOM     52  F6  UNL A   1      32.759  46.872  50.422  1.00  0.00    +0.000 F 
ATOM     53  C38 UNL A   1      32.369  49.185  50.212  1.00  0.00    +0.000 C 
ATOM     54  F7  UNL A   1      32.839  49.376  51.453  1.00  0.00    +0.000 F 
ATOM     55  C39 UNL A   1      31.923  50.266  49.467  1.00  0.00    +0.000 C 
ATOM     56  F8  UNL A   1      31.977  51.503  49.979  1.00  0.00    +0.000 F 
ATOM     57  C40 UNL A   1      31.412  50.063  48.193  1.00  0.00    +0.000 C 
ATOM     58  F9  UNL A   1      30.989  51.109  47.468  1.00  0.00    +0.000 F 
ATOM     59  C41 UNL A   1      31.342  48.778  47.665  1.00  0.00    +0.000 C 
ATOM     60  F10 UNL A   1      30.837  48.611  46.434  1.00  0.00    +0.000 F 
ENDBRANCH   49   50
BRANCH   64   65
ATOM     65  C45 UNL A   1      27.034  42.597  48.390  1.00  0.00    +0.000 C 
ATOM     66  C46 UNL A   1      25.892  42.974  47.670  1.00  0.00    +0.000 C 
ATOM     67  F11 UNL A   1      26.019  43.486  46.436  1.00  0.00    +0.000 F 
ATOM     68  C47 UNL A   1      24.621  42.862  48.226  1.00  0.00    +0.000 C 
ATOM     69  F12 UNL A   1      23.549  43.265  47.531  1.00  0.00    +0.000 F 
ATOM     70  C48 UNL A   1      24.465  42.346  49.505  1.00  0.00    +0.000 C 
ATOM     71  F13 UNL A   1      23.241  42.234  50.039  1.00  0.00    +0.000 F 
ATOM     72  C49 UNL A   1      25.579  41.955  50.232  1.00  0.00    +0.000 C 
ATOM     73  F14 UNL A   1      25.430  41.447  51.463  1.00  0.00    +0.000 F 
ATOM     74  C50 UNL A   1      26.853  42.089  49.685  1.00  0.00    +0.000 C 
ATOM     75  F15 UNL A   1      27.914  41.714  50.413  1.00  0.00    +0.000 F 
ENDBRANCH   64   65
TORSDOF 22
ENDMDL
