MODEL 1
REMARK VINA RESULT:     -11.6      0.000      0.000
ROOT
ATOM     28  C19 UNL A   1      24.223  36.830  45.785  1.00  0.00    +0.000 C 
ATOM     29  C20 UNL A   1      25.636  36.497  45.401  1.00  0.00    +0.000 C 
ATOM     30  N5  UNL A   1      26.745  37.131  45.689  1.00  0.00    +0.000 N 
ATOM     31  C21 UNL A   1      27.767  36.374  45.133  1.00  0.00    +0.000 C 
ATOM     32  C22 UNL A   1      29.096  36.641  45.100  1.00  0.00    +0.000 C 
ATOM     44  C29 UNL A   1      29.700  37.816  45.670  1.00  0.00    +0.000 C 
ATOM     45  C30 UNL A   1      31.025  38.213  45.633  1.00  0.00    +0.000 C 
ATOM     46  C31 UNL A   1      31.148  39.400  46.363  1.00  0.00    +0.000 C 
ATOM     47  C32 UNL A   1      29.892  39.769  46.818  1.00  0.00    +0.000 C 
ATOM     48  N6  UNL A   1      29.014  38.786  46.389  1.00  0.00    +0.000 N 
ATOM     49  C33 UNL A   1      29.519  40.930  47.584  1.00  0.00    +0.000 C 
ATOM     61  C40 UNL A   1      28.257  41.229  47.981  1.00  0.00    +0.000 C 
ATOM     62  N7  UNL A   1      27.083  40.522  47.760  1.00  0.00    +0.000 N 
ATOM     63  C41 UNL A   1      26.133  41.206  48.348  1.00  0.00    +0.000 C 
ATOM     64  C42 UNL A   1      24.659  40.917  48.414  1.00  0.00    +0.000 C 
ATOM     76  C49 UNL A   1      24.166  39.855  47.751  1.00  0.00    +0.000 C 
ATOM     77  C50 UNL A   1      22.759  39.465  47.706  1.00  0.00    +0.000 C 
ATOM     78  C51 UNL A   1      22.642  38.331  46.998  1.00  0.00    +0.000 C 
ATOM     79  C52 UNL A   1      23.964  37.931  46.514  1.00  0.00    +0.000 C 
ATOM     80  N8  UNL A   1      24.804  38.905  46.993  1.00  0.00    +0.000 N 
ATOM     81  C53 UNL A   1      26.601  42.422  49.029  1.00  0.00    +0.000 C 
ATOM     82  C54 UNL A   1      27.897  42.406  48.746  1.00  0.00    +0.000 C 
ATOM     83  C55 UNL A   1      27.154  35.206  44.540  1.00  0.00    +0.000 C 
ATOM     84  C56 UNL A   1      25.833  35.269  44.616  1.00  0.00    +0.000 C 
ATOM    117  H22 UNL A   1      31.791  37.718  45.149  1.00  0.00    +0.000 H 
ATOM    118  H23 UNL A   1      32.026  39.916  46.534  1.00  0.00    +0.000 H 
ATOM    119  H24 UNL A   1      28.046  38.776  46.566  1.00  0.00    +0.000 H 
ATOM    120  H25 UNL A   1      21.981  39.978  48.149  1.00  0.00    +0.000 H 
ATOM    121  H26 UNL A   1      21.762  37.821  46.823  1.00  0.00    +0.000 H 
ATOM    122  H27 UNL A   1      25.772  38.920  46.811  1.00  0.00    +0.000 H 
ATOM    123  H28 UNL A   1      26.063  43.108  49.581  1.00  0.00    +0.000 H 
ATOM    124  H29 UNL A   1      28.564  43.139  49.033  1.00  0.00    +0.000 H 
ATOM    125  H30 UNL A   1      27.678  34.425  44.114  1.00  0.00    +0.000 H 
ATOM    126  H31 UNL A   1      25.127  34.625  44.227  1.00  0.00    +0.000 H 
ENDROOT
BRANCH   28   27
ATOM    115  H20 UNL A   1      21.707  32.987  46.306  1.00  0.00    +0.000 H 
ATOM    116  H21 UNL A   1      23.454  34.528  46.990  1.00  0.00    +0.000 H 
ATOM     85  C57 UNL A   1      22.287  36.216  44.333  1.00  0.00    +0.000 C 
ATOM     86  C58 UNL A   1      21.233  35.371  43.992  1.00  0.00    +0.000 C 
ATOM     24  C15 UNL A   1      21.058  34.164  44.675  1.00  0.00    +0.000 C 
ATOM     25  C16 UNL A   1      21.862  33.859  45.778  1.00  0.00    +0.000 C 
ATOM     26  C17 UNL A   1      22.877  34.739  46.162  1.00  0.00    +0.000 C 
ATOM     27  C18 UNL A   1      23.115  35.910  45.424  1.00  0.00    +0.000 C 
ATOM    127  H32 UNL A   1      22.460  37.070  43.780  1.00  0.00    +0.000 H 
ATOM    128  H33 UNL A   1      20.583  35.636  43.236  1.00  0.00    +0.000 H 
BRANCH   24   22
ATOM     22  C14 UNL A   1      20.015  33.197  44.269  1.00  0.00    +0.000 C 
ATOM     23  O4  UNL A   1      20.268  31.996  44.264  1.00  0.00    +0.000 O 
BRANCH   22   21
ATOM    114  H19 UNL A   1      18.613  33.639  42.911  1.00  0.00    +0.000 H 
ATOM     21  N4  UNL A   1      18.778  33.643  43.882  1.00  0.00    +0.000 N 
BRANCH   21   20
ATOM    113  H18 UNL A   1      17.927  35.103  45.041  1.00  0.00    +0.000 H 
ATOM     20  C13 UNL A   1      17.676  34.121  44.697  1.00  0.00    +0.000 C 
ATOM    112  H17 UNL A   1      17.534  33.444  45.514  1.00  0.00    +0.000 H 
BRANCH   20   19
ATOM     19  C12 UNL A   1      16.372  34.222  43.914  1.00  0.00    +0.000 C 
ATOM    110  H15 UNL A   1      15.958  35.195  44.084  1.00  0.00    +0.000 H 
ATOM    111  H16 UNL A   1      16.626  34.040  42.890  1.00  0.00    +0.000 H 
BRANCH   19   18
ATOM     18  C11 UNL A   1      15.310  33.183  44.281  1.00  0.00    +0.000 C 
ATOM    108  H13 UNL A   1      14.965  33.401  45.271  1.00  0.00    +0.000 H 
ATOM    109  H14 UNL A   1      14.551  33.262  43.532  1.00  0.00    +0.000 H 
BRANCH   18   17
ATOM     17  C10 UNL A   1      15.775  31.723  44.255  1.00  0.00    +0.000 C 
ATOM    106  H11 UNL A   1      16.837  31.714  44.388  1.00  0.00    +0.000 H 
ATOM    107  H12 UNL A   1      15.238  31.230  45.037  1.00  0.00    +0.000 H 
BRANCH   17   16
ATOM    105  H10 UNL A   1      15.670  31.615  42.158  1.00  0.00    +0.000 H 
ATOM    104  H9  UNL A   1      14.427  30.656  43.008  1.00  0.00    +0.000 H 
ATOM     16  C9  UNL A   1      15.454  30.952  42.971  1.00  0.00    +0.000 C 
BRANCH   16   15
ATOM    103  H8  UNL A   1      16.755  29.428  43.676  1.00  0.00    +0.000 H 
ATOM    102  H7  UNL A   1      17.052  29.915  42.014  1.00  0.00    +0.000 H 
ATOM     15  C8  UNL A   1      16.302  29.704  42.747  1.00  0.00    +0.000 C 
BRANCH   15   14
ATOM    101  H6  UNL A   1      14.724  28.894  41.735  1.00  0.00    +0.000 H 
ATOM     14  N3  UNL A   1      15.485  28.602  42.286  1.00  0.00    +0.000 N 
BRANCH   14   12
ATOM     12  C7  UNL A   1      15.536  27.241  42.445  1.00  0.00    +0.000 C 
ATOM     13  O3  UNL A   1      16.178  26.812  43.402  1.00  0.00    +0.000 O 
BRANCH   12   11
ATOM    129  H34 UNL A   1      15.601  26.747  39.528  1.00  0.00    +0.000 H 
ATOM    130  H35 UNL A   1      14.048  27.340  39.826  1.00  0.00    +0.000 H 
ATOM    131  H36 UNL A   1      13.108  25.170  39.257  1.00  0.00    +0.000 H 
ATOM      9  N1  UNL A   1      14.295  24.329  40.775  1.00  0.00    +0.000 N 
ATOM     10  N2  UNL A   1      14.580  25.056  41.888  1.00  0.00    +0.000 N 
ATOM     11  C6  UNL A   1      14.913  26.244  41.481  1.00  0.00    +0.000 C 
ATOM     87  C59 UNL A   1      14.687  26.508  40.031  1.00  0.00    +0.000 C 
ATOM     88  C60 UNL A   1      14.131  25.154  39.574  1.00  0.00    +0.000 C 
BRANCH    9    8
ATOM     99  H4  UNL A   1      12.100  21.081  43.104  1.00  0.00    +0.000 H 
ATOM    100  H5  UNL A   1      13.164  23.258  42.955  1.00  0.00    +0.000 H 
ATOM      5  C2  UNL A   1      12.438  20.575  41.079  1.00  0.00    +0.000 C 
ATOM      6  C3  UNL A   1      12.500  21.399  42.208  1.00  0.00    +0.000 C 
ATOM      7  C4  UNL A   1      13.109  22.657  42.117  1.00  0.00    +0.000 C 
ATOM    136  H41 UNL A   1      12.926  20.396  39.032  1.00  0.00    +0.000 H 
ATOM    135  H40 UNL A   1      13.964  22.576  38.891  1.00  0.00    +0.000 H 
ATOM      8  C5  UNL A   1      13.642  23.108  40.904  1.00  0.00    +0.000 C 
ATOM     94  C65 UNL A   1      13.568  22.261  39.790  1.00  0.00    +0.000 C 
ATOM     95  C66 UNL A   1      12.971  21.003  39.866  1.00  0.00    +0.000 C 
BRANCH    5    2
ATOM      2  S1  UNL A   1      11.711  18.965  41.253  1.00  0.00    +0.000 S 
ATOM      3  O1  UNL A   1      10.503  19.145  42.034  1.00  0.00    +0.000 O 
ATOM      4  O2  UNL A   1      12.768  18.076  41.696  1.00  0.00    +0.000 O 
BRANCH    2    1
ATOM      1  C1  UNL A   1      11.229  18.438  39.631  1.00  0.00    +0.000 C 
ATOM     98  H3  UNL A   1      10.189  18.645  39.483  1.00  0.00    +0.000 H 
ATOM     97  H2  UNL A   1      11.805  18.963  38.899  1.00  0.00    +0.000 H 
ATOM     96  H1  UNL A   1      11.400  17.386  39.533  1.00  0.00    +0.000 H 
ENDBRANCH    2    1
ENDBRANCH    5    2
ENDBRANCH    9    8
BRANCH   88   89
ATOM    132  H37 UNL A   1      13.692  25.332  36.584  1.00  0.00    +0.000 H 
ATOM    133  H38 UNL A   1      15.479  23.906  35.239  1.00  0.00    +0.000 H 
ATOM    134  H39 UNL A   1      17.101  22.910  36.985  1.00  0.00    +0.000 H 
ATOM     89  C61 UNL A   1      14.787  24.651  38.321  1.00  0.00    +0.000 C 
ATOM     90  C62 UNL A   1      14.472  24.786  36.982  1.00  0.00    +0.000 C 
ATOM     91  C63 UNL A   1      15.430  24.032  36.263  1.00  0.00    +0.000 C 
ATOM     92  C64 UNL A   1      16.283  23.502  37.201  1.00  0.00    +0.000 C 
ATOM     93  O5  UNL A   1      15.899  23.865  38.449  1.00  0.00    +0.000 O 
ENDBRANCH   88   89
ENDBRANCH   12   11
ENDBRANCH   14   12
ENDBRANCH   15   14
ENDBRANCH   16   15
ENDBRANCH   17   16
ENDBRANCH   18   17
ENDBRANCH   19   18
ENDBRANCH   20   19
ENDBRANCH   21   20
ENDBRANCH   22   21
ENDBRANCH   24   22
ENDBRANCH   28   27
BRANCH   32   33
ATOM     33  C23 UNL A   1      29.982  35.637  44.421  1.00  0.00    +0.000 C 
ATOM     34  C24 UNL A   1      30.386  34.457  45.066  1.00  0.00    +0.000 C 
ATOM     35  F1  UNL A   1      29.998  34.210  46.326  1.00  0.00    +0.000 F 
ATOM     36  C25 UNL A   1      31.233  33.550  44.436  1.00  0.00    +0.000 C 
ATOM     37  F2  UNL A   1      31.654  32.461  45.095  1.00  0.00    +0.000 F 
ATOM     38  C26 UNL A   1      31.661  33.782  43.138  1.00  0.00    +0.000 C 
ATOM     39  F3  UNL A   1      32.479  32.909  42.534  1.00  0.00    +0.000 F 
ATOM     40  C27 UNL A   1      31.250  34.925  42.470  1.00  0.00    +0.000 C 
ATOM     41  F4  UNL A   1      31.653  35.145  41.211  1.00  0.00    +0.000 F 
ATOM     42  C28 UNL A   1      30.426  35.850  43.107  1.00  0.00    +0.000 C 
ATOM     43  F5  UNL A   1      30.066  36.958  42.442  1.00  0.00    +0.000 F 
ENDBRANCH   32   33
BRANCH   49   50
ATOM     50  C34 UNL A   1      30.602  41.898  47.960  1.00  0.00    +0.000 C 
ATOM     51  C35 UNL A   1      30.856  43.047  47.197  1.00  0.00    +0.000 C 
ATOM     52  F6  UNL A   1      30.161  43.276  46.072  1.00  0.00    +0.000 F 
ATOM     53  C36 UNL A   1      31.852  43.947  47.568  1.00  0.00    +0.000 C 
ATOM     54  F7  UNL A   1      32.106  45.015  46.800  1.00  0.00    +0.000 F 
ATOM     55  C37 UNL A   1      32.589  43.731  48.722  1.00  0.00    +0.000 C 
ATOM     56  F8  UNL A   1      33.543  44.601  49.082  1.00  0.00    +0.000 F 
ATOM     57  C38 UNL A   1      32.343  42.610  49.501  1.00  0.00    +0.000 C 
ATOM     58  F9  UNL A   1      33.048  42.406  50.623  1.00  0.00    +0.000 F 
ATOM     59  C39 UNL A   1      31.367  41.695  49.118  1.00  0.00    +0.000 C 
ATOM     60  F10 UNL A   1      31.159  40.614  49.885  1.00  0.00    +0.000 F 
ENDBRANCH   49   50
BRANCH   64   65
ATOM     65  C43 UNL A   1      23.736  41.796  49.174  1.00  0.00    +0.000 C 
ATOM     66  C44 UNL A   1      23.173  42.935  48.582  1.00  0.00    +0.000 C 
ATOM     67  F11 UNL A   1      23.507  43.270  47.327  1.00  0.00    +0.000 F 
ATOM     68  C45 UNL A   1      22.287  43.747  49.285  1.00  0.00    +0.000 C 
ATOM     69  F12 UNL A   1      21.785  44.846  48.705  1.00  0.00    +0.000 F 
ATOM     70  C46 UNL A   1      21.928  43.424  50.586  1.00  0.00    +0.000 C 
ATOM     71  F13 UNL A   1      21.065  44.199  51.257  1.00  0.00    +0.000 F 
ATOM     72  C47 UNL A   1      22.465  42.297  51.189  1.00  0.00    +0.000 C 
ATOM     73  F14 UNL A   1      22.110  41.973  52.440  1.00  0.00    +0.000 F 
ATOM     74  C48 UNL A   1      23.371  41.497  50.495  1.00  0.00    +0.000 C 
ATOM     75  F15 UNL A   1      23.876  40.414  51.103  1.00  0.00    +0.000 F 
ENDBRANCH   64   65
TORSDOF 19
ENDMDL
MODEL 2
REMARK VINA RESULT:     -10.9     36.212     48.032
ROOT
ATOM     28  C19 UNL A   1       7.961  -3.707  25.983  1.00  0.00    +0.000 C 
ATOM     29  C20 UNL A   1       6.822  -3.127  26.772  1.00  0.00    +0.000 C 
ATOM     30  N5  UNL A   1       5.711  -3.698  27.165  1.00  0.00    +0.000 N 
ATOM     31  C21 UNL A   1       5.033  -2.735  27.899  1.00  0.00    +0.000 C 
ATOM     32  C22 UNL A   1       3.803  -2.812  28.465  1.00  0.00    +0.000 C 
ATOM     44  C29 UNL A   1       2.953  -3.971  28.399  1.00  0.00    +0.000 C 
ATOM     45  C30 UNL A   1       1.666  -4.128  28.880  1.00  0.00    +0.000 C 
ATOM     46  C31 UNL A   1       1.260  -5.443  28.623  1.00  0.00    +0.000 C 
ATOM     47  C32 UNL A   1       2.275  -6.091  27.941  1.00  0.00    +0.000 C 
ATOM     48  N6  UNL A   1       3.310  -5.178  27.813  1.00  0.00    +0.000 N 
ATOM     49  C33 UNL A   1       2.302  -7.442  27.440  1.00  0.00    +0.000 C 
ATOM     61  C40 UNL A   1       3.336  -8.002  26.764  1.00  0.00    +0.000 C 
ATOM     62  N7  UNL A   1       4.556  -7.440  26.416  1.00  0.00    +0.000 N 
ATOM     63  C41 UNL A   1       5.219  -8.378  25.785  1.00  0.00    +0.000 C 
ATOM     64  C42 UNL A   1       6.589  -8.319  25.169  1.00  0.00    +0.000 C 
ATOM     76  C49 UNL A   1       7.265  -7.155  25.177  1.00  0.00    +0.000 C 
ATOM     77  C50 UNL A   1       8.590  -6.944  24.600  1.00  0.00    +0.000 C 
ATOM     78  C51 UNL A   1       8.975  -5.681  24.840  1.00  0.00    +0.000 C 
ATOM     79  C52 UNL A   1       7.909  -4.985  25.564  1.00  0.00    +0.000 C 
ATOM     80  N8  UNL A   1       6.926  -5.934  25.702  1.00  0.00    +0.000 N 
ATOM     81  C53 UNL A   1       4.498  -9.654  25.678  1.00  0.00    +0.000 C 
ATOM     82  C54 UNL A   1       3.344  -9.361  26.261  1.00  0.00    +0.000 C 
ATOM     83  C55 UNL A   1       5.880  -1.563  27.944  1.00  0.00    +0.000 C 
ATOM     84  C56 UNL A   1       6.966  -1.729  27.204  1.00  0.00    +0.000 C 
ATOM    117  H22 UNL A   1       1.102  -3.401  29.348  1.00  0.00    +0.000 H 
ATOM    118  H23 UNL A   1       0.354  -5.858  28.896  1.00  0.00    +0.000 H 
ATOM    119  H24 UNL A   1       4.172  -5.358  27.372  1.00  0.00    +0.000 H 
ATOM    120  H25 UNL A   1       9.142  -7.651  24.091  1.00  0.00    +0.000 H 
ATOM    121  H26 UNL A   1       9.877  -5.265  24.561  1.00  0.00    +0.000 H 
ATOM    122  H27 UNL A   1       6.061  -5.754  26.137  1.00  0.00    +0.000 H 
ATOM    123  H28 UNL A   1       4.808 -10.545  25.258  1.00  0.00    +0.000 H 
ATOM    124  H29 UNL A   1       2.551 -10.017  26.344  1.00  0.00    +0.000 H 
ATOM    125  H30 UNL A   1       5.667  -0.709  28.484  1.00  0.00    +0.000 H 
ATOM    126  H31 UNL A   1       7.716  -1.055  26.987  1.00  0.00    +0.000 H 
ENDROOT
BRANCH   28   27
ATOM    115  H20 UNL A   1      12.079  -1.955  27.140  1.00  0.00    +0.000 H 
ATOM    116  H21 UNL A   1      10.152  -3.376  27.542  1.00  0.00    +0.000 H 
ATOM     85  C57 UNL A   1       9.301  -2.196  24.517  1.00  0.00    +0.000 C 
ATOM     86  C58 UNL A   1      10.446  -1.446  24.253  1.00  0.00    +0.000 C 
ATOM     24  C15 UNL A   1      11.431  -1.310  25.234  1.00  0.00    +0.000 C 
ATOM     25  C16 UNL A   1      11.331  -2.024  26.432  1.00  0.00    +0.000 C 
ATOM     26  C17 UNL A   1      10.216  -2.830  26.669  1.00  0.00    +0.000 C 
ATOM     27  C18 UNL A   1       9.179  -2.899  25.725  1.00  0.00    +0.000 C 
ATOM    127  H32 UNL A   1       8.541  -2.234  23.820  1.00  0.00    +0.000 H 
ATOM    128  H33 UNL A   1      10.563  -0.990  23.334  1.00  0.00    +0.000 H 
BRANCH   24   22
ATOM     22  C14 UNL A   1      12.606  -0.437  25.025  1.00  0.00    +0.000 C 
ATOM     23  O4  UNL A   1      13.389  -0.678  24.111  1.00  0.00    +0.000 O 
BRANCH   22   21
ATOM    114  H19 UNL A   1      12.093   0.842  26.477  1.00  0.00    +0.000 H 
ATOM     21  N4  UNL A   1      12.830   0.627  25.861  1.00  0.00    +0.000 N 
BRANCH   21   20
ATOM    113  H18 UNL A   1      13.662   2.459  26.245  1.00  0.00    +0.000 H 
ATOM     20  C13 UNL A   1      13.998   1.482  25.968  1.00  0.00    +0.000 C 
ATOM    112  H17 UNL A   1      14.503   1.493  25.023  1.00  0.00    +0.000 H 
BRANCH   20   19
ATOM     19  C12 UNL A   1      14.974   1.005  27.038  1.00  0.00    +0.000 C 
ATOM    110  H15 UNL A   1      14.423   0.434  27.758  1.00  0.00    +0.000 H 
ATOM    111  H16 UNL A   1      15.723   0.438  26.527  1.00  0.00    +0.000 H 
BRANCH   19   18
ATOM     18  C11 UNL A   1      15.717   2.117  27.784  1.00  0.00    +0.000 C 
ATOM    108  H13 UNL A   1      16.260   2.691  27.062  1.00  0.00    +0.000 H 
ATOM    109  H14 UNL A   1      14.966   2.674  28.303  1.00  0.00    +0.000 H 
BRANCH   18   17
ATOM     17  C10 UNL A   1      16.707   1.648  28.855  1.00  0.00    +0.000 C 
ATOM    106  H11 UNL A   1      16.790   2.422  29.589  1.00  0.00    +0.000 H 
ATOM    107  H12 UNL A   1      16.312   0.731  29.238  1.00  0.00    +0.000 H 
BRANCH   17   16
ATOM    105  H10 UNL A   1      18.012   1.027  27.329  1.00  0.00    +0.000 H 
ATOM    104  H9  UNL A   1      18.522   0.550  28.972  1.00  0.00    +0.000 H 
ATOM     16  C9  UNL A   1      18.116   1.322  28.352  1.00  0.00    +0.000 C 
BRANCH   16   15
ATOM    103  H8  UNL A   1      18.523   3.405  28.452  1.00  0.00    +0.000 H 
ATOM    102  H7  UNL A   1      19.654   2.498  27.459  1.00  0.00    +0.000 H 
ATOM     15  C8  UNL A   1      19.086   2.500  28.366  1.00  0.00    +0.000 C 
BRANCH   15   14
ATOM    101  H6  UNL A   1      19.529   2.234  30.341  1.00  0.00    +0.000 H 
ATOM     14  N3  UNL A   1      19.992   2.410  29.491  1.00  0.00    +0.000 N 
BRANCH   14   12
ATOM     12  C7  UNL A   1      21.351   2.515  29.636  1.00  0.00    +0.000 C 
ATOM     13  O3  UNL A   1      21.991   2.905  28.661  1.00  0.00    +0.000 O 
BRANCH   12   11
ATOM    129  H34 UNL A   1      23.523   3.659  31.289  1.00  0.00    +0.000 H 
ATOM    130  H35 UNL A   1      24.230   2.338  30.510  1.00  0.00    +0.000 H 
ATOM    131  H36 UNL A   1      24.440   1.189  32.644  1.00  0.00    +0.000 H 
ATOM      9  N1  UNL A   1      22.357   1.369  32.873  1.00  0.00    +0.000 N 
ATOM     10  N2  UNL A   1      21.554   1.344  31.777  1.00  0.00    +0.000 N 
ATOM     11  C6  UNL A   1      22.110   2.114  30.891  1.00  0.00    +0.000 C 
ATOM     87  C59 UNL A   1      23.481   2.591  31.230  1.00  0.00    +0.000 C 
ATOM     88  C60 UNL A   1      23.680   1.943  32.606  1.00  0.00    +0.000 C 
BRANCH    9    8
ATOM     99  H4  UNL A   1      19.975  -1.784  35.148  1.00  0.00    +0.000 H 
ATOM    100  H5  UNL A   1      20.240  -0.210  33.318  1.00  0.00    +0.000 H 
ATOM      5  C2  UNL A   1      21.859  -1.370  36.016  1.00  0.00    +0.000 C 
ATOM      6  C3  UNL A   1      20.840  -1.227  35.068  1.00  0.00    +0.000 C 
ATOM      7  C4  UNL A   1      20.998  -0.323  34.010  1.00  0.00    +0.000 C 
ATOM    136  H41 UNL A   1      23.782  -0.730  36.608  1.00  0.00    +0.000 H 
ATOM    135  H40 UNL A   1      24.043   0.818  34.768  1.00  0.00    +0.000 H 
ATOM      8  C5  UNL A   1      22.172   0.428  33.880  1.00  0.00    +0.000 C 
ATOM     94  C65 UNL A   1      23.175   0.265  34.846  1.00  0.00    +0.000 C 
ATOM     95  C66 UNL A   1      23.029  -0.625  35.909  1.00  0.00    +0.000 C 
BRANCH    5    2
ATOM      2  S1  UNL A   1      21.592  -2.483  37.373  1.00  0.00    +0.000 S 
ATOM      3  O1  UNL A   1      22.620  -2.189  38.352  1.00  0.00    +0.000 O 
ATOM      4  O2  UNL A   1      21.452  -3.809  36.804  1.00  0.00    +0.000 O 
BRANCH    2    1
ATOM      1  C1  UNL A   1      20.028  -2.056  38.091  1.00  0.00    +0.000 C 
ATOM     98  H3  UNL A   1      19.513  -2.949  38.381  1.00  0.00    +0.000 H 
ATOM     97  H2  UNL A   1      20.187  -1.440  38.951  1.00  0.00    +0.000 H 
ATOM     96  H1  UNL A   1      19.440  -1.524  37.373  1.00  0.00    +0.000 H 
ENDBRANCH    2    1
ENDBRANCH    5    2
ENDBRANCH    9    8
BRANCH   88   89
ATOM    132  H37 UNL A   1      26.365   3.049  33.463  1.00  0.00    +0.000 H 
ATOM    133  H38 UNL A   1      26.140   4.678  35.544  1.00  0.00    +0.000 H 
ATOM    134  H39 UNL A   1      23.620   4.859  36.078  1.00  0.00    +0.000 H 
ATOM     89  C61 UNL A   1      24.213   2.905  33.628  1.00  0.00    +0.000 C 
ATOM     90  C62 UNL A   1      25.492   3.322  33.942  1.00  0.00    +0.000 C 
ATOM     91  C63 UNL A   1      25.373   4.198  35.048  1.00  0.00    +0.000 C 
ATOM     92  C64 UNL A   1      24.030   4.281  35.327  1.00  0.00    +0.000 C 
ATOM     93  O5  UNL A   1      23.320   3.498  34.478  1.00  0.00    +0.000 O 
ENDBRANCH   88   89
ENDBRANCH   12   11
ENDBRANCH   14   12
ENDBRANCH   15   14
ENDBRANCH   16   15
ENDBRANCH   17   16
ENDBRANCH   18   17
ENDBRANCH   19   18
ENDBRANCH   20   19
ENDBRANCH   21   20
ENDBRANCH   22   21
ENDBRANCH   24   22
ENDBRANCH   28   27
BRANCH   32   33
ATOM     33  C23 UNL A   1       3.311  -1.603  29.206  1.00  0.00    +0.000 C 
ATOM     34  C24 UNL A   1       3.623  -1.390  30.559  1.00  0.00    +0.000 C 
ATOM     35  F1  UNL A   1       4.361  -2.288  31.229  1.00  0.00    +0.000 F 
ATOM     36  C25 UNL A   1       3.133  -0.281  31.242  1.00  0.00    +0.000 C 
ATOM     37  F2  UNL A   1       3.393  -0.133  32.549  1.00  0.00    +0.000 F 
ATOM     38  C26 UNL A   1       2.357   0.657  30.580  1.00  0.00    +0.000 C 
ATOM     39  F3  UNL A   1       1.884   1.724  31.240  1.00  0.00    +0.000 F 
ATOM     40  C27 UNL A   1       2.063   0.485  29.236  1.00  0.00    +0.000 C 
ATOM     41  F4  UNL A   1       1.323   1.399  28.592  1.00  0.00    +0.000 F 
ATOM     42  C28 UNL A   1       2.525  -0.638  28.557  1.00  0.00    +0.000 C 
ATOM     43  F5  UNL A   1       2.203  -0.788  27.263  1.00  0.00    +0.000 F 
ENDBRANCH   32   33
BRANCH   49   50
ATOM     50  C34 UNL A   1       1.088  -8.294  27.663  1.00  0.00    +0.000 C 
ATOM     51  C35 UNL A   1       0.044  -8.343  26.727  1.00  0.00    +0.000 C 
ATOM     52  F6  UNL A   1       0.088  -7.577  25.627  1.00  0.00    +0.000 F 
ATOM     53  C36 UNL A   1      -1.069  -9.153  26.938  1.00  0.00    +0.000 C 
ATOM     54  F7  UNL A   1      -2.073  -9.152  26.052  1.00  0.00    +0.000 F 
ATOM     55  C37 UNL A   1      -1.144  -9.951  28.070  1.00  0.00    +0.000 C 
ATOM     56  F8  UNL A   1      -2.212 -10.736  28.268  1.00  0.00    +0.000 F 
ATOM     57  C38 UNL A   1      -0.115  -9.931  29.000  1.00  0.00    +0.000 C 
ATOM     58  F9  UNL A   1      -0.183 -10.711  30.089  1.00  0.00    +0.000 F 
ATOM     59  C39 UNL A   1       0.985  -9.102  28.806  1.00  0.00    +0.000 C 
ATOM     60  F10 UNL A   1       1.959  -9.095  29.728  1.00  0.00    +0.000 F 
ENDBRANCH   49   50
BRANCH   64   65
ATOM     65  C43 UNL A   1       7.197  -9.512  24.529  1.00  0.00    +0.000 C 
ATOM     66  C44 UNL A   1       7.999 -10.395  25.265  1.00  0.00    +0.000 C 
ATOM     67  F11 UNL A   1       8.266 -10.139  26.554  1.00  0.00    +0.000 F 
ATOM     68  C45 UNL A   1       8.551 -11.528  24.673  1.00  0.00    +0.000 C 
ATOM     69  F12 UNL A   1       9.338 -12.341  25.391  1.00  0.00    +0.000 F 
ATOM     70  C46 UNL A   1       8.292 -11.814  23.340  1.00  0.00    +0.000 C 
ATOM     71  F13 UNL A   1       8.812 -12.912  22.774  1.00  0.00    +0.000 F 
ATOM     72  C47 UNL A   1       7.494 -10.959  22.595  1.00  0.00    +0.000 C 
ATOM     73  F14 UNL A   1       7.228 -11.239  21.312  1.00  0.00    +0.000 F 
ATOM     74  C48 UNL A   1       6.961  -9.812  23.179  1.00  0.00    +0.000 C 
ATOM     75  F15 UNL A   1       6.193  -9.003  22.435  1.00  0.00    +0.000 F 
ENDBRANCH   64   65
TORSDOF 19
ENDMDL
MODEL 3
REMARK VINA RESULT:     -10.8      8.772     14.441
ROOT
ATOM     28  C19 UNL A   1      25.456  39.281  47.030  1.00  0.00    +0.000 C 
ATOM     29  C20 UNL A   1      24.873  37.919  46.784  1.00  0.00    +0.000 C 
ATOM     30  N5  UNL A   1      23.661  37.481  47.018  1.00  0.00    +0.000 N 
ATOM     31  C21 UNL A   1      23.640  36.170  46.562  1.00  0.00    +0.000 C 
ATOM     32  C22 UNL A   1      22.633  35.264  46.636  1.00  0.00    +0.000 C 
ATOM     44  C29 UNL A   1      21.349  35.529  47.228  1.00  0.00    +0.000 C 
ATOM     45  C30 UNL A   1      20.287  34.662  47.413  1.00  0.00    +0.000 C 
ATOM     46  C31 UNL A   1      19.231  35.378  47.989  1.00  0.00    +0.000 C 
ATOM     47  C32 UNL A   1      19.651  36.681  48.206  1.00  0.00    +0.000 C 
ATOM     48  N6  UNL A   1      20.951  36.761  47.731  1.00  0.00    +0.000 N 
ATOM     49  C33 UNL A   1      18.923  37.772  48.803  1.00  0.00    +0.000 C 
ATOM     61  C40 UNL A   1      19.412  39.022  48.994  1.00  0.00    +0.000 C 
ATOM     62  N7  UNL A   1      20.664  39.526  48.672  1.00  0.00    +0.000 N 
ATOM     63  C41 UNL A   1      20.652  40.784  49.041  1.00  0.00    +0.000 C 
ATOM     64  C42 UNL A   1      21.749  41.808  48.949  1.00  0.00    +0.000 C 
ATOM     76  C49 UNL A   1      22.959  41.440  48.487  1.00  0.00    +0.000 C 
ATOM     77  C50 UNL A   1      24.119  42.317  48.362  1.00  0.00    +0.000 C 
ATOM     78  C51 UNL A   1      25.133  41.626  47.818  1.00  0.00    +0.000 C 
ATOM     79  C52 UNL A   1      24.700  40.248  47.582  1.00  0.00    +0.000 C 
ATOM     80  N8  UNL A   1      23.402  40.225  48.028  1.00  0.00    +0.000 N 
ATOM     81  C53 UNL A   1      19.379  41.227  49.625  1.00  0.00    +0.000 C 
ATOM     82  C54 UNL A   1      18.669  40.107  49.603  1.00  0.00    +0.000 C 
ATOM     83  C55 UNL A   1      24.940  35.901  45.988  1.00  0.00    +0.000 C 
ATOM     84  C56 UNL A   1      25.762  36.925  46.164  1.00  0.00    +0.000 C 
ATOM    117  H22 UNL A   1      20.275  33.659  47.168  1.00  0.00    +0.000 H 
ATOM    118  H23 UNL A   1      18.298  34.999  48.216  1.00  0.00    +0.000 H 
ATOM    119  H24 UNL A   1      21.510  37.570  47.748  1.00  0.00    +0.000 H 
ATOM    120  H25 UNL A   1      24.154  43.308  48.646  1.00  0.00    +0.000 H 
ATOM    121  H26 UNL A   1      26.068  42.005  47.599  1.00  0.00    +0.000 H 
ATOM    122  H27 UNL A   1      22.843  39.414  48.019  1.00  0.00    +0.000 H 
ATOM    123  H28 UNL A   1      19.107  42.164  49.963  1.00  0.00    +0.000 H 
ATOM    124  H29 UNL A   1      17.711  40.018  49.974  1.00  0.00    +0.000 H 
ATOM    125  H30 UNL A   1      25.194  35.025  45.504  1.00  0.00    +0.000 H 
ATOM    126  H31 UNL A   1      26.763  37.005  45.928  1.00  0.00    +0.000 H 
ENDROOT
BRANCH   28   27
ATOM    115  H20 UNL A   1      30.032  39.464  47.654  1.00  0.00    +0.000 H 
ATOM    116  H21 UNL A   1      27.788  38.843  48.339  1.00  0.00    +0.000 H 
ATOM     85  C57 UNL A   1      27.065  40.168  45.340  1.00  0.00    +0.000 C 
ATOM     86  C58 UNL A   1      28.362  40.449  44.915  1.00  0.00    +0.000 C 
ATOM     24  C15 UNL A   1      29.439  40.247  45.782  1.00  0.00    +0.000 C 
ATOM     25  C16 UNL A   1      29.232  39.650  47.030  1.00  0.00    +0.000 C 
ATOM     26  C17 UNL A   1      27.939  39.306  47.429  1.00  0.00    +0.000 C 
ATOM     27  C18 UNL A   1      26.843  39.589  46.599  1.00  0.00    +0.000 C 
ATOM    127  H32 UNL A   1      26.265  40.387  44.727  1.00  0.00    +0.000 H 
ATOM    128  H33 UNL A   1      28.526  40.807  43.961  1.00  0.00    +0.000 H 
BRANCH   24   22
ATOM     22  C14 UNL A   1      30.814  40.633  45.400  1.00  0.00    +0.000 C 
ATOM     23  O4  UNL A   1      31.335  41.617  45.916  1.00  0.00    +0.000 O 
BRANCH   22   21
ATOM    114  H19 UNL A   1      31.906  40.431  43.735  1.00  0.00    +0.000 H 
ATOM     21  N4  UNL A   1      31.497  39.905  44.460  1.00  0.00    +0.000 N 
BRANCH   21   20
ATOM    113  H18 UNL A   1      31.461  38.053  45.333  1.00  0.00    +0.000 H 
ATOM     20  C13 UNL A   1      31.701  38.470  44.378  1.00  0.00    +0.000 C 
ATOM    112  H17 UNL A   1      32.721  38.283  44.112  1.00  0.00    +0.000 H 
BRANCH   20   19
ATOM     19  C12 UNL A   1      30.796  37.811  43.342  1.00  0.00    +0.000 C 
ATOM    110  H15 UNL A   1      30.384  38.582  42.724  1.00  0.00    +0.000 H 
ATOM    111  H16 UNL A   1      31.412  37.119  42.807  1.00  0.00    +0.000 H 
BRANCH   19   18
ATOM     18  C11 UNL A   1      29.637  36.994  43.917  1.00  0.00    +0.000 C 
ATOM    108  H13 UNL A   1      28.756  37.601  43.881  1.00  0.00    +0.000 H 
ATOM    109  H14 UNL A   1      29.577  36.109  43.319  1.00  0.00    +0.000 H 
BRANCH   18   17
ATOM     17  C10 UNL A   1      29.818  36.512  45.360  1.00  0.00    +0.000 C 
ATOM    106  H11 UNL A   1      30.857  36.304  45.510  1.00  0.00    +0.000 H 
ATOM    107  H12 UNL A   1      29.442  37.297  45.982  1.00  0.00    +0.000 H 
BRANCH   17   16
ATOM    105  H10 UNL A   1      29.242  34.525  44.990  1.00  0.00    +0.000 H 
ATOM    104  H9  UNL A   1      27.990  35.518  45.788  1.00  0.00    +0.000 H 
ATOM     16  C9  UNL A   1      29.027  35.257  45.741  1.00  0.00    +0.000 C 
BRANCH   16   15
ATOM    103  H8  UNL A   1      30.444  34.876  47.278  1.00  0.00    +0.000 H 
ATOM    102  H7  UNL A   1      29.292  33.574  47.022  1.00  0.00    +0.000 H 
ATOM     15  C8  UNL A   1      29.421  34.634  47.076  1.00  0.00    +0.000 C 
BRANCH   15   14
ATOM    101  H6  UNL A   1      29.015  35.927  48.604  1.00  0.00    +0.000 H 
ATOM     14  N3  UNL A   1      28.604  35.156  48.150  1.00  0.00    +0.000 N 
BRANCH   14   12
ATOM     12  C7  UNL A   1      27.385  34.816  48.677  1.00  0.00    +0.000 C 
ATOM     13  O3  UNL A   1      26.986  33.671  48.475  1.00  0.00    +0.000 O 
BRANCH   12   11
ATOM    129  H34 UNL A   1      25.079  34.606  50.520  1.00  0.00    +0.000 H 
ATOM    130  H35 UNL A   1      24.422  35.195  49.079  1.00  0.00    +0.000 H 
ATOM    131  H36 UNL A   1      23.938  37.316  50.165  1.00  0.00    +0.000 H 
ATOM      9  N1  UNL A   1      25.986  37.483  50.611  1.00  0.00    +0.000 N 
ATOM     10  N2  UNL A   1      26.906  36.962  49.756  1.00  0.00    +0.000 N 
ATOM     11  C6  UNL A   1      26.477  35.781  49.424  1.00  0.00    +0.000 C 
ATOM     87  C59 UNL A   1      25.093  35.456  49.870  1.00  0.00    +0.000 C 
ATOM     88  C60 UNL A   1      24.720  36.742  50.618  1.00  0.00    +0.000 C 
BRANCH    9    8
ATOM     99  H4  UNL A   1      24.132  41.470  51.821  1.00  0.00    +0.000 H 
ATOM    100  H5  UNL A   1      23.980  39.089  51.369  1.00  0.00    +0.000 H 
ATOM      5  C2  UNL A   1      26.203  41.599  51.412  1.00  0.00    +0.000 C 
ATOM      6  C3  UNL A   1      24.974  40.943  51.540  1.00  0.00    +0.000 C 
ATOM      7  C4  UNL A   1      24.891  39.568  51.285  1.00  0.00    +0.000 C 
ATOM    136  H41 UNL A   1      28.250  41.374  50.944  1.00  0.00    +0.000 H 
ATOM    135  H40 UNL A   1      28.090  38.999  50.518  1.00  0.00    +0.000 H 
ATOM      8  C5  UNL A   1      26.027  38.838  50.918  1.00  0.00    +0.000 C 
ATOM     94  C65 UNL A   1      27.245  39.522  50.795  1.00  0.00    +0.000 C 
ATOM     95  C66 UNL A   1      27.343  40.892  51.039  1.00  0.00    +0.000 C 
BRANCH    5    2
ATOM      2  S1  UNL A   1      26.252  43.352  51.687  1.00  0.00    +0.000 S 
ATOM      3  O1  UNL A   1      27.225  43.574  52.738  1.00  0.00    +0.000 O 
ATOM      4  O2  UNL A   1      24.877  43.790  51.830  1.00  0.00    +0.000 O 
BRANCH    2    1
ATOM      1  C1  UNL A   1      26.884  44.090  50.205  1.00  0.00    +0.000 C 
ATOM     98  H3  UNL A   1      27.370  45.013  50.445  1.00  0.00    +0.000 H 
ATOM     97  H2  UNL A   1      27.585  43.426  49.747  1.00  0.00    +0.000 H 
ATOM     96  H1  UNL A   1      26.077  44.279  49.529  1.00  0.00    +0.000 H 
ENDBRANCH    2    1
ENDBRANCH    5    2
ENDBRANCH    9    8
BRANCH   88   89
ATOM    132  H37 UNL A   1      22.068  37.195  52.006  1.00  0.00    +0.000 H 
ATOM    133  H38 UNL A   1      22.127  36.385  54.531  1.00  0.00    +0.000 H 
ATOM    134  H39 UNL A   1      24.461  35.352  54.926  1.00  0.00    +0.000 H 
ATOM     89  C61 UNL A   1      24.107  36.474  51.961  1.00  0.00    +0.000 C 
ATOM     90  C62 UNL A   1      22.863  36.754  52.495  1.00  0.00    +0.000 C 
ATOM     91  C63 UNL A   1      22.891  36.314  53.840  1.00  0.00    +0.000 C 
ATOM     92  C64 UNL A   1      24.138  35.774  54.040  1.00  0.00    +0.000 C 
ATOM     93  O5  UNL A   1      24.883  35.871  52.913  1.00  0.00    +0.000 O 
ENDBRANCH   88   89
ENDBRANCH   12   11
ENDBRANCH   14   12
ENDBRANCH   15   14
ENDBRANCH   16   15
ENDBRANCH   17   16
ENDBRANCH   18   17
ENDBRANCH   19   18
ENDBRANCH   20   19
ENDBRANCH   21   20
ENDBRANCH   22   21
ENDBRANCH   24   22
ENDBRANCH   28   27
BRANCH   32   33
ATOM     33  C23 UNL A   1      22.891  33.903  46.058  1.00  0.00    +0.000 C 
ATOM     34  C24 UNL A   1      23.572  32.912  46.783  1.00  0.00    +0.000 C 
ATOM     35  F1  UNL A   1      24.029  33.174  48.017  1.00  0.00    +0.000 F 
ATOM     36  C25 UNL A   1      23.831  31.664  46.223  1.00  0.00    +0.000 C 
ATOM     37  F2  UNL A   1      24.537  30.757  46.912  1.00  0.00    +0.000 F 
ATOM     38  C26 UNL A   1      23.382  31.368  44.946  1.00  0.00    +0.000 C 
ATOM     39  F3  UNL A   1      23.635  30.168  44.407  1.00  0.00    +0.000 F 
ATOM     40  C27 UNL A   1      22.680  32.320  44.222  1.00  0.00    +0.000 C 
ATOM     41  F4  UNL A   1      22.234  32.031  42.992  1.00  0.00    +0.000 F 
ATOM     42  C28 UNL A   1      22.445  33.580  44.768  1.00  0.00    +0.000 C 
ATOM     43  F5  UNL A   1      21.783  34.487  44.033  1.00  0.00    +0.000 F 
ENDBRANCH   32   33
BRANCH   49   50
ATOM     50  C34 UNL A   1      17.522  37.506  49.269  1.00  0.00    +0.000 C 
ATOM     51  C35 UNL A   1      17.190  37.506  50.631  1.00  0.00    +0.000 C 
ATOM     52  F6  UNL A   1      18.142  37.694  51.558  1.00  0.00    +0.000 F 
ATOM     53  C36 UNL A   1      15.881  37.277  51.048  1.00  0.00    +0.000 C 
ATOM     54  F7  UNL A   1      15.594  37.239  52.357  1.00  0.00    +0.000 F 
ATOM     55  C37 UNL A   1      14.878  37.074  50.113  1.00  0.00    +0.000 C 
ATOM     56  F8  UNL A   1      13.618  36.860  50.516  1.00  0.00    +0.000 F 
ATOM     57  C38 UNL A   1      15.182  37.086  48.759  1.00  0.00    +0.000 C 
ATOM     58  F9  UNL A   1      14.210  36.900  47.854  1.00  0.00    +0.000 F 
ATOM     59  C39 UNL A   1      16.493  37.288  48.340  1.00  0.00    +0.000 C 
ATOM     60  F10 UNL A   1      16.759  37.282  47.026  1.00  0.00    +0.000 F 
ENDBRANCH   49   50
BRANCH   64   65
ATOM     65  C43 UNL A   1      21.530  43.211  49.383  1.00  0.00    +0.000 C 
ATOM     66  C44 UNL A   1      21.194  44.208  48.457  1.00  0.00    +0.000 C 
ATOM     67  F11 UNL A   1      21.114  43.909  47.152  1.00  0.00    +0.000 F 
ATOM     68  C45 UNL A   1      20.963  45.519  48.865  1.00  0.00    +0.000 C 
ATOM     69  F12 UNL A   1      20.671  46.460  47.956  1.00  0.00    +0.000 F 
ATOM     70  C46 UNL A   1      21.043  45.855  50.209  1.00  0.00    +0.000 C 
ATOM     71  F13 UNL A   1      20.808  47.114  50.602  1.00  0.00    +0.000 F 
ATOM     72  C47 UNL A   1      21.366  44.883  51.143  1.00  0.00    +0.000 C 
ATOM     73  F14 UNL A   1      21.428  45.199  52.444  1.00  0.00    +0.000 F 
ATOM     74  C48 UNL A   1      21.620  43.576  50.734  1.00  0.00    +0.000 C 
ATOM     75  F15 UNL A   1      21.931  42.656  51.659  1.00  0.00    +0.000 F 
ENDBRANCH   64   65
TORSDOF 19
ENDMDL
MODEL 4
REMARK VINA RESULT:     -10.7     31.078     37.554
ROOT
ATOM     28  C19 UNL A   1       1.300   4.791  35.601  1.00  0.00    +0.000 C 
ATOM     29  C20 UNL A   1       2.559   5.129  36.347  1.00  0.00    +0.000 C 
ATOM     30  N5  UNL A   1       2.884   6.235  36.968  1.00  0.00    +0.000 N 
ATOM     31  C21 UNL A   1       4.132   6.000  37.529  1.00  0.00    +0.000 C 
ATOM     32  C22 UNL A   1       4.926   6.857  38.217  1.00  0.00    +0.000 C 
ATOM     44  C29 UNL A   1       4.585   8.227  38.498  1.00  0.00    +0.000 C 
ATOM     45  C30 UNL A   1       5.346   9.195  39.128  1.00  0.00    +0.000 C 
ATOM     46  C31 UNL A   1       4.581  10.364  39.217  1.00  0.00    +0.000 C 
ATOM     47  C32 UNL A   1       3.361  10.139  38.602  1.00  0.00    +0.000 C 
ATOM     48  N6  UNL A   1       3.375   8.822  38.168  1.00  0.00    +0.000 N 
ATOM     49  C33 UNL A   1       2.263  11.054  38.419  1.00  0.00    +0.000 C 
ATOM     61  C40 UNL A   1       1.099  10.760  37.789  1.00  0.00    +0.000 C 
ATOM     62  N7  UNL A   1       0.704   9.566  37.203  1.00  0.00    +0.000 N 
ATOM     63  C41 UNL A   1      -0.504   9.774  36.739  1.00  0.00    +0.000 C 
ATOM     64  C42 UNL A   1      -1.407   8.832  35.992  1.00  0.00    +0.000 C 
ATOM     76  C49 UNL A   1      -0.958   7.605  35.670  1.00  0.00    +0.000 C 
ATOM     77  C50 UNL A   1      -1.712   6.596  34.932  1.00  0.00    +0.000 C 
ATOM     78  C51 UNL A   1      -0.975   5.478  34.840  1.00  0.00    +0.000 C 
ATOM     79  C52 UNL A   1       0.318   5.704  35.489  1.00  0.00    +0.000 C 
ATOM     80  N8  UNL A   1       0.244   7.001  35.935  1.00  0.00    +0.000 N 
ATOM     81  C53 UNL A   1      -1.021  11.125  36.994  1.00  0.00    +0.000 C 
ATOM     82  C54 UNL A   1       0.008  11.695  37.607  1.00  0.00    +0.000 C 
ATOM     83  C55 UNL A   1       4.481   4.630  37.223  1.00  0.00    +0.000 C 
ATOM     84  C56 UNL A   1       3.575   4.070  36.436  1.00  0.00    +0.000 C 
ATOM    117  H22 UNL A   1       6.311   9.076  39.473  1.00  0.00    +0.000 H 
ATOM    118  H23 UNL A   1       4.877  11.247  39.665  1.00  0.00    +0.000 H 
ATOM    119  H24 UNL A   1       2.636   8.375  37.696  1.00  0.00    +0.000 H 
ATOM    120  H25 UNL A   1      -2.660   6.721  34.543  1.00  0.00    +0.000 H 
ATOM    121  H26 UNL A   1      -1.270   4.600  34.386  1.00  0.00    +0.000 H 
ATOM    122  H27 UNL A   1       0.985   7.452  36.402  1.00  0.00    +0.000 H 
ATOM    123  H28 UNL A   1      -1.943  11.527  36.759  1.00  0.00    +0.000 H 
ATOM    124  H29 UNL A   1       0.029  12.680  37.915  1.00  0.00    +0.000 H 
ATOM    125  H30 UNL A   1       5.326   4.151  37.574  1.00  0.00    +0.000 H 
ATOM    126  H31 UNL A   1       3.581   3.135  35.998  1.00  0.00    +0.000 H 
ENDROOT
BRANCH   28   27
ATOM    115  H20 UNL A   1      -0.185   0.419  35.817  1.00  0.00    +0.000 H 
ATOM    116  H21 UNL A   1       0.022   2.670  36.701  1.00  0.00    +0.000 H 
ATOM     85  C57 UNL A   1       1.597   3.120  33.771  1.00  0.00    +0.000 C 
ATOM     86  C58 UNL A   1       1.405   1.850  33.231  1.00  0.00    +0.000 C 
ATOM     24  C15 UNL A   1       0.808   0.848  34.001  1.00  0.00    +0.000 C 
ATOM     25  C16 UNL A   1       0.292   1.149  35.265  1.00  0.00    +0.000 C 
ATOM     26  C17 UNL A   1       0.424   2.441  35.780  1.00  0.00    +0.000 C 
ATOM     27  C18 UNL A   1       1.102   3.428  35.048  1.00  0.00    +0.000 C 
ATOM    127  H32 UNL A   1       2.104   3.837  33.229  1.00  0.00    +0.000 H 
ATOM    128  H33 UNL A   1       1.705   1.650  32.264  1.00  0.00    +0.000 H 
BRANCH   24   22
ATOM     22  C14 UNL A   1       0.685  -0.536  33.496  1.00  0.00    +0.000 C 
ATOM     23  O4  UNL A   1       0.113  -0.747  32.431  1.00  0.00    +0.000 O 
BRANCH   22   21
ATOM    114  H19 UNL A   1       0.561  -2.001  34.855  1.00  0.00    +0.000 H 
ATOM     21  N4  UNL A   1       1.191  -1.581  34.225  1.00  0.00    +0.000 N 
BRANCH   21   20
ATOM    113  H18 UNL A   1       2.489  -3.034  33.592  1.00  0.00    +0.000 H 
ATOM     20  C13 UNL A   1       2.524  -2.157  34.203  1.00  0.00    +0.000 C 
ATOM    112  H17 UNL A   1       2.814  -2.390  35.208  1.00  0.00    +0.000 H 
BRANCH   20   19
ATOM     19  C12 UNL A   1       3.557  -1.212  33.601  1.00  0.00    +0.000 C 
ATOM    110  H15 UNL A   1       4.345  -1.805  33.184  1.00  0.00    +0.000 H 
ATOM    111  H16 UNL A   1       3.035  -0.625  32.875  1.00  0.00    +0.000 H 
BRANCH   19   18
ATOM     18  C11 UNL A   1       4.181  -0.218  34.585  1.00  0.00    +0.000 C 
ATOM    108  H13 UNL A   1       5.222  -0.134  34.352  1.00  0.00    +0.000 H 
ATOM    109  H14 UNL A   1       3.636   0.694  34.465  1.00  0.00    +0.000 H 
BRANCH   18   17
ATOM     17  C10 UNL A   1       4.058  -0.588  36.067  1.00  0.00    +0.000 C 
ATOM    106  H11 UNL A   1       3.538  -1.521  36.131  1.00  0.00    +0.000 H 
ATOM    107  H12 UNL A   1       5.058  -0.625  36.444  1.00  0.00    +0.000 H 
BRANCH   17   16
ATOM    105  H10 UNL A   1       2.514   0.811  36.343  1.00  0.00    +0.000 H 
ATOM    104  H9  UNL A   1       4.012   1.181  37.241  1.00  0.00    +0.000 H 
ATOM     16  C9  UNL A   1       3.315   0.427  36.940  1.00  0.00    +0.000 C 
BRANCH   16   15
ATOM    103  H8  UNL A   1       2.926  -1.196  38.254  1.00  0.00    +0.000 H 
ATOM    102  H7  UNL A   1       1.615  -0.031  38.142  1.00  0.00    +0.000 H 
ATOM     15  C8  UNL A   1       2.676  -0.158  38.196  1.00  0.00    +0.000 C 
BRANCH   15   14
ATOM    101  H6  UNL A   1       3.395  -0.124  40.107  1.00  0.00    +0.000 H 
ATOM     14  N3  UNL A   1       3.172   0.504  39.383  1.00  0.00    +0.000 N 
BRANCH   14   12
ATOM     12  C7  UNL A   1       3.401   1.812  39.724  1.00  0.00    +0.000 C 
ATOM     13  O3  UNL A   1       4.573   2.166  39.838  1.00  0.00    +0.000 O 
BRANCH   12   11
ATOM    129  H34 UNL A   1       3.135   4.259  41.368  1.00  0.00    +0.000 H 
ATOM    130  H35 UNL A   1       2.219   3.096  42.181  1.00  0.00    +0.000 H 
ATOM    131  H36 UNL A   1       0.187   4.324  41.650  1.00  0.00    +0.000 H 
ATOM      9  N1  UNL A   1       0.682   4.136  39.615  1.00  0.00    +0.000 N 
ATOM     10  N2  UNL A   1       1.348   3.032  39.183  1.00  0.00    +0.000 N 
ATOM     11  C6  UNL A   1       2.305   2.819  40.035  1.00  0.00    +0.000 C 
ATOM     87  C59 UNL A   1       2.258   3.654  41.269  1.00  0.00    +0.000 C 
ATOM     88  C60 UNL A   1       1.014   4.507  40.994  1.00  0.00    +0.000 C 
BRANCH    9    8
ATOM     99  H4  UNL A   1      -2.721   6.964  38.511  1.00  0.00    +0.000 H 
ATOM    100  H5  UNL A   1      -0.517   6.524  39.430  1.00  0.00    +0.000 H 
ATOM      5  C2  UNL A   1      -3.121   4.944  38.028  1.00  0.00    +0.000 C 
ATOM      6  C3  UNL A   1      -2.352   6.001  38.528  1.00  0.00    +0.000 C 
ATOM      7  C4  UNL A   1      -1.078   5.745  39.051  1.00  0.00    +0.000 C 
ATOM    136  H41 UNL A   1      -3.191   2.863  37.674  1.00  0.00    +0.000 H 
ATOM    135  H40 UNL A   1      -0.985   2.442  38.572  1.00  0.00    +0.000 H 
ATOM      8  C5  UNL A   1      -0.558   4.446  39.065  1.00  0.00    +0.000 C 
ATOM     94  C65 UNL A   1      -1.352   3.407  38.560  1.00  0.00    +0.000 C 
ATOM     95  C66 UNL A   1      -2.624   3.644  38.043  1.00  0.00    +0.000 C 
BRANCH    5    2
ATOM      2  S1  UNL A   1      -4.753   5.304  37.429  1.00  0.00    +0.000 S 
ATOM      3  O1  UNL A   1      -4.604   5.677  36.036  1.00  0.00    +0.000 O 
ATOM      4  O2  UNL A   1      -5.360   6.206  38.389  1.00  0.00    +0.000 O 
BRANCH    2    1
ATOM      1  C1  UNL A   1      -5.670   3.788  37.485  1.00  0.00    +0.000 C 
ATOM     98  H3  UNL A   1      -5.814   3.496  38.504  1.00  0.00    +0.000 H 
ATOM     97  H2  UNL A   1      -6.620   3.929  37.015  1.00  0.00    +0.000 H 
ATOM     96  H1  UNL A   1      -5.126   3.024  36.969  1.00  0.00    +0.000 H 
ENDBRANCH    2    1
ENDBRANCH    5    2
ENDBRANCH    9    8
BRANCH   88   89
ATOM    132  H37 UNL A   1       2.980   6.657  40.172  1.00  0.00    +0.000 H 
ATOM    133  H38 UNL A   1       2.480   8.964  41.382  1.00  0.00    +0.000 H 
ATOM    134  H39 UNL A   1       0.355   8.610  42.807  1.00  0.00    +0.000 H 
ATOM     89  C61 UNL A   1       1.242   5.967  41.259  1.00  0.00    +0.000 C 
ATOM     90  C62 UNL A   1       2.210   6.855  40.831  1.00  0.00    +0.000 C 
ATOM     91  C63 UNL A   1       1.939   8.089  41.470  1.00  0.00    +0.000 C 
ATOM     92  C64 UNL A   1       0.813   7.887  42.230  1.00  0.00    +0.000 C 
ATOM     93  O5  UNL A   1       0.387   6.606  42.115  1.00  0.00    +0.000 O 
ENDBRANCH   88   89
ENDBRANCH   12   11
ENDBRANCH   14   12
ENDBRANCH   15   14
ENDBRANCH   16   15
ENDBRANCH   17   16
ENDBRANCH   18   17
ENDBRANCH   19   18
ENDBRANCH   20   19
ENDBRANCH   21   20
ENDBRANCH   22   21
ENDBRANCH   24   22
ENDBRANCH   28   27
BRANCH   32   33
ATOM     33  C23 UNL A   1       6.241   6.329  38.710  1.00  0.00    +0.000 C 
ATOM     34  C24 UNL A   1       6.321   5.470  39.817  1.00  0.00    +0.000 C 
ATOM     35  F1  UNL A   1       5.208   5.114  40.477  1.00  0.00    +0.000 F 
ATOM     36  C25 UNL A   1       7.551   5.013  40.284  1.00  0.00    +0.000 C 
ATOM     37  F2  UNL A   1       7.605   4.244  41.380  1.00  0.00    +0.000 F 
ATOM     38  C26 UNL A   1       8.720   5.372  39.631  1.00  0.00    +0.000 C 
ATOM     39  F3  UNL A   1       9.903   4.934  40.082  1.00  0.00    +0.000 F 
ATOM     40  C27 UNL A   1       8.663   6.195  38.516  1.00  0.00    +0.000 C 
ATOM     41  F4  UNL A   1       9.791   6.533  37.876  1.00  0.00    +0.000 F 
ATOM     42  C28 UNL A   1       7.438   6.678  38.065  1.00  0.00    +0.000 C 
ATOM     43  F5  UNL A   1       7.419   7.491  36.998  1.00  0.00    +0.000 F 
ENDBRANCH   32   33
BRANCH   49   50
ATOM     50  C34 UNL A   1       2.421  12.449  38.948  1.00  0.00    +0.000 C 
ATOM     51  C35 UNL A   1       2.019  12.792  40.247  1.00  0.00    +0.000 C 
ATOM     52  F6  UNL A   1       1.428  11.879  41.033  1.00  0.00    +0.000 F 
ATOM     53  C36 UNL A   1       2.190  14.087  40.731  1.00  0.00    +0.000 C 
ATOM     54  F7  UNL A   1       1.759  14.402  41.960  1.00  0.00    +0.000 F 
ATOM     55  C37 UNL A   1       2.793  15.052  39.938  1.00  0.00    +0.000 C 
ATOM     56  F8  UNL A   1       2.963  16.295  40.408  1.00  0.00    +0.000 F 
ATOM     57  C38 UNL A   1       3.213  14.731  38.656  1.00  0.00    +0.000 C 
ATOM     58  F9  UNL A   1       3.806  15.660  37.894  1.00  0.00    +0.000 F 
ATOM     59  C39 UNL A   1       3.019  13.445  38.160  1.00  0.00    +0.000 C 
ATOM     60  F10 UNL A   1       3.426  13.166  36.913  1.00  0.00    +0.000 F 
ENDBRANCH   49   50
BRANCH   64   65
ATOM     65  C43 UNL A   1      -2.774   9.240  35.581  1.00  0.00    +0.000 C 
ATOM     66  C44 UNL A   1      -3.026   9.715  34.287  1.00  0.00    +0.000 C 
ATOM     67  F11 UNL A   1      -2.015   9.851  33.416  1.00  0.00    +0.000 F 
ATOM     68  C45 UNL A   1      -4.312  10.074  33.891  1.00  0.00    +0.000 C 
ATOM     69  F12 UNL A   1      -4.522  10.552  32.657  1.00  0.00    +0.000 F 
ATOM     70  C46 UNL A   1      -5.374   9.946  34.774  1.00  0.00    +0.000 C 
ATOM     71  F13 UNL A   1      -6.613  10.279  34.389  1.00  0.00    +0.000 F 
ATOM     72  C47 UNL A   1      -5.150   9.470  36.057  1.00  0.00    +0.000 C 
ATOM     73  F14 UNL A   1      -6.175   9.329  36.908  1.00  0.00    +0.000 F 
ATOM     74  C48 UNL A   1      -3.860   9.133  36.462  1.00  0.00    +0.000 C 
ATOM     75  F15 UNL A   1      -3.671   8.676  37.709  1.00  0.00    +0.000 F 
ENDBRANCH   64   65
TORSDOF 19
ENDMDL
MODEL 5
REMARK VINA RESULT:     -10.7     43.802     46.967
ROOT
ATOM     28  C19 UNL A   1      13.652  50.235   3.284  1.00  0.00    +0.000 C 
ATOM     29  C20 UNL A   1      14.478  49.750   2.127  1.00  0.00    +0.000 C 
ATOM     30  N5  UNL A   1      15.285  50.423   1.345  1.00  0.00    +0.000 N 
ATOM     31  C21 UNL A   1      15.831  49.489   0.475  1.00  0.00    +0.000 C 
ATOM     32  C22 UNL A   1      16.675  49.695  -0.566  1.00  0.00    +0.000 C 
ATOM     44  C29 UNL A   1      17.175  50.986  -0.960  1.00  0.00    +0.000 C 
ATOM     45  C30 UNL A   1      17.979  51.309  -2.038  1.00  0.00    +0.000 C 
ATOM     46  C31 UNL A   1      18.244  52.683  -1.990  1.00  0.00    +0.000 C 
ATOM     47  C32 UNL A   1      17.567  53.224  -0.910  1.00  0.00    +0.000 C 
ATOM     48  N6  UNL A   1      16.918  52.171  -0.284  1.00  0.00    +0.000 N 
ATOM     49  C33 UNL A   1      17.513  54.598  -0.479  1.00  0.00    +0.000 C 
ATOM     61  C40 UNL A   1      16.810  55.052   0.588  1.00  0.00    +0.000 C 
ATOM     62  N7  UNL A   1      16.021  54.340   1.480  1.00  0.00    +0.000 N 
ATOM     63  C41 UNL A   1      15.566  55.217   2.340  1.00  0.00    +0.000 C 
ATOM     64  C42 UNL A   1      14.648  55.006   3.512  1.00  0.00    +0.000 C 
ATOM     76  C49 UNL A   1      14.134  53.782   3.735  1.00  0.00    +0.000 C 
ATOM     77  C50 UNL A   1      13.217  53.435   4.816  1.00  0.00    +0.000 C 
ATOM     78  C51 UNL A   1      12.957  52.119   4.764  1.00  0.00    +0.000 C 
ATOM     79  C52 UNL A   1      13.670  51.536   3.626  1.00  0.00    +0.000 C 
ATOM     80  N8  UNL A   1      14.326  52.602   3.063  1.00  0.00    +0.000 N 
ATOM     81  C53 UNL A   1      16.033  56.590   2.102  1.00  0.00    +0.000 C 
ATOM     82  C54 UNL A   1      16.760  56.440   1.004  1.00  0.00    +0.000 C 
ATOM     83  C55 UNL A   1      15.308  48.196   0.859  1.00  0.00    +0.000 C 
ATOM     84  C56 UNL A   1      14.413  48.312   1.829  1.00  0.00    +0.000 C 
ATOM    117  H22 UNL A   1      18.325  50.651  -2.754  1.00  0.00    +0.000 H 
ATOM    118  H23 UNL A   1      18.842  53.205  -2.651  1.00  0.00    +0.000 H 
ATOM    119  H24 UNL A   1      16.357  52.250   0.521  1.00  0.00    +0.000 H 
ATOM    120  H25 UNL A   1      12.830  54.094   5.509  1.00  0.00    +0.000 H 
ATOM    121  H26 UNL A   1      12.353  51.600   5.421  1.00  0.00    +0.000 H 
ATOM    122  H27 UNL A   1      14.882  52.525   2.253  1.00  0.00    +0.000 H 
ATOM    123  H28 UNL A   1      15.844  57.447   2.646  1.00  0.00    +0.000 H 
ATOM    124  H29 UNL A   1      17.231  57.212   0.507  1.00  0.00    +0.000 H 
ATOM    125  H30 UNL A   1      15.596  47.301   0.434  1.00  0.00    +0.000 H 
ATOM    126  H31 UNL A   1      13.824  47.583   2.262  1.00  0.00    +0.000 H 
ENDROOT
BRANCH   28   27
ATOM    115  H20 UNL A   1       9.726  48.237   4.683  1.00  0.00    +0.000 H 
ATOM    116  H21 UNL A   1      10.988  49.738   3.254  1.00  0.00    +0.000 H 
ATOM     85  C57 UNL A   1      13.533  48.448   5.023  1.00  0.00    +0.000 C 
ATOM     86  C58 UNL A   1      12.816  47.528   5.785  1.00  0.00    +0.000 C 
ATOM     24  C15 UNL A   1      11.421  47.492   5.703  1.00  0.00    +0.000 C 
ATOM     25  C16 UNL A   1      10.752  48.292   4.771  1.00  0.00    +0.000 C 
ATOM     26  C17 UNL A   1      11.478  49.167   3.959  1.00  0.00    +0.000 C 
ATOM     27  C18 UNL A   1      12.871  49.271   4.100  1.00  0.00    +0.000 C 
ATOM    127  H32 UNL A   1      14.555  48.524   5.139  1.00  0.00    +0.000 H 
ATOM    128  H33 UNL A   1      13.314  46.875   6.409  1.00  0.00    +0.000 H 
BRANCH   24   22
ATOM     22  C14 UNL A   1      10.624  46.601   6.574  1.00  0.00    +0.000 C 
ATOM     23  O4  UNL A   1       9.430  46.437   6.346  1.00  0.00    +0.000 O 
BRANCH   22   21
ATOM    114  H19 UNL A   1      11.680  45.136   7.437  1.00  0.00    +0.000 H 
ATOM     21  N4  UNL A   1      11.214  45.978   7.644  1.00  0.00    +0.000 N 
BRANCH   21   20
ATOM    113  H18 UNL A   1      10.697  45.655   9.599  1.00  0.00    +0.000 H 
ATOM     20  C13 UNL A   1      11.247  46.380   9.038  1.00  0.00    +0.000 C 
ATOM    112  H17 UNL A   1      10.813  47.356   9.125  1.00  0.00    +0.000 H 
BRANCH   20   19
ATOM     19  C12 UNL A   1      12.665  46.424   9.598  1.00  0.00    +0.000 C 
ATOM    110  H15 UNL A   1      12.599  46.420  10.667  1.00  0.00    +0.000 H 
ATOM    111  H16 UNL A   1      13.168  45.568   9.199  1.00  0.00    +0.000 H 
BRANCH   19   18
ATOM     18  C11 UNL A   1      13.493  47.640   9.178  1.00  0.00    +0.000 C 
ATOM    108  H13 UNL A   1      13.244  47.874   8.164  1.00  0.00    +0.000 H 
ATOM    109  H14 UNL A   1      13.249  48.415   9.873  1.00  0.00    +0.000 H 
BRANCH   18   17
ATOM     17  C10 UNL A   1      15.013  47.467   9.263  1.00  0.00    +0.000 C 
ATOM    106  H11 UNL A   1      15.400  48.243   9.889  1.00  0.00    +0.000 H 
ATOM    107  H12 UNL A   1      15.175  46.482   9.647  1.00  0.00    +0.000 H 
BRANCH   17   16
ATOM    105  H10 UNL A   1      15.100  47.106   7.194  1.00  0.00    +0.000 H 
ATOM    104  H9  UNL A   1      16.673  46.979   8.029  1.00  0.00    +0.000 H 
ATOM     16  C9  UNL A   1      15.759  47.525   7.926  1.00  0.00    +0.000 C 
BRANCH   16   15
ATOM    103  H8  UNL A   1      15.192  49.498   7.376  1.00  0.00    +0.000 H 
ATOM    102  H7  UNL A   1      16.575  48.873   6.490  1.00  0.00    +0.000 H 
ATOM     15  C8  UNL A   1      16.098  48.933   7.446  1.00  0.00    +0.000 C 
BRANCH   15   14
ATOM    101  H6  UNL A   1      17.920  49.304   8.289  1.00  0.00    +0.000 H 
ATOM     14  N3  UNL A   1      16.985  49.596   8.378  1.00  0.00    +0.000 N 
BRANCH   14   12
ATOM     12  C7  UNL A   1      16.812  50.540   9.357  1.00  0.00    +0.000 C 
ATOM     13  O3  UNL A   1      17.793  50.828  10.038  1.00  0.00    +0.000 O 
BRANCH   12   11
ATOM    129  H34 UNL A   1      15.367  51.338  11.813  1.00  0.00    +0.000 H 
ATOM    130  H35 UNL A   1      14.506  50.010  11.224  1.00  0.00    +0.000 H 
ATOM    131  H36 UNL A   1      12.613  51.455  10.728  1.00  0.00    +0.000 H 
ATOM      9  N1  UNL A   1      13.886  52.596   9.504  1.00  0.00    +0.000 N 
ATOM     10  N2  UNL A   1      14.906  51.988   8.840  1.00  0.00    +0.000 N 
ATOM     11  C6  UNL A   1      15.479  51.190   9.691  1.00  0.00    +0.000 C 
ATOM     87  C59 UNL A   1      14.764  51.021  10.988  1.00  0.00    +0.000 C 
ATOM     88  C60 UNL A   1      13.562  51.949  10.779  1.00  0.00    +0.000 C 
BRANCH    9    8
ATOM     99  H4  UNL A   1      12.124  56.322   7.553  1.00  0.00    +0.000 H 
ATOM    100  H5  UNL A   1      13.891  55.167   8.753  1.00  0.00    +0.000 H 
ATOM      5  C2  UNL A   1      10.860  54.631   7.422  1.00  0.00    +0.000 C 
ATOM      6  C3  UNL A   1      12.020  55.322   7.788  1.00  0.00    +0.000 C 
ATOM      7  C4  UNL A   1      13.041  54.652   8.474  1.00  0.00    +0.000 C 
ATOM    136  H41 UNL A   1       9.863  52.770   7.462  1.00  0.00    +0.000 H 
ATOM    135  H40 UNL A   1      11.640  51.626   8.638  1.00  0.00    +0.000 H 
ATOM      8  C5  UNL A   1      12.921  53.293   8.785  1.00  0.00    +0.000 C 
ATOM     94  C65 UNL A   1      11.746  52.626   8.408  1.00  0.00    +0.000 C 
ATOM     95  C66 UNL A   1      10.719  53.281   7.731  1.00  0.00    +0.000 C 
BRANCH    5    2
ATOM      2  S1  UNL A   1       9.568  55.533   6.606  1.00  0.00    +0.000 S 
ATOM      3  O1  UNL A   1       9.840  56.938   6.839  1.00  0.00    +0.000 O 
ATOM      4  O2  UNL A   1       8.314  54.932   7.018  1.00  0.00    +0.000 O 
BRANCH    2    1
ATOM      1  C1  UNL A   1       9.745  55.232   4.868  1.00  0.00    +0.000 C 
ATOM     98  H3  UNL A   1      10.029  56.140   4.376  1.00  0.00    +0.000 H 
ATOM     97  H2  UNL A   1      10.498  54.490   4.710  1.00  0.00    +0.000 H 
ATOM     96  H1  UNL A   1       8.814  54.887   4.470  1.00  0.00    +0.000 H 
ENDBRANCH    2    1
ENDBRANCH    5    2
ENDBRANCH    9    8
BRANCH   88   89
ATOM    132  H37 UNL A   1      14.576  54.614  11.797  1.00  0.00    +0.000 H 
ATOM    133  H38 UNL A   1      13.494  55.253  14.133  1.00  0.00    +0.000 H 
ATOM    134  H39 UNL A   1      11.809  53.382  14.708  1.00  0.00    +0.000 H 
ATOM     89  C61 UNL A   1      13.322  52.858  11.950  1.00  0.00    +0.000 C 
ATOM     90  C62 UNL A   1      13.875  54.068  12.323  1.00  0.00    +0.000 C 
ATOM     91  C63 UNL A   1      13.293  54.414  13.566  1.00  0.00    +0.000 C 
ATOM     92  C64 UNL A   1      12.404  53.410  13.865  1.00  0.00    +0.000 C 
ATOM     93  O5  UNL A   1      12.419  52.461  12.897  1.00  0.00    +0.000 O 
ENDBRANCH   88   89
ENDBRANCH   12   11
ENDBRANCH   14   12
ENDBRANCH   15   14
ENDBRANCH   16   15
ENDBRANCH   17   16
ENDBRANCH   18   17
ENDBRANCH   19   18
ENDBRANCH   20   19
ENDBRANCH   21   20
ENDBRANCH   22   21
ENDBRANCH   24   22
ENDBRANCH   28   27
BRANCH   32   33
ATOM     33  C23 UNL A   1      17.107  48.489  -1.349  1.00  0.00    +0.000 C 
ATOM     34  C24 UNL A   1      18.180  47.685  -0.931  1.00  0.00    +0.000 C 
ATOM     35  F1  UNL A   1      18.861  47.996   0.183  1.00  0.00    +0.000 F 
ATOM     36  C25 UNL A   1      18.590  46.588  -1.683  1.00  0.00    +0.000 C 
ATOM     37  F2  UNL A   1      19.656  45.873  -1.295  1.00  0.00    +0.000 F 
ATOM     38  C26 UNL A   1      17.914  46.248  -2.844  1.00  0.00    +0.000 C 
ATOM     39  F3  UNL A   1      18.312  45.194  -3.568  1.00  0.00    +0.000 F 
ATOM     40  C27 UNL A   1      16.832  47.008  -3.260  1.00  0.00    +0.000 C 
ATOM     41  F4  UNL A   1      16.169  46.674  -4.376  1.00  0.00    +0.000 F 
ATOM     42  C28 UNL A   1      16.437  48.124  -2.526  1.00  0.00    +0.000 C 
ATOM     43  F5  UNL A   1      15.401  48.854  -2.969  1.00  0.00    +0.000 F 
ENDBRANCH   32   33
BRANCH   49   50
ATOM     50  C34 UNL A   1      18.273  55.612  -1.281  1.00  0.00    +0.000 C 
ATOM     51  C35 UNL A   1      17.709  56.232  -2.405  1.00  0.00    +0.000 C 
ATOM     52  F6  UNL A   1      16.482  55.885  -2.821  1.00  0.00    +0.000 F 
ATOM     53  C36 UNL A   1      18.420  57.186  -3.128  1.00  0.00    +0.000 C 
ATOM     54  F7  UNL A   1      17.878  57.734  -4.223  1.00  0.00    +0.000 F 
ATOM     55  C37 UNL A   1      19.693  57.559  -2.724  1.00  0.00    +0.000 C 
ATOM     56  F8  UNL A   1      20.374  58.483  -3.417  1.00  0.00    +0.000 F 
ATOM     57  C38 UNL A   1      20.264  56.971  -1.605  1.00  0.00    +0.000 C 
ATOM     58  F9  UNL A   1      21.490  57.339  -1.208  1.00  0.00    +0.000 F 
ATOM     59  C39 UNL A   1      19.567  55.998  -0.896  1.00  0.00    +0.000 C 
ATOM     60  F10 UNL A   1      20.149  55.437   0.175  1.00  0.00    +0.000 F 
ENDBRANCH   49   50
BRANCH   64   65
ATOM     65  C43 UNL A   1      14.275  56.129   4.409  1.00  0.00    +0.000 C 
ATOM     66  C44 UNL A   1      13.083  56.840   4.217  1.00  0.00    +0.000 C 
ATOM     67  F11 UNL A   1      12.285  56.540   3.182  1.00  0.00    +0.000 F 
ATOM     68  C45 UNL A   1      12.719  57.877   5.073  1.00  0.00    +0.000 C 
ATOM     69  F12 UNL A   1      11.587  58.560   4.851  1.00  0.00    +0.000 F 
ATOM     70  C46 UNL A   1      13.528  58.208   6.150  1.00  0.00    +0.000 C 
ATOM     71  F13 UNL A   1      13.171  59.197   6.980  1.00  0.00    +0.000 F 
ATOM     72  C47 UNL A   1      14.708  57.512   6.364  1.00  0.00    +0.000 C 
ATOM     73  F14 UNL A   1      15.485  57.818   7.412  1.00  0.00    +0.000 F 
ATOM     74  C48 UNL A   1      15.086  56.491   5.495  1.00  0.00    +0.000 C 
ATOM     75  F15 UNL A   1      16.232  55.835   5.725  1.00  0.00    +0.000 F 
ENDBRANCH   64   65
TORSDOF 19
ENDMDL
MODEL 6
REMARK VINA RESULT:     -10.7     23.711     33.166
ROOT
ATOM     28  C19 UNL A   1      44.237  32.426  28.567  1.00  0.00    +0.000 C 
ATOM     29  C20 UNL A   1      42.928  32.017  29.178  1.00  0.00    +0.000 C 
ATOM     30  N5  UNL A   1      42.347  30.843  29.185  1.00  0.00    +0.000 N 
ATOM     31  C21 UNL A   1      41.185  31.003  29.926  1.00  0.00    +0.000 C 
ATOM     32  C22 UNL A   1      40.206  30.097  30.170  1.00  0.00    +0.000 C 
ATOM     44  C29 UNL A   1      40.214  28.744  29.679  1.00  0.00    +0.000 C 
ATOM     45  C30 UNL A   1      39.242  27.769  29.814  1.00  0.00    +0.000 C 
ATOM     46  C31 UNL A   1      39.710  26.596  29.211  1.00  0.00    +0.000 C 
ATOM     47  C32 UNL A   1      40.955  26.853  28.660  1.00  0.00    +0.000 C 
ATOM     48  N6  UNL A   1      41.254  28.173  28.958  1.00  0.00    +0.000 N 
ATOM     49  C33 UNL A   1      41.809  25.963  27.915  1.00  0.00    +0.000 C 
ATOM     61  C40 UNL A   1      43.015  26.296  27.392  1.00  0.00    +0.000 C 
ATOM     62  N7  UNL A   1      43.685  27.510  27.451  1.00  0.00    +0.000 N 
ATOM     63  C41 UNL A   1      44.814  27.331  26.811  1.00  0.00    +0.000 C 
ATOM     64  C42 UNL A   1      45.919  28.315  26.546  1.00  0.00    +0.000 C 
ATOM     76  C49 UNL A   1      45.773  29.593  26.943  1.00  0.00    +0.000 C 
ATOM     77  C50 UNL A   1      46.749  30.659  26.737  1.00  0.00    +0.000 C 
ATOM     78  C51 UNL A   1      46.295  31.785  27.309  1.00  0.00    +0.000 C 
ATOM     79  C52 UNL A   1      44.980  31.525  27.897  1.00  0.00    +0.000 C 
ATOM     80  N8  UNL A   1      44.743  30.203  27.614  1.00  0.00    +0.000 N 
ATOM     81  C53 UNL A   1      44.998  25.971  26.286  1.00  0.00    +0.000 C 
ATOM     82  C54 UNL A   1      43.859  25.391  26.639  1.00  0.00    +0.000 C 
ATOM     83  C55 UNL A   1      41.168  32.370  30.398  1.00  0.00    +0.000 C 
ATOM     84  C56 UNL A   1      42.187  33.058  29.905  1.00  0.00    +0.000 C 
ATOM    117  H22 UNL A   1      38.328  27.886  30.279  1.00  0.00    +0.000 H 
ATOM    118  H23 UNL A   1      39.212  25.692  29.181  1.00  0.00    +0.000 H 
ATOM    119  H24 UNL A   1      42.081  28.639  28.696  1.00  0.00    +0.000 H 
ATOM    120  H25 UNL A   1      47.645  30.563  26.234  1.00  0.00    +0.000 H 
ATOM    121  H26 UNL A   1      46.791  32.690  27.331  1.00  0.00    +0.000 H 
ATOM    122  H27 UNL A   1      43.913  29.738  27.869  1.00  0.00    +0.000 H 
ATOM    123  H28 UNL A   1      45.802  25.571  25.776  1.00  0.00    +0.000 H 
ATOM    124  H29 UNL A   1      43.605  24.418  26.406  1.00  0.00    +0.000 H 
ATOM    125  H30 UNL A   1      40.456  32.758  31.037  1.00  0.00    +0.000 H 
ATOM    126  H31 UNL A   1      42.404  34.062  30.005  1.00  0.00    +0.000 H 
ENDROOT
BRANCH   28   27
ATOM    115  H20 UNL A   1      44.847  36.828  27.294  1.00  0.00    +0.000 H 
ATOM    116  H21 UNL A   1      43.892  34.615  27.007  1.00  0.00    +0.000 H 
ATOM     85  C57 UNL A   1      45.518  34.104  29.899  1.00  0.00    +0.000 C 
ATOM     86  C58 UNL A   1      45.997  35.397  30.103  1.00  0.00    +0.000 C 
ATOM     24  C15 UNL A   1      45.802  36.375  29.124  1.00  0.00    +0.000 C 
ATOM     25  C16 UNL A   1      45.024  36.094  27.997  1.00  0.00    +0.000 C 
ATOM     26  C17 UNL A   1      44.487  34.816  27.825  1.00  0.00    +0.000 C 
ATOM     27  C18 UNL A   1      44.754  33.804  28.761  1.00  0.00    +0.000 C 
ATOM    127  H32 UNL A   1      45.726  33.365  30.588  1.00  0.00    +0.000 H 
ATOM    128  H33 UNL A   1      46.495  35.631  30.976  1.00  0.00    +0.000 H 
BRANCH   24   22
ATOM     22  C14 UNL A   1      46.387  37.726  29.263  1.00  0.00    +0.000 C 
ATOM     23  O4  UNL A   1      47.593  37.886  29.101  1.00  0.00    +0.000 O 
BRANCH   22   21
ATOM    114  H19 UNL A   1      45.481  38.958  30.554  1.00  0.00    +0.000 H 
ATOM     21  N4  UNL A   1      45.589  38.791  29.590  1.00  0.00    +0.000 N 
BRANCH   21   20
ATOM    113  H18 UNL A   1      44.906  39.305  27.728  1.00  0.00    +0.000 H 
ATOM     20  C13 UNL A   1      44.877  39.709  28.718  1.00  0.00    +0.000 C 
ATOM    112  H17 UNL A   1      45.353  40.667  28.766  1.00  0.00    +0.000 H 
BRANCH   20   19
ATOM     19  C12 UNL A   1      43.413  39.869  29.113  1.00  0.00    +0.000 C 
ATOM    110  H15 UNL A   1      43.313  39.584  30.140  1.00  0.00    +0.000 H 
ATOM    111  H16 UNL A   1      43.166  40.894  28.928  1.00  0.00    +0.000 H 
BRANCH   19   18
ATOM     18  C11 UNL A   1      42.423  39.038  28.292  1.00  0.00    +0.000 C 
ATOM    108  H13 UNL A   1      42.542  38.012  28.573  1.00  0.00    +0.000 H 
ATOM    109  H14 UNL A   1      41.455  39.437  28.509  1.00  0.00    +0.000 H 
BRANCH   18   17
ATOM     17  C10 UNL A   1      42.583  39.132  26.771  1.00  0.00    +0.000 C 
ATOM    106  H11 UNL A   1      43.593  38.877  26.529  1.00  0.00    +0.000 H 
ATOM    107  H12 UNL A   1      41.859  38.461  26.358  1.00  0.00    +0.000 H 
BRANCH   17   16
ATOM    105  H10 UNL A   1      41.966  41.131  26.966  1.00  0.00    +0.000 H 
ATOM    104  H9  UNL A   1      41.533  40.378  25.407  1.00  0.00    +0.000 H 
ATOM     16  C9  UNL A   1      42.283  40.504  26.160  1.00  0.00    +0.000 C 
BRANCH   16   15
ATOM    103  H8  UNL A   1      44.079  40.457  25.024  1.00  0.00    +0.000 H 
ATOM    102  H7  UNL A   1      44.056  41.681  26.284  1.00  0.00    +0.000 H 
ATOM     15  C8  UNL A   1      43.485  41.194  25.522  1.00  0.00    +0.000 C 
BRANCH   15   14
ATOM    101  H6  UNL A   1      42.142  42.024  24.226  1.00  0.00    +0.000 H 
ATOM     14  N3  UNL A   1      43.059  42.178  24.550  1.00  0.00    +0.000 N 
BRANCH   14   12
ATOM     12  C7  UNL A   1      43.648  43.276  23.979  1.00  0.00    +0.000 C 
ATOM     13  O3  UNL A   1      43.999  44.181  24.734  1.00  0.00    +0.000 O 
BRANCH   12   11
ATOM    129  H34 UNL A   1      41.979  42.939  21.558  1.00  0.00    +0.000 H 
ATOM    130  H35 UNL A   1      43.114  41.691  21.472  1.00  0.00    +0.000 H 
ATOM    131  H36 UNL A   1      44.125  42.743  19.526  1.00  0.00    +0.000 H 
ATOM      9  N1  UNL A   1      44.438  44.461  20.696  1.00  0.00    +0.000 N 
ATOM     10  N2  UNL A   1      44.682  44.334  22.027  1.00  0.00    +0.000 N 
ATOM     11  C6  UNL A   1      43.824  43.470  22.481  1.00  0.00    +0.000 C 
ATOM     87  C59 UNL A   1      43.027  42.757  21.443  1.00  0.00    +0.000 C 
ATOM     88  C60 UNL A   1      43.574  43.403  20.164  1.00  0.00    +0.000 C 
BRANCH    9    8
ATOM     99  H4  UNL A   1      46.086  48.018  18.365  1.00  0.00    +0.000 H 
ATOM    100  H5  UNL A   1      44.445  46.998  19.836  1.00  0.00    +0.000 H 
ATOM      5  C2  UNL A   1      47.256  46.268  18.161  1.00  0.00    +0.000 C 
ATOM      6  C3  UNL A   1      46.183  47.028  18.640  1.00  0.00    +0.000 C 
ATOM      7  C4  UNL A   1      45.242  46.439  19.494  1.00  0.00    +0.000 C 
ATOM    136  H41 UNL A   1      48.186  44.372  18.181  1.00  0.00    +0.000 H 
ATOM    135  H40 UNL A   1      46.557  43.375  19.664  1.00  0.00    +0.000 H 
ATOM      8  C5  UNL A   1      45.370  45.102  19.887  1.00  0.00    +0.000 C 
ATOM     94  C65 UNL A   1      46.454  44.364  19.390  1.00  0.00    +0.000 C 
ATOM     95  C66 UNL A   1      47.395  44.934  18.534  1.00  0.00    +0.000 C 
BRANCH    5    2
ATOM      2  S1  UNL A   1      48.392  47.037  17.035  1.00  0.00    +0.000 S 
ATOM      3  O1  UNL A   1      49.552  47.416  17.818  1.00  0.00    +0.000 O 
ATOM      4  O2  UNL A   1      47.636  48.021  16.285  1.00  0.00    +0.000 O 
BRANCH    2    1
ATOM      1  C1  UNL A   1      48.906  45.788  15.886  1.00  0.00    +0.000 C 
ATOM     98  H3  UNL A   1      48.963  46.209  14.903  1.00  0.00    +0.000 H 
ATOM     97  H2  UNL A   1      49.866  45.414  16.171  1.00  0.00    +0.000 H 
ATOM     96  H1  UNL A   1      48.196  44.988  15.889  1.00  0.00    +0.000 H 
ENDBRANCH    2    1
ENDBRANCH    5    2
ENDBRANCH    9    8
BRANCH   88   89
ATOM    132  H37 UNL A   1      43.343  44.830  17.504  1.00  0.00    +0.000 H 
ATOM    133  H38 UNL A   1      40.813  45.168  16.784  1.00  0.00    +0.000 H 
ATOM    134  H39 UNL A   1      39.366  44.032  18.597  1.00  0.00    +0.000 H 
ATOM     89  C61 UNL A   1      42.487  43.834  19.223  1.00  0.00    +0.000 C 
ATOM     90  C62 UNL A   1      42.506  44.513  18.019  1.00  0.00    +0.000 C 
ATOM     91  C63 UNL A   1      41.156  44.687  17.630  1.00  0.00    +0.000 C 
ATOM     92  C64 UNL A   1      40.397  44.086  18.604  1.00  0.00    +0.000 C 
ATOM     93  O5  UNL A   1      41.191  43.572  19.575  1.00  0.00    +0.000 O 
ENDBRANCH   88   89
ENDBRANCH   12   11
ENDBRANCH   14   12
ENDBRANCH   15   14
ENDBRANCH   16   15
ENDBRANCH   17   16
ENDBRANCH   18   17
ENDBRANCH   19   18
ENDBRANCH   20   19
ENDBRANCH   21   20
ENDBRANCH   22   21
ENDBRANCH   24   22
ENDBRANCH   28   27
BRANCH   32   33
ATOM     33  C23 UNL A   1      39.046  30.548  31.009  1.00  0.00    +0.000 C 
ATOM     34  C24 UNL A   1      39.036  30.380  32.404  1.00  0.00    +0.000 C 
ATOM     35  F1  UNL A   1      40.070  29.785  33.018  1.00  0.00    +0.000 F 
ATOM     36  C25 UNL A   1      37.940  30.774  33.166  1.00  0.00    +0.000 C 
ATOM     37  F2  UNL A   1      37.928  30.546  34.487  1.00  0.00    +0.000 F 
ATOM     38  C26 UNL A   1      36.852  31.380  32.558  1.00  0.00    +0.000 C 
ATOM     39  F3  UNL A   1      35.796  31.757  33.293  1.00  0.00    +0.000 F 
ATOM     40  C27 UNL A   1      36.852  31.586  31.187  1.00  0.00    +0.000 C 
ATOM     41  F4  UNL A   1      35.806  32.183  30.600  1.00  0.00    +0.000 F 
ATOM     42  C28 UNL A   1      37.934  31.165  30.417  1.00  0.00    +0.000 C 
ATOM     43  F5  UNL A   1      37.894  31.357  29.089  1.00  0.00    +0.000 F 
ENDBRANCH   32   33
BRANCH   49   50
ATOM     50  C34 UNL A   1      41.324  24.563  27.679  1.00  0.00    +0.000 C 
ATOM     51  C35 UNL A   1      40.282  24.289  26.782  1.00  0.00    +0.000 C 
ATOM     52  F6  UNL A   1      39.654  25.294  26.150  1.00  0.00    +0.000 F 
ATOM     53  C36 UNL A   1      39.854  22.983  26.558  1.00  0.00    +0.000 C 
ATOM     54  F7  UNL A   1      38.828  22.749  25.729  1.00  0.00    +0.000 F 
ATOM     55  C37 UNL A   1      40.480  21.926  27.202  1.00  0.00    +0.000 C 
ATOM     56  F8  UNL A   1      40.073  20.669  26.981  1.00  0.00    +0.000 F 
ATOM     57  C38 UNL A   1      41.524  22.173  28.081  1.00  0.00    +0.000 C 
ATOM     58  F9  UNL A   1      42.137  21.151  28.696  1.00  0.00    +0.000 F 
ATOM     59  C39 UNL A   1      41.935  23.479  28.327  1.00  0.00    +0.000 C 
ATOM     60  F10 UNL A   1      42.940  23.688  29.191  1.00  0.00    +0.000 F 
ENDBRANCH   49   50
BRANCH   64   65
ATOM     65  C43 UNL A   1      47.156  27.910  25.833  1.00  0.00    +0.000 C 
ATOM     66  C44 UNL A   1      48.329  27.607  26.538  1.00  0.00    +0.000 C 
ATOM     67  F11 UNL A   1      48.357  27.730  27.873  1.00  0.00    +0.000 F 
ATOM     68  C45 UNL A   1      49.484  27.203  25.873  1.00  0.00    +0.000 C 
ATOM     69  F12 UNL A   1      50.600  26.947  26.568  1.00  0.00    +0.000 F 
ATOM     70  C46 UNL A   1      49.481  27.071  24.491  1.00  0.00    +0.000 C 
ATOM     71  F13 UNL A   1      50.589  26.669  23.853  1.00  0.00    +0.000 F 
ATOM     72  C47 UNL A   1      48.330  27.356  23.774  1.00  0.00    +0.000 C 
ATOM     73  F14 UNL A   1      48.319  27.215  22.441  1.00  0.00    +0.000 F 
ATOM     74  C48 UNL A   1      47.182  27.784  24.436  1.00  0.00    +0.000 C 
ATOM     75  F15 UNL A   1      46.082  28.055  23.717  1.00  0.00    +0.000 F 
ENDBRANCH   64   65
TORSDOF 19
ENDMDL
MODEL 7
REMARK VINA RESULT:     -10.6     42.640     45.775
ROOT
ATOM     28  C19 UNL A   1      13.143  49.751   3.152  1.00  0.00    +0.000 C 
ATOM     29  C20 UNL A   1      14.103  49.361   2.065  1.00  0.00    +0.000 C 
ATOM     30  N5  UNL A   1      15.015  50.085   1.466  1.00  0.00    +0.000 N 
ATOM     31  C21 UNL A   1      15.653  49.228   0.580  1.00  0.00    +0.000 C 
ATOM     32  C22 UNL A   1      16.628  49.511  -0.318  1.00  0.00    +0.000 C 
ATOM     44  C29 UNL A   1      17.196  50.820  -0.510  1.00  0.00    +0.000 C 
ATOM     45  C30 UNL A   1      18.139  51.226  -1.437  1.00  0.00    +0.000 C 
ATOM     46  C31 UNL A   1      18.418  52.579  -1.214  1.00  0.00    +0.000 C 
ATOM     47  C32 UNL A   1      17.616  53.029  -0.178  1.00  0.00    +0.000 C 
ATOM     48  N6  UNL A   1      16.874  51.938   0.248  1.00  0.00    +0.000 N 
ATOM     49  C33 UNL A   1      17.530  54.353   0.382  1.00  0.00    +0.000 C 
ATOM     61  C40 UNL A   1      16.703  54.719   1.394  1.00  0.00    +0.000 C 
ATOM     62  N7  UNL A   1      15.794  53.944   2.099  1.00  0.00    +0.000 N 
ATOM     63  C41 UNL A   1      15.246  54.744   2.981  1.00  0.00    +0.000 C 
ATOM     64  C42 UNL A   1      14.180  54.444   3.998  1.00  0.00    +0.000 C 
ATOM     76  C49 UNL A   1      13.622  53.219   4.027  1.00  0.00    +0.000 C 
ATOM     77  C50 UNL A   1      12.567  52.792   4.941  1.00  0.00    +0.000 C 
ATOM     78  C51 UNL A   1      12.294  51.497   4.720  1.00  0.00    +0.000 C 
ATOM     79  C52 UNL A   1      13.138  51.010   3.628  1.00  0.00    +0.000 C 
ATOM     80  N8  UNL A   1      13.880  52.107   3.266  1.00  0.00    +0.000 N 
ATOM     81  C53 UNL A   1      15.762  56.119   2.948  1.00  0.00    +0.000 C 
ATOM     82  C54 UNL A   1      16.623  56.058   1.941  1.00  0.00    +0.000 C 
ATOM     83  C55 UNL A   1      15.063  47.919   0.759  1.00  0.00    +0.000 C 
ATOM     84  C56 UNL A   1      14.053  47.963   1.614  1.00  0.00    +0.000 C 
ATOM    117  H22 UNL A   1      18.563  50.633  -2.168  1.00  0.00    +0.000 H 
ATOM    118  H23 UNL A   1      19.105  53.148  -1.736  1.00  0.00    +0.000 H 
ATOM    119  H24 UNL A   1      16.215  51.953   0.979  1.00  0.00    +0.000 H 
ATOM    120  H25 UNL A   1      12.105  53.390   5.644  1.00  0.00    +0.000 H 
ATOM    121  H26 UNL A   1      11.602  50.933   5.238  1.00  0.00    +0.000 H 
ATOM    122  H27 UNL A   1      14.534  52.096   2.529  1.00  0.00    +0.000 H 
ATOM    123  H28 UNL A   1      15.519  56.922   3.549  1.00  0.00    +0.000 H 
ATOM    124  H29 UNL A   1      17.167  56.863   1.591  1.00  0.00    +0.000 H 
ATOM    125  H30 UNL A   1      15.388  47.062   0.283  1.00  0.00    +0.000 H 
ATOM    126  H31 UNL A   1      13.401  47.212   1.891  1.00  0.00    +0.000 H 
ENDROOT
BRANCH   28   27
ATOM    115  H20 UNL A   1       9.096  47.568   3.627  1.00  0.00    +0.000 H 
ATOM    116  H21 UNL A   1      10.571  49.159   2.538  1.00  0.00    +0.000 H 
ATOM     85  C57 UNL A   1      12.730  47.907   4.783  1.00  0.00    +0.000 C 
ATOM     86  C58 UNL A   1      11.906  46.937   5.351  1.00  0.00    +0.000 C 
ATOM     24  C15 UNL A   1      10.564  46.854   4.970  1.00  0.00    +0.000 C 
ATOM     25  C16 UNL A   1      10.077  47.657   3.935  1.00  0.00    +0.000 C 
ATOM     26  C17 UNL A   1      10.922  48.584   3.319  1.00  0.00    +0.000 C 
ATOM     27  C18 UNL A   1      12.247  48.734   3.758  1.00  0.00    +0.000 C 
ATOM    127  H32 UNL A   1      13.699  48.016   5.118  1.00  0.00    +0.000 H 
ATOM    128  H33 UNL A   1      12.286  46.283   6.052  1.00  0.00    +0.000 H 
BRANCH   24   22
ATOM     22  C14 UNL A   1       9.637  45.907   5.628  1.00  0.00    +0.000 C 
ATOM     23  O4  UNL A   1       8.631  45.530   5.036  1.00  0.00    +0.000 O 
BRANCH   22   21
ATOM    114  H19 UNL A   1      10.704  44.921   7.005  1.00  0.00    +0.000 H 
ATOM     21  N4  UNL A   1       9.892  45.469   6.902  1.00  0.00    +0.000 N 
BRANCH   21   20
ATOM    113  H18 UNL A   1       9.159  44.790   8.691  1.00  0.00    +0.000 H 
ATOM     20  C13 UNL A   1       9.136  45.695   8.121  1.00  0.00    +0.000 C 
ATOM    112  H17 UNL A   1       8.135  45.968   7.857  1.00  0.00    +0.000 H 
BRANCH   20   19
ATOM     19  C12 UNL A   1       9.735  46.802   8.981  1.00  0.00    +0.000 C 
ATOM    110  H15 UNL A   1       9.420  46.644   9.992  1.00  0.00    +0.000 H 
ATOM    111  H16 UNL A   1      10.795  46.740   8.849  1.00  0.00    +0.000 H 
BRANCH   19   18
ATOM     18  C11 UNL A   1       9.339  48.225   8.578  1.00  0.00    +0.000 C 
ATOM    108  H13 UNL A   1       8.489  48.160   7.932  1.00  0.00    +0.000 H 
ATOM    109  H14 UNL A   1       9.149  48.746   9.492  1.00  0.00    +0.000 H 
BRANCH   18   17
ATOM     17  C10 UNL A   1      10.421  49.033   7.853  1.00  0.00    +0.000 C 
ATOM    106  H11 UNL A   1      11.134  49.357   8.582  1.00  0.00    +0.000 H 
ATOM    107  H12 UNL A   1      10.829  48.379   7.112  1.00  0.00    +0.000 H 
BRANCH   17   16
ATOM    105  H10 UNL A   1       9.041  49.969   6.574  1.00  0.00    +0.000 H 
ATOM    104  H9  UNL A   1      10.707  50.598   6.445  1.00  0.00    +0.000 H 
ATOM     16  C9  UNL A   1       9.925  50.269   7.098  1.00  0.00    +0.000 C 
BRANCH   16   15
ATOM    103  H8  UNL A   1       9.409  51.088   8.989  1.00  0.00    +0.000 H 
ATOM    102  H7  UNL A   1       8.604  51.855   7.629  1.00  0.00    +0.000 H 
ATOM     15  C8  UNL A   1       9.524  51.442   7.987  1.00  0.00    +0.000 C 
BRANCH   15   14
ATOM    101  H6  UNL A   1      10.342  53.198   7.341  1.00  0.00    +0.000 H 
ATOM     14  N3  UNL A   1      10.541  52.471   7.974  1.00  0.00    +0.000 N 
BRANCH   14   12
ATOM     12  C7  UNL A   1      11.721  52.658   8.646  1.00  0.00    +0.000 C 
ATOM     13  O3  UNL A   1      12.186  53.796   8.658  1.00  0.00    +0.000 O 
BRANCH   12   11
ATOM    129  H34 UNL A   1      14.567  51.872   8.848  1.00  0.00    +0.000 H 
ATOM    130  H35 UNL A   1      13.871  50.704   7.846  1.00  0.00    +0.000 H 
ATOM    131  H36 UNL A   1      14.222  49.018   9.564  1.00  0.00    +0.000 H 
ATOM      9  N1  UNL A   1      13.073  50.201  10.869  1.00  0.00    +0.000 N 
ATOM     10  N2  UNL A   1      12.056  50.956  10.375  1.00  0.00    +0.000 N 
ATOM     11  C6  UNL A   1      12.513  51.542   9.309  1.00  0.00    +0.000 C 
ATOM     87  C59 UNL A   1      13.852  51.076   8.849  1.00  0.00    +0.000 C 
ATOM     88  C60 UNL A   1      14.177  50.027   9.920  1.00  0.00    +0.000 C 
BRANCH    9    8
ATOM     99  H4  UNL A   1      12.009  46.007  12.311  1.00  0.00    +0.000 H 
ATOM    100  H5  UNL A   1      12.535  47.596  10.551  1.00  0.00    +0.000 H 
ATOM      5  C2  UNL A   1      12.168  47.416  13.879  1.00  0.00    +0.000 C 
ATOM      6  C3  UNL A   1      12.208  46.992  12.547  1.00  0.00    +0.000 C 
ATOM      7  C4  UNL A   1      12.518  47.909  11.534  1.00  0.00    +0.000 C 
ATOM    136  H41 UNL A   1      12.412  49.057  15.186  1.00  0.00    +0.000 H 
ATOM    135  H40 UNL A   1      12.955  50.624  13.427  1.00  0.00    +0.000 H 
ATOM      8  C5  UNL A   1      12.804  49.244  11.842  1.00  0.00    +0.000 C 
ATOM     94  C65 UNL A   1      12.754  49.641  13.185  1.00  0.00    +0.000 C 
ATOM     95  C66 UNL A   1      12.441  48.742  14.203  1.00  0.00    +0.000 C 
BRANCH    5    2
ATOM      2  S1  UNL A   1      11.713  46.235  15.123  1.00  0.00    +0.000 S 
ATOM      3  O1  UNL A   1      12.929  45.908  15.841  1.00  0.00    +0.000 O 
ATOM      4  O2  UNL A   1      10.932  45.209  14.459  1.00  0.00    +0.000 O 
BRANCH    2    1
ATOM      1  C1  UNL A   1      10.629  47.066  16.253  1.00  0.00    +0.000 C 
ATOM     98  H3  UNL A   1      10.787  46.688  17.243  1.00  0.00    +0.000 H 
ATOM     97  H2  UNL A   1      10.832  48.115  16.236  1.00  0.00    +0.000 H 
ATOM     96  H1  UNL A   1       9.613  46.894  15.965  1.00  0.00    +0.000 H 
ENDBRANCH    2    1
ENDBRANCH    5    2
ENDBRANCH    9    8
BRANCH   88   89
ATOM    132  H37 UNL A   1      16.786  48.492   9.872  1.00  0.00    +0.000 H 
ATOM    133  H38 UNL A   1      18.650  49.672  11.343  1.00  0.00    +0.000 H 
ATOM    134  H39 UNL A   1      17.608  51.852  12.255  1.00  0.00    +0.000 H 
ATOM     89  C61 UNL A   1      15.565  50.174  10.471  1.00  0.00    +0.000 C 
ATOM     90  C62 UNL A   1      16.691  49.376  10.396  1.00  0.00    +0.000 C 
ATOM     91  C63 UNL A   1      17.689  50.009  11.175  1.00  0.00    +0.000 C 
ATOM     92  C64 UNL A   1      17.122  51.163  11.659  1.00  0.00    +0.000 C 
ATOM     93  O5  UNL A   1      15.836  51.269  11.245  1.00  0.00    +0.000 O 
ENDBRANCH   88   89
ENDBRANCH   12   11
ENDBRANCH   14   12
ENDBRANCH   15   14
ENDBRANCH   16   15
ENDBRANCH   17   16
ENDBRANCH   18   17
ENDBRANCH   19   18
ENDBRANCH   20   19
ENDBRANCH   21   20
ENDBRANCH   22   21
ENDBRANCH   24   22
ENDBRANCH   28   27
BRANCH   32   33
ATOM     33  C23 UNL A   1      17.137  48.378  -1.160  1.00  0.00    +0.000 C 
ATOM     34  C24 UNL A   1      16.565  48.070  -2.405  1.00  0.00    +0.000 C 
ATOM     35  F1  UNL A   1      15.525  48.783  -2.864  1.00  0.00    +0.000 F 
ATOM     36  C25 UNL A   1      17.027  46.996  -3.161  1.00  0.00    +0.000 C 
ATOM     37  F2  UNL A   1      16.423  46.686  -4.318  1.00  0.00    +0.000 F 
ATOM     38  C26 UNL A   1      18.092  46.234  -2.709  1.00  0.00    +0.000 C 
ATOM     39  F3  UNL A   1      18.534  45.199  -3.437  1.00  0.00    +0.000 F 
ATOM     40  C27 UNL A   1      18.694  46.539  -1.498  1.00  0.00    +0.000 C 
ATOM     41  F4  UNL A   1      19.732  45.810  -1.065  1.00  0.00    +0.000 F 
ATOM     42  C28 UNL A   1      18.215  47.593  -0.724  1.00  0.00    +0.000 C 
ATOM     43  F5  UNL A   1      18.803  47.847   0.455  1.00  0.00    +0.000 F 
ENDBRANCH   32   33
BRANCH   49   50
ATOM     50  C34 UNL A   1      18.405  55.420  -0.207  1.00  0.00    +0.000 C 
ATOM     51  C35 UNL A   1      18.083  56.046  -1.419  1.00  0.00    +0.000 C 
ATOM     52  F6  UNL A   1      17.000  55.660  -2.111  1.00  0.00    +0.000 F 
ATOM     53  C36 UNL A   1      18.895  57.049  -1.945  1.00  0.00    +0.000 C 
ATOM     54  F7  UNL A   1      18.591  57.603  -3.125  1.00  0.00    +0.000 F 
ATOM     55  C37 UNL A   1      20.023  57.463  -1.253  1.00  0.00    +0.000 C 
ATOM     56  F8  UNL A   1      20.799  58.433  -1.757  1.00  0.00    +0.000 F 
ATOM     57  C38 UNL A   1      20.351  56.869  -0.044  1.00  0.00    +0.000 C 
ATOM     58  F9  UNL A   1      21.436  57.277   0.629  1.00  0.00    +0.000 F 
ATOM     59  C39 UNL A   1      19.557  55.849   0.470  1.00  0.00    +0.000 C 
ATOM     60  F10 UNL A   1      19.905  55.284   1.636  1.00  0.00    +0.000 F 
ENDBRANCH   49   50
BRANCH   64   65
ATOM     65  C43 UNL A   1      13.714  55.481   4.953  1.00  0.00    +0.000 C 
ATOM     66  C44 UNL A   1      12.735  56.413   4.583  1.00  0.00    +0.000 C 
ATOM     67  F11 UNL A   1      12.243  56.406   3.335  1.00  0.00    +0.000 F 
ATOM     68  C45 UNL A   1      12.278  57.371   5.484  1.00  0.00    +0.000 C 
ATOM     69  F12 UNL A   1      11.362  58.269   5.097  1.00  0.00    +0.000 F 
ATOM     70  C46 UNL A   1      12.774  57.401   6.780  1.00  0.00    +0.000 C 
ATOM     71  F13 UNL A   1      12.324  58.314   7.651  1.00  0.00    +0.000 F 
ATOM     72  C47 UNL A   1      13.736  56.483   7.171  1.00  0.00    +0.000 C 
ATOM     73  F14 UNL A   1      14.206  56.498   8.426  1.00  0.00    +0.000 F 
ATOM     74  C48 UNL A   1      14.212  55.539   6.263  1.00  0.00    +0.000 C 
ATOM     75  F15 UNL A   1      15.144  54.663   6.667  1.00  0.00    +0.000 F 
ENDBRANCH   64   65
TORSDOF 19
ENDMDL
MODEL 8
REMARK VINA RESULT:     -10.6     40.184     46.701
ROOT
ATOM     28  C19 UNL A   1      18.486  19.814   4.710  1.00  0.00    +0.000 C 
ATOM     29  C20 UNL A   1      17.279  20.488   5.296  1.00  0.00    +0.000 C 
ATOM     30  N5  UNL A   1      16.531  20.117   6.306  1.00  0.00    +0.000 N 
ATOM     31  C21 UNL A   1      15.583  21.119   6.460  1.00  0.00    +0.000 C 
ATOM     32  C22 UNL A   1      14.541  21.173   7.326  1.00  0.00    +0.000 C 
ATOM     44  C29 UNL A   1      14.233  20.145   8.286  1.00  0.00    +0.000 C 
ATOM     45  C30 UNL A   1      13.165  20.072   9.162  1.00  0.00    +0.000 C 
ATOM     46  C31 UNL A   1      13.309  18.913   9.932  1.00  0.00    +0.000 C 
ATOM     47  C32 UNL A   1      14.441  18.238   9.505  1.00  0.00    +0.000 C 
ATOM     48  N6  UNL A   1      15.001  19.008   8.497  1.00  0.00    +0.000 N 
ATOM     49  C33 UNL A   1      14.973  16.986   9.978  1.00  0.00    +0.000 C 
ATOM     61  C40 UNL A   1      16.086  16.380   9.495  1.00  0.00    +0.000 C 
ATOM     62  N7  UNL A   1      16.940  16.803   8.486  1.00  0.00    +0.000 N 
ATOM     63  C41 UNL A   1      17.872  15.887   8.395  1.00  0.00    +0.000 C 
ATOM     64  C42 UNL A   1      19.045  15.819   7.456  1.00  0.00    +0.000 C 
ATOM     76  C49 UNL A   1      19.188  16.767   6.511  1.00  0.00    +0.000 C 
ATOM     77  C50 UNL A   1      20.260  16.819   5.521  1.00  0.00    +0.000 C 
ATOM     78  C51 UNL A   1      20.117  17.927   4.778  1.00  0.00    +0.000 C 
ATOM     79  C52 UNL A   1      18.924  18.649   5.222  1.00  0.00    +0.000 C 
ATOM     80  N8  UNL A   1      18.426  17.876   6.241  1.00  0.00    +0.000 N 
ATOM     81  C53 UNL A   1      17.727  14.783   9.353  1.00  0.00    +0.000 C 
ATOM     82  C54 UNL A   1      16.604  15.116   9.977  1.00  0.00    +0.000 C 
ATOM     83  C55 UNL A   1      15.881  22.139   5.478  1.00  0.00    +0.000 C 
ATOM     84  C56 UNL A   1      16.877  21.764   4.688  1.00  0.00    +0.000 C 
ATOM    117  H22 UNL A   1      12.395  20.756   9.235  1.00  0.00    +0.000 H 
ATOM    118  H23 UNL A   1      12.676  18.610  10.690  1.00  0.00    +0.000 H 
ATOM    119  H24 UNL A   1      15.822  18.782   8.003  1.00  0.00    +0.000 H 
ATOM    120  H25 UNL A   1      21.009  16.117   5.411  1.00  0.00    +0.000 H 
ATOM    121  H26 UNL A   1      20.746  18.224   4.016  1.00  0.00    +0.000 H 
ATOM    122  H27 UNL A   1      17.601  18.097   6.732  1.00  0.00    +0.000 H 
ATOM    123  H28 UNL A   1      18.336  13.964   9.503  1.00  0.00    +0.000 H 
ATOM    124  H29 UNL A   1      16.156  14.546  10.711  1.00  0.00    +0.000 H 
ATOM    125  H30 UNL A   1      15.385  23.041   5.404  1.00  0.00    +0.000 H 
ATOM    126  H31 UNL A   1      17.267  22.243   3.861  1.00  0.00    +0.000 H 
ENDROOT
BRANCH   28   27
ATOM    115  H20 UNL A   1      19.298  20.802   0.268  1.00  0.00    +0.000 H 
ATOM    116  H21 UNL A   1      17.972  19.823   2.049  1.00  0.00    +0.000 H 
ATOM     85  C57 UNL A   1      20.389  21.220   3.913  1.00  0.00    +0.000 C 
ATOM     86  C58 UNL A   1      21.103  21.849   2.896  1.00  0.00    +0.000 C 
ATOM     24  C15 UNL A   1      20.740  21.648   1.562  1.00  0.00    +0.000 C 
ATOM     25  C16 UNL A   1      19.589  20.917   1.251  1.00  0.00    +0.000 C 
ATOM     26  C17 UNL A   1      18.834  20.341   2.276  1.00  0.00    +0.000 C 
ATOM     27  C18 UNL A   1      19.245  20.465   3.612  1.00  0.00    +0.000 C 
ATOM    127  H32 UNL A   1      20.703  21.309   4.892  1.00  0.00    +0.000 H 
ATOM    128  H33 UNL A   1      21.900  22.462   3.128  1.00  0.00    +0.000 H 
BRANCH   24   22
ATOM     22  C14 UNL A   1      21.539  22.216   0.455  1.00  0.00    +0.000 C 
ATOM     23  O4  UNL A   1      22.409  21.535  -0.080  1.00  0.00    +0.000 O 
BRANCH   22   21
ATOM    114  H19 UNL A   1      21.356  24.187   0.750  1.00  0.00    +0.000 H 
ATOM     21  N4  UNL A   1      21.323  23.505   0.041  1.00  0.00    +0.000 N 
BRANCH   21   20
ATOM    113  H18 UNL A   1      21.862  23.716  -1.924  1.00  0.00    +0.000 H 
ATOM     20  C13 UNL A   1      21.050  24.009  -1.293  1.00  0.00    +0.000 C 
ATOM    112  H17 UNL A   1      20.955  25.075  -1.244  1.00  0.00    +0.000 H 
BRANCH   20   19
ATOM     19  C12 UNL A   1      19.769  23.430  -1.884  1.00  0.00    +0.000 C 
ATOM    110  H15 UNL A   1      19.165  23.070  -1.076  1.00  0.00    +0.000 H 
ATOM    111  H16 UNL A   1      19.312  24.224  -2.437  1.00  0.00    +0.000 H 
BRANCH   19   18
ATOM     18  C11 UNL A   1      19.971  22.281  -2.874  1.00  0.00    +0.000 C 
ATOM    108  H13 UNL A   1      20.073  21.376  -2.312  1.00  0.00    +0.000 H 
ATOM    109  H14 UNL A   1      19.118  22.296  -3.519  1.00  0.00    +0.000 H 
BRANCH   18   17
ATOM     17  C10 UNL A   1      21.192  22.405  -3.792  1.00  0.00    +0.000 C 
ATOM    106  H11 UNL A   1      20.843  22.652  -4.773  1.00  0.00    +0.000 H 
ATOM    107  H12 UNL A   1      21.813  23.157  -3.354  1.00  0.00    +0.000 H 
BRANCH   17   16
ATOM    105  H10 UNL A   1      22.186  20.959  -4.950  1.00  0.00    +0.000 H 
ATOM    104  H9  UNL A   1      21.568  20.354  -3.388  1.00  0.00    +0.000 H 
ATOM     16  C9  UNL A   1      22.063  21.150  -3.904  1.00  0.00    +0.000 C 
BRANCH   16   15
ATOM    103  H8  UNL A   1      23.786  20.339  -2.961  1.00  0.00    +0.000 H 
ATOM    102  H7  UNL A   1      23.445  22.008  -2.526  1.00  0.00    +0.000 H 
ATOM     15  C8  UNL A   1      23.466  21.294  -3.323  1.00  0.00    +0.000 C 
BRANCH   15   14
ATOM    101  H6  UNL A   1      24.459  21.125  -5.099  1.00  0.00    +0.000 H 
ATOM     14  N3  UNL A   1      24.400  21.741  -4.334  1.00  0.00    +0.000 N 
BRANCH   14   12
ATOM     12  C7  UNL A   1      25.220  22.831  -4.463  1.00  0.00    +0.000 C 
ATOM     13  O3  UNL A   1      26.426  22.649  -4.304  1.00  0.00    +0.000 O 
BRANCH   12   11
ATOM    129  H34 UNL A   1      24.788  24.562  -6.825  1.00  0.00    +0.000 H 
ATOM    130  H35 UNL A   1      26.127  25.232  -6.044  1.00  0.00    +0.000 H 
ATOM    131  H36 UNL A   1      24.818  27.206  -5.488  1.00  0.00    +0.000 H 
ATOM      9  N1  UNL A   1      23.458  25.946  -4.495  1.00  0.00    +0.000 N 
ATOM     10  N2  UNL A   1      23.908  24.816  -3.886  1.00  0.00    +0.000 N 
ATOM     11  C6  UNL A   1      24.727  24.247  -4.719  1.00  0.00    +0.000 C 
ATOM     87  C59 UNL A   1      25.079  25.055  -5.921  1.00  0.00    +0.000 C 
ATOM     88  C60 UNL A   1      24.247  26.319  -5.674  1.00  0.00    +0.000 C 
BRANCH    9    8
ATOM     99  H4  UNL A   1      19.756  27.809  -2.592  1.00  0.00    +0.000 H 
ATOM    100  H5  UNL A   1      20.859  26.051  -3.853  1.00  0.00    +0.000 H 
ATOM      5  C2  UNL A   1      21.509  28.958  -2.313  1.00  0.00    +0.000 C 
ATOM      6  C3  UNL A   1      20.769  27.866  -2.779  1.00  0.00    +0.000 C 
ATOM      7  C4  UNL A   1      21.410  26.850  -3.500  1.00  0.00    +0.000 C 
ATOM    136  H41 UNL A   1      23.425  29.842  -2.214  1.00  0.00    +0.000 H 
ATOM    135  H40 UNL A   1      24.516  28.073  -3.451  1.00  0.00    +0.000 H 
ATOM      8  C5  UNL A   1      22.786  26.906  -3.747  1.00  0.00    +0.000 C 
ATOM     94  C65 UNL A   1      23.502  28.014  -3.270  1.00  0.00    +0.000 C 
ATOM     95  C66 UNL A   1      22.878  29.036  -2.557  1.00  0.00    +0.000 C 
BRANCH    5    2
ATOM      2  S1  UNL A   1      20.648  30.251  -1.456  1.00  0.00    +0.000 S 
ATOM      3  O1  UNL A   1      20.308  31.248  -2.452  1.00  0.00    +0.000 O 
ATOM      4  O2  UNL A   1      21.450  30.590  -0.296  1.00  0.00    +0.000 O 
BRANCH    2    1
ATOM      1  C1  UNL A   1      19.132  29.553  -0.856  1.00  0.00    +0.000 C 
ATOM     98  H3  UNL A   1      19.297  29.120   0.109  1.00  0.00    +0.000 H 
ATOM     97  H2  UNL A   1      18.391  30.319  -0.783  1.00  0.00    +0.000 H 
ATOM     96  H1  UNL A   1      18.797  28.795  -1.533  1.00  0.00    +0.000 H 
ENDBRANCH    2    1
ENDBRANCH    5    2
ENDBRANCH    9    8
BRANCH   88   89
ATOM    132  H37 UNL A   1      21.764  27.934  -6.299  1.00  0.00    +0.000 H 
ATOM    133  H38 UNL A   1      21.239  27.967  -8.899  1.00  0.00    +0.000 H 
ATOM    134  H39 UNL A   1      23.143  26.663 -10.058  1.00  0.00    +0.000 H 
ATOM     89  C61 UNL A   1      23.476  26.751  -6.887  1.00  0.00    +0.000 C 
ATOM     90  C62 UNL A   1      22.318  27.488  -7.047  1.00  0.00    +0.000 C 
ATOM     91  C63 UNL A   1      22.041  27.512  -8.435  1.00  0.00    +0.000 C 
ATOM     92  C64 UNL A   1      23.056  26.811  -9.040  1.00  0.00    +0.000 C 
ATOM     93  O5  UNL A   1      23.925  26.341  -8.113  1.00  0.00    +0.000 O 
ENDBRANCH   88   89
ENDBRANCH   12   11
ENDBRANCH   14   12
ENDBRANCH   15   14
ENDBRANCH   16   15
ENDBRANCH   17   16
ENDBRANCH   18   17
ENDBRANCH   19   18
ENDBRANCH   20   19
ENDBRANCH   21   20
ENDBRANCH   22   21
ENDBRANCH   24   22
ENDBRANCH   28   27
BRANCH   32   33
ATOM     33  C23 UNL A   1      13.663  22.388   7.270  1.00  0.00    +0.000 C 
ATOM     34  C24 UNL A   1      12.644  22.517   6.312  1.00  0.00    +0.000 C 
ATOM     35  F1  UNL A   1      12.446  21.549   5.405  1.00  0.00    +0.000 F 
ATOM     36  C25 UNL A   1      11.857  23.664   6.251  1.00  0.00    +0.000 C 
ATOM     37  F2  UNL A   1      10.932  23.788   5.289  1.00  0.00    +0.000 F 
ATOM     38  C26 UNL A   1      12.045  24.686   7.168  1.00  0.00    +0.000 C 
ATOM     39  F3  UNL A   1      11.289  25.791   7.107  1.00  0.00    +0.000 F 
ATOM     40  C27 UNL A   1      13.025  24.568   8.143  1.00  0.00    +0.000 C 
ATOM     41  F4  UNL A   1      13.199  25.551   9.037  1.00  0.00    +0.000 F 
ATOM     42  C28 UNL A   1      13.833  23.436   8.188  1.00  0.00    +0.000 C 
ATOM     43  F5  UNL A   1      14.789  23.363   9.128  1.00  0.00    +0.000 F 
ENDBRANCH   32   33
BRANCH   49   50
ATOM     50  C34 UNL A   1      14.232  16.281  11.076  1.00  0.00    +0.000 C 
ATOM     51  C35 UNL A   1      14.479  16.565  12.427  1.00  0.00    +0.000 C 
ATOM     52  F6  UNL A   1      15.433  17.444  12.768  1.00  0.00    +0.000 F 
ATOM     53  C36 UNL A   1      13.770  15.917  13.435  1.00  0.00    +0.000 C 
ATOM     54  F7  UNL A   1      14.052  16.172  14.720  1.00  0.00    +0.000 F 
ATOM     55  C37 UNL A   1      12.782  14.999  13.112  1.00  0.00    +0.000 C 
ATOM     56  F8  UNL A   1      12.096  14.381  14.083  1.00  0.00    +0.000 F 
ATOM     57  C38 UNL A   1      12.510  14.715  11.781  1.00  0.00    +0.000 C 
ATOM     58  F9  UNL A   1      11.548  13.836  11.468  1.00  0.00    +0.000 F 
ATOM     59  C39 UNL A   1      13.236  15.341  10.772  1.00  0.00    +0.000 C 
ATOM     60  F10 UNL A   1      12.959  15.039   9.495  1.00  0.00    +0.000 F 
ENDBRANCH   49   50
BRANCH   64   65
ATOM     65  C43 UNL A   1      20.031  14.712   7.534  1.00  0.00    +0.000 C 
ATOM     66  C44 UNL A   1      19.863  13.543   6.781  1.00  0.00    +0.000 C 
ATOM     67  F11 UNL A   1      18.773  13.392   6.013  1.00  0.00    +0.000 F 
ATOM     68  C45 UNL A   1      20.799  12.513   6.834  1.00  0.00    +0.000 C 
ATOM     69  F12 UNL A   1      20.600  11.393   6.126  1.00  0.00    +0.000 F 
ATOM     70  C46 UNL A   1      21.933  12.643   7.623  1.00  0.00    +0.000 C 
ATOM     71  F13 UNL A   1      22.840  11.657   7.663  1.00  0.00    +0.000 F 
ATOM     72  C47 UNL A   1      22.124  13.795   8.370  1.00  0.00    +0.000 C 
ATOM     73  F14 UNL A   1      23.226  13.931   9.121  1.00  0.00    +0.000 F 
ATOM     74  C48 UNL A   1      21.176  14.815   8.337  1.00  0.00    +0.000 C 
ATOM     75  F15 UNL A   1      21.386  15.918   9.070  1.00  0.00    +0.000 F 
ENDBRANCH   64   65
TORSDOF 19
ENDMDL
MODEL 9
REMARK VINA RESULT:     -10.5      8.248     12.938
ROOT
ATOM     28  C19 UNL A   1      24.365  39.012  47.394  1.00  0.00    +0.000 C 
ATOM     29  C20 UNL A   1      23.686  37.695  47.153  1.00  0.00    +0.000 C 
ATOM     30  N5  UNL A   1      22.463  37.327  47.443  1.00  0.00    +0.000 N 
ATOM     31  C21 UNL A   1      22.334  36.032  46.961  1.00  0.00    +0.000 C 
ATOM     32  C22 UNL A   1      21.279  35.189  47.072  1.00  0.00    +0.000 C 
ATOM     44  C29 UNL A   1      20.047  35.517  47.740  1.00  0.00    +0.000 C 
ATOM     45  C30 UNL A   1      18.944  34.713  47.965  1.00  0.00    +0.000 C 
ATOM     46  C31 UNL A   1      17.968  35.479  48.613  1.00  0.00    +0.000 C 
ATOM     47  C32 UNL A   1      18.480  36.747  48.834  1.00  0.00    +0.000 C 
ATOM     48  N6  UNL A   1      19.755  36.758  48.290  1.00  0.00    +0.000 N 
ATOM     49  C33 UNL A   1      17.856  37.866  49.493  1.00  0.00    +0.000 C 
ATOM     61  C40 UNL A   1      18.432  39.078  49.684  1.00  0.00    +0.000 C 
ATOM     62  N7  UNL A   1      19.694  39.512  49.304  1.00  0.00    +0.000 N 
ATOM     63  C41 UNL A   1      19.782  40.759  49.700  1.00  0.00    +0.000 C 
ATOM     64  C42 UNL A   1      20.934  41.716  49.569  1.00  0.00    +0.000 C 
ATOM     76  C49 UNL A   1      22.091  41.285  49.033  1.00  0.00    +0.000 C 
ATOM     77  C50 UNL A   1      23.296  42.091  48.863  1.00  0.00    +0.000 C 
ATOM     78  C51 UNL A   1      24.234  41.353  48.249  1.00  0.00    +0.000 C 
ATOM     79  C52 UNL A   1      23.703  40.010  48.008  1.00  0.00    +0.000 C 
ATOM     80  N8  UNL A   1      22.432  40.057  48.525  1.00  0.00    +0.000 N 
ATOM     81  C53 UNL A   1      18.572  41.265  50.362  1.00  0.00    +0.000 C 
ATOM     82  C54 UNL A   1      17.793  40.192  50.356  1.00  0.00    +0.000 C 
ATOM     83  C55 UNL A   1      23.583  35.697  46.311  1.00  0.00    +0.000 C 
ATOM     84  C56 UNL A   1      24.475  36.664  46.463  1.00  0.00    +0.000 C 
ATOM    117  H22 UNL A   1      18.856  33.719  47.700  1.00  0.00    +0.000 H 
ATOM    118  H23 UNL A   1      17.026  35.153  48.883  1.00  0.00    +0.000 H 
ATOM    119  H24 UNL A   1      20.364  37.531  48.293  1.00  0.00    +0.000 H 
ATOM    120  H25 UNL A   1      23.409  43.071  49.165  1.00  0.00    +0.000 H 
ATOM    121  H26 UNL A   1      25.177  41.678  47.986  1.00  0.00    +0.000 H 
ATOM    122  H27 UNL A   1      21.824  39.282  48.529  1.00  0.00    +0.000 H 
ATOM    123  H28 UNL A   1      18.378  42.208  50.735  1.00  0.00    +0.000 H 
ATOM    124  H29 UNL A   1      16.852  40.153  50.777  1.00  0.00    +0.000 H 
ATOM    125  H30 UNL A   1      23.755  34.819  45.795  1.00  0.00    +0.000 H 
ATOM    126  H31 UNL A   1      25.466  36.687  46.173  1.00  0.00    +0.000 H 
ENDROOT
BRANCH   28   27
ATOM    115  H20 UNL A   1      27.446  40.817  44.458  1.00  0.00    +0.000 H 
ATOM    116  H21 UNL A   1      25.193  40.549  45.322  1.00  0.00    +0.000 H 
ATOM     85  C57 UNL A   1      26.829  38.638  47.544  1.00  0.00    +0.000 C 
ATOM     86  C58 UNL A   1      28.130  38.859  47.096  1.00  0.00    +0.000 C 
ATOM     24  C15 UNL A   1      28.349  39.606  45.936  1.00  0.00    +0.000 C 
ATOM     25  C16 UNL A   1      27.279  40.233  45.292  1.00  0.00    +0.000 C 
ATOM     26  C17 UNL A   1      25.981  40.067  45.781  1.00  0.00    +0.000 C 
ATOM     27  C18 UNL A   1      25.744  39.244  46.894  1.00  0.00    +0.000 C 
ATOM    127  H32 UNL A   1      26.664  38.025  48.358  1.00  0.00    +0.000 H 
ATOM    128  H33 UNL A   1      28.929  38.470  47.621  1.00  0.00    +0.000 H 
BRANCH   24   22
ATOM     22  C14 UNL A   1      29.708  39.770  45.375  1.00  0.00    +0.000 C 
ATOM     23  O4  UNL A   1      29.959  40.736  44.661  1.00  0.00    +0.000 O 
BRANCH   22   21
ATOM    114  H19 UNL A   1      31.178  38.972  46.475  1.00  0.00    +0.000 H 
ATOM     21  N4  UNL A   1      30.678  38.837  45.637  1.00  0.00    +0.000 N 
BRANCH   21   20
ATOM    113  H18 UNL A   1      31.185  36.855  45.529  1.00  0.00    +0.000 H 
ATOM     20  C13 UNL A   1      31.075  37.679  44.856  1.00  0.00    +0.000 C 
ATOM    112  H17 UNL A   1      31.994  37.903  44.354  1.00  0.00    +0.000 H 
BRANCH   20   19
ATOM     19  C12 UNL A   1      30.030  37.293  43.815  1.00  0.00    +0.000 C 
ATOM    110  H15 UNL A   1      29.284  38.061  43.793  1.00  0.00    +0.000 H 
ATOM    111  H16 UNL A   1      30.558  37.185  42.891  1.00  0.00    +0.000 H 
BRANCH   19   18
ATOM     18  C11 UNL A   1      29.327  35.956  44.064  1.00  0.00    +0.000 C 
ATOM    108  H13 UNL A   1      29.279  35.431  43.132  1.00  0.00    +0.000 H 
ATOM    109  H14 UNL A   1      29.903  35.457  44.813  1.00  0.00    +0.000 H 
BRANCH   18   17
ATOM     17  C10 UNL A   1      27.904  36.052  44.624  1.00  0.00    +0.000 C 
ATOM    106  H11 UNL A   1      27.953  36.562  45.563  1.00  0.00    +0.000 H 
ATOM    107  H12 UNL A   1      27.330  36.567  43.883  1.00  0.00    +0.000 H 
BRANCH   17   16
ATOM    105  H10 UNL A   1      26.933  34.341  43.883  1.00  0.00    +0.000 H 
ATOM    104  H9  UNL A   1      26.343  34.889  45.476  1.00  0.00    +0.000 H 
ATOM     16  C9  UNL A   1      27.194  34.714  44.851  1.00  0.00    +0.000 C 
BRANCH   16   15
ATOM    103  H8  UNL A   1      28.379  34.000  46.464  1.00  0.00    +0.000 H 
ATOM    102  H7  UNL A   1      28.894  33.429  44.884  1.00  0.00    +0.000 H 
ATOM     15  C8  UNL A   1      28.053  33.640  45.511  1.00  0.00    +0.000 C 
BRANCH   15   14
ATOM    101  H6  UNL A   1      27.229  31.875  44.896  1.00  0.00    +0.000 H 
ATOM     14  N3  UNL A   1      27.295  32.423  45.711  1.00  0.00    +0.000 N 
BRANCH   14   12
ATOM     12  C7  UNL A   1      26.649  31.864  46.783  1.00  0.00    +0.000 C 
ATOM     13  O3  UNL A   1      25.738  32.515  47.291  1.00  0.00    +0.000 O 
BRANCH   12   11
ATOM    129  H34 UNL A   1      27.694  29.260  45.844  1.00  0.00    +0.000 H 
ATOM    130  H35 UNL A   1      26.097  28.943  46.291  1.00  0.00    +0.000 H 
ATOM    131  H36 UNL A   1      26.885  27.568  48.137  1.00  0.00    +0.000 H 
ATOM      9  N1  UNL A   1      27.936  29.243  48.852  1.00  0.00    +0.000 N 
ATOM     10  N2  UNL A   1      27.431  30.490  48.653  1.00  0.00    +0.000 N 
ATOM     11  C6  UNL A   1      27.035  30.537  47.416  1.00  0.00    +0.000 C 
ATOM     87  C59 UNL A   1      27.044  29.233  46.693  1.00  0.00    +0.000 C 
ATOM     88  C60 UNL A   1      27.582  28.301  47.786  1.00  0.00    +0.000 C 
BRANCH    9    8
ATOM     99  H4  UNL A   1      30.618  27.911  52.291  1.00  0.00    +0.000 H 
ATOM    100  H5  UNL A   1      30.287  28.746  50.035  1.00  0.00    +0.000 H 
ATOM      5  C2  UNL A   1      28.556  27.809  52.749  1.00  0.00    +0.000 C 
ATOM      6  C3  UNL A   1      29.663  28.074  51.936  1.00  0.00    +0.000 C 
ATOM      7  C4  UNL A   1      29.469  28.562  50.637  1.00  0.00    +0.000 C 
ATOM    136  H41 UNL A   1      26.448  27.837  52.876  1.00  0.00    +0.000 H 
ATOM    135  H40 UNL A   1      26.133  28.690  50.635  1.00  0.00    +0.000 H 
ATOM      8  C5  UNL A   1      28.180  28.803  50.148  1.00  0.00    +0.000 C 
ATOM     94  C65 UNL A   1      27.090  28.525  50.985  1.00  0.00    +0.000 C 
ATOM     95  C66 UNL A   1      27.266  28.033  52.277  1.00  0.00    +0.000 C 
BRANCH    5    2
ATOM      2  S1  UNL A   1      28.845  27.136  54.366  1.00  0.00    +0.000 S 
ATOM      3  O1  UNL A   1      29.202  28.255  55.217  1.00  0.00    +0.000 O 
ATOM      4  O2  UNL A   1      29.738  26.007  54.196  1.00  0.00    +0.000 O 
BRANCH    2    1
ATOM      1  C1  UNL A   1      27.297  26.495  54.944  1.00  0.00    +0.000 C 
ATOM     98  H3  UNL A   1      27.443  25.997  55.880  1.00  0.00    +0.000 H 
ATOM     97  H2  UNL A   1      26.603  27.298  55.071  1.00  0.00    +0.000 H 
ATOM     96  H1  UNL A   1      26.911  25.799  54.228  1.00  0.00    +0.000 H 
ENDBRANCH    2    1
ENDBRANCH    5    2
ENDBRANCH    9    8
BRANCH   88   89
ATOM    132  H37 UNL A   1      27.895  25.435  46.860  1.00  0.00    +0.000 H 
ATOM    133  H38 UNL A   1      30.420  24.853  46.294  1.00  0.00    +0.000 H 
ATOM    134  H39 UNL A   1      31.777  27.025  46.630  1.00  0.00    +0.000 H 
ATOM     89  C61 UNL A   1      28.680  27.404  47.292  1.00  0.00    +0.000 C 
ATOM     90  C62 UNL A   1      28.703  26.076  46.910  1.00  0.00    +0.000 C 
ATOM     91  C63 UNL A   1      30.049  25.766  46.601  1.00  0.00    +0.000 C 
ATOM     92  C64 UNL A   1      30.762  26.926  46.789  1.00  0.00    +0.000 C 
ATOM     93  O5  UNL A   1      29.945  27.920  47.213  1.00  0.00    +0.000 O 
ENDBRANCH   88   89
ENDBRANCH   12   11
ENDBRANCH   14   12
ENDBRANCH   15   14
ENDBRANCH   16   15
ENDBRANCH   17   16
ENDBRANCH   18   17
ENDBRANCH   19   18
ENDBRANCH   20   19
ENDBRANCH   21   20
ENDBRANCH   22   21
ENDBRANCH   24   22
ENDBRANCH   28   27
BRANCH   32   33
ATOM     33  C23 UNL A   1      21.418  33.829  46.452  1.00  0.00    +0.000 C 
ATOM     34  C24 UNL A   1      22.021  32.764  47.141  1.00  0.00    +0.000 C 
ATOM     35  F1  UNL A   1      22.508  32.950  48.377  1.00  0.00    +0.000 F 
ATOM     36  C25 UNL A   1      22.172  31.516  46.542  1.00  0.00    +0.000 C 
ATOM     37  F2  UNL A   1      22.806  30.533  47.197  1.00  0.00    +0.000 F 
ATOM     38  C26 UNL A   1      21.690  31.296  45.261  1.00  0.00    +0.000 C 
ATOM     39  F3  UNL A   1      21.838  30.096  44.685  1.00  0.00    +0.000 F 
ATOM     40  C27 UNL A   1      21.063  32.324  44.573  1.00  0.00    +0.000 C 
ATOM     41  F4  UNL A   1      20.585  32.109  43.339  1.00  0.00    +0.000 F 
ATOM     42  C28 UNL A   1      20.937  33.581  45.157  1.00  0.00    +0.000 C 
ATOM     43  F5  UNL A   1      20.347  34.562  44.456  1.00  0.00    +0.000 F 
ENDBRANCH   32   33
BRANCH   49   50
ATOM     50  C34 UNL A   1      16.468  37.675  50.031  1.00  0.00    +0.000 C 
ATOM     51  C35 UNL A   1      16.217  37.613  51.409  1.00  0.00    +0.000 C 
ATOM     52  F6  UNL A   1      17.234  37.668  52.283  1.00  0.00    +0.000 F 
ATOM     53  C36 UNL A   1      14.921  37.455  51.894  1.00  0.00    +0.000 C 
ATOM     54  F7  UNL A   1      14.710  37.354  53.213  1.00  0.00    +0.000 F 
ATOM     55  C37 UNL A   1      13.852  37.388  51.013  1.00  0.00    +0.000 C 
ATOM     56  F8  UNL A   1      12.605  37.243  51.481  1.00  0.00    +0.000 F 
ATOM     57  C38 UNL A   1      14.076  37.465  49.646  1.00  0.00    +0.000 C 
ATOM     58  F9  UNL A   1      13.042  37.411  48.795  1.00  0.00    +0.000 F 
ATOM     59  C39 UNL A   1      15.372  37.595  49.158  1.00  0.00    +0.000 C 
ATOM     60  F10 UNL A   1      15.559  37.655  47.831  1.00  0.00    +0.000 F 
ENDBRANCH   49   50
BRANCH   64   65
ATOM     65  C43 UNL A   1      20.828  43.118  50.044  1.00  0.00    +0.000 C 
ATOM     66  C44 UNL A   1      20.417  44.142  49.180  1.00  0.00    +0.000 C 
ATOM     67  F11 UNL A   1      20.162  43.869  47.892  1.00  0.00    +0.000 F 
ATOM     68  C45 UNL A   1      20.293  45.455  49.629  1.00  0.00    +0.000 C 
ATOM     69  F12 UNL A   1      19.926  46.421  48.776  1.00  0.00    +0.000 F 
ATOM     70  C46 UNL A   1      20.554  45.764  50.956  1.00  0.00    +0.000 C 
ATOM     71  F13 UNL A   1      20.421  47.024  51.392  1.00  0.00    +0.000 F 
ATOM     72  C47 UNL A   1      20.953  44.765  51.831  1.00  0.00    +0.000 C 
ATOM     73  F14 UNL A   1      21.191  45.056  53.117  1.00  0.00    +0.000 F 
ATOM     74  C48 UNL A   1      21.101  43.456  51.377  1.00  0.00    +0.000 C 
ATOM     75  F15 UNL A   1      21.489  42.510  52.244  1.00  0.00    +0.000 F 
ENDBRANCH   64   65
TORSDOF 19
ENDMDL
MODEL 10
REMARK VINA RESULT:     -10.5     38.469     46.930
ROOT
ATOM     28  C19 UNL A   1      20.727  21.427   1.576  1.00  0.00    +0.000 C 
ATOM     29  C20 UNL A   1      20.822  22.744   0.861  1.00  0.00    +0.000 C 
ATOM     30  N5  UNL A   1      19.905  23.386   0.180  1.00  0.00    +0.000 N 
ATOM     31  C21 UNL A   1      20.499  24.572  -0.227  1.00  0.00    +0.000 C 
ATOM     32  C22 UNL A   1      19.986  25.550  -1.013  1.00  0.00    +0.000 C 
ATOM     44  C29 UNL A   1      18.664  25.520  -1.584  1.00  0.00    +0.000 C 
ATOM     45  C30 UNL A   1      18.074  26.426  -2.445  1.00  0.00    +0.000 C 
ATOM     46  C31 UNL A   1      16.762  26.003  -2.694  1.00  0.00    +0.000 C 
ATOM     47  C32 UNL A   1      16.551  24.810  -2.023  1.00  0.00    +0.000 C 
ATOM     48  N6  UNL A   1      17.724  24.526  -1.343  1.00  0.00    +0.000 N 
ATOM     49  C33 UNL A   1      15.368  23.987  -2.005  1.00  0.00    +0.000 C 
ATOM     61  C40 UNL A   1      15.244  22.817  -1.331  1.00  0.00    +0.000 C 
ATOM     62  N7  UNL A   1      16.175  22.168  -0.533  1.00  0.00    +0.000 N 
ATOM     63  C41 UNL A   1      15.583  21.084  -0.095  1.00  0.00    +0.000 C 
ATOM     64  C42 UNL A   1      16.127  19.999   0.792  1.00  0.00    +0.000 C 
ATOM     76  C49 UNL A   1      17.414  20.052   1.184  1.00  0.00    +0.000 C 
ATOM     77  C50 UNL A   1      18.083  19.063   2.024  1.00  0.00    +0.000 C 
ATOM     78  C51 UNL A   1      19.343  19.465   2.255  1.00  0.00    +0.000 C 
ATOM     79  C52 UNL A   1      19.578  20.728   1.552  1.00  0.00    +0.000 C 
ATOM     80  N8  UNL A   1      18.383  20.989   0.928  1.00  0.00    +0.000 N 
ATOM     81  C53 UNL A   1      14.195  20.932  -0.552  1.00  0.00    +0.000 C 
ATOM     82  C54 UNL A   1      14.049  21.997  -1.328  1.00  0.00    +0.000 C 
ATOM     83  C55 UNL A   1      21.835  24.588   0.328  1.00  0.00    +0.000 C 
ATOM     84  C56 UNL A   1      22.108  23.451   0.949  1.00  0.00    +0.000 C 
ATOM    117  H22 UNL A   1      18.522  27.268  -2.838  1.00  0.00    +0.000 H 
ATOM    118  H23 UNL A   1      16.070  26.498  -3.279  1.00  0.00    +0.000 H 
ATOM    119  H24 UNL A   1      17.871  23.737  -0.773  1.00  0.00    +0.000 H 
ATOM    120  H25 UNL A   1      17.657  18.195   2.384  1.00  0.00    +0.000 H 
ATOM    121  H26 UNL A   1      20.036  18.966   2.834  1.00  0.00    +0.000 H 
ATOM    122  H27 UNL A   1      18.237  21.775   0.352  1.00  0.00    +0.000 H 
ATOM    123  H28 UNL A   1      13.512  20.191  -0.328  1.00  0.00    +0.000 H 
ATOM    124  H29 UNL A   1      13.194  22.214  -1.864  1.00  0.00    +0.000 H 
ATOM    125  H30 UNL A   1      22.489  25.383   0.251  1.00  0.00    +0.000 H 
ATOM    126  H31 UNL A   1      22.992  23.141   1.382  1.00  0.00    +0.000 H 
ENDROOT
BRANCH   28   27
ATOM    115  H20 UNL A   1      24.752  19.210   2.079  1.00  0.00    +0.000 H 
ATOM    116  H21 UNL A   1      22.946  20.118   0.735  1.00  0.00    +0.000 H 
ATOM     85  C57 UNL A   1      21.903  21.138   3.759  1.00  0.00    +0.000 C 
ATOM     86  C58 UNL A   1      22.982  20.687   4.517  1.00  0.00    +0.000 C 
ATOM     24  C15 UNL A   1      23.991  19.933   3.914  1.00  0.00    +0.000 C 
ATOM     25  C16 UNL A   1      23.986  19.733   2.530  1.00  0.00    +0.000 C 
ATOM     26  C17 UNL A   1      22.939  20.243   1.759  1.00  0.00    +0.000 C 
ATOM     27  C18 UNL A   1      21.876  20.926   2.372  1.00  0.00    +0.000 C 
ATOM    127  H32 UNL A   1      21.123  21.631   4.219  1.00  0.00    +0.000 H 
ATOM    128  H33 UNL A   1      23.033  20.910   5.524  1.00  0.00    +0.000 H 
BRANCH   24   22
ATOM     22  C14 UNL A   1      25.094  19.350   4.709  1.00  0.00    +0.000 C 
ATOM     23  O4  UNL A   1      25.597  20.002   5.620  1.00  0.00    +0.000 O 
BRANCH   22   21
ATOM    114  H19 UNL A   1      25.268  17.724   3.555  1.00  0.00    +0.000 H 
ATOM     21  N4  UNL A   1      25.564  18.096   4.418  1.00  0.00    +0.000 N 
BRANCH   21   20
ATOM    113  H18 UNL A   1      27.116  17.864   5.735  1.00  0.00    +0.000 H 
ATOM     20  C13 UNL A   1      26.435  17.237   5.199  1.00  0.00    +0.000 C 
ATOM    112  H17 UNL A   1      26.952  16.575   4.533  1.00  0.00    +0.000 H 
BRANCH   20   19
ATOM     19  C12 UNL A   1      25.669  16.403   6.219  1.00  0.00    +0.000 C 
ATOM    110  H15 UNL A   1      24.966  17.045   6.710  1.00  0.00    +0.000 H 
ATOM    111  H16 UNL A   1      25.209  15.608   5.670  1.00  0.00    +0.000 H 
BRANCH   19   18
ATOM     18  C11 UNL A   1      26.531  15.735   7.294  1.00  0.00    +0.000 C 
ATOM    108  H13 UNL A   1      26.213  16.105   8.247  1.00  0.00    +0.000 H 
ATOM    109  H14 UNL A   1      26.390  14.683   7.169  1.00  0.00    +0.000 H 
BRANCH   18   17
ATOM     17  C10 UNL A   1      28.040  15.974   7.174  1.00  0.00    +0.000 C 
ATOM    106  H11 UNL A   1      28.534  15.037   7.324  1.00  0.00    +0.000 H 
ATOM    107  H12 UNL A   1      28.194  16.393   6.202  1.00  0.00    +0.000 H 
BRANCH   17   16
ATOM    105  H10 UNL A   1      29.422  16.477   8.676  1.00  0.00    +0.000 H 
ATOM    104  H9  UNL A   1      27.845  17.301   8.822  1.00  0.00    +0.000 H 
ATOM     16  C9  UNL A   1      28.628  16.982   8.166  1.00  0.00    +0.000 C 
BRANCH   16   15
ATOM    103  H8  UNL A   1      29.468  18.002   6.502  1.00  0.00    +0.000 H 
ATOM    102  H7  UNL A   1      30.139  18.482   8.054  1.00  0.00    +0.000 H 
ATOM     15  C8  UNL A   1      29.246  18.221   7.526  1.00  0.00    +0.000 C 
BRANCH   15   14
ATOM    101  H6  UNL A   1      28.181  19.749   6.688  1.00  0.00    +0.000 H 
ATOM     14  N3  UNL A   1      28.326  19.338   7.570  1.00  0.00    +0.000 N 
BRANCH   14   12
ATOM     12  C7  UNL A   1      27.613  19.950   8.568  1.00  0.00    +0.000 C 
ATOM     13  O3  UNL A   1      27.991  21.064   8.925  1.00  0.00    +0.000 O 
BRANCH   12   11
ATOM    129  H34 UNL A   1      26.407  20.128  11.265  1.00  0.00    +0.000 H 
ATOM    130  H35 UNL A   1      27.137  18.606  11.223  1.00  0.00    +0.000 H 
ATOM    131  H36 UNL A   1      24.947  17.551  11.303  1.00  0.00    +0.000 H 
ATOM      9  N1  UNL A   1      24.447  18.601   9.551  1.00  0.00    +0.000 N 
ATOM     10  N2  UNL A   1      25.412  18.878   8.634  1.00  0.00    +0.000 N 
ATOM     11  C6  UNL A   1      26.442  19.311   9.297  1.00  0.00    +0.000 C 
ATOM     87  C59 UNL A   1      26.349  19.176  10.779  1.00  0.00    +0.000 C 
ATOM     88  C60 UNL A   1      24.955  18.553  10.926  1.00  0.00    +0.000 C 
BRANCH    9    8
ATOM     99  H4  UNL A   1      21.672  14.986   9.725  1.00  0.00    +0.000 H 
ATOM    100  H5  UNL A   1      23.600  16.243  10.499  1.00  0.00    +0.000 H 
ATOM      5  C2  UNL A   1      21.119  16.396   8.249  1.00  0.00    +0.000 C 
ATOM      6  C3  UNL A   1      21.906  15.892   9.290  1.00  0.00    +0.000 C 
ATOM      7  C4  UNL A   1      23.014  16.623   9.739  1.00  0.00    +0.000 C 
ATOM    136  H41 UNL A   1      20.847  17.994   6.896  1.00  0.00    +0.000 H 
ATOM    135  H40 UNL A   1      22.756  19.247   7.691  1.00  0.00    +0.000 H 
ATOM      8  C5  UNL A   1      23.333  17.861   9.170  1.00  0.00    +0.000 C 
ATOM     94  C65 UNL A   1      22.528  18.339   8.127  1.00  0.00    +0.000 C 
ATOM     95  C66 UNL A   1      21.427  17.621   7.664  1.00  0.00    +0.000 C 
BRANCH    5    2
ATOM      2  S1  UNL A   1      19.761  15.410   7.671  1.00  0.00    +0.000 S 
ATOM      3  O1  UNL A   1      19.419  14.510   8.755  1.00  0.00    +0.000 O 
ATOM      4  O2  UNL A   1      20.136  14.907   6.364  1.00  0.00    +0.000 O 
BRANCH    2    1
ATOM      1  C1  UNL A   1      18.390  16.509   7.433  1.00  0.00    +0.000 C 
ATOM     98  H3  UNL A   1      18.741  17.520   7.420  1.00  0.00    +0.000 H 
ATOM     97  H2  UNL A   1      17.911  16.286   6.503  1.00  0.00    +0.000 H 
ATOM     96  H1  UNL A   1      17.691  16.385   8.233  1.00  0.00    +0.000 H 
ENDBRANCH    2    1
ENDBRANCH    5    2
ENDBRANCH    9    8
BRANCH   88   89
ATOM    132  H37 UNL A   1      23.815  17.914  13.656  1.00  0.00    +0.000 H 
ATOM    133  H38 UNL A   1      22.338  19.905  14.598  1.00  0.00    +0.000 H 
ATOM    134  H39 UNL A   1      22.469  21.813  12.862  1.00  0.00    +0.000 H 
ATOM     89  C61 UNL A   1      24.123  19.235  11.972  1.00  0.00    +0.000 C 
ATOM     90  C62 UNL A   1      23.639  18.822  13.199  1.00  0.00    +0.000 C 
ATOM     91  C63 UNL A   1      22.856  19.887  13.706  1.00  0.00    +0.000 C 
ATOM     92  C64 UNL A   1      22.928  20.892  12.772  1.00  0.00    +0.000 C 
ATOM     93  O5  UNL A   1      23.686  20.506  11.717  1.00  0.00    +0.000 O 
ENDBRANCH   88   89
ENDBRANCH   12   11
ENDBRANCH   14   12
ENDBRANCH   15   14
ENDBRANCH   16   15
ENDBRANCH   17   16
ENDBRANCH   18   17
ENDBRANCH   19   18
ENDBRANCH   20   19
ENDBRANCH   21   20
ENDBRANCH   22   21
ENDBRANCH   24   22
ENDBRANCH   28   27
BRANCH   32   33
ATOM     33  C23 UNL A   1      20.863  26.734  -1.298  1.00  0.00    +0.000 C 
ATOM     34  C24 UNL A   1      21.750  26.749  -2.387  1.00  0.00    +0.000 C 
ATOM     35  F1  UNL A   1      21.845  25.680  -3.193  1.00  0.00    +0.000 F 
ATOM     36  C25 UNL A   1      22.581  27.841  -2.621  1.00  0.00    +0.000 C 
ATOM     37  F2  UNL A   1      23.463  27.805  -3.630  1.00  0.00    +0.000 F 
ATOM     38  C26 UNL A   1      22.514  28.954  -1.798  1.00  0.00    +0.000 C 
ATOM     39  F3  UNL A   1      23.316  30.004  -2.023  1.00  0.00    +0.000 F 
ATOM     40  C27 UNL A   1      21.623  28.976  -0.736  1.00  0.00    +0.000 C 
ATOM     41  F4  UNL A   1      21.549  30.057   0.053  1.00  0.00    +0.000 F 
ATOM     42  C28 UNL A   1      20.812  27.873  -0.481  1.00  0.00    +0.000 C 
ATOM     43  F5  UNL A   1      19.978  27.916   0.570  1.00  0.00    +0.000 F 
ENDBRANCH   32   33
BRANCH   49   50
ATOM     50  C34 UNL A   1      14.186  24.444  -2.807  1.00  0.00    +0.000 C 
ATOM     51  C35 UNL A   1      13.944  23.958  -4.100  1.00  0.00    +0.000 C 
ATOM     52  F6  UNL A   1      14.808  23.106  -4.672  1.00  0.00    +0.000 F 
ATOM     53  C36 UNL A   1      12.832  24.377  -4.826  1.00  0.00    +0.000 C 
ATOM     54  F7  UNL A   1      12.644  23.933  -6.076  1.00  0.00    +0.000 F 
ATOM     55  C37 UNL A   1      11.926  25.263  -4.261  1.00  0.00    +0.000 C 
ATOM     56  F8  UNL A   1      10.852  25.659  -4.958  1.00  0.00    +0.000 F 
ATOM     57  C38 UNL A   1      12.136  25.743  -2.977  1.00  0.00    +0.000 C 
ATOM     58  F9  UNL A   1      11.256  26.591  -2.427  1.00  0.00    +0.000 F 
ATOM     59  C39 UNL A   1      13.261  25.348  -2.260  1.00  0.00    +0.000 C 
ATOM     60  F10 UNL A   1      13.445  25.837  -1.025  1.00  0.00    +0.000 F 
ENDBRANCH   49   50
BRANCH   64   65
ATOM     65  C43 UNL A   1      15.280  18.859   1.223  1.00  0.00    +0.000 C 
ATOM     66  C44 UNL A   1      14.540  18.919   2.411  1.00  0.00    +0.000 C 
ATOM     67  F11 UNL A   1      14.630  19.999   3.201  1.00  0.00    +0.000 F 
ATOM     68  C45 UNL A   1      13.724  17.861   2.804  1.00  0.00    +0.000 C 
ATOM     69  F12 UNL A   1      13.049  17.931   3.959  1.00  0.00    +0.000 F 
ATOM     70  C46 UNL A   1      13.616  16.731   2.006  1.00  0.00    +0.000 C 
ATOM     71  F13 UNL A   1      12.822  15.718   2.378  1.00  0.00    +0.000 F 
ATOM     72  C47 UNL A   1      14.333  16.653   0.822  1.00  0.00    +0.000 C 
ATOM     73  F14 UNL A   1      14.219  15.571   0.039  1.00  0.00    +0.000 F 
ATOM     74  C48 UNL A   1      15.167  17.701   0.439  1.00  0.00    +0.000 C 
ATOM     75  F15 UNL A   1      15.850  17.600  -0.711  1.00  0.00    +0.000 F 
ENDBRANCH   64   65
TORSDOF 19
ENDMDL
