MODEL 1
REMARK VINA RESULT:      -8.5      0.000      0.000
ROOT
ATOM     27  C21 UNL A   1      14.047  53.956   4.903  1.00  0.00    +0.000 C 
ATOM     28  C22 UNL A   1      14.973  54.379   3.800  1.00  0.00    +0.000 C 
ATOM     29  N3  UNL A   1      15.434  53.681   2.792  1.00  0.00    +0.000 N 
ATOM     30  C23 UNL A   1      16.218  54.556   2.053  1.00  0.00    +0.000 C 
ATOM     31  C24 UNL A   1      16.961  54.299   0.950  1.00  0.00    +0.000 C 
ATOM     43  C31 UNL A   1      17.058  53.010   0.316  1.00  0.00    +0.000 C 
ATOM     44  C32 UNL A   1      17.836  52.635  -0.765  1.00  0.00    +0.000 C 
ATOM     45  C33 UNL A   1      17.559  51.295  -1.061  1.00  0.00    +0.000 C 
ATOM     46  C34 UNL A   1      16.640  50.823  -0.138  1.00  0.00    +0.000 C 
ATOM     47  N4  UNL A   1      16.343  51.885   0.702  1.00  0.00    +0.000 N 
ATOM     48  C35 UNL A   1      16.072  49.503  -0.028  1.00  0.00    +0.000 C 
ATOM     60  C42 UNL A   1      15.212  49.106   0.941  1.00  0.00    +0.000 C 
ATOM     61  N5  UNL A   1      14.686  49.842   1.993  1.00  0.00    +0.000 N 
ATOM     62  C43 UNL A   1      13.893  49.025   2.643  1.00  0.00    +0.000 C 
ATOM     63  C44 UNL A   1      13.069  49.285   3.872  1.00  0.00    +0.000 C 
ATOM     75  C51 UNL A   1      13.137  50.489   4.472  1.00  0.00    +0.000 C 
ATOM     76  C52 UNL A   1      12.397  50.878   5.668  1.00  0.00    +0.000 C 
ATOM     77  C53 UNL A   1      12.648  52.168   5.938  1.00  0.00    +0.000 C 
ATOM     78  C54 UNL A   1      13.596  52.687   4.951  1.00  0.00    +0.000 C 
ATOM     79  N6  UNL A   1      13.853  51.611   4.138  1.00  0.00    +0.000 N 
ATOM     80  C55 UNL A   1      13.816  47.676   2.066  1.00  0.00    +0.000 C 
ATOM     81  C56 UNL A   1      14.661  47.770   1.049  1.00  0.00    +0.000 C 
ATOM     82  C57 UNL A   1      16.129  55.849   2.700  1.00  0.00    +0.000 C 
ATOM     83  C58 UNL A   1      15.421  55.779   3.818  1.00  0.00    +0.000 C 
ATOM    109  H24 UNL A   1      18.506  53.239  -1.267  1.00  0.00    +0.000 H 
ATOM    110  H25 UNL A   1      17.970  50.751  -1.836  1.00  0.00    +0.000 H 
ATOM    111  H26 UNL A   1      15.717  51.847   1.461  1.00  0.00    +0.000 H 
ATOM    112  H27 UNL A   1      11.780  50.259   6.218  1.00  0.00    +0.000 H 
ATOM    113  H28 UNL A   1      12.238  52.708   6.716  1.00  0.00    +0.000 H 
ATOM    114  H29 UNL A   1      14.491  51.642   3.388  1.00  0.00    +0.000 H 
ATOM    115  H30 UNL A   1      13.252  46.867   2.371  1.00  0.00    +0.000 H 
ATOM    116  H31 UNL A   1      14.897  46.991   0.415  1.00  0.00    +0.000 H 
ATOM    117  H32 UNL A   1      16.562  56.712   2.337  1.00  0.00    +0.000 H 
ATOM    118  H33 UNL A   1      15.232  56.514   4.517  1.00  0.00    +0.000 H 
ENDROOT
BRANCH   27   26
ATOM    107  H22 UNL A   1      14.218  56.199   8.940  1.00  0.00    +0.000 H 
ATOM    108  H23 UNL A   1      15.185  54.776   7.226  1.00  0.00    +0.000 H 
ATOM     84  C59 UNL A   1      12.330  55.599   5.667  1.00  0.00    +0.000 C 
ATOM     85  C60 UNL A   1      11.812  56.475   6.618  1.00  0.00    +0.000 C 
ATOM    120  H35 UNL A   1      10.950  57.005   6.419  1.00  0.00    +0.000 H 
ATOM     23  C17 UNL A   1      12.465  56.635   7.843  1.00  0.00    +0.000 C 
ATOM     24  C18 UNL A   1      13.708  56.031   8.059  1.00  0.00    +0.000 C 
ATOM     25  C19 UNL A   1      14.256  55.201   7.079  1.00  0.00    +0.000 C 
ATOM    119  H34 UNL A   1      11.813  55.432   4.789  1.00  0.00    +0.000 H 
ATOM     26  C20 UNL A   1      13.549  54.943   5.893  1.00  0.00    +0.000 C 
BRANCH   23   21
ATOM     21  C16 UNL A   1      11.867  57.438   8.933  1.00  0.00    +0.000 C 
ATOM     22  O4  UNL A   1      12.082  58.646   8.984  1.00  0.00    +0.000 O 
BRANCH   21   20
ATOM    106  H21 UNL A   1      10.903  57.394  10.686  1.00  0.00    +0.000 H 
ATOM     20  N2  UNL A   1      11.101  56.835   9.900  1.00  0.00    +0.000 N 
BRANCH   20   19
ATOM    105  H20 UNL A   1      10.671  55.060   8.969  1.00  0.00    +0.000 H 
ATOM     19  C15 UNL A   1      10.537  55.494   9.938  1.00  0.00    +0.000 C 
ATOM    104  H19 UNL A   1       9.502  55.565  10.200  1.00  0.00    +0.000 H 
BRANCH   19   18
ATOM     18  C14 UNL A   1      11.236  54.589  10.949  1.00  0.00    +0.000 C 
ATOM    102  H17 UNL A   1      11.803  55.208  11.611  1.00  0.00    +0.000 H 
ATOM    103  H18 UNL A   1      10.459  54.037  11.437  1.00  0.00    +0.000 H 
BRANCH   18   17
ATOM     17  C13 UNL A   1      12.182  53.546  10.349  1.00  0.00    +0.000 C 
ATOM    100  H15 UNL A   1      11.775  52.577  10.550  1.00  0.00    +0.000 H 
ATOM    101  H16 UNL A   1      12.251  53.778   9.307  1.00  0.00    +0.000 H 
BRANCH   17   16
ATOM     98  H13 UNL A   1      13.884  54.597  11.056  1.00  0.00    +0.000 H 
ATOM     99  H14 UNL A   1      13.617  52.971  11.765  1.00  0.00    +0.000 H 
ATOM     16  C12 UNL A   1      13.618  53.575  10.881  1.00  0.00    +0.000 C 
BRANCH   16   15
ATOM     97  H12 UNL A   1      15.627  53.309  10.316  1.00  0.00    +0.000 H 
ATOM     15  C11 UNL A   1      14.680  52.963   9.958  1.00  0.00    +0.000 C 
ATOM     96  H11 UNL A   1      14.469  53.274   8.955  1.00  0.00    +0.000 H 
BRANCH   15   14
ATOM     94  H9  UNL A   1      14.645  51.099  10.989  1.00  0.00    +0.000 H 
ATOM     14  C10 UNL A   1      14.742  51.435   9.978  1.00  0.00    +0.000 C 
ATOM     95  H10 UNL A   1      13.943  51.062   9.370  1.00  0.00    +0.000 H 
BRANCH   14   13
ATOM     13  N1  UNL A   1      15.990  50.939   9.437  1.00  0.00    +0.000 N 
ATOM     93  H8  UNL A   1      16.655  51.584   9.105  1.00  0.00    +0.000 H 
BRANCH   13    2
ATOM      1  O1  UNL A   1      16.558  48.907  10.341  1.00  0.00    +0.000 O 
ATOM      2  C1  UNL A   1      16.273  49.602   9.372  1.00  0.00    +0.000 C 
BRANCH    2    3
ATOM      3  C2  UNL A   1      16.177  48.972   8.030  1.00  0.00    +0.000 C 
ATOM     86  H1  UNL A   1      16.492  47.993   7.946  1.00  0.00    +0.000 H 
BRANCH    3    4
ATOM      4  C3  UNL A   1      15.717  49.565   6.916  1.00  0.00    +0.000 C 
ATOM     87  H2  UNL A   1      14.783  50.002   6.935  1.00  0.00    +0.000 H 
BRANCH    4    5
ATOM      5  C4  UNL A   1      16.496  49.613   5.669  1.00  0.00    +0.000 C 
ATOM      6  C5  UNL A   1      16.809  48.455   4.935  1.00  0.00    +0.000 C 
ATOM      7  C6  UNL A   1      17.573  48.532   3.765  1.00  0.00    +0.000 C 
ATOM      8  C7  UNL A   1      18.012  49.772   3.323  1.00  0.00    +0.000 C 
ATOM     10  C8  UNL A   1      17.681  50.925   4.030  1.00  0.00    +0.000 C 
ATOM     12  C9  UNL A   1      16.923  50.858   5.191  1.00  0.00    +0.000 C 
ATOM     88  H3  UNL A   1      16.471  47.537   5.263  1.00  0.00    +0.000 H 
ATOM     89  H4  UNL A   1      17.806  47.677   3.236  1.00  0.00    +0.000 H 
ATOM     92  H7  UNL A   1      16.674  51.722   5.699  1.00  0.00    +0.000 H 
BRANCH    8    9
ATOM      9  O2  UNL A   1      18.777  49.912   2.200  1.00  0.00    +0.000 O 
ATOM     90  H5  UNL A   1      18.873  50.754   1.799  1.00  0.00    +0.000 H 
ENDBRANCH    8    9
BRANCH   10   11
ATOM     11  O3  UNL A   1      18.113  52.142   3.587  1.00  0.00    +0.000 O 
ATOM     91  H6  UNL A   1      18.995  52.414   3.748  1.00  0.00    +0.000 H 
ENDBRANCH   10   11
ENDBRANCH    4    5
ENDBRANCH    3    4
ENDBRANCH    2    3
ENDBRANCH   13    2
ENDBRANCH   14   13
ENDBRANCH   15   14
ENDBRANCH   16   15
ENDBRANCH   17   16
ENDBRANCH   18   17
ENDBRANCH   19   18
ENDBRANCH   20   19
ENDBRANCH   21   20
ENDBRANCH   23   21
ENDBRANCH   27   26
BRANCH   31   32
ATOM     33  C26 UNL A   1      19.006  55.793   0.829  1.00  0.00    +0.000 C 
ATOM     34  F1  UNL A   1      19.556  55.118   1.850  1.00  0.00    +0.000 F 
ATOM     35  C27 UNL A   1      19.704  56.867   0.283  1.00  0.00    +0.000 C 
ATOM     36  F2  UNL A   1      20.896  57.214   0.786  1.00  0.00    +0.000 F 
ATOM     37  C28 UNL A   1      19.159  57.588  -0.768  1.00  0.00    +0.000 C 
ATOM     38  F3  UNL A   1      19.832  58.621  -1.294  1.00  0.00    +0.000 F 
ATOM     39  C29 UNL A   1      17.912  57.244  -1.269  1.00  0.00    +0.000 C 
ATOM     40  F4  UNL A   1      17.389  57.934  -2.293  1.00  0.00    +0.000 F 
ATOM     41  C30 UNL A   1      17.199  56.189  -0.705  1.00  0.00    +0.000 C 
ATOM     42  F5  UNL A   1      15.987  55.893  -1.199  1.00  0.00    +0.000 F 
ATOM     32  C25 UNL A   1      17.730  55.444   0.357  1.00  0.00    +0.000 C 
ENDBRANCH   31   32
BRANCH   48   49
ATOM     49  C36 UNL A   1      16.472  48.480  -1.050  1.00  0.00    +0.000 C 
ATOM     50  C37 UNL A   1      15.701  48.256  -2.199  1.00  0.00    +0.000 C 
ATOM     51  F6  UNL A   1      14.551  48.922  -2.381  1.00  0.00    +0.000 F 
ATOM     52  C38 UNL A   1      16.092  47.317  -3.152  1.00  0.00    +0.000 C 
ATOM     53  F7  UNL A   1      15.319  47.090  -4.223  1.00  0.00    +0.000 F 
ATOM     54  C39 UNL A   1      17.272  46.609  -2.987  1.00  0.00    +0.000 C 
ATOM     55  F8  UNL A   1      17.650  45.711  -3.907  1.00  0.00    +0.000 F 
ATOM     56  C40 UNL A   1      18.057  46.825  -1.863  1.00  0.00    +0.000 C 
ATOM     57  F9  UNL A   1      19.203  46.148  -1.708  1.00  0.00    +0.000 F 
ATOM     58  C41 UNL A   1      17.657  47.743  -0.897  1.00  0.00    +0.000 C 
ATOM     59  F10 UNL A   1      18.430  47.923   0.183  1.00  0.00    +0.000 F 
ENDBRANCH   48   49
BRANCH   63   64
ATOM     65  C46 UNL A   1      10.835  48.164   4.105  1.00  0.00    +0.000 C 
ATOM     66  F11 UNL A   1      10.302  49.086   3.290  1.00  0.00    +0.000 F 
ATOM     67  C47 UNL A   1      10.016  47.163   4.622  1.00  0.00    +0.000 C 
ATOM     68  F12 UNL A   1       8.714  47.136   4.304  1.00  0.00    +0.000 F 
ATOM     69  C48 UNL A   1      10.542  46.200   5.470  1.00  0.00    +0.000 C 
ATOM     70  F13 UNL A   1       9.756  45.230   5.956  1.00  0.00    +0.000 F 
ATOM     71  C49 UNL A   1      11.885  46.245   5.814  1.00  0.00    +0.000 C 
ATOM     72  F14 UNL A   1      12.401  45.308   6.621  1.00  0.00    +0.000 F 
ATOM     73  C50 UNL A   1      12.700  47.259   5.318  1.00  0.00    +0.000 C 
ATOM     74  F15 UNL A   1      13.994  47.280   5.668  1.00  0.00    +0.000 F 
ATOM     64  C45 UNL A   1      12.193  48.233   4.446  1.00  0.00    +0.000 C 
ENDBRANCH   63   64
TORSDOF 19
ENDMDL
MODEL 2
REMARK VINA RESULT:      -8.4     65.878     71.400
ROOT
ATOM     27  C21 UNL A   1      29.250 -13.852  30.723  1.00  0.00    +0.000 C 
ATOM     28  C22 UNL A   1      28.987 -14.015  32.192  1.00  0.00    +0.000 C 
ATOM     29  N3  UNL A   1      27.961 -13.614  32.899  1.00  0.00    +0.000 N 
ATOM     30  C23 UNL A   1      28.200 -14.050  34.195  1.00  0.00    +0.000 C 
ATOM     31  C24 UNL A   1      27.461 -13.834  35.309  1.00  0.00    +0.000 C 
ATOM     43  C31 UNL A   1      26.231 -13.086  35.338  1.00  0.00    +0.000 C 
ATOM     44  C32 UNL A   1      25.445 -12.756  36.428  1.00  0.00    +0.000 C 
ATOM     45  C33 UNL A   1      24.318 -12.068  35.965  1.00  0.00    +0.000 C 
ATOM     46  C34 UNL A   1      24.422 -11.931  34.589  1.00  0.00    +0.000 C 
ATOM     47  N4  UNL A   1      25.601 -12.559  34.219  1.00  0.00    +0.000 N 
ATOM     48  C35 UNL A   1      23.516 -11.280  33.678  1.00  0.00    +0.000 C 
ATOM     60  C42 UNL A   1      23.717 -11.146  32.345  1.00  0.00    +0.000 C 
ATOM     61  N5  UNL A   1      24.780 -11.597  31.576  1.00  0.00    +0.000 N 
ATOM     62  C43 UNL A   1      24.509 -11.240  30.344  1.00  0.00    +0.000 C 
ATOM     63  C44 UNL A   1      25.318 -11.460  29.096  1.00  0.00    +0.000 C 
ATOM     75  C51 UNL A   1      26.519 -12.062  29.184  1.00  0.00    +0.000 C 
ATOM     76  C52 UNL A   1      27.408 -12.337  28.060  1.00  0.00    +0.000 C 
ATOM     77  C53 UNL A   1      28.478 -13.015  28.503  1.00  0.00    +0.000 C 
ATOM     78  C54 UNL A   1      28.365 -13.191  29.952  1.00  0.00    +0.000 C 
ATOM     79  N6  UNL A   1      27.185 -12.567  30.273  1.00  0.00    +0.000 N 
ATOM     80  C55 UNL A   1      23.232 -10.531  30.190  1.00  0.00    +0.000 C 
ATOM     81  C56 UNL A   1      22.804 -10.474  31.443  1.00  0.00    +0.000 C 
ATOM     82  C57 UNL A   1      29.444 -14.791  34.166  1.00  0.00    +0.000 C 
ATOM     83  C58 UNL A   1      30.001 -14.748  32.964  1.00  0.00    +0.000 C 
ATOM    109  H24 UNL A   1      25.654 -12.978  37.414  1.00  0.00    +0.000 H 
ATOM    110  H25 UNL A   1      23.541 -11.720  36.548  1.00  0.00    +0.000 H 
ATOM    111  H26 UNL A   1      25.942 -12.622  33.297  1.00  0.00    +0.000 H 
ATOM    112  H27 UNL A   1      27.241 -12.055  27.081  1.00  0.00    +0.000 H 
ATOM    113  H28 UNL A   1      29.255 -13.357  27.918  1.00  0.00    +0.000 H 
ATOM    114  H29 UNL A   1      26.849 -12.489  31.196  1.00  0.00    +0.000 H 
ATOM    115  H30 UNL A   1      22.785 -10.172  29.332  1.00  0.00    +0.000 H 
ATOM    116  H31 UNL A   1      21.931 -10.009  31.739  1.00  0.00    +0.000 H 
ATOM    117  H32 UNL A   1      29.844 -15.289  34.977  1.00  0.00    +0.000 H 
ATOM    118  H33 UNL A   1      30.908 -15.129  32.652  1.00  0.00    +0.000 H 
ENDROOT
BRANCH   27   26
ATOM    107  H22 UNL A   1      33.620 -13.868  29.220  1.00  0.00    +0.000 H 
ATOM    108  H23 UNL A   1      31.783 -12.907  30.483  1.00  0.00    +0.000 H 
ATOM     84  C59 UNL A   1      30.312 -15.765  29.522  1.00  0.00    +0.000 C 
ATOM     85  C60 UNL A   1      31.391 -16.349  28.862  1.00  0.00    +0.000 C 
ATOM    120  H35 UNL A   1      31.318 -17.314  28.504  1.00  0.00    +0.000 H 
ATOM     23  C17 UNL A   1      32.573 -15.625  28.688  1.00  0.00    +0.000 C 
ATOM     24  C18 UNL A   1      32.725 -14.376  29.297  1.00  0.00    +0.000 C 
ATOM     25  C19 UNL A   1      31.664 -13.817  30.012  1.00  0.00    +0.000 C 
ATOM    119  H34 UNL A   1      29.417 -16.276  29.593  1.00  0.00    +0.000 H 
ATOM     26  C20 UNL A   1      30.433 -14.489  30.091  1.00  0.00    +0.000 C 
BRANCH   23   21
ATOM     21  C16 UNL A   1      33.683 -16.153  27.864  1.00  0.00    +0.000 C 
ATOM     22  O4  UNL A   1      34.517 -16.896  28.375  1.00  0.00    +0.000 O 
BRANCH   21   20
ATOM    106  H21 UNL A   1      33.358 -16.396  25.905  1.00  0.00    +0.000 H 
ATOM     20  N2  UNL A   1      33.801 -15.793  26.544  1.00  0.00    +0.000 N 
BRANCH   20   19
ATOM    105  H20 UNL A   1      34.796 -14.941  24.967  1.00  0.00    +0.000 H 
ATOM     19  C15 UNL A   1      34.482 -14.653  25.949  1.00  0.00    +0.000 C 
ATOM    104  H19 UNL A   1      35.314 -14.390  26.568  1.00  0.00    +0.000 H 
BRANCH   19   18
ATOM     18  C14 UNL A   1      33.575 -13.434  25.804  1.00  0.00    +0.000 C 
ATOM    102  H17 UNL A   1      33.616 -13.110  24.785  1.00  0.00    +0.000 H 
ATOM    103  H18 UNL A   1      32.602 -13.751  26.115  1.00  0.00    +0.000 H 
BRANCH   18   17
ATOM     17  C13 UNL A   1      33.936 -12.241  26.692  1.00  0.00    +0.000 C 
ATOM    100  H15 UNL A   1      33.200 -12.172  27.466  1.00  0.00    +0.000 H 
ATOM    101  H16 UNL A   1      34.924 -12.433  27.054  1.00  0.00    +0.000 H 
BRANCH   17   16
ATOM     98  H13 UNL A   1      34.506 -11.029  25.047  1.00  0.00    +0.000 H 
ATOM     99  H14 UNL A   1      32.993 -10.553  25.884  1.00  0.00    +0.000 H 
ATOM     16  C12 UNL A   1      34.005 -10.886  25.982  1.00  0.00    +0.000 C 
BRANCH   16   15
ATOM     97  H12 UNL A   1      35.539  -9.452  26.112  1.00  0.00    +0.000 H 
ATOM     15  C11 UNL A   1      34.739  -9.774  26.745  1.00  0.00    +0.000 C 
ATOM     96  H11 UNL A   1      35.075 -10.176  27.678  1.00  0.00    +0.000 H 
BRANCH   15   14
ATOM     94  H9  UNL A   1      34.540  -7.684  27.108  1.00  0.00    +0.000 H 
ATOM     14  C10 UNL A   1      33.894  -8.534  27.037  1.00  0.00    +0.000 C 
ATOM     95  H10 UNL A   1      33.189  -8.417  26.239  1.00  0.00    +0.000 H 
BRANCH   14   13
ATOM     13  N1  UNL A   1      33.155  -8.664  28.275  1.00  0.00    +0.000 N 
ATOM     93  H8  UNL A   1      33.640  -8.906  29.097  1.00  0.00    +0.000 H 
BRANCH   13    2
ATOM      1  O1  UNL A   1      31.255  -7.382  28.152  1.00  0.00    +0.000 O 
ATOM      2  C1  UNL A   1      31.803  -8.462  28.339  1.00  0.00    +0.000 C 
BRANCH    2    3
ATOM      3  C2  UNL A   1      30.970  -9.661  28.613  1.00  0.00    +0.000 C 
ATOM     86  H1  UNL A   1      30.619 -10.187  27.796  1.00  0.00    +0.000 H 
BRANCH    3    4
ATOM      4  C3  UNL A   1      30.633 -10.123  29.828  1.00  0.00    +0.000 C 
ATOM     87  H2  UNL A   1      31.262 -10.792  30.297  1.00  0.00    +0.000 H 
BRANCH    4    5
ATOM      5  C4  UNL A   1      29.400  -9.710  30.515  1.00  0.00    +0.000 C 
ATOM      6  C5  UNL A   1      28.451  -8.865  29.910  1.00  0.00    +0.000 C 
ATOM      7  C6  UNL A   1      27.299  -8.470  30.600  1.00  0.00    +0.000 C 
ATOM      8  C7  UNL A   1      27.091  -8.933  31.891  1.00  0.00    +0.000 C 
ATOM     10  C8  UNL A   1      28.012  -9.792  32.485  1.00  0.00    +0.000 C 
ATOM     12  C9  UNL A   1      29.156 -10.190  31.808  1.00  0.00    +0.000 C 
ATOM     88  H3  UNL A   1      28.607  -8.533  28.946  1.00  0.00    +0.000 H 
ATOM     89  H4  UNL A   1      26.612  -7.843  30.152  1.00  0.00    +0.000 H 
ATOM     92  H7  UNL A   1      29.826 -10.837  32.255  1.00  0.00    +0.000 H 
BRANCH    8    9
ATOM      9  O2  UNL A   1      25.996  -8.569  32.624  1.00  0.00    +0.000 O 
ATOM     90  H5  UNL A   1      25.615  -7.721  32.507  1.00  0.00    +0.000 H 
ENDBRANCH    8    9
BRANCH   10   11
ATOM     11  O3  UNL A   1      27.798 -10.247  33.754  1.00  0.00    +0.000 O 
ATOM     91  H6  UNL A   1      26.956 -10.144  34.154  1.00  0.00    +0.000 H 
ENDBRANCH   10   11
ENDBRANCH    4    5
ENDBRANCH    3    4
ENDBRANCH    2    3
ENDBRANCH   13    2
ENDBRANCH   14   13
ENDBRANCH   15   14
ENDBRANCH   16   15
ENDBRANCH   17   16
ENDBRANCH   18   17
ENDBRANCH   19   18
ENDBRANCH   20   19
ENDBRANCH   21   20
ENDBRANCH   23   21
ENDBRANCH   27   26
BRANCH   31   32
ATOM     33  C26 UNL A   1      28.928 -13.754  37.375  1.00  0.00    +0.000 C 
ATOM     34  F1  UNL A   1      29.437 -12.581  36.965  1.00  0.00    +0.000 F 
ATOM     35  C27 UNL A   1      29.405 -14.313  38.558  1.00  0.00    +0.000 C 
ATOM     36  F2  UNL A   1      30.360 -13.685  39.257  1.00  0.00    +0.000 F 
ATOM     37  C28 UNL A   1      28.905 -15.527  39.004  1.00  0.00    +0.000 C 
ATOM     38  F3  UNL A   1      29.363 -16.064  40.143  1.00  0.00    +0.000 F 
ATOM     39  C29 UNL A   1      27.936 -16.189  38.264  1.00  0.00    +0.000 C 
ATOM     40  F4  UNL A   1      27.443 -17.357  38.700  1.00  0.00    +0.000 F 
ATOM     41  C30 UNL A   1      27.479 -15.646  37.065  1.00  0.00    +0.000 C 
ATOM     42  F5  UNL A   1      26.556 -16.319  36.363  1.00  0.00    +0.000 F 
ATOM     32  C25 UNL A   1      27.969 -14.419  36.595  1.00  0.00    +0.000 C 
ENDBRANCH   31   32
BRANCH   48   49
ATOM     49  C36 UNL A   1      22.258 -10.687  34.244  1.00  0.00    +0.000 C 
ATOM     50  C37 UNL A   1      22.255  -9.422  34.850  1.00  0.00    +0.000 C 
ATOM     51  F6  UNL A   1      23.400  -8.734  34.982  1.00  0.00    +0.000 F 
ATOM     52  C38 UNL A   1      21.078  -8.873  35.354  1.00  0.00    +0.000 C 
ATOM     53  F7  UNL A   1      21.105  -7.681  35.965  1.00  0.00    +0.000 F 
ATOM     54  C39 UNL A   1      19.882  -9.564  35.237  1.00  0.00    +0.000 C 
ATOM     55  F8  UNL A   1      18.750  -9.032  35.716  1.00  0.00    +0.000 F 
ATOM     56  C40 UNL A   1      19.861 -10.811  34.629  1.00  0.00    +0.000 C 
ATOM     57  F9  UNL A   1      18.703 -11.476  34.506  1.00  0.00    +0.000 F 
ATOM     58  C41 UNL A   1      21.039 -11.374  34.147  1.00  0.00    +0.000 C 
ATOM     59  F10 UNL A   1      20.989 -12.585  33.574  1.00  0.00    +0.000 F 
ENDBRANCH   48   49
BRANCH   63   64
ATOM     65  C46 UNL A   1      25.235  -9.789  27.224  1.00  0.00    +0.000 C 
ATOM     66  F11 UNL A   1      26.050  -8.985  27.923  1.00  0.00    +0.000 F 
ATOM     67  C47 UNL A   1      24.792  -9.378  25.970  1.00  0.00    +0.000 C 
ATOM     68  F12 UNL A   1      25.178  -8.191  25.481  1.00  0.00    +0.000 F 
ATOM     69  C48 UNL A   1      23.946 -10.189  25.228  1.00  0.00    +0.000 C 
ATOM     70  F13 UNL A   1      23.530  -9.798  24.017  1.00  0.00    +0.000 F 
ATOM     71  C49 UNL A   1      23.530 -11.407  25.747  1.00  0.00    +0.000 C 
ATOM     72  F14 UNL A   1      22.725 -12.201  25.028  1.00  0.00    +0.000 F 
ATOM     73  C50 UNL A   1      23.953 -11.809  27.012  1.00  0.00    +0.000 C 
ATOM     74  F15 UNL A   1      23.536 -12.990  27.490  1.00  0.00    +0.000 F 
ATOM     64  C45 UNL A   1      24.822 -11.012  27.771  1.00  0.00    +0.000 C 
ENDBRANCH   63   64
TORSDOF 19
ENDMDL
MODEL 3
REMARK VINA RESULT:      -8.1      1.370      2.595
ROOT
ATOM     27  C21 UNL A   1      14.253  53.938   5.053  1.00  0.00    +0.000 C 
ATOM     28  C22 UNL A   1      15.185  54.380   3.962  1.00  0.00    +0.000 C 
ATOM     29  N3  UNL A   1      15.667  53.694   2.956  1.00  0.00    +0.000 N 
ATOM     30  C23 UNL A   1      16.446  54.584   2.230  1.00  0.00    +0.000 C 
ATOM     31  C24 UNL A   1      17.204  54.343   1.134  1.00  0.00    +0.000 C 
ATOM     43  C31 UNL A   1      17.327  53.059   0.495  1.00  0.00    +0.000 C 
ATOM     44  C32 UNL A   1      18.122  52.701  -0.580  1.00  0.00    +0.000 C 
ATOM     45  C33 UNL A   1      17.868  51.359  -0.885  1.00  0.00    +0.000 C 
ATOM     46  C34 UNL A   1      16.946  50.868   0.026  1.00  0.00    +0.000 C 
ATOM     47  N4  UNL A   1      16.624  51.922   0.867  1.00  0.00    +0.000 N 
ATOM     48  C35 UNL A   1      16.396  49.540   0.123  1.00  0.00    +0.000 C 
ATOM     60  C42 UNL A   1      15.531  49.126   1.080  1.00  0.00    +0.000 C 
ATOM     61  N5  UNL A   1      14.983  49.849   2.131  1.00  0.00    +0.000 N 
ATOM     62  C43 UNL A   1      14.195  49.017   2.767  1.00  0.00    +0.000 C 
ATOM     63  C44 UNL A   1      13.354  49.259   3.989  1.00  0.00    +0.000 C 
ATOM     75  C51 UNL A   1      13.398  50.461   4.595  1.00  0.00    +0.000 C 
ATOM     76  C52 UNL A   1      12.640  50.833   5.785  1.00  0.00    +0.000 C 
ATOM     77  C53 UNL A   1      12.868  52.126   6.064  1.00  0.00    +0.000 C 
ATOM     78  C54 UNL A   1      13.819  52.663   5.090  1.00  0.00    +0.000 C 
ATOM     79  N6  UNL A   1      14.102  51.595   4.274  1.00  0.00    +0.000 N 
ATOM     80  C55 UNL A   1      14.143  47.670   2.183  1.00  0.00    +0.000 C 
ATOM     81  C56 UNL A   1      14.999  47.781   1.176  1.00  0.00    +0.000 C 
ATOM     82  C57 UNL A   1      16.331  55.872   2.882  1.00  0.00    +0.000 C 
ATOM     83  C58 UNL A   1      15.612  55.787   3.992  1.00  0.00    +0.000 C 
ATOM    109  H24 UNL A   1      18.789  53.316  -1.071  1.00  0.00    +0.000 H 
ATOM    110  H25 UNL A   1      18.295  50.824  -1.658  1.00  0.00    +0.000 H 
ATOM    111  H26 UNL A   1      15.990  51.871   1.619  1.00  0.00    +0.000 H 
ATOM    112  H27 UNL A   1      12.026  50.203   6.325  1.00  0.00    +0.000 H 
ATOM    113  H28 UNL A   1      12.443  52.655   6.840  1.00  0.00    +0.000 H 
ATOM    114  H29 UNL A   1      14.747  51.639   3.531  1.00  0.00    +0.000 H 
ATOM    115  H30 UNL A   1      13.588  46.852   2.478  1.00  0.00    +0.000 H 
ATOM    116  H31 UNL A   1      15.253  47.009   0.541  1.00  0.00    +0.000 H 
ATOM    117  H32 UNL A   1      16.756  56.744   2.528  1.00  0.00    +0.000 H 
ATOM    118  H33 UNL A   1      15.405  56.515   4.692  1.00  0.00    +0.000 H 
ENDROOT
BRANCH   27   26
ATOM    107  H22 UNL A   1      14.367  56.190   9.087  1.00  0.00    +0.000 H 
ATOM    108  H23 UNL A   1      15.370  54.790   7.375  1.00  0.00    +0.000 H 
ATOM     84  C59 UNL A   1      12.494  55.537   5.816  1.00  0.00    +0.000 C 
ATOM     85  C60 UNL A   1      11.954  56.400   6.766  1.00  0.00    +0.000 C 
ATOM    120  H35 UNL A   1      11.078  56.907   6.567  1.00  0.00    +0.000 H 
ATOM     23  C17 UNL A   1      12.603  56.578   7.991  1.00  0.00    +0.000 C 
ATOM     24  C18 UNL A   1      13.861  56.008   8.206  1.00  0.00    +0.000 C 
ATOM     25  C19 UNL A   1      14.431  55.191   7.227  1.00  0.00    +0.000 C 
ATOM    119  H34 UNL A   1      11.981  55.355   4.938  1.00  0.00    +0.000 H 
ATOM     26  C20 UNL A   1      13.730  54.913   6.042  1.00  0.00    +0.000 C 
BRANCH   23   21
ATOM     21  C16 UNL A   1      11.984  57.367   9.080  1.00  0.00    +0.000 C 
ATOM     22  O4  UNL A   1      12.059  58.593   9.058  1.00  0.00    +0.000 O 
BRANCH   21   20
ATOM    106  H21 UNL A   1      11.391  57.215  10.984  1.00  0.00    +0.000 H 
ATOM     20  N2  UNL A   1      11.358  56.735  10.126  1.00  0.00    +0.000 N 
BRANCH   20   19
ATOM    105  H20 UNL A   1      10.357  55.234   9.152  1.00  0.00    +0.000 H 
ATOM     19  C15 UNL A   1      10.652  55.463  10.155  1.00  0.00    +0.000 C 
ATOM    104  H19 UNL A   1       9.806  55.555  10.804  1.00  0.00    +0.000 H 
BRANCH   19   18
ATOM     18  C14 UNL A   1      11.526  54.314  10.652  1.00  0.00    +0.000 C 
ATOM    102  H17 UNL A   1      12.427  54.732  11.049  1.00  0.00    +0.000 H 
ATOM    103  H18 UNL A   1      10.939  53.790  11.378  1.00  0.00    +0.000 H 
BRANCH   18   17
ATOM     17  C13 UNL A   1      11.912  53.279   9.592  1.00  0.00    +0.000 C 
ATOM    100  H15 UNL A   1      11.192  52.488   9.627  1.00  0.00    +0.000 H 
ATOM    101  H16 UNL A   1      11.929  53.806   8.661  1.00  0.00    +0.000 H 
BRANCH   17   16
ATOM     98  H13 UNL A   1      13.926  53.045   8.969  1.00  0.00    +0.000 H 
ATOM     99  H14 UNL A   1      13.632  52.922  10.734  1.00  0.00    +0.000 H 
ATOM     16  C12 UNL A   1      13.303  52.660   9.750  1.00  0.00    +0.000 C 
BRANCH   16   15
ATOM     97  H12 UNL A   1      14.273  50.838  10.160  1.00  0.00    +0.000 H 
ATOM     15  C11 UNL A   1      13.359  51.128   9.684  1.00  0.00    +0.000 C 
ATOM     96  H11 UNL A   1      13.309  50.836   8.656  1.00  0.00    +0.000 H 
BRANCH   15   14
ATOM     94  H9  UNL A   1      12.258  50.717  11.462  1.00  0.00    +0.000 H 
ATOM     14  C10 UNL A   1      12.235  50.414  10.437  1.00  0.00    +0.000 C 
ATOM     95  H10 UNL A   1      11.306  50.681   9.977  1.00  0.00    +0.000 H 
BRANCH   14   13
ATOM     13  N1  UNL A   1      12.372  48.974  10.371  1.00  0.00    +0.000 N 
ATOM     93  H8  UNL A   1      12.541  48.473  11.202  1.00  0.00    +0.000 H 
BRANCH   13    2
ATOM      1  O1  UNL A   1      11.503  48.576   8.285  1.00  0.00    +0.000 O 
ATOM      2  C1  UNL A   1      12.275  48.287   9.192  1.00  0.00    +0.000 C 
BRANCH    2    3
ATOM      3  C2  UNL A   1      13.212  47.149   9.013  1.00  0.00    +0.000 C 
ATOM     86  H1  UNL A   1      12.850  46.312   8.530  1.00  0.00    +0.000 H 
BRANCH    3    4
ATOM      4  C3  UNL A   1      14.490  47.112   9.424  1.00  0.00    +0.000 C 
ATOM     87  H2  UNL A   1      14.810  46.306   9.982  1.00  0.00    +0.000 H 
BRANCH    4    5
ATOM      5  C4  UNL A   1      15.451  48.181   9.109  1.00  0.00    +0.000 C 
ATOM      6  C5  UNL A   1      15.647  48.650   7.797  1.00  0.00    +0.000 C 
ATOM      7  C6  UNL A   1      16.587  49.651   7.527  1.00  0.00    +0.000 C 
ATOM      8  C7  UNL A   1      17.321  50.191   8.573  1.00  0.00    +0.000 C 
ATOM     10  C8  UNL A   1      17.111  49.752   9.877  1.00  0.00    +0.000 C 
ATOM     12  C9  UNL A   1      16.180  48.760  10.155  1.00  0.00    +0.000 C 
ATOM     88  H3  UNL A   1      15.091  48.251   7.025  1.00  0.00    +0.000 H 
ATOM     89  H4  UNL A   1      16.732  49.984   6.561  1.00  0.00    +0.000 H 
ATOM     92  H7  UNL A   1      16.025  48.451  11.128  1.00  0.00    +0.000 H 
BRANCH    8    9
ATOM      9  O2  UNL A   1      18.267  51.157   8.372  1.00  0.00    +0.000 O 
ATOM     90  H5  UNL A   1      19.175  50.927   8.352  1.00  0.00    +0.000 H 
ENDBRANCH    8    9
BRANCH   10   11
ATOM     11  O3  UNL A   1      17.834  50.291  10.903  1.00  0.00    +0.000 O 
ATOM     91  H6  UNL A   1      17.415  50.850  11.528  1.00  0.00    +0.000 H 
ENDBRANCH   10   11
ENDBRANCH    4    5
ENDBRANCH    3    4
ENDBRANCH    2    3
ENDBRANCH   13    2
ENDBRANCH   14   13
ENDBRANCH   15   14
ENDBRANCH   16   15
ENDBRANCH   17   16
ENDBRANCH   18   17
ENDBRANCH   19   18
ENDBRANCH   20   19
ENDBRANCH   21   20
ENDBRANCH   23   21
ENDBRANCH   27   26
BRANCH   31   32
ATOM     33  C26 UNL A   1      17.477  56.222  -0.547  1.00  0.00    +0.000 C 
ATOM     34  F1  UNL A   1      16.322  55.864  -1.130  1.00  0.00    +0.000 F 
ATOM     35  C27 UNL A   1      18.197  57.285  -1.085  1.00  0.00    +0.000 C 
ATOM     36  F2  UNL A   1      17.738  57.922  -2.171  1.00  0.00    +0.000 F 
ATOM     37  C28 UNL A   1      19.397  57.674  -0.510  1.00  0.00    +0.000 C 
ATOM     38  F3  UNL A   1      20.090  58.698  -1.027  1.00  0.00    +0.000 F 
ATOM     39  C29 UNL A   1      19.884  56.995   0.598  1.00  0.00    +0.000 C 
ATOM     40  F4  UNL A   1      21.039  57.378   1.162  1.00  0.00    +0.000 F 
ATOM     41  C30 UNL A   1      19.180  55.913   1.120  1.00  0.00    +0.000 C 
ATOM     42  F5  UNL A   1      19.687  55.265   2.180  1.00  0.00    +0.000 F 
ATOM     32  C25 UNL A   1      17.964  55.503   0.555  1.00  0.00    +0.000 C 
ENDBRANCH   31   32
BRANCH   48   49
ATOM     49  C36 UNL A   1      16.822  48.528  -0.900  1.00  0.00    +0.000 C 
ATOM     50  C37 UNL A   1      18.001  47.785  -0.746  1.00  0.00    +0.000 C 
ATOM     51  F6  UNL A   1      18.806  48.006   0.305  1.00  0.00    +0.000 F 
ATOM     52  C38 UNL A   1      18.376  46.834  -1.692  1.00  0.00    +0.000 C 
ATOM     53  F7  UNL A   1      19.528  46.164  -1.546  1.00  0.00    +0.000 F 
ATOM     54  C39 UNL A   1      17.567  46.589  -2.791  1.00  0.00    +0.000 C 
ATOM     55  F8  UNL A   1      17.926  45.669  -3.697  1.00  0.00    +0.000 F 
ATOM     56  C40 UNL A   1      16.389  47.303  -2.955  1.00  0.00    +0.000 C 
ATOM     57  F9  UNL A   1      15.602  47.060  -4.013  1.00  0.00    +0.000 F 
ATOM     58  C41 UNL A   1      16.024  48.273  -2.026  1.00  0.00    +0.000 C 
ATOM     59  F10 UNL A   1      14.885  48.954  -2.216  1.00  0.00    +0.000 F 
ENDBRANCH   48   49
BRANCH   63   64
ATOM     65  C46 UNL A   1      11.106  48.188   4.306  1.00  0.00    +0.000 C 
ATOM     66  F11 UNL A   1      10.547  49.183   3.605  1.00  0.00    +0.000 F 
ATOM     67  C47 UNL A   1      10.293  47.174   4.808  1.00  0.00    +0.000 C 
ATOM     68  F12 UNL A   1       8.972  47.208   4.588  1.00  0.00    +0.000 F 
ATOM     69  C48 UNL A   1      10.847  46.134   5.540  1.00  0.00    +0.000 C 
ATOM     70  F13 UNL A   1      10.066  45.153   6.011  1.00  0.00    +0.000 F 
ATOM     71  C49 UNL A   1      12.213  46.114   5.784  1.00  0.00    +0.000 C 
ATOM     72  F14 UNL A   1      12.754  45.104   6.479  1.00  0.00    +0.000 F 
ATOM     73  C50 UNL A   1      13.023  47.140   5.304  1.00  0.00    +0.000 C 
ATOM     74  F15 UNL A   1      14.339  47.097   5.556  1.00  0.00    +0.000 F 
ATOM     64  C45 UNL A   1      12.487  48.192   4.548  1.00  0.00    +0.000 C 
ENDBRANCH   63   64
TORSDOF 19
ENDMDL
MODEL 4
REMARK VINA RESULT:      -8.1     45.181     48.213
ROOT
ATOM     27  C21 UNL A   1      24.478  39.273  47.054  1.00  0.00    +0.000 C 
ATOM     28  C22 UNL A   1      23.725  40.285  47.868  1.00  0.00    +0.000 C 
ATOM     29  N3  UNL A   1      22.531  40.197  48.399  1.00  0.00    +0.000 N 
ATOM     30  C23 UNL A   1      22.329  41.393  49.075  1.00  0.00    +0.000 C 
ATOM     31  C24 UNL A   1      21.225  41.813  49.738  1.00  0.00    +0.000 C 
ATOM     43  C31 UNL A   1      20.014  41.045  49.870  1.00  0.00    +0.000 C 
ATOM     44  C32 UNL A   1      18.819  41.412  50.464  1.00  0.00    +0.000 C 
ATOM     45  C33 UNL A   1      17.944  40.321  50.400  1.00  0.00    +0.000 C 
ATOM     46  C34 UNL A   1      18.579  39.289  49.728  1.00  0.00    +0.000 C 
ATOM     47  N4  UNL A   1      19.848  39.747  49.408  1.00  0.00    +0.000 N 
ATOM     48  C35 UNL A   1      18.072  37.979  49.404  1.00  0.00    +0.000 C 
ATOM     60  C42 UNL A   1      18.743  37.039  48.697  1.00  0.00    +0.000 C 
ATOM     61  N5  UNL A   1      20.021  37.102  48.159  1.00  0.00    +0.000 N 
ATOM     62  C43 UNL A   1      20.226  35.943  47.583  1.00  0.00    +0.000 C 
ATOM     63  C44 UNL A   1      21.438  35.460  46.836  1.00  0.00    +0.000 C 
ATOM     75  C51 UNL A   1      22.479  36.293  46.654  1.00  0.00    +0.000 C 
ATOM     76  C52 UNL A   1      23.713  35.960  45.949  1.00  0.00    +0.000 C 
ATOM     77  C53 UNL A   1      24.558  37.000  46.029  1.00  0.00    +0.000 C 
ATOM     78  C54 UNL A   1      23.909  38.087  46.763  1.00  0.00    +0.000 C 
ATOM     79  N6  UNL A   1      22.667  37.589  47.068  1.00  0.00    +0.000 N 
ATOM     80  C55 UNL A   1      19.103  35.004  47.703  1.00  0.00    +0.000 C 
ATOM     81  C56 UNL A   1      18.214  35.732  48.363  1.00  0.00    +0.000 C 
ATOM     82  C57 UNL A   1      23.544  42.167  48.931  1.00  0.00    +0.000 C 
ATOM     83  C58 UNL A   1      24.415  41.554  48.142  1.00  0.00    +0.000 C 
ATOM    109  H24 UNL A   1      18.608  42.332  50.881  1.00  0.00    +0.000 H 
ATOM    110  H25 UNL A   1      16.988  40.290  50.788  1.00  0.00    +0.000 H 
ATOM    111  H26 UNL A   1      20.530  39.229  48.923  1.00  0.00    +0.000 H 
ATOM    112  H27 UNL A   1      23.905  35.068  45.467  1.00  0.00    +0.000 H 
ATOM    113  H28 UNL A   1      25.511  37.028  45.637  1.00  0.00    +0.000 H 
ATOM    114  H29 UNL A   1      21.976  38.110  47.540  1.00  0.00    +0.000 H 
ATOM    115  H30 UNL A   1      19.025  34.033  47.362  1.00  0.00    +0.000 H 
ATOM    116  H31 UNL A   1      17.265  35.410  48.609  1.00  0.00    +0.000 H 
ATOM    117  H32 UNL A   1      23.710  43.080  49.382  1.00  0.00    +0.000 H 
ATOM    118  H33 UNL A   1      25.335  41.880  47.809  1.00  0.00    +0.000 H 
ENDROOT
BRANCH   27   26
ATOM    107  H22 UNL A   1      29.054  39.165  47.689  1.00  0.00    +0.000 H 
ATOM    108  H23 UNL A   1      26.787  38.510  48.260  1.00  0.00    +0.000 H 
ATOM     84  C59 UNL A   1      26.137  40.249  45.464  1.00  0.00    +0.000 C 
ATOM     85  C60 UNL A   1      27.445  40.559  45.097  1.00  0.00    +0.000 C 
ATOM    120  H35 UNL A   1      27.632  41.031  44.199  1.00  0.00    +0.000 H 
ATOM     23  C17 UNL A   1      28.502  40.228  45.949  1.00  0.00    +0.000 C 
ATOM     24  C18 UNL A   1      28.265  39.461  47.094  1.00  0.00    +0.000 C 
ATOM     25  C19 UNL A   1      26.960  39.097  47.429  1.00  0.00    +0.000 C 
ATOM    119  H34 UNL A   1      25.351  40.551  44.866  1.00  0.00    +0.000 H 
ATOM     26  C20 UNL A   1      25.881  39.528  46.640  1.00  0.00    +0.000 C 
BRANCH   23   21
ATOM     21  C16 UNL A   1      29.884  40.673  45.665  1.00  0.00    +0.000 C 
ATOM     22  O4  UNL A   1      30.316  41.690  46.202  1.00  0.00    +0.000 O 
BRANCH   21   20
ATOM    106  H21 UNL A   1      31.069  40.513  44.060  1.00  0.00    +0.000 H 
ATOM     20  N2  UNL A   1      30.672  39.975  44.782  1.00  0.00    +0.000 N 
BRANCH   20   19
ATOM    105  H20 UNL A   1      30.656  38.126  45.668  1.00  0.00    +0.000 H 
ATOM     19  C15 UNL A   1      31.007  38.559  44.755  1.00  0.00    +0.000 C 
ATOM    104  H19 UNL A   1      32.068  38.461  44.653  1.00  0.00    +0.000 H 
BRANCH   19   18
ATOM     18  C14 UNL A   1      30.335  37.816  43.603  1.00  0.00    +0.000 C 
ATOM    102  H17 UNL A   1      29.595  38.461  43.179  1.00  0.00    +0.000 H 
ATOM    103  H18 UNL A   1      31.119  37.555  42.923  1.00  0.00    +0.000 H 
BRANCH   18   17
ATOM     17  C13 UNL A   1      29.651  36.500  43.984  1.00  0.00    +0.000 C 
ATOM    100  H15 UNL A   1      29.457  35.957  43.084  1.00  0.00    +0.000 H 
ATOM    101  H16 UNL A   1      30.325  36.002  44.651  1.00  0.00    +0.000 H 
BRANCH   17   16
ATOM     98  H13 UNL A   1      28.151  37.683  44.907  1.00  0.00    +0.000 H 
ATOM     99  H14 UNL A   1      27.590  36.160  44.143  1.00  0.00    +0.000 H 
ATOM     16  C12 UNL A   1      28.331  36.640  44.748  1.00  0.00    +0.000 C 
BRANCH   16   15
ATOM     97  H12 UNL A   1      27.921  36.667  46.811  1.00  0.00    +0.000 H 
ATOM     15  C11 UNL A   1      28.277  35.939  46.112  1.00  0.00    +0.000 C 
ATOM     96  H11 UNL A   1      29.258  35.579  46.342  1.00  0.00    +0.000 H 
BRANCH   15   14
ATOM     94  H9  UNL A   1      26.313  35.135  46.311  1.00  0.00    +0.000 H 
ATOM     14  C10 UNL A   1      27.307  34.759  46.187  1.00  0.00    +0.000 C 
ATOM     95  H10 UNL A   1      27.396  34.199  45.278  1.00  0.00    +0.000 H 
BRANCH   14   13
ATOM     13  N1  UNL A   1      27.616  33.876  47.292  1.00  0.00    +0.000 N 
ATOM     93  H8  UNL A   1      28.073  33.023  47.107  1.00  0.00    +0.000 H 
BRANCH   13    2
ATOM      1  O1  UNL A   1      28.025  33.992  49.547  1.00  0.00    +0.000 O 
ATOM      2  C1  UNL A   1      27.292  34.188  48.584  1.00  0.00    +0.000 C 
BRANCH    2    3
ATOM      3  C2  UNL A   1      25.978  34.847  48.794  1.00  0.00    +0.000 C 
ATOM     86  H1  UNL A   1      25.143  34.357  48.437  1.00  0.00    +0.000 H 
BRANCH    3    4
ATOM      4  C3  UNL A   1      25.780  36.025  49.409  1.00  0.00    +0.000 C 
ATOM     87  H2  UNL A   1      26.566  36.689  49.474  1.00  0.00    +0.000 H 
BRANCH    4    5
ATOM      5  C4  UNL A   1      24.484  36.402  49.992  1.00  0.00    +0.000 C 
ATOM      6  C5  UNL A   1      24.215  37.707  50.443  1.00  0.00    +0.000 C 
ATOM      7  C6  UNL A   1      22.979  38.028  51.017  1.00  0.00    +0.000 C 
ATOM      8  C7  UNL A   1      22.008  37.043  51.126  1.00  0.00    +0.000 C 
ATOM     10  C8  UNL A   1      22.257  35.757  50.656  1.00  0.00    +0.000 C 
ATOM     12  C9  UNL A   1      23.479  35.430  50.084  1.00  0.00    +0.000 C 
ATOM     88  H3  UNL A   1      24.939  38.437  50.350  1.00  0.00    +0.000 H 
ATOM     89  H4  UNL A   1      22.793  38.986  51.353  1.00  0.00    +0.000 H 
ATOM     92  H7  UNL A   1      23.647  34.476  49.729  1.00  0.00    +0.000 H 
BRANCH    8    9
ATOM      9  O2  UNL A   1      20.789  37.288  51.694  1.00  0.00    +0.000 O 
ATOM     90  H5  UNL A   1      20.548  36.859  52.491  1.00  0.00    +0.000 H 
ENDBRANCH    8    9
BRANCH   10   11
ATOM     11  O3  UNL A   1      21.294  34.795  50.763  1.00  0.00    +0.000 O 
ATOM     91  H6  UNL A   1      21.276  34.081  50.155  1.00  0.00    +0.000 H 
ENDBRANCH   10   11
ENDBRANCH    4    5
ENDBRANCH    3    4
ENDBRANCH    2    3
ENDBRANCH   13    2
ENDBRANCH   14   13
ENDBRANCH   15   14
ENDBRANCH   16   15
ENDBRANCH   17   16
ENDBRANCH   18   17
ENDBRANCH   19   18
ENDBRANCH   20   19
ENDBRANCH   21   20
ENDBRANCH   23   21
ENDBRANCH   27   26
BRANCH   31   32
ATOM     33  C26 UNL A   1      21.697  43.346  51.701  1.00  0.00    +0.000 C 
ATOM     34  F1  UNL A   1      22.030  42.281  52.448  1.00  0.00    +0.000 F 
ATOM     35  C27 UNL A   1      21.728  44.609  52.285  1.00  0.00    +0.000 C 
ATOM     36  F2  UNL A   1      22.077  44.743  53.572  1.00  0.00    +0.000 F 
ATOM     37  C28 UNL A   1      21.382  45.727  51.541  1.00  0.00    +0.000 C 
ATOM     38  F3  UNL A   1      21.414  46.944  52.102  1.00  0.00    +0.000 F 
ATOM     39  C29 UNL A   1      20.994  45.583  50.217  1.00  0.00    +0.000 C 
ATOM     40  F4  UNL A   1      20.670  46.665  49.494  1.00  0.00    +0.000 F 
ATOM     41  C30 UNL A   1      20.933  44.317  49.640  1.00  0.00    +0.000 C 
ATOM     42  F5  UNL A   1      20.535  44.209  48.363  1.00  0.00    +0.000 F 
ATOM     32  C25 UNL A   1      21.280  43.173  50.372  1.00  0.00    +0.000 C 
ENDBRANCH   31   32
BRANCH   48   49
ATOM     49  C36 UNL A   1      16.688  37.629  49.867  1.00  0.00    +0.000 C 
ATOM     50  C37 UNL A   1      16.395  37.452  51.227  1.00  0.00    +0.000 C 
ATOM     51  F6  UNL A   1      17.370  37.541  52.144  1.00  0.00    +0.000 F 
ATOM     52  C38 UNL A   1      15.103  37.147  51.647  1.00  0.00    +0.000 C 
ATOM     53  F7  UNL A   1      14.853  36.941  52.947  1.00  0.00    +0.000 F 
ATOM     54  C39 UNL A   1      14.077  37.042  50.720  1.00  0.00    +0.000 C 
ATOM     55  F8  UNL A   1      12.833  36.754  51.126  1.00  0.00    +0.000 F 
ATOM     56  C40 UNL A   1      14.341  37.227  49.371  1.00  0.00    +0.000 C 
ATOM     57  F9  UNL A   1      13.348  37.135  48.475  1.00  0.00    +0.000 F 
ATOM     58  C41 UNL A   1      15.637  37.506  48.945  1.00  0.00    +0.000 C 
ATOM     59  F10 UNL A   1      15.865  37.670  47.634  1.00  0.00    +0.000 F 
ENDBRANCH   48   49
BRANCH   63   64
ATOM     65  C46 UNL A   1      22.032  33.029  47.036  1.00  0.00    +0.000 C 
ATOM     66  F11 UNL A   1      22.539  33.266  48.254  1.00  0.00    +0.000 F 
ATOM     67  C47 UNL A   1      22.068  31.732  46.529  1.00  0.00    +0.000 C 
ATOM     68  F12 UNL A   1      22.609  30.745  47.257  1.00  0.00    +0.000 F 
ATOM     69  C48 UNL A   1      21.553  31.461  45.270  1.00  0.00    +0.000 C 
ATOM     70  F13 UNL A   1      21.578  30.211  44.788  1.00  0.00    +0.000 F 
ATOM     71  C49 UNL A   1      21.015  32.489  44.510  1.00  0.00    +0.000 C 
ATOM     72  F14 UNL A   1      20.504  32.229  43.299  1.00  0.00    +0.000 F 
ATOM     73  C50 UNL A   1      21.000  33.791  45.005  1.00  0.00    +0.000 C 
ATOM     74  F15 UNL A   1      20.475  34.765  44.249  1.00  0.00    +0.000 F 
ATOM     64  C45 UNL A   1      21.500  34.084  46.282  1.00  0.00    +0.000 C 
ENDBRANCH   63   64
TORSDOF 19
ENDMDL
MODEL 5
REMARK VINA RESULT:      -8.0      1.469      3.050
ROOT
ATOM     27  C21 UNL A   1      14.432  53.971   4.725  1.00  0.00    +0.000 C 
ATOM     28  C22 UNL A   1      15.359  54.407   3.627  1.00  0.00    +0.000 C 
ATOM     29  N3  UNL A   1      15.823  53.720   2.614  1.00  0.00    +0.000 N 
ATOM     30  C23 UNL A   1      16.606  54.603   1.885  1.00  0.00    +0.000 C 
ATOM     31  C24 UNL A   1      17.350  54.358   0.780  1.00  0.00    +0.000 C 
ATOM     43  C31 UNL A   1      17.451  53.075   0.134  1.00  0.00    +0.000 C 
ATOM     44  C32 UNL A   1      18.231  52.712  -0.950  1.00  0.00    +0.000 C 
ATOM     45  C33 UNL A   1      17.958  51.375  -1.259  1.00  0.00    +0.000 C 
ATOM     46  C34 UNL A   1      17.039  50.891  -0.341  1.00  0.00    +0.000 C 
ATOM     47  N4  UNL A   1      16.738  51.945   0.508  1.00  0.00    +0.000 N 
ATOM     48  C35 UNL A   1      16.473  49.570  -0.244  1.00  0.00    +0.000 C 
ATOM     60  C42 UNL A   1      15.613  49.162   0.720  1.00  0.00    +0.000 C 
ATOM     61  N5  UNL A   1      15.084  49.887   1.778  1.00  0.00    +0.000 N 
ATOM     62  C43 UNL A   1      14.292  49.062   2.419  1.00  0.00    +0.000 C 
ATOM     63  C44 UNL A   1      13.466  49.309   3.649  1.00  0.00    +0.000 C 
ATOM     75  C51 UNL A   1      13.530  50.507   4.261  1.00  0.00    +0.000 C 
ATOM     76  C52 UNL A   1      12.788  50.883   5.459  1.00  0.00    +0.000 C 
ATOM     77  C53 UNL A   1      13.035  52.171   5.742  1.00  0.00    +0.000 C 
ATOM     78  C54 UNL A   1      13.983  52.702   4.761  1.00  0.00    +0.000 C 
ATOM     79  N6  UNL A   1      14.244  51.634   3.938  1.00  0.00    +0.000 N 
ATOM     80  C55 UNL A   1      14.218  47.718   1.829  1.00  0.00    +0.000 C 
ATOM     81  C56 UNL A   1      15.065  47.824   0.814  1.00  0.00    +0.000 C 
ATOM     82  C57 UNL A   1      16.513  55.889   2.543  1.00  0.00    +0.000 C 
ATOM     83  C58 UNL A   1      15.804  55.808   3.659  1.00  0.00    +0.000 C 
ATOM    109  H24 UNL A   1      18.901  53.322  -1.445  1.00  0.00    +0.000 H 
ATOM    110  H25 UNL A   1      18.371  50.838  -2.038  1.00  0.00    +0.000 H 
ATOM    111  H26 UNL A   1      16.111  51.899   1.266  1.00  0.00    +0.000 H 
ATOM    112  H27 UNL A   1      12.171  50.258   6.003  1.00  0.00    +0.000 H 
ATOM    113  H28 UNL A   1      12.623  52.703   6.524  1.00  0.00    +0.000 H 
ATOM    114  H29 UNL A   1      14.883  51.673   3.189  1.00  0.00    +0.000 H 
ATOM    115  H30 UNL A   1      13.655  46.906   2.126  1.00  0.00    +0.000 H 
ATOM    116  H31 UNL A   1      15.303  47.051   0.174  1.00  0.00    +0.000 H 
ATOM    117  H32 UNL A   1      16.945  56.758   2.189  1.00  0.00    +0.000 H 
ATOM    118  H33 UNL A   1      15.612  56.536   4.365  1.00  0.00    +0.000 H 
ENDROOT
BRANCH   27   26
ATOM    107  H22 UNL A   1      14.627  56.221   8.757  1.00  0.00    +0.000 H 
ATOM    108  H23 UNL A   1      15.593  54.818   7.027  1.00  0.00    +0.000 H 
ATOM     84  C59 UNL A   1      12.693  55.577   5.519  1.00  0.00    +0.000 C 
ATOM     85  C60 UNL A   1      12.174  56.443   6.479  1.00  0.00    +0.000 C 
ATOM    120  H35 UNL A   1      11.297  56.954   6.295  1.00  0.00    +0.000 H 
ATOM     23  C17 UNL A   1      12.845  56.618   7.693  1.00  0.00    +0.000 C 
ATOM     24  C18 UNL A   1      14.104  56.041   7.886  1.00  0.00    +0.000 C 
ATOM     25  C19 UNL A   1      14.653  55.223   6.897  1.00  0.00    +0.000 C 
ATOM    119  H34 UNL A   1      12.164  55.398   4.651  1.00  0.00    +0.000 H 
ATOM     26  C20 UNL A   1      13.931  54.948   5.724  1.00  0.00    +0.000 C 
BRANCH   23   21
ATOM     21  C16 UNL A   1      12.249  57.409   8.793  1.00  0.00    +0.000 C 
ATOM     22  O4  UNL A   1      12.379  58.630   8.800  1.00  0.00    +0.000 O 
BRANCH   21   20
ATOM    106  H21 UNL A   1      11.226  57.380  10.512  1.00  0.00    +0.000 H 
ATOM     20  N2  UNL A   1      11.581  56.782   9.816  1.00  0.00    +0.000 N 
BRANCH   20   19
ATOM    105  H20 UNL A   1      11.630  54.846   9.144  1.00  0.00    +0.000 H 
ATOM     19  C15 UNL A   1      11.321  55.366  10.026  1.00  0.00    +0.000 C 
ATOM    104  H19 UNL A   1      10.276  55.235  10.217  1.00  0.00    +0.000 H 
BRANCH   19   18
ATOM     18  C14 UNL A   1      12.107  54.789  11.201  1.00  0.00    +0.000 C 
ATOM    102  H17 UNL A   1      12.276  55.576  11.905  1.00  0.00    +0.000 H 
ATOM    103  H18 UNL A   1      11.514  53.986  11.587  1.00  0.00    +0.000 H 
BRANCH   18   17
ATOM     17  C13 UNL A   1      13.464  54.177  10.842  1.00  0.00    +0.000 C 
ATOM    100  H15 UNL A   1      14.094  54.962  10.481  1.00  0.00    +0.000 H 
ATOM    101  H16 UNL A   1      13.822  53.713  11.738  1.00  0.00    +0.000 H 
BRANCH   17   16
ATOM     98  H13 UNL A   1      12.723  52.333  10.099  1.00  0.00    +0.000 H 
ATOM     99  H14 UNL A   1      13.170  53.554   8.863  1.00  0.00    +0.000 H 
ATOM     16  C12 UNL A   1      13.430  53.072   9.782  1.00  0.00    +0.000 C 
BRANCH   16   15
ATOM     97  H12 UNL A   1      15.480  53.133   9.314  1.00  0.00    +0.000 H 
ATOM     15  C11 UNL A   1      14.766  52.363   9.520  1.00  0.00    +0.000 C 
ATOM     96  H11 UNL A   1      14.629  51.686   8.703  1.00  0.00    +0.000 H 
BRANCH   15   14
ATOM     94  H9  UNL A   1      15.166  52.142  11.601  1.00  0.00    +0.000 H 
ATOM     14  C10 UNL A   1      15.314  51.572  10.708  1.00  0.00    +0.000 C 
ATOM     95  H10 UNL A   1      14.790  50.639  10.755  1.00  0.00    +0.000 H 
BRANCH   14   13
ATOM     13  N1  UNL A   1      16.726  51.288  10.562  1.00  0.00    +0.000 N 
ATOM     93  H8  UNL A   1      17.357  51.653  11.225  1.00  0.00    +0.000 H 
BRANCH   13    2
ATOM      1  O1  UNL A   1      18.059  50.914   8.731  1.00  0.00    +0.000 O 
ATOM      2  C1  UNL A   1      17.213  50.531   9.532  1.00  0.00    +0.000 C 
BRANCH    2    3
ATOM      3  C2  UNL A   1      16.694  49.143   9.431  1.00  0.00    +0.000 C 
ATOM     86  H1  UNL A   1      16.981  48.479  10.167  1.00  0.00    +0.000 H 
BRANCH    3    4
ATOM      4  C3  UNL A   1      15.884  48.676   8.467  1.00  0.00    +0.000 C 
ATOM     87  H2  UNL A   1      16.263  48.556   7.515  1.00  0.00    +0.000 H 
BRANCH    4    5
ATOM      5  C4  UNL A   1      14.476  48.331   8.718  1.00  0.00    +0.000 C 
ATOM      6  C5  UNL A   1      13.418  49.175   8.336  1.00  0.00    +0.000 C 
ATOM      7  C6  UNL A   1      12.089  48.829   8.611  1.00  0.00    +0.000 C 
ATOM      8  C7  UNL A   1      11.822  47.630   9.257  1.00  0.00    +0.000 C 
ATOM     10  C8  UNL A   1      12.863  46.777   9.611  1.00  0.00    +0.000 C 
ATOM     12  C9  UNL A   1      14.184  47.111   9.341  1.00  0.00    +0.000 C 
ATOM     88  H3  UNL A   1      13.623  50.060   7.847  1.00  0.00    +0.000 H 
ATOM     89  H4  UNL A   1      11.319  49.457   8.336  1.00  0.00    +0.000 H 
ATOM     92  H7  UNL A   1      14.946  46.465   9.598  1.00  0.00    +0.000 H 
BRANCH    8    9
ATOM      9  O2  UNL A   1      10.549  47.244   9.570  1.00  0.00    +0.000 O 
ATOM     90  H5  UNL A   1      10.283  47.192  10.467  1.00  0.00    +0.000 H 
ENDBRANCH    8    9
BRANCH   10   11
ATOM     11  O3  UNL A   1      12.593  45.597  10.242  1.00  0.00    +0.000 O 
ATOM     91  H6  UNL A   1      12.038  45.586  10.998  1.00  0.00    +0.000 H 
ENDBRANCH   10   11
ENDBRANCH    4    5
ENDBRANCH    3    4
ENDBRANCH    2    3
ENDBRANCH   13    2
ENDBRANCH   14   13
ENDBRANCH   15   14
ENDBRANCH   16   15
ENDBRANCH   17   16
ENDBRANCH   18   17
ENDBRANCH   19   18
ENDBRANCH   20   19
ENDBRANCH   21   20
ENDBRANCH   23   21
ENDBRANCH   27   26
BRANCH   31   32
ATOM     33  C26 UNL A   1      17.642  56.225  -0.911  1.00  0.00    +0.000 C 
ATOM     34  F1  UNL A   1      16.490  55.868  -1.500  1.00  0.00    +0.000 F 
ATOM     35  C27 UNL A   1      18.370  57.282  -1.451  1.00  0.00    +0.000 C 
ATOM     36  F2  UNL A   1      17.922  57.913  -2.544  1.00  0.00    +0.000 F 
ATOM     37  C28 UNL A   1      19.568  57.669  -0.870  1.00  0.00    +0.000 C 
ATOM     38  F3  UNL A   1      20.268  58.687  -1.389  1.00  0.00    +0.000 F 
ATOM     39  C29 UNL A   1      20.045  56.996   0.245  1.00  0.00    +0.000 C 
ATOM     40  F4  UNL A   1      21.197  57.377   0.815  1.00  0.00    +0.000 F 
ATOM     41  C30 UNL A   1      19.333  55.919   0.769  1.00  0.00    +0.000 C 
ATOM     42  F5  UNL A   1      19.829  55.276   1.837  1.00  0.00    +0.000 F 
ATOM     32  C25 UNL A   1      18.119  55.511   0.199  1.00  0.00    +0.000 C 
ENDBRANCH   31   32
BRANCH   48   49
ATOM     49  C36 UNL A   1      16.877  48.557  -1.276  1.00  0.00    +0.000 C 
ATOM     50  C37 UNL A   1      16.155  48.401  -2.467  1.00  0.00    +0.000 C 
ATOM     51  F6  UNL A   1      15.047  49.125  -2.685  1.00  0.00    +0.000 F 
ATOM     52  C38 UNL A   1      16.550  47.471  -3.426  1.00  0.00    +0.000 C 
ATOM     53  F7  UNL A   1      15.822  47.310  -4.540  1.00  0.00    +0.000 F 
ATOM     54  C39 UNL A   1      17.687  46.704  -3.225  1.00  0.00    +0.000 C 
ATOM     55  F8  UNL A   1      18.069  45.815  -4.152  1.00  0.00    +0.000 F 
ATOM     56  C40 UNL A   1      18.424  46.852  -2.059  1.00  0.00    +0.000 C 
ATOM     57  F9  UNL A   1      19.528  46.118  -1.868  1.00  0.00    +0.000 F 
ATOM     58  C41 UNL A   1      18.017  47.761  -1.086  1.00  0.00    +0.000 C 
ATOM     59  F10 UNL A   1      18.743  47.876   0.035  1.00  0.00    +0.000 F 
ENDBRANCH   48   49
BRANCH   63   64
ATOM     65  C46 UNL A   1      13.071  47.361   5.183  1.00  0.00    +0.000 C 
ATOM     66  F11 UNL A   1      14.350  47.429   5.579  1.00  0.00    +0.000 F 
ATOM     67  C47 UNL A   1      12.246  46.382   5.732  1.00  0.00    +0.000 C 
ATOM     68  F12 UNL A   1      12.736  45.525   6.638  1.00  0.00    +0.000 F 
ATOM     69  C48 UNL A   1      10.919  46.288   5.337  1.00  0.00    +0.000 C 
ATOM     70  F13 UNL A   1      10.123  45.354   5.875  1.00  0.00    +0.000 F 
ATOM     71  C49 UNL A   1      10.421  47.162   4.383  1.00  0.00    +0.000 C 
ATOM     72  F14 UNL A   1       9.136  47.084   4.009  1.00  0.00    +0.000 F 
ATOM     73  C50 UNL A   1      11.252  48.126   3.815  1.00  0.00    +0.000 C 
ATOM     74  F15 UNL A   1      10.744  48.957   2.894  1.00  0.00    +0.000 F 
ATOM     64  C45 UNL A   1      12.591  48.250   4.212  1.00  0.00    +0.000 C 
ENDBRANCH   63   64
TORSDOF 19
ENDMDL
MODEL 6
REMARK VINA RESULT:      -7.9     46.603     51.306
ROOT
ATOM     27  C21 UNL A   1      53.556  19.637  11.740  1.00  0.00    +0.000 C 
ATOM     28  C22 UNL A   1      54.920  19.017  11.634  1.00  0.00    +0.000 C 
ATOM     29  N3  UNL A   1      55.915  19.055  12.483  1.00  0.00    +0.000 N 
ATOM     30  C23 UNL A   1      56.927  18.293  11.916  1.00  0.00    +0.000 C 
ATOM     31  C24 UNL A   1      58.181  18.074  12.379  1.00  0.00    +0.000 C 
ATOM     43  C31 UNL A   1      58.700  18.613  13.608  1.00  0.00    +0.000 C 
ATOM     44  C32 UNL A   1      59.978  18.503  14.129  1.00  0.00    +0.000 C 
ATOM     45  C33 UNL A   1      60.001  19.143  15.373  1.00  0.00    +0.000 C 
ATOM     46  C34 UNL A   1      58.750  19.690  15.609  1.00  0.00    +0.000 C 
ATOM     47  N4  UNL A   1      57.962  19.358  14.518  1.00  0.00    +0.000 N 
ATOM     48  C35 UNL A   1      58.302  20.455  16.745  1.00  0.00    +0.000 C 
ATOM     60  C42 UNL A   1      57.068  20.999  16.877  1.00  0.00    +0.000 C 
ATOM     61  N5  UNL A   1      55.991  20.937  16.003  1.00  0.00    +0.000 N 
ATOM     62  C43 UNL A   1      55.020  21.601  16.582  1.00  0.00    +0.000 C 
ATOM     63  C44 UNL A   1      53.627  21.865  16.083  1.00  0.00    +0.000 C 
ATOM     75  C51 UNL A   1      53.267  21.426  14.862  1.00  0.00    +0.000 C 
ATOM     76  C52 UNL A   1      51.954  21.612  14.252  1.00  0.00    +0.000 C 
ATOM     77  C53 UNL A   1      51.927  20.980  13.069  1.00  0.00    +0.000 C 
ATOM     78  C54 UNL A   1      53.236  20.373  12.821  1.00  0.00    +0.000 C 
ATOM     79  N6  UNL A   1      53.977  20.715  13.926  1.00  0.00    +0.000 N 
ATOM     80  C55 UNL A   1      55.368  22.151  17.899  1.00  0.00    +0.000 C 
ATOM     81  C56 UNL A   1      56.636  21.781  18.017  1.00  0.00    +0.000 C 
ATOM     82  C57 UNL A   1      56.406  17.762  10.673  1.00  0.00    +0.000 C 
ATOM     83  C58 UNL A   1      55.191  18.229  10.422  1.00  0.00    +0.000 C 
ATOM    109  H24 UNL A   1      60.776  18.031  13.677  1.00  0.00    +0.000 H 
ATOM    110  H25 UNL A   1      60.813  19.200  16.008  1.00  0.00    +0.000 H 
ATOM    111  H26 UNL A   1      57.018  19.613  14.404  1.00  0.00    +0.000 H 
ATOM    112  H27 UNL A   1      51.172  22.144  14.666  1.00  0.00    +0.000 H 
ATOM    113  H28 UNL A   1      51.115  20.929  12.436  1.00  0.00    +0.000 H 
ATOM    114  H29 UNL A   1      54.925  20.475  14.035  1.00  0.00    +0.000 H 
ATOM    115  H30 UNL A   1      54.781  22.684  18.559  1.00  0.00    +0.000 H 
ATOM    116  H31 UNL A   1      57.238  22.020  18.820  1.00  0.00    +0.000 H 
ATOM    117  H32 UNL A   1      56.916  17.106  10.061  1.00  0.00    +0.000 H 
ATOM    118  H33 UNL A   1      54.593  18.078   9.595  1.00  0.00    +0.000 H 
ENDROOT
BRANCH   27   26
ATOM    107  H22 UNL A   1      50.263  17.075   9.753  1.00  0.00    +0.000 H 
ATOM    108  H23 UNL A   1      51.761  17.607  11.588  1.00  0.00    +0.000 H 
ATOM     84  C59 UNL A   1      52.382  20.258   9.627  1.00  0.00    +0.000 C 
ATOM     85  C60 UNL A   1      51.466  19.991   8.611  1.00  0.00    +0.000 C 
ATOM    120  H35 UNL A   1      51.319  20.676   7.854  1.00  0.00    +0.000 H 
ATOM     23  C17 UNL A   1      50.749  18.791   8.620  1.00  0.00    +0.000 C 
ATOM     24  C18 UNL A   1      50.839  17.930   9.718  1.00  0.00    +0.000 C 
ATOM     25  C19 UNL A   1      51.712  18.229  10.766  1.00  0.00    +0.000 C 
ATOM    119  H34 UNL A   1      52.959  21.113   9.585  1.00  0.00    +0.000 H 
ATOM     26  C20 UNL A   1      52.523  19.374  10.707  1.00  0.00    +0.000 C 
BRANCH   23   21
ATOM     21  C16 UNL A   1      49.883  18.406   7.484  1.00  0.00    +0.000 C 
ATOM     22  O4  UNL A   1      50.121  17.374   6.863  1.00  0.00    +0.000 O 
BRANCH   21   20
ATOM    106  H21 UNL A   1      48.172  19.393   7.805  1.00  0.00    +0.000 H 
ATOM     20  N2  UNL A   1      48.837  19.211   7.103  1.00  0.00    +0.000 N 
BRANCH   20   19
ATOM    105  H20 UNL A   1      49.507  20.070   5.366  1.00  0.00    +0.000 H 
ATOM     19  C15 UNL A   1      48.566  19.836   5.818  1.00  0.00    +0.000 C 
ATOM    104  H19 UNL A   1      47.977  20.715   5.982  1.00  0.00    +0.000 H 
BRANCH   19   18
ATOM     18  C14 UNL A   1      47.812  18.916   4.861  1.00  0.00    +0.000 C 
ATOM    102  H17 UNL A   1      48.176  19.096   3.872  1.00  0.00    +0.000 H 
ATOM    103  H18 UNL A   1      47.989  17.919   5.209  1.00  0.00    +0.000 H 
BRANCH   18   17
ATOM     17  C13 UNL A   1      46.292  19.093   4.843  1.00  0.00    +0.000 C 
ATOM    100  H15 UNL A   1      45.869  18.265   4.315  1.00  0.00    +0.000 H 
ATOM    101  H16 UNL A   1      45.991  19.149   5.869  1.00  0.00    +0.000 H 
BRANCH   17   16
ATOM     98  H13 UNL A   1      45.887  21.175   4.899  1.00  0.00    +0.000 H 
ATOM     99  H14 UNL A   1      46.375  20.513   3.305  1.00  0.00    +0.000 H 
ATOM     16  C12 UNL A   1      45.785  20.381   4.188  1.00  0.00    +0.000 C 
BRANCH   16   15
ATOM     97  H12 UNL A   1      44.172  21.255   3.157  1.00  0.00    +0.000 H 
ATOM     15  C11 UNL A   1      44.325  20.356   3.716  1.00  0.00    +0.000 C 
ATOM     96  H11 UNL A   1      43.697  20.285   4.580  1.00  0.00    +0.000 H 
BRANCH   15   14
ATOM     94  H9  UNL A   1      44.656  19.207   1.953  1.00  0.00    +0.000 H 
ATOM     14  C10 UNL A   1      43.976  19.200   2.778  1.00  0.00    +0.000 C 
ATOM     95  H10 UNL A   1      44.053  18.287   3.333  1.00  0.00    +0.000 H 
BRANCH   14   13
ATOM     13  N1  UNL A   1      42.624  19.306   2.271  1.00  0.00    +0.000 N 
ATOM     93  H8  UNL A   1      41.884  18.936   2.807  1.00  0.00    +0.000 H 
BRANCH   13    2
ATOM      1  O1  UNL A   1      42.954  19.688   0.033  1.00  0.00    +0.000 O 
ATOM      2  C1  UNL A   1      42.341  19.901   1.072  1.00  0.00    +0.000 C 
BRANCH    2    3
ATOM      3  C2  UNL A   1      41.182  20.830   1.054  1.00  0.00    +0.000 C 
ATOM     86  H1  UNL A   1      40.839  21.172   1.965  1.00  0.00    +0.000 H 
BRANCH    3    4
ATOM      4  C3  UNL A   1      40.541  21.263  -0.043  1.00  0.00    +0.000 C 
ATOM     87  H2  UNL A   1      41.082  21.412  -0.909  1.00  0.00    +0.000 H 
BRANCH    4    5
ATOM      5  C4  UNL A   1      39.095  21.534  -0.057  1.00  0.00    +0.000 C 
ATOM      6  C5  UNL A   1      38.502  22.386  -1.006  1.00  0.00    +0.000 C 
ATOM      7  C6  UNL A   1      37.126  22.643  -0.978  1.00  0.00    +0.000 C 
ATOM      8  C7  UNL A   1      36.343  22.036  -0.006  1.00  0.00    +0.000 C 
ATOM     10  C8  UNL A   1      36.921  21.169   0.918  1.00  0.00    +0.000 C 
ATOM     12  C9  UNL A   1      38.284  20.908   0.897  1.00  0.00    +0.000 C 
ATOM     88  H3  UNL A   1      39.087  22.827  -1.733  1.00  0.00    +0.000 H 
ATOM     89  H4  UNL A   1      36.699  23.276  -1.672  1.00  0.00    +0.000 H 
ATOM     92  H7  UNL A   1      38.698  20.254   1.580  1.00  0.00    +0.000 H 
BRANCH    8    9
ATOM      9  O2  UNL A   1      34.999  22.261   0.087  1.00  0.00    +0.000 O 
ATOM     90  H5  UNL A   1      34.664  23.134   0.022  1.00  0.00    +0.000 H 
ENDBRANCH    8    9
BRANCH   10   11
ATOM     11  O3  UNL A   1      36.144  20.572   1.869  1.00  0.00    +0.000 O 
ATOM     91  H6  UNL A   1      35.472  19.969   1.615  1.00  0.00    +0.000 H 
ENDBRANCH   10   11
ENDBRANCH    4    5
ENDBRANCH    3    4
ENDBRANCH    2    3
ENDBRANCH   13    2
ENDBRANCH   14   13
ENDBRANCH   15   14
ENDBRANCH   16   15
ENDBRANCH   17   16
ENDBRANCH   18   17
ENDBRANCH   19   18
ENDBRANCH   20   19
ENDBRANCH   21   20
ENDBRANCH   23   21
ENDBRANCH   27   26
BRANCH   31   32
ATOM     33  C26 UNL A   1      59.149  15.821  11.736  1.00  0.00    +0.000 C 
ATOM     34  F1  UNL A   1      58.425  15.236  12.704  1.00  0.00    +0.000 F 
ATOM     35  C27 UNL A   1      59.999  15.030  10.967  1.00  0.00    +0.000 C 
ATOM     36  F2  UNL A   1      60.089  13.715  11.206  1.00  0.00    +0.000 F 
ATOM     37  C28 UNL A   1      60.766  15.606   9.965  1.00  0.00    +0.000 C 
ATOM     38  F3  UNL A   1      61.583  14.845   9.224  1.00  0.00    +0.000 F 
ATOM     39  C29 UNL A   1      60.693  16.973   9.737  1.00  0.00    +0.000 C 
ATOM     40  F4  UNL A   1      61.425  17.528   8.762  1.00  0.00    +0.000 F 
ATOM     41  C30 UNL A   1      59.866  17.769  10.526  1.00  0.00    +0.000 C 
ATOM     42  F5  UNL A   1      59.832  19.090  10.293  1.00  0.00    +0.000 F 
ATOM     32  C25 UNL A   1      59.080  17.209  11.543  1.00  0.00    +0.000 C 
ENDBRANCH   31   32
BRANCH   48   49
ATOM     49  C36 UNL A   1      59.275  20.686  17.863  1.00  0.00    +0.000 C 
ATOM     50  C37 UNL A   1      59.450  19.743  18.886  1.00  0.00    +0.000 C 
ATOM     51  F6  UNL A   1      58.703  18.629  18.912  1.00  0.00    +0.000 F 
ATOM     52  C38 UNL A   1      60.371  19.959  19.908  1.00  0.00    +0.000 C 
ATOM     53  F7  UNL A   1      60.493  19.064  20.898  1.00  0.00    +0.000 F 
ATOM     54  C39 UNL A   1      61.151  21.105  19.912  1.00  0.00    +0.000 C 
ATOM     55  F8  UNL A   1      62.041  21.308  20.892  1.00  0.00    +0.000 F 
ATOM     56  C40 UNL A   1      61.004  22.045  18.901  1.00  0.00    +0.000 C 
ATOM     57  F9  UNL A   1      61.765  23.148  18.898  1.00  0.00    +0.000 F 
ATOM     58  C41 UNL A   1      60.067  21.845  17.892  1.00  0.00    +0.000 C 
ATOM     59  F10 UNL A   1      59.939  22.775  16.935  1.00  0.00    +0.000 F 
ENDBRANCH   48   49
BRANCH   63   64
ATOM     65  C46 UNL A   1      51.882  21.960  17.885  1.00  0.00    +0.000 C 
ATOM     66  F11 UNL A   1      51.998  20.635  18.050  1.00  0.00    +0.000 F 
ATOM     67  C47 UNL A   1      50.978  22.664  18.678  1.00  0.00    +0.000 C 
ATOM     68  F12 UNL A   1      50.239  22.012  19.586  1.00  0.00    +0.000 F 
ATOM     69  C48 UNL A   1      50.837  24.035  18.525  1.00  0.00    +0.000 C 
ATOM     70  F13 UNL A   1      49.976  24.713  19.296  1.00  0.00    +0.000 F 
ATOM     71  C49 UNL A   1      51.588  24.702  17.568  1.00  0.00    +0.000 C 
ATOM     72  F14 UNL A   1      51.465  26.029  17.426  1.00  0.00    +0.000 F 
ATOM     73  C50 UNL A   1      52.474  23.996  16.758  1.00  0.00    +0.000 C 
ATOM     74  F15 UNL A   1      53.187  24.666  15.840  1.00  0.00    +0.000 F 
ATOM     64  C45 UNL A   1      52.645  22.613  16.907  1.00  0.00    +0.000 C 
ENDBRANCH   63   64
TORSDOF 19
ENDMDL
MODEL 7
REMARK VINA RESULT:      -7.9     65.847     71.235
ROOT
ATOM     27  C21 UNL A   1      28.904 -13.987  30.775  1.00  0.00    +0.000 C 
ATOM     28  C22 UNL A   1      27.884 -13.196  30.007  1.00  0.00    +0.000 C 
ATOM     29  N3  UNL A   1      26.806 -12.593  30.442  1.00  0.00    +0.000 N 
ATOM     30  C23 UNL A   1      26.240 -11.984  29.331  1.00  0.00    +0.000 C 
ATOM     31  C24 UNL A   1      25.081 -11.287  29.248  1.00  0.00    +0.000 C 
ATOM     43  C31 UNL A   1      24.200 -11.037  30.359  1.00  0.00    +0.000 C 
ATOM     44  C32 UNL A   1      22.972 -10.400  30.362  1.00  0.00    +0.000 C 
ATOM     45  C33 UNL A   1      22.510 -10.344  31.682  1.00  0.00    +0.000 C 
ATOM     46  C34 UNL A   1      23.430 -10.984  32.496  1.00  0.00    +0.000 C 
ATOM     47  N4  UNL A   1      24.461 -11.406  31.671  1.00  0.00    +0.000 N 
ATOM     48  C35 UNL A   1      23.377 -11.196  33.921  1.00  0.00    +0.000 C 
ATOM     60  C42 UNL A   1      24.300 -11.880  34.639  1.00  0.00    +0.000 C 
ATOM     61  N5  UNL A   1      25.465 -12.493  34.201  1.00  0.00    +0.000 N 
ATOM     62  C43 UNL A   1      26.026 -13.005  35.269  1.00  0.00    +0.000 C 
ATOM     63  C44 UNL A   1      27.303 -13.789  35.382  1.00  0.00    +0.000 C 
ATOM     75  C51 UNL A   1      28.001 -14.083  34.269  1.00  0.00    +0.000 C 
ATOM     76  C52 UNL A   1      29.251 -14.834  34.230  1.00  0.00    +0.000 C 
ATOM     77  C53 UNL A   1      29.703 -14.869  32.967  1.00  0.00    +0.000 C 
ATOM     78  C54 UNL A   1      28.753 -14.170  32.101  1.00  0.00    +0.000 C 
ATOM     79  N6  UNL A   1      27.759 -13.762  32.956  1.00  0.00    +0.000 N 
ATOM     80  C55 UNL A   1      25.284 -12.762  36.513  1.00  0.00    +0.000 C 
ATOM     81  C56 UNL A   1      24.226 -12.099  36.070  1.00  0.00    +0.000 C 
ATOM     82  C57 UNL A   1      27.122 -12.246  28.213  1.00  0.00    +0.000 C 
ATOM     83  C58 UNL A   1      28.120 -13.043  28.564  1.00  0.00    +0.000 C 
ATOM    109  H24 UNL A   1      22.480 -10.030  29.533  1.00  0.00    +0.000 H 
ATOM    110  H25 UNL A   1      21.632  -9.901  31.996  1.00  0.00    +0.000 H 
ATOM    111  H26 UNL A   1      25.261 -11.895  31.972  1.00  0.00    +0.000 H 
ATOM    112  H27 UNL A   1      29.713 -15.270  35.044  1.00  0.00    +0.000 H 
ATOM    113  H28 UNL A   1      30.579 -15.316  32.657  1.00  0.00    +0.000 H 
ATOM    114  H29 UNL A   1      26.951 -13.286  32.656  1.00  0.00    +0.000 H 
ATOM    115  H30 UNL A   1      25.524 -13.036  37.479  1.00  0.00    +0.000 H 
ATOM    116  H31 UNL A   1      23.448 -11.779  36.667  1.00  0.00    +0.000 H 
ATOM    117  H32 UNL A   1      26.988 -11.863  27.263  1.00  0.00    +0.000 H 
ATOM    118  H33 UNL A   1      28.868 -13.448  27.980  1.00  0.00    +0.000 H 
ENDROOT
BRANCH   27   26
ATOM    107  H22 UNL A   1      33.160 -13.513  29.036  1.00  0.00    +0.000 H 
ATOM    108  H23 UNL A   1      31.277 -12.738  30.359  1.00  0.00    +0.000 H 
ATOM     84  C59 UNL A   1      30.146 -15.803  29.595  1.00  0.00    +0.000 C 
ATOM     85  C60 UNL A   1      31.258 -16.274  28.901  1.00  0.00    +0.000 C 
ATOM    120  H35 UNL A   1      31.294 -17.256  28.586  1.00  0.00    +0.000 H 
ATOM     23  C17 UNL A   1      32.326 -15.413  28.633  1.00  0.00    +0.000 C 
ATOM     24  C18 UNL A   1      32.343 -14.127  29.183  1.00  0.00    +0.000 C 
ATOM     25  C19 UNL A   1      31.254 -13.676  29.931  1.00  0.00    +0.000 C 
ATOM    119  H34 UNL A   1      29.330 -16.420  29.736  1.00  0.00    +0.000 H 
ATOM     26  C20 UNL A   1      30.127 -14.496  30.105  1.00  0.00    +0.000 C 
BRANCH   23   21
ATOM     21  C16 UNL A   1      33.453 -15.833  27.771  1.00  0.00    +0.000 C 
ATOM     22  O4  UNL A   1      34.210 -16.722  28.154  1.00  0.00    +0.000 O 
BRANCH   21   20
ATOM    106  H21 UNL A   1      32.867 -14.876  26.115  1.00  0.00    +0.000 H 
ATOM     20  N2  UNL A   1      33.674 -15.214  26.566  1.00  0.00    +0.000 N 
BRANCH   20   19
ATOM    105  H20 UNL A   1      35.022 -15.751  25.118  1.00  0.00    +0.000 H 
ATOM     19  C15 UNL A   1      34.922 -14.982  25.855  1.00  0.00    +0.000 C 
ATOM    104  H19 UNL A   1      35.727 -15.003  26.560  1.00  0.00    +0.000 H 
BRANCH   19   18
ATOM     18  C14 UNL A   1      34.947 -13.640  25.127  1.00  0.00    +0.000 C 
ATOM    102  H17 UNL A   1      35.503 -13.764  24.222  1.00  0.00    +0.000 H 
ATOM    103  H18 UNL A   1      33.923 -13.371  24.969  1.00  0.00    +0.000 H 
BRANCH   18   17
ATOM     17  C13 UNL A   1      35.572 -12.482  25.910  1.00  0.00    +0.000 C 
ATOM    100  H15 UNL A   1      36.400 -12.869  26.466  1.00  0.00    +0.000 H 
ATOM    101  H16 UNL A   1      35.848 -11.750  25.179  1.00  0.00    +0.000 H 
BRANCH   17   16
ATOM     98  H13 UNL A   1      33.677 -12.237  26.831  1.00  0.00    +0.000 H 
ATOM     99  H14 UNL A   1      35.101 -11.847  27.850  1.00  0.00    +0.000 H 
ATOM     16  C12 UNL A   1      34.637 -11.766  26.889  1.00  0.00    +0.000 C 
BRANCH   16   15
ATOM     97  H12 UNL A   1      34.719 -10.088  25.623  1.00  0.00    +0.000 H 
ATOM     15  C11 UNL A   1      34.442 -10.265  26.642  1.00  0.00    +0.000 C 
ATOM     96  H11 UNL A   1      35.049  -9.729  27.342  1.00  0.00    +0.000 H 
BRANCH   15   14
ATOM     94  H9  UNL A   1      32.973  -8.722  26.600  1.00  0.00    +0.000 H 
ATOM     14  C10 UNL A   1      33.000  -9.774  26.788  1.00  0.00    +0.000 C 
ATOM     95  H10 UNL A   1      32.395 -10.308  26.084  1.00  0.00    +0.000 H 
BRANCH   14   13
ATOM     13  N1  UNL A   1      32.477 -10.027  28.114  1.00  0.00    +0.000 N 
ATOM     93  H8  UNL A   1      32.509 -10.943  28.473  1.00  0.00    +0.000 H 
BRANCH   13    2
ATOM      1  O1  UNL A   1      32.572  -8.087  29.337  1.00  0.00    +0.000 O 
ATOM      2  C1  UNL A   1      31.937  -9.032  28.884  1.00  0.00    +0.000 C 
BRANCH    2    3
ATOM      3  C2  UNL A   1      30.475  -9.110  29.132  1.00  0.00    +0.000 C 
ATOM     86  H1  UNL A   1      29.891  -8.353  28.744  1.00  0.00    +0.000 H 
BRANCH    3    4
ATOM      4  C3  UNL A   1      29.846 -10.079  29.816  1.00  0.00    +0.000 C 
ATOM     87  H2  UNL A   1      30.067 -11.064  29.601  1.00  0.00    +0.000 H 
BRANCH    4    5
ATOM      5  C4  UNL A   1      28.851  -9.790  30.860  1.00  0.00    +0.000 C 
ATOM      6  C5  UNL A   1      28.932 -10.349  32.148  1.00  0.00    +0.000 C 
ATOM      7  C6  UNL A   1      27.955 -10.073  33.113  1.00  0.00    +0.000 C 
ATOM      8  C7  UNL A   1      26.906  -9.224  32.790  1.00  0.00    +0.000 C 
ATOM     10  C8  UNL A   1      26.836  -8.644  31.527  1.00  0.00    +0.000 C 
ATOM     12  C9  UNL A   1      27.801  -8.912  30.564  1.00  0.00    +0.000 C 
ATOM     88  H3  UNL A   1      29.720 -10.972  32.385  1.00  0.00    +0.000 H 
ATOM     89  H4  UNL A   1      28.016 -10.495  34.053  1.00  0.00    +0.000 H 
ATOM     92  H7  UNL A   1      27.744  -8.466  29.635  1.00  0.00    +0.000 H 
BRANCH    8    9
ATOM      9  O2  UNL A   1      25.912  -8.931  33.681  1.00  0.00    +0.000 O 
ATOM     90  H5  UNL A   1      26.012  -9.152  34.586  1.00  0.00    +0.000 H 
ENDBRANCH    8    9
BRANCH   10   11
ATOM     11  O3  UNL A   1      25.803  -7.807  31.218  1.00  0.00    +0.000 O 
ATOM     91  H6  UNL A   1      25.039  -8.143  30.791  1.00  0.00    +0.000 H 
ENDBRANCH   10   11
ENDBRANCH    4    5
ENDBRANCH    3    4
ENDBRANCH    2    3
ENDBRANCH   13    2
ENDBRANCH   14   13
ENDBRANCH   15   14
ENDBRANCH   16   15
ENDBRANCH   17   16
ENDBRANCH   18   17
ENDBRANCH   19   18
ENDBRANCH   20   19
ENDBRANCH   21   20
ENDBRANCH   23   21
ENDBRANCH   27   26
BRANCH   31   32
ATOM     33  C26 UNL A   1      25.343  -9.621  27.355  1.00  0.00    +0.000 C 
ATOM     34  F1  UNL A   1      26.301  -8.986  28.048  1.00  0.00    +0.000 F 
ATOM     35  C27 UNL A   1      24.971  -9.116  26.111  1.00  0.00    +0.000 C 
ATOM     36  F2  UNL A   1      25.560  -8.011  25.635  1.00  0.00    +0.000 F 
ATOM     37  C28 UNL A   1      23.979  -9.745  25.374  1.00  0.00    +0.000 C 
ATOM     38  F3  UNL A   1      23.622  -9.259  24.177  1.00  0.00    +0.000 F 
ATOM     39  C29 UNL A   1      23.350 -10.872  25.882  1.00  0.00    +0.000 C 
ATOM     40  F4  UNL A   1      22.399 -11.487  25.165  1.00  0.00    +0.000 F 
ATOM     41  C30 UNL A   1      23.700 -11.361  27.138  1.00  0.00    +0.000 C 
ATOM     42  F5  UNL A   1      23.061 -12.443  27.609  1.00  0.00    +0.000 F 
ATOM     32  C25 UNL A   1      24.701 -10.743  27.901  1.00  0.00    +0.000 C 
ENDBRANCH   31   32
BRANCH   48   49
ATOM     49  C36 UNL A   1      22.205 -10.633  34.671  1.00  0.00    +0.000 C 
ATOM     50  C37 UNL A   1      20.989 -11.326  34.753  1.00  0.00    +0.000 C 
ATOM     51  F6  UNL A   1      20.833 -12.494  34.111  1.00  0.00    +0.000 F 
ATOM     52  C38 UNL A   1      19.914 -10.803  35.468  1.00  0.00    +0.000 C 
ATOM     53  F7  UNL A   1      18.748 -11.462  35.499  1.00  0.00    +0.000 F 
ATOM     54  C39 UNL A   1      20.045  -9.595  36.136  1.00  0.00    +0.000 C 
ATOM     55  F8  UNL A   1      19.012  -9.096  36.828  1.00  0.00    +0.000 F 
ATOM     56  C40 UNL A   1      21.244  -8.899  36.079  1.00  0.00    +0.000 C 
ATOM     57  F9  UNL A   1      21.374  -7.736  36.732  1.00  0.00    +0.000 F 
ATOM     58  C41 UNL A   1      22.312  -9.406  35.344  1.00  0.00    +0.000 C 
ATOM     59  F10 UNL A   1      23.454  -8.707  35.298  1.00  0.00    +0.000 F 
ENDBRANCH   48   49
BRANCH   63   64
ATOM     65  C46 UNL A   1      27.241 -15.381  37.322  1.00  0.00    +0.000 C 
ATOM     66  F11 UNL A   1      26.208 -16.017  36.751  1.00  0.00    +0.000 F 
ATOM     67  C47 UNL A   1      27.724 -15.838  38.546  1.00  0.00    +0.000 C 
ATOM     68  F12 UNL A   1      27.152 -16.898  39.136  1.00  0.00    +0.000 F 
ATOM     69  C48 UNL A   1      28.790 -15.197  39.159  1.00  0.00    +0.000 C 
ATOM     70  F13 UNL A   1      29.261 -15.645  40.331  1.00  0.00    +0.000 F 
ATOM     71  C49 UNL A   1      29.365 -14.087  38.557  1.00  0.00    +0.000 C 
ATOM     72  F14 UNL A   1      30.403 -13.473  39.139  1.00  0.00    +0.000 F 
ATOM     73  C50 UNL A   1      28.867 -13.614  37.345  1.00  0.00    +0.000 C 
ATOM     74  F15 UNL A   1      29.441 -12.539  36.785  1.00  0.00    +0.000 F 
ATOM     64  C45 UNL A   1      27.802 -14.257  36.699  1.00  0.00    +0.000 C 
ENDBRANCH   63   64
TORSDOF 19
ENDMDL
MODEL 8
REMARK VINA RESULT:      -7.8     46.088     50.885
ROOT
ATOM     27  C21 UNL A   1      52.842  20.169  11.607  1.00  0.00    +0.000 C 
ATOM     28  C22 UNL A   1      52.682  20.779  12.970  1.00  0.00    +0.000 C 
ATOM     29  N3  UNL A   1      53.543  20.842  13.954  1.00  0.00    +0.000 N 
ATOM     30  C23 UNL A   1      52.905  21.539  14.971  1.00  0.00    +0.000 C 
ATOM     31  C24 UNL A   1      53.356  21.815  16.218  1.00  0.00    +0.000 C 
ATOM     43  C31 UNL A   1      54.645  21.421  16.724  1.00  0.00    +0.000 C 
ATOM     44  C32 UNL A   1      55.165  21.595  17.994  1.00  0.00    +0.000 C 
ATOM     45  C33 UNL A   1      56.474  21.100  18.004  1.00  0.00    +0.000 C 
ATOM     46  C34 UNL A   1      56.755  20.578  16.751  1.00  0.00    +0.000 C 
ATOM     47  N4  UNL A   1      55.624  20.781  15.976  1.00  0.00    +0.000 N 
ATOM     48  C35 UNL A   1      57.965  19.944  16.291  1.00  0.00    +0.000 C 
ATOM     60  C42 UNL A   1      58.142  19.413  15.057  1.00  0.00    +0.000 C 
ATOM     61  N5  UNL A   1      57.254  19.371  13.992  1.00  0.00    +0.000 N 
ATOM     62  C43 UNL A   1      57.892  18.772  13.016  1.00  0.00    +0.000 C 
ATOM     63  C44 UNL A   1      57.409  18.447  11.630  1.00  0.00    +0.000 C 
ATOM     75  C51 UNL A   1      56.142  18.743  11.284  1.00  0.00    +0.000 C 
ATOM     76  C52 UNL A   1      55.542  18.484   9.980  1.00  0.00    +0.000 C 
ATOM     77  C53 UNL A   1      54.294  18.978   9.965  1.00  0.00    +0.000 C 
ATOM     78  C54 UNL A   1      53.996  19.559  11.275  1.00  0.00    +0.000 C 
ATOM     79  N6  UNL A   1      55.140  19.347  12.003  1.00  0.00    +0.000 N 
ATOM     80  C55 UNL A   1      59.267  18.377  13.349  1.00  0.00    +0.000 C 
ATOM     81  C56 UNL A   1      59.359  18.763  14.613  1.00  0.00    +0.000 C 
ATOM     82  C57 UNL A   1      51.604  21.924  14.464  1.00  0.00    +0.000 C 
ATOM     83  C58 UNL A   1      51.393  21.426  13.254  1.00  0.00    +0.000 C 
ATOM    109  H24 UNL A   1      54.673  22.017  18.797  1.00  0.00    +0.000 H 
ATOM    110  H25 UNL A   1      57.121  21.120  18.808  1.00  0.00    +0.000 H 
ATOM    111  H26 UNL A   1      55.528  20.510  15.035  1.00  0.00    +0.000 H 
ATOM    112  H27 UNL A   1      56.003  17.999   9.194  1.00  0.00    +0.000 H 
ATOM    113  H28 UNL A   1      53.649  18.953   9.161  1.00  0.00    +0.000 H 
ATOM    114  H29 UNL A   1      55.234  19.603  12.950  1.00  0.00    +0.000 H 
ATOM    115  H30 UNL A   1      59.976  17.919  12.754  1.00  0.00    +0.000 H 
ATOM    116  H31 UNL A   1      60.190  18.619  15.207  1.00  0.00    +0.000 H 
ATOM    117  H32 UNL A   1      50.928  22.509  14.979  1.00  0.00    +0.000 H 
ATOM    118  H33 UNL A   1      50.547  21.480  12.666  1.00  0.00    +0.000 H 
ENDROOT
BRANCH   27   26
ATOM    107  H22 UNL A   1      49.408  18.543   8.976  1.00  0.00    +0.000 H 
ATOM    108  H23 UNL A   1      50.971  18.365  10.825  1.00  0.00    +0.000 H 
ATOM     84  C59 UNL A   1      51.635  21.518   9.888  1.00  0.00    +0.000 C 
ATOM     85  C60 UNL A   1      50.684  21.644   8.877  1.00  0.00    +0.000 C 
ATOM    120  H35 UNL A   1      50.541  22.554   8.412  1.00  0.00    +0.000 H 
ATOM     23  C17 UNL A   1      49.924  20.535   8.495  1.00  0.00    +0.000 C 
ATOM     24  C18 UNL A   1      50.013  19.342   9.220  1.00  0.00    +0.000 C 
ATOM     25  C19 UNL A   1      50.923  19.235  10.274  1.00  0.00    +0.000 C 
ATOM    119  H34 UNL A   1      52.240  22.320  10.125  1.00  0.00    +0.000 H 
ATOM     26  C20 UNL A   1      51.773  20.309  10.586  1.00  0.00    +0.000 C 
BRANCH   23   21
ATOM     21  C16 UNL A   1      49.016  20.592   7.329  1.00  0.00    +0.000 C 
ATOM     22  O4  UNL A   1      49.155  21.483   6.495  1.00  0.00    +0.000 O 
BRANCH   21   20
ATOM    106  H21 UNL A   1      47.201  19.854   7.734  1.00  0.00    +0.000 H 
ATOM     20  N2  UNL A   1      48.002  19.675   7.192  1.00  0.00    +0.000 N 
BRANCH   20   19
ATOM    105  H20 UNL A   1      47.064  17.932   6.659  1.00  0.00    +0.000 H 
ATOM     19  C15 UNL A   1      47.935  18.479   6.366  1.00  0.00    +0.000 C 
ATOM    104  H19 UNL A   1      48.829  17.909   6.516  1.00  0.00    +0.000 H 
BRANCH   19   18
ATOM     18  C14 UNL A   1      47.802  18.796   4.878  1.00  0.00    +0.000 C 
ATOM    102  H17 UNL A   1      48.646  19.385   4.588  1.00  0.00    +0.000 H 
ATOM    103  H18 UNL A   1      47.747  17.850   4.380  1.00  0.00    +0.000 H 
BRANCH   18   17
ATOM     17  C13 UNL A   1      46.535  19.558   4.482  1.00  0.00    +0.000 C 
ATOM    100  H15 UNL A   1      46.059  19.894   5.380  1.00  0.00    +0.000 H 
ATOM    101  H16 UNL A   1      46.859  20.352   3.842  1.00  0.00    +0.000 H 
BRANCH   17   16
ATOM     98  H13 UNL A   1      45.950  18.519   2.728  1.00  0.00    +0.000 H 
ATOM     99  H14 UNL A   1      45.269  17.902   4.268  1.00  0.00    +0.000 H 
ATOM     16  C12 UNL A   1      45.509  18.758   3.674  1.00  0.00    +0.000 C 
BRANCH   16   15
ATOM     97  H12 UNL A   1      44.396  20.287   2.752  1.00  0.00    +0.000 H 
ATOM     15  C11 UNL A   1      44.176  19.469   3.406  1.00  0.00    +0.000 C 
ATOM     96  H11 UNL A   1      43.769  19.780   4.346  1.00  0.00    +0.000 H 
BRANCH   15   14
ATOM     94  H9  UNL A   1      43.554  18.227   1.791  1.00  0.00    +0.000 H 
ATOM     14  C10 UNL A   1      43.128  18.615   2.692  1.00  0.00    +0.000 C 
ATOM     95  H10 UNL A   1      42.838  17.824   3.353  1.00  0.00    +0.000 H 
BRANCH   14   13
ATOM     13  N1  UNL A   1      41.945  19.380   2.359  1.00  0.00    +0.000 N 
ATOM     93  H8  UNL A   1      41.174  19.356   2.971  1.00  0.00    +0.000 H 
BRANCH   13    2
ATOM      1  O1  UNL A   1      42.655  20.066   0.287  1.00  0.00    +0.000 O 
ATOM      2  C1  UNL A   1      41.863  20.134   1.220  1.00  0.00    +0.000 C 
BRANCH    2    3
ATOM      3  C2  UNL A   1      40.701  21.054   1.119  1.00  0.00    +0.000 C 
ATOM     86  H1  UNL A   1      40.371  21.492   1.993  1.00  0.00    +0.000 H 
BRANCH    3    4
ATOM      4  C3  UNL A   1      40.042  21.366  -0.009  1.00  0.00    +0.000 C 
ATOM     87  H2  UNL A   1      40.565  21.394  -0.897  1.00  0.00    +0.000 H 
BRANCH    4    5
ATOM      5  C4  UNL A   1      38.603  21.669  -0.024  1.00  0.00    +0.000 C 
ATOM      6  C5  UNL A   1      37.720  21.161   0.946  1.00  0.00    +0.000 C 
ATOM      7  C6  UNL A   1      36.350  21.448   0.890  1.00  0.00    +0.000 C 
ATOM      8  C7  UNL A   1      35.870  22.255  -0.131  1.00  0.00    +0.000 C 
ATOM     10  C8  UNL A   1      36.743  22.785  -1.077  1.00  0.00    +0.000 C 
ATOM     12  C9  UNL A   1      38.102  22.506  -1.028  1.00  0.00    +0.000 C 
ATOM     88  H3  UNL A   1      38.085  20.569   1.708  1.00  0.00    +0.000 H 
ATOM     89  H4  UNL A   1      35.707  21.064   1.600  1.00  0.00    +0.000 H 
ATOM     92  H7  UNL A   1      38.742  22.914  -1.729  1.00  0.00    +0.000 H 
BRANCH    8    9
ATOM      9  O2  UNL A   1      34.542  22.556  -0.252  1.00  0.00    +0.000 O 
ATOM     90  H5  UNL A   1      34.278  23.356  -0.663  1.00  0.00    +0.000 H 
ENDBRANCH    8    9
BRANCH   10   11
ATOM     11  O3  UNL A   1      36.263  23.582  -2.076  1.00  0.00    +0.000 O 
ATOM     91  H6  UNL A   1      35.488  23.335  -2.542  1.00  0.00    +0.000 H 
ENDBRANCH   10   11
ENDBRANCH    4    5
ENDBRANCH    3    4
ENDBRANCH    2    3
ENDBRANCH   13    2
ENDBRANCH   14   13
ENDBRANCH   15   14
ENDBRANCH   16   15
ENDBRANCH   17   16
ENDBRANCH   18   17
ENDBRANCH   19   18
ENDBRANCH   20   19
ENDBRANCH   21   20
ENDBRANCH   23   21
ENDBRANCH   27   26
BRANCH   31   32
ATOM     33  C26 UNL A   1      52.363  23.985  17.076  1.00  0.00    +0.000 C 
ATOM     34  F1  UNL A   1      53.141  24.674  16.227  1.00  0.00    +0.000 F 
ATOM     35  C27 UNL A   1      51.522  24.689  17.934  1.00  0.00    +0.000 C 
ATOM     36  F2  UNL A   1      51.507  26.028  17.906  1.00  0.00    +0.000 F 
ATOM     37  C28 UNL A   1      50.712  24.005  18.828  1.00  0.00    +0.000 C 
ATOM     38  F3  UNL A   1      49.901  24.683  19.652  1.00  0.00    +0.000 F 
ATOM     39  C29 UNL A   1      50.749  22.619  18.875  1.00  0.00    +0.000 C 
ATOM     40  F4  UNL A   1      49.958  21.958  19.731  1.00  0.00    +0.000 F 
ATOM     41  C30 UNL A   1      51.612  21.915  18.039  1.00  0.00    +0.000 C 
ATOM     42  F5  UNL A   1      51.638  20.576  18.121  1.00  0.00    +0.000 F 
ATOM     32  C25 UNL A   1      52.439  22.584  17.125  1.00  0.00    +0.000 C 
ENDBRANCH   31   32
BRANCH   48   49
ATOM     49  C36 UNL A   1      59.114  19.846  17.251  1.00  0.00    +0.000 C 
ATOM     50  C37 UNL A   1      59.471  18.625  17.840  1.00  0.00    +0.000 C 
ATOM     51  F6  UNL A   1      58.751  17.520  17.594  1.00  0.00    +0.000 F 
ATOM     52  C38 UNL A   1      60.552  18.541  18.715  1.00  0.00    +0.000 C 
ATOM     53  F7  UNL A   1      60.851  17.373  19.298  1.00  0.00    +0.000 F 
ATOM     54  C39 UNL A   1      61.311  19.668  18.993  1.00  0.00    +0.000 C 
ATOM     55  F8  UNL A   1      62.354  19.585  19.829  1.00  0.00    +0.000 F 
ATOM     56  C40 UNL A   1      60.983  20.884  18.410  1.00  0.00    +0.000 C 
ATOM     57  F9  UNL A   1      61.721  21.971  18.671  1.00  0.00    +0.000 F 
ATOM     58  C41 UNL A   1      59.888  20.976  17.556  1.00  0.00    +0.000 C 
ATOM     59  F10 UNL A   1      59.589  22.166  17.015  1.00  0.00    +0.000 F 
ENDBRANCH   48   49
BRANCH   63   64
ATOM     65  C46 UNL A   1      59.124  18.555   9.800  1.00  0.00    +0.000 C 
ATOM     66  F11 UNL A   1      59.075  19.894   9.850  1.00  0.00    +0.000 F 
ATOM     67  C47 UNL A   1      59.981  17.943   8.888  1.00  0.00    +0.000 C 
ATOM     68  F12 UNL A   1      60.737  18.694   8.074  1.00  0.00    +0.000 F 
ATOM     69  C48 UNL A   1      60.049  16.560   8.814  1.00  0.00    +0.000 C 
ATOM     70  F13 UNL A   1      60.882  15.973   7.945  1.00  0.00    +0.000 F 
ATOM     71  C49 UNL A   1      59.248  15.786   9.642  1.00  0.00    +0.000 C 
ATOM     72  F14 UNL A   1      59.320  14.449   9.584  1.00  0.00    +0.000 F 
ATOM     73  C50 UNL A   1      58.373  16.396  10.537  1.00  0.00    +0.000 C 
ATOM     74  F15 UNL A   1      57.610  15.625  11.325  1.00  0.00    +0.000 F 
ATOM     64  C45 UNL A   1      58.301  17.793  10.640  1.00  0.00    +0.000 C 
ENDBRANCH   63   64
TORSDOF 19
ENDMDL
MODEL 9
REMARK VINA RESULT:      -7.8     48.076     52.675
ROOT
ATOM     27  C21 UNL A   1      52.525  20.412  11.474  1.00  0.00    +0.000 C 
ATOM     28  C22 UNL A   1      52.415  21.008  12.848  1.00  0.00    +0.000 C 
ATOM     29  N3  UNL A   1      53.302  21.040  13.810  1.00  0.00    +0.000 N 
ATOM     30  C23 UNL A   1      52.706  21.738  14.851  1.00  0.00    +0.000 C 
ATOM     31  C24 UNL A   1      53.195  21.988  16.089  1.00  0.00    +0.000 C 
ATOM     43  C31 UNL A   1      54.489  21.561  16.555  1.00  0.00    +0.000 C 
ATOM     44  C32 UNL A   1      55.045  21.709  17.814  1.00  0.00    +0.000 C 
ATOM     45  C33 UNL A   1      56.344  21.187  17.783  1.00  0.00    +0.000 C 
ATOM     46  C34 UNL A   1      56.581  20.675  16.517  1.00  0.00    +0.000 C 
ATOM     47  N4  UNL A   1      55.434  20.911  15.775  1.00  0.00    +0.000 N 
ATOM     48  C35 UNL A   1      57.764  20.022  16.017  1.00  0.00    +0.000 C 
ATOM     60  C42 UNL A   1      57.898  19.503  14.773  1.00  0.00    +0.000 C 
ATOM     61  N5  UNL A   1      56.982  19.492  13.731  1.00  0.00    +0.000 N 
ATOM     62  C43 UNL A   1      57.581  18.893  12.731  1.00  0.00    +0.000 C 
ATOM     63  C44 UNL A   1      57.056  18.596  11.355  1.00  0.00    +0.000 C 
ATOM     75  C51 UNL A   1      55.786  18.922  11.046  1.00  0.00    +0.000 C 
ATOM     76  C52 UNL A   1      55.146  18.692   9.755  1.00  0.00    +0.000 C 
ATOM     77  C53 UNL A   1      53.909  19.212   9.780  1.00  0.00    +0.000 C 
ATOM     78  C54 UNL A   1      53.657  19.782  11.104  1.00  0.00    +0.000 C 
ATOM     79  N6  UNL A   1      54.816  19.537  11.799  1.00  0.00    +0.000 N 
ATOM     80  C55 UNL A   1      58.956  18.466  13.022  1.00  0.00    +0.000 C 
ATOM     81  C56 UNL A   1      59.089  18.834  14.289  1.00  0.00    +0.000 C 
ATOM     82  C57 UNL A   1      51.401  22.155  14.384  1.00  0.00    +0.000 C 
ATOM     83  C58 UNL A   1      51.148  21.677  13.174  1.00  0.00    +0.000 C 
ATOM    109  H24 UNL A   1      54.583  22.130  18.634  1.00  0.00    +0.000 H 
ATOM    110  H25 UNL A   1      57.012  21.183  18.570  1.00  0.00    +0.000 H 
ATOM    111  H26 UNL A   1      55.308  20.654  14.833  1.00  0.00    +0.000 H 
ATOM    112  H27 UNL A   1      55.576  18.207   8.951  1.00  0.00    +0.000 H 
ATOM    113  H28 UNL A   1      53.243  19.210   8.993  1.00  0.00    +0.000 H 
ATOM    114  H29 UNL A   1      54.940  19.779  12.745  1.00  0.00    +0.000 H 
ATOM    115  H30 UNL A   1      59.639  18.001  12.404  1.00  0.00    +0.000 H 
ATOM    116  H31 UNL A   1      59.932  18.666  14.858  1.00  0.00    +0.000 H 
ATOM    117  H32 UNL A   1      50.751  22.748  14.924  1.00  0.00    +0.000 H 
ATOM    118  H33 UNL A   1      50.288  21.755  12.609  1.00  0.00    +0.000 H 
ENDROOT
BRANCH   27   26
ATOM    107  H22 UNL A   1      48.755  19.013   9.196  1.00  0.00    +0.000 H 
ATOM    108  H23 UNL A   1      50.376  18.825  10.994  1.00  0.00    +0.000 H 
ATOM     84  C59 UNL A   1      51.431  21.710   9.644  1.00  0.00    +0.000 C 
ATOM     85  C60 UNL A   1      50.455  21.855   8.661  1.00  0.00    +0.000 C 
ATOM    120  H35 UNL A   1      50.418  22.714   8.091  1.00  0.00    +0.000 H 
ATOM     23  C17 UNL A   1      49.524  20.834   8.450  1.00  0.00    +0.000 C 
ATOM     24  C18 UNL A   1      49.481  19.736   9.315  1.00  0.00    +0.000 C 
ATOM     25  C19 UNL A   1      50.423  19.621  10.340  1.00  0.00    +0.000 C 
ATOM    119  H34 UNL A   1      52.158  22.436   9.756  1.00  0.00    +0.000 H 
ATOM     26  C20 UNL A   1      51.433  20.586  10.484  1.00  0.00    +0.000 C 
BRANCH   23   21
ATOM     21  C16 UNL A   1      48.571  20.886   7.320  1.00  0.00    +0.000 C 
ATOM     22  O4  UNL A   1      48.383  21.949   6.734  1.00  0.00    +0.000 O 
BRANCH   21   20
ATOM    106  H21 UNL A   1      47.069  19.574   7.477  1.00  0.00    +0.000 H 
ATOM     20  N2  UNL A   1      47.875  19.763   6.946  1.00  0.00    +0.000 N 
BRANCH   20   19
ATOM    105  H20 UNL A   1      48.988  19.179   5.326  1.00  0.00    +0.000 H 
ATOM     19  C15 UNL A   1      48.150  18.810   5.881  1.00  0.00    +0.000 C 
ATOM    104  H19 UNL A   1      47.278  18.721   5.267  1.00  0.00    +0.000 H 
BRANCH   19   18
ATOM     18  C14 UNL A   1      48.520  17.426   6.408  1.00  0.00    +0.000 C 
ATOM    102  H17 UNL A   1      48.674  17.504   7.464  1.00  0.00    +0.000 H 
ATOM    103  H18 UNL A   1      47.710  16.782   6.138  1.00  0.00    +0.000 H 
BRANCH   18   17
ATOM     17  C13 UNL A   1      49.777  16.805   5.793  1.00  0.00    +0.000 C 
ATOM    100  H15 UNL A   1      49.960  15.874   6.286  1.00  0.00    +0.000 H 
ATOM    101  H16 UNL A   1      49.573  16.706   4.747  1.00  0.00    +0.000 H 
BRANCH   17   16
ATOM     98  H13 UNL A   1      51.779  17.230   5.235  1.00  0.00    +0.000 H 
ATOM     99  H14 UNL A   1      50.759  18.650   5.634  1.00  0.00    +0.000 H 
ATOM     16  C12 UNL A   1      51.049  17.653   5.893  1.00  0.00    +0.000 C 
BRANCH   16   15
ATOM     97  H12 UNL A   1      50.892  18.069   7.950  1.00  0.00    +0.000 H 
ATOM     15  C11 UNL A   1      51.673  17.748   7.292  1.00  0.00    +0.000 C 
ATOM     96  H11 UNL A   1      52.493  18.435   7.245  1.00  0.00    +0.000 H 
BRANCH   15   14
ATOM     94  H9  UNL A   1      52.804  16.626   8.706  1.00  0.00    +0.000 H 
ATOM     14  C10 UNL A   1      52.192  16.424   7.852  1.00  0.00    +0.000 C 
ATOM     95  H10 UNL A   1      51.347  15.822   8.118  1.00  0.00    +0.000 H 
BRANCH   14   13
ATOM     13  N1  UNL A   1      52.976  15.695   6.877  1.00  0.00    +0.000 N 
ATOM     93  H8  UNL A   1      52.527  15.028   6.308  1.00  0.00    +0.000 H 
BRANCH   13    2
ATOM      1  O1  UNL A   1      55.120  15.970   7.646  1.00  0.00    +0.000 O 
ATOM      2  C1  UNL A   1      54.319  15.904   6.721  1.00  0.00    +0.000 C 
BRANCH    2    3
ATOM      3  C2  UNL A   1      54.812  16.008   5.324  1.00  0.00    +0.000 C 
ATOM     86  H1  UNL A   1      55.763  15.656   5.133  1.00  0.00    +0.000 H 
BRANCH    3    4
ATOM      4  C3  UNL A   1      54.129  16.520   4.287  1.00  0.00    +0.000 C 
ATOM     87  H2  UNL A   1      54.058  17.545   4.196  1.00  0.00    +0.000 H 
BRANCH    4    5
ATOM      5  C4  UNL A   1      53.478  15.673   3.276  1.00  0.00    +0.000 C 
ATOM      6  C5  UNL A   1      52.149  15.232   3.410  1.00  0.00    +0.000 C 
ATOM      7  C6  UNL A   1      51.566  14.407   2.442  1.00  0.00    +0.000 C 
ATOM      8  C7  UNL A   1      52.311  14.034   1.332  1.00  0.00    +0.000 C 
ATOM     10  C8  UNL A   1      53.617  14.491   1.179  1.00  0.00    +0.000 C 
ATOM     12  C9  UNL A   1      54.203  15.311   2.133  1.00  0.00    +0.000 C 
ATOM     88  H3  UNL A   1      51.597  15.521   4.233  1.00  0.00    +0.000 H 
ATOM     89  H4  UNL A   1      50.593  14.080   2.552  1.00  0.00    +0.000 H 
ATOM     92  H7  UNL A   1      55.168  15.653   2.003  1.00  0.00    +0.000 H 
BRANCH    8    9
ATOM      9  O2  UNL A   1      51.806  13.215   0.361  1.00  0.00    +0.000 O 
ATOM     90  H5  UNL A   1      52.381  12.814  -0.260  1.00  0.00    +0.000 H 
ENDBRANCH    8    9
BRANCH   10   11
ATOM     11  O3  UNL A   1      54.343  14.125   0.082  1.00  0.00    +0.000 O 
ATOM     91  H6  UNL A   1      54.814  13.314   0.081  1.00  0.00    +0.000 H 
ENDBRANCH   10   11
ENDBRANCH    4    5
ENDBRANCH    3    4
ENDBRANCH    2    3
ENDBRANCH   13    2
ENDBRANCH   14   13
ENDBRANCH   15   14
ENDBRANCH   16   15
ENDBRANCH   17   16
ENDBRANCH   18   17
ENDBRANCH   19   18
ENDBRANCH   20   19
ENDBRANCH   21   20
ENDBRANCH   23   21
ENDBRANCH   27   26
BRANCH   31   32
ATOM     33  C26 UNL A   1      51.534  22.121  18.000  1.00  0.00    +0.000 C 
ATOM     34  F1  UNL A   1      51.530  20.782  18.086  1.00  0.00    +0.000 F 
ATOM     35  C27 UNL A   1      50.712  22.850  18.856  1.00  0.00    +0.000 C 
ATOM     36  F2  UNL A   1      49.931  22.210  19.737  1.00  0.00    +0.000 F 
ATOM     37  C28 UNL A   1      50.688  24.234  18.786  1.00  0.00    +0.000 C 
ATOM     38  F3  UNL A   1      49.899  24.935  19.612  1.00  0.00    +0.000 F 
ATOM     39  C29 UNL A   1      51.477  24.893  17.854  1.00  0.00    +0.000 C 
ATOM     40  F4  UNL A   1      51.464  26.232  17.794  1.00  0.00    +0.000 F 
ATOM     41  C30 UNL A   1      52.277  24.165  16.977  1.00  0.00    +0.000 C 
ATOM     42  F5  UNL A   1      53.014  24.830  16.074  1.00  0.00    +0.000 F 
ATOM     32  C25 UNL A   1      52.319  22.764  17.030  1.00  0.00    +0.000 C 
ENDBRANCH   31   32
BRANCH   48   49
ATOM     49  C36 UNL A   1      58.936  19.888  16.945  1.00  0.00    +0.000 C 
ATOM     50  C37 UNL A   1      59.218  18.679  17.596  1.00  0.00    +0.000 C 
ATOM     51  F6  UNL A   1      58.405  17.623  17.440  1.00  0.00    +0.000 F 
ATOM     52  C38 UNL A   1      60.320  18.560  18.440  1.00  0.00    +0.000 C 
ATOM     53  F7  UNL A   1      60.547  17.407  19.084  1.00  0.00    +0.000 F 
ATOM     54  C39 UNL A   1      61.173  19.636  18.625  1.00  0.00    +0.000 C 
ATOM     55  F8  UNL A   1      62.236  19.519  19.432  1.00  0.00    +0.000 F 
ATOM     56  C40 UNL A   1      60.921  20.838  17.980  1.00  0.00    +0.000 C 
ATOM     57  F9  UNL A   1      61.751  21.877  18.150  1.00  0.00    +0.000 F 
ATOM     58  C41 UNL A   1      59.806  20.969  17.156  1.00  0.00    +0.000 C 
ATOM     59  F10 UNL A   1      59.582  22.145  16.554  1.00  0.00    +0.000 F 
ENDBRANCH   48   49
BRANCH   63   64
ATOM     65  C46 UNL A   1      57.940  16.539  10.219  1.00  0.00    +0.000 C 
ATOM     66  F11 UNL A   1      57.235  15.781  11.071  1.00  0.00    +0.000 F 
ATOM     67  C47 UNL A   1      58.719  15.918   9.246  1.00  0.00    +0.000 C 
ATOM     68  F12 UNL A   1      58.757  14.580   9.175  1.00  0.00    +0.000 F 
ATOM     69  C48 UNL A   1      59.460  16.679   8.354  1.00  0.00    +0.000 C 
ATOM     70  F13 UNL A   1      60.198  16.081   7.410  1.00  0.00    +0.000 F 
ATOM     71  C49 UNL A   1      59.436  18.063   8.445  1.00  0.00    +0.000 C 
ATOM     72  F14 UNL A   1      60.139  18.803   7.577  1.00  0.00    +0.000 F 
ATOM     73  C50 UNL A   1      58.677  18.686   9.433  1.00  0.00    +0.000 C 
ATOM     74  F15 UNL A   1      58.673  20.025   9.499  1.00  0.00    +0.000 F 
ATOM     64  C45 UNL A   1      57.907  17.936  10.334  1.00  0.00    +0.000 C 
ENDBRANCH   63   64
TORSDOF 19
ENDMDL
MODEL 10
REMARK VINA RESULT:      -7.8     44.153     46.931
ROOT
ATOM     27  C21 UNL A   1      23.062  38.089  48.477  1.00  0.00    +0.000 C 
ATOM     28  C22 UNL A   1      24.327  38.892  48.381  1.00  0.00    +0.000 C 
ATOM     29  N3  UNL A   1      25.461  38.584  47.803  1.00  0.00    +0.000 N 
ATOM     30  C23 UNL A   1      26.286  39.686  47.976  1.00  0.00    +0.000 C 
ATOM     31  C24 UNL A   1      27.581  39.839  47.610  1.00  0.00    +0.000 C 
ATOM     43  C31 UNL A   1      28.358  38.834  46.932  1.00  0.00    +0.000 C 
ATOM     44  C32 UNL A   1      29.696  38.869  46.579  1.00  0.00    +0.000 C 
ATOM     45  C33 UNL A   1      29.999  37.690  45.889  1.00  0.00    +0.000 C 
ATOM     46  C34 UNL A   1      28.861  36.901  45.849  1.00  0.00    +0.000 C 
ATOM     47  N4  UNL A   1      27.862  37.615  46.494  1.00  0.00    +0.000 N 
ATOM     48  C35 UNL A   1      28.691  35.594  45.265  1.00  0.00    +0.000 C 
ATOM     60  C42 UNL A   1      27.551  34.863  45.313  1.00  0.00    +0.000 C 
ATOM     61  N5  UNL A   1      26.332  35.190  45.890  1.00  0.00    +0.000 N 
ATOM     62  C43 UNL A   1      25.541  34.170  45.659  1.00  0.00    +0.000 C 
ATOM     63  C44 UNL A   1      24.106  33.976  46.064  1.00  0.00    +0.000 C 
ATOM     75  C51 UNL A   1      23.495  34.919  46.807  1.00  0.00    +0.000 C 
ATOM     76  C52 UNL A   1      22.113  34.861  47.271  1.00  0.00    +0.000 C 
ATOM     77  C53 UNL A   1      21.818  36.001  47.914  1.00  0.00    +0.000 C 
ATOM     78  C54 UNL A   1      23.006  36.857  47.937  1.00  0.00    +0.000 C 
ATOM     79  N6  UNL A   1      23.961  36.119  47.282  1.00  0.00    +0.000 N 
ATOM     80  C55 UNL A   1      26.167  33.083  44.895  1.00  0.00    +0.000 C 
ATOM     81  C56 UNL A   1      27.400  33.543  44.736  1.00  0.00    +0.000 C 
ATOM     82  C57 UNL A   1      25.505  40.690  48.669  1.00  0.00    +0.000 C 
ATOM     83  C58 UNL A   1      24.308  40.227  48.997  1.00  0.00    +0.000 C 
ATOM    109  H24 UNL A   1      30.357  39.633  46.788  1.00  0.00    +0.000 H 
ATOM    110  H25 UNL A   1      30.915  37.448  45.479  1.00  0.00    +0.000 H 
ATOM    111  H26 UNL A   1      26.938  37.302  46.623  1.00  0.00    +0.000 H 
ATOM    112  H27 UNL A   1      21.465  34.070  47.127  1.00  0.00    +0.000 H 
ATOM    113  H28 UNL A   1      20.903  36.237  48.326  1.00  0.00    +0.000 H 
ATOM    114  H29 UNL A   1      24.891  36.423  47.165  1.00  0.00    +0.000 H 
ATOM    115  H30 UNL A   1      25.756  32.195  44.568  1.00  0.00    +0.000 H 
ATOM    116  H31 UNL A   1      28.157  33.026  44.262  1.00  0.00    +0.000 H 
ATOM    117  H32 UNL A   1      25.839  41.644  48.881  1.00  0.00    +0.000 H 
ATOM    118  H33 UNL A   1      23.558  40.683  49.539  1.00  0.00    +0.000 H 
ENDROOT
BRANCH   27   26
ATOM    107  H22 UNL A   1      19.169  40.577  48.339  1.00  0.00    +0.000 H 
ATOM    108  H23 UNL A   1      21.019  39.416  47.279  1.00  0.00    +0.000 H 
ATOM     84  C59 UNL A   1      21.628  38.560  50.466  1.00  0.00    +0.000 C 
ATOM     85  C60 UNL A   1      20.523  39.163  51.063  1.00  0.00    +0.000 C 
ATOM    120  H35 UNL A   1      20.336  39.021  52.068  1.00  0.00    +0.000 H 
ATOM     23  C17 UNL A   1      19.669  39.961  50.298  1.00  0.00    +0.000 C 
ATOM     24  C18 UNL A   1      19.837  40.037  48.912  1.00  0.00    +0.000 C 
ATOM     25  C19 UNL A   1      20.910  39.381  48.304  1.00  0.00    +0.000 C 
ATOM    119  H34 UNL A   1      22.295  38.024  51.045  1.00  0.00    +0.000 H 
ATOM     26  C20 UNL A   1      21.840  38.674  49.084  1.00  0.00    +0.000 C 
BRANCH   23   21
ATOM     21  C16 UNL A   1      18.576  40.737  50.925  1.00  0.00    +0.000 C 
ATOM     22  O4  UNL A   1      18.395  41.905  50.594  1.00  0.00    +0.000 O 
BRANCH   21   20
ATOM    106  H21 UNL A   1      17.982  40.456  52.815  1.00  0.00    +0.000 H 
ATOM     20  N2  UNL A   1      17.788  40.167  51.894  1.00  0.00    +0.000 N 
BRANCH   20   19
ATOM    105  H20 UNL A   1      16.097  39.279  52.640  1.00  0.00    +0.000 H 
ATOM     19  C15 UNL A   1      16.708  39.200  51.765  1.00  0.00    +0.000 C 
ATOM    104  H19 UNL A   1      17.133  38.223  51.667  1.00  0.00    +0.000 H 
BRANCH   19   18
ATOM     18  C14 UNL A   1      15.816  39.469  50.555  1.00  0.00    +0.000 C 
ATOM    102  H17 UNL A   1      15.018  40.109  50.868  1.00  0.00    +0.000 H 
ATOM    103  H18 UNL A   1      16.451  39.905  49.812  1.00  0.00    +0.000 H 
BRANCH   18   17
ATOM     17  C13 UNL A   1      15.200  38.226  49.908  1.00  0.00    +0.000 C 
ATOM    100  H15 UNL A   1      14.910  37.557  50.691  1.00  0.00    +0.000 H 
ATOM    101  H16 UNL A   1      14.380  38.580  49.317  1.00  0.00    +0.000 H 
BRANCH   17   16
ATOM     98  H13 UNL A   1      16.670  38.180  48.380  1.00  0.00    +0.000 H 
ATOM     99  H14 UNL A   1      16.719  36.828  49.557  1.00  0.00    +0.000 H 
ATOM     16  C12 UNL A   1      16.112  37.462  48.945  1.00  0.00    +0.000 C 
BRANCH   16   15
ATOM     97  H12 UNL A   1      14.505  37.037  47.656  1.00  0.00    +0.000 H 
ATOM     15  C11 UNL A   1      15.400  36.531  47.954  1.00  0.00    +0.000 C 
ATOM     96  H11 UNL A   1      15.213  35.600  48.447  1.00  0.00    +0.000 H 
BRANCH   15   14
ATOM     94  H9  UNL A   1      15.810  35.339  46.236  1.00  0.00    +0.000 H 
ATOM     14  C10 UNL A   1      16.182  36.243  46.672  1.00  0.00    +0.000 C 
ATOM     95  H10 UNL A   1      16.048  37.074  46.009  1.00  0.00    +0.000 H 
BRANCH   14   13
ATOM     13  N1  UNL A   1      17.599  36.093  46.926  1.00  0.00    +0.000 N 
ATOM     93  H8  UNL A   1      17.893  35.773  47.809  1.00  0.00    +0.000 H 
BRANCH   13    2
ATOM      1  O1  UNL A   1      18.995  37.505  45.774  1.00  0.00    +0.000 O 
ATOM      2  C1  UNL A   1      18.542  36.384  45.978  1.00  0.00    +0.000 C 
BRANCH    2    3
ATOM      3  C2  UNL A   1      19.062  35.236  45.192  1.00  0.00    +0.000 C 
ATOM     86  H1  UNL A   1      19.575  35.455  44.323  1.00  0.00    +0.000 H 
BRANCH    3    4
ATOM      4  C3  UNL A   1      18.924  33.939  45.511  1.00  0.00    +0.000 C 
ATOM     87  H2  UNL A   1      19.339  33.598  46.392  1.00  0.00    +0.000 H 
BRANCH    4    5
ATOM      5  C4  UNL A   1      18.205  32.987  44.652  1.00  0.00    +0.000 C 
ATOM      6  C5  UNL A   1      17.983  31.652  45.034  1.00  0.00    +0.000 C 
ATOM      7  C6  UNL A   1      17.315  30.763  44.183  1.00  0.00    +0.000 C 
ATOM      8  C7  UNL A   1      16.859  31.217  42.953  1.00  0.00    +0.000 C 
ATOM     10  C8  UNL A   1      17.051  32.545  42.581  1.00  0.00    +0.000 C 
ATOM     12  C9  UNL A   1      17.710  33.433  43.420  1.00  0.00    +0.000 C 
ATOM     88  H3  UNL A   1      18.315  31.323  45.954  1.00  0.00    +0.000 H 
ATOM     89  H4  UNL A   1      17.164  29.783  44.467  1.00  0.00    +0.000 H 
ATOM     92  H7  UNL A   1      17.836  34.419  43.138  1.00  0.00    +0.000 H 
BRANCH    8    9
ATOM      9  O2  UNL A   1      16.219  30.395  42.070  1.00  0.00    +0.000 O 
ATOM     90  H5  UNL A   1      16.696  29.998  41.368  1.00  0.00    +0.000 H 
ENDBRANCH    8    9
BRANCH   10   11
ATOM     11  O3  UNL A   1      16.595  32.986  41.372  1.00  0.00    +0.000 O 
ATOM     91  H6  UNL A   1      15.722  33.318  41.293  1.00  0.00    +0.000 H 
ENDBRANCH   10   11
ENDBRANCH    4    5
ENDBRANCH    3    4
ENDBRANCH    2    3
ENDBRANCH   13    2
ENDBRANCH   14   13
ENDBRANCH   15   14
ENDBRANCH   16   15
ENDBRANCH   17   16
ENDBRANCH   18   17
ENDBRANCH   19   18
ENDBRANCH   20   19
ENDBRANCH   21   20
ENDBRANCH   23   21
ENDBRANCH   27   26
BRANCH   31   32
ATOM     33  C26 UNL A   1      28.888  41.355  49.166  1.00  0.00    +0.000 C 
ATOM     34  F1  UNL A   1      28.907  40.383  50.092  1.00  0.00    +0.000 F 
ATOM     35  C27 UNL A   1      29.480  42.578  49.468  1.00  0.00    +0.000 C 
ATOM     36  F2  UNL A   1      30.046  42.769  50.667  1.00  0.00    +0.000 F 
ATOM     37  C28 UNL A   1      29.470  43.604  48.535  1.00  0.00    +0.000 C 
ATOM     38  F3  UNL A   1      30.042  44.781  48.824  1.00  0.00    +0.000 F 
ATOM     39  C29 UNL A   1      28.860  43.413  47.304  1.00  0.00    +0.000 C 
ATOM     40  F4  UNL A   1      28.860  44.400  46.397  1.00  0.00    +0.000 F 
ATOM     41  C30 UNL A   1      28.240  42.200  47.012  1.00  0.00    +0.000 C 
ATOM     42  F5  UNL A   1      27.642  42.052  45.820  1.00  0.00    +0.000 F 
ATOM     32  C25 UNL A   1      28.239  41.148  47.939  1.00  0.00    +0.000 C 
ENDBRANCH   31   32
BRANCH   48   49
ATOM     49  C36 UNL A   1      29.868  34.981  44.564  1.00  0.00    +0.000 C 
ATOM     50  C37 UNL A   1      30.736  34.101  45.226  1.00  0.00    +0.000 C 
ATOM     51  F6  UNL A   1      30.558  33.829  46.528  1.00  0.00    +0.000 F 
ATOM     52  C38 UNL A   1      31.814  33.523  44.559  1.00  0.00    +0.000 C 
ATOM     53  F7  UNL A   1      32.655  32.717  45.221  1.00  0.00    +0.000 F 
ATOM     54  C39 UNL A   1      32.026  33.791  43.216  1.00  0.00    +0.000 C 
ATOM     55  F8  UNL A   1      33.060  33.229  42.574  1.00  0.00    +0.000 F 
ATOM     56  C40 UNL A   1      31.171  34.649  42.538  1.00  0.00    +0.000 C 
ATOM     57  F9  UNL A   1      31.370  34.901  41.237  1.00  0.00    +0.000 F 
ATOM     58  C41 UNL A   1      30.108  35.249  43.207  1.00  0.00    +0.000 C 
ATOM     59  F10 UNL A   1      29.305  36.081  42.529  1.00  0.00    +0.000 F 
ENDBRANCH   48   49
BRANCH   63   64
ATOM     65  C46 UNL A   1      23.576  31.537  46.326  1.00  0.00    +0.000 C 
ATOM     66  F11 UNL A   1      24.508  31.450  47.285  1.00  0.00    +0.000 F 
ATOM     67  C47 UNL A   1      22.855  30.397  45.978  1.00  0.00    +0.000 C 
ATOM     68  F12 UNL A   1      23.104  29.234  46.598  1.00  0.00    +0.000 F 
ATOM     69  C48 UNL A   1      21.887  30.459  44.987  1.00  0.00    +0.000 C 
ATOM     70  F13 UNL A   1      21.186  29.365  44.661  1.00  0.00    +0.000 F 
ATOM     71  C49 UNL A   1      21.649  31.659  44.332  1.00  0.00    +0.000 C 
ATOM     72  F14 UNL A   1      20.704  31.727  43.384  1.00  0.00    +0.000 F 
ATOM     73  C50 UNL A   1      22.385  32.794  44.662  1.00  0.00    +0.000 C 
ATOM     74  F15 UNL A   1      22.135  33.940  44.012  1.00  0.00    +0.000 F 
ATOM     64  C45 UNL A   1      23.356  32.757  45.672  1.00  0.00    +0.000 C 
ENDBRANCH   63   64
TORSDOF 19
ENDMDL
