MODEL 1
REMARK VINA RESULT:     -10.6      0.000      0.000
ROOT
ATOM     19  C15 UNL A   1      38.099  29.823  30.098  1.00  0.00    +0.000 C 
ATOM     20  C16 UNL A   1      38.383  30.320  31.487  1.00  0.00    +0.000 C 
ATOM     21  N3  UNL A   1      39.444  30.144  32.232  1.00  0.00    +0.000 N 
ATOM     22  C17 UNL A   1      39.215  30.874  33.390  1.00  0.00    +0.000 C 
ATOM     23  C18 UNL A   1      39.997  30.977  34.491  1.00  0.00    +0.000 C 
ATOM     35  C25 UNL A   1      41.252  30.293  34.658  1.00  0.00    +0.000 C 
ATOM     36  C26 UNL A   1      42.090  30.284  35.759  1.00  0.00    +0.000 C 
ATOM     37  C27 UNL A   1      43.208  29.501  35.449  1.00  0.00    +0.000 C 
ATOM     38  C28 UNL A   1      43.046  28.991  34.171  1.00  0.00    +0.000 C 
ATOM     39  N4  UNL A   1      41.845  29.490  33.695  1.00  0.00    +0.000 N 
ATOM     40  C29 UNL A   1      43.921  28.111  33.439  1.00  0.00    +0.000 C 
ATOM     52  C36 UNL A   1      43.699  27.660  32.180  1.00  0.00    +0.000 C 
ATOM     53  N5  UNL A   1      42.620  27.910  31.343  1.00  0.00    +0.000 N 
ATOM     54  C37 UNL A   1      42.863  27.250  30.236  1.00  0.00    +0.000 C 
ATOM     55  C38 UNL A   1      42.020  27.140  28.995  1.00  0.00    +0.000 C 
ATOM     67  C45 UNL A   1      40.811  27.731  28.962  1.00  0.00    +0.000 C 
ATOM     68  C46 UNL A   1      39.889  27.718  27.830  1.00  0.00    +0.000 C 
ATOM     69  C47 UNL A   1      38.822  28.478  28.124  1.00  0.00    +0.000 C 
ATOM     70  C48 UNL A   1      38.968  29.000  29.483  1.00  0.00    +0.000 C 
ATOM     71  N6  UNL A   1      40.162  28.478  29.915  1.00  0.00    +0.000 N 
ATOM     72  C49 UNL A   1      44.144  26.531  30.234  1.00  0.00    +0.000 C 
ATOM     73  C50 UNL A   1      44.599  26.788  31.454  1.00  0.00    +0.000 C 
ATOM     74  C51 UNL A   1      37.933  31.526  33.234  1.00  0.00    +0.000 C 
ATOM     75  C52 UNL A   1      37.344  31.159  32.106  1.00  0.00    +0.000 C 
ATOM    111  H21 UNL A   1      41.921  30.769  36.654  1.00  0.00    +0.000 H 
ATOM    112  H22 UNL A   1      44.017  29.334  36.067  1.00  0.00    +0.000 H 
ATOM    113  H23 UNL A   1      41.468  29.304  32.804  1.00  0.00    +0.000 H 
ATOM    114  H24 UNL A   1      40.036  27.208  26.945  1.00  0.00    +0.000 H 
ATOM    115  H25 UNL A   1      38.026  28.663  27.494  1.00  0.00    +0.000 H 
ATOM    116  H26 UNL A   1      40.519  28.626  30.821  1.00  0.00    +0.000 H 
ATOM    117  H27 UNL A   1      44.578  25.973  29.482  1.00  0.00    +0.000 H 
ATOM    118  H28 UNL A   1      45.480  26.414  31.837  1.00  0.00    +0.000 H 
ATOM    119  H29 UNL A   1      37.530  32.192  33.912  1.00  0.00    +0.000 H 
ATOM    120  H30 UNL A   1      36.404  31.397  31.753  1.00  0.00    +0.000 H 
ENDROOT
BRANCH   19   18
ATOM     76  C53 UNL A   1      35.887  29.416  29.036  1.00  0.00    +0.000 C 
ATOM    109  H19 UNL A   1      35.542  33.104  28.064  1.00  0.00    +0.000 H 
ATOM     77  C54 UNL A   1      34.774  29.844  28.321  1.00  0.00    +0.000 C 
ATOM     15  C11 UNL A   1      34.624  31.201  28.017  1.00  0.00    +0.000 C 
ATOM     16  C12 UNL A   1      35.639  32.110  28.326  1.00  0.00    +0.000 C 
ATOM     17  C13 UNL A   1      36.786  31.668  28.990  1.00  0.00    +0.000 C 
ATOM    110  H20 UNL A   1      37.547  32.332  29.199  1.00  0.00    +0.000 H 
ATOM     18  C14 UNL A   1      36.905  30.323  29.373  1.00  0.00    +0.000 C 
ATOM    121  H31 UNL A   1      35.965  28.428  29.322  1.00  0.00    +0.000 H 
ATOM    122  H32 UNL A   1      34.061  29.163  28.014  1.00  0.00    +0.000 H 
BRANCH   15   13
ATOM     13  C10 UNL A   1      33.391  31.693  27.367  1.00  0.00    +0.000 C 
ATOM     14  O2  UNL A   1      33.221  32.898  27.210  1.00  0.00    +0.000 O 
BRANCH   13   12
ATOM    108  H18 UNL A   1      31.911  30.375  27.683  1.00  0.00    +0.000 H 
ATOM     12  N2  UNL A   1      32.435  30.794  26.963  1.00  0.00    +0.000 N 
BRANCH   12   11
ATOM    106  H16 UNL A   1      31.489  31.141  25.161  1.00  0.00    +0.000 H 
ATOM     11  C9  UNL A   1      32.093  30.380  25.611  1.00  0.00    +0.000 C 
ATOM    107  H17 UNL A   1      33.006  30.236  25.073  1.00  0.00    +0.000 H 
BRANCH   11   10
ATOM    105  H15 UNL A   1      31.168  28.826  24.555  1.00  0.00    +0.000 H 
ATOM     10  C8  UNL A   1      31.324  29.064  25.586  1.00  0.00    +0.000 C 
ATOM    104  H14 UNL A   1      30.413  29.201  26.130  1.00  0.00    +0.000 H 
BRANCH   10    9
ATOM      9  C7  UNL A   1      32.068  27.875  26.197  1.00  0.00    +0.000 C 
ATOM    102  H12 UNL A   1      32.509  28.197  27.117  1.00  0.00    +0.000 H 
ATOM    103  H13 UNL A   1      31.342  27.101  26.321  1.00  0.00    +0.000 H 
BRANCH    9    8
ATOM    100  H10 UNL A   1      32.713  26.759  24.512  1.00  0.00    +0.000 H 
ATOM    101  H11 UNL A   1      33.776  28.114  25.005  1.00  0.00    +0.000 H 
ATOM      8  C6  UNL A   1      33.176  27.286  25.321  1.00  0.00    +0.000 C 
BRANCH    8    7
ATOM     98  H8  UNL A   1      35.095  26.404  25.575  1.00  0.00    +0.000 H 
ATOM     99  H9  UNL A   1      34.130  26.594  27.065  1.00  0.00    +0.000 H 
ATOM      7  C5  UNL A   1      34.132  26.317  26.031  1.00  0.00    +0.000 C 
BRANCH    7    6
ATOM     97  H7  UNL A   1      33.603  24.479  26.975  1.00  0.00    +0.000 H 
ATOM      6  C4  UNL A   1      33.706  24.844  25.975  1.00  0.00    +0.000 C 
ATOM     96  H6  UNL A   1      34.450  24.284  25.449  1.00  0.00    +0.000 H 
BRANCH    6    5
ATOM      5  N1  UNL A   1      32.432  24.702  25.295  1.00  0.00    +0.000 N 
ATOM     95  H5  UNL A   1      31.670  25.184  25.691  1.00  0.00    +0.000 H 
BRANCH    5    3
ATOM      3  C3  UNL A   1      32.169  23.975  24.166  1.00  0.00    +0.000 C 
ATOM      4  O1  UNL A   1      32.179  22.748  24.279  1.00  0.00    +0.000 O 
BRANCH    3    2
ATOM      2  C2  UNL A   1      31.921  24.707  22.831  1.00  0.00    +0.000 C 
ATOM     94  H4  UNL A   1      31.480  24.015  22.145  1.00  0.00    +0.000 H 
BRANCH    2    1
ATOM      1  C1  UNL A   1      33.270  25.185  22.278  1.00  0.00    +0.000 C 
ATOM     91  H1  UNL A   1      33.748  24.382  21.759  1.00  0.00    +0.000 H 
ATOM     92  H2  UNL A   1      33.893  25.507  23.086  1.00  0.00    +0.000 H 
ATOM     93  H3  UNL A   1      33.111  26.000  21.604  1.00  0.00    +0.000 H 
ENDBRANCH    2    1
BRANCH    2   78
ATOM    129  H39 UNL A   1      31.989  27.244  21.804  1.00  0.00    +0.000 H 
ATOM     78  C55 UNL A   1      30.886  25.840  22.931  1.00  0.00    +0.000 C 
ATOM     79  C56 UNL A   1      29.714  25.700  23.692  1.00  0.00    +0.000 C 
ATOM     80  C57 UNL A   1      28.752  26.715  23.739  1.00  0.00    +0.000 C 
ATOM     81  C58 UNL A   1      28.942  27.912  23.042  1.00  0.00    +0.000 C 
ATOM     89  C64 UNL A   1      30.142  28.099  22.349  1.00  0.00    +0.000 C 
ATOM     90  C65 UNL A   1      31.102  27.080  22.306  1.00  0.00    +0.000 C 
ATOM    123  H33 UNL A   1      29.558  24.831  24.227  1.00  0.00    +0.000 H 
ATOM    124  H34 UNL A   1      27.893  26.579  24.295  1.00  0.00    +0.000 H 
ATOM    128  H38 UNL A   1      30.320  28.993  21.864  1.00  0.00    +0.000 H 
BRANCH   81   82
ATOM     82  C59 UNL A   1      27.872  28.958  23.114  1.00  0.00    +0.000 C 
ATOM     83  O3  UNL A   1      26.723  28.591  23.358  1.00  0.00    +0.000 O 
BRANCH   82   84
ATOM     84  C60 UNL A   1      28.223  30.352  22.907  1.00  0.00    +0.000 C 
ATOM     85  C61 UNL A   1      28.709  31.283  23.806  1.00  0.00    +0.000 C 
ATOM     86  C62 UNL A   1      28.900  32.562  23.204  1.00  0.00    +0.000 C 
ATOM     87  C63 UNL A   1      28.569  32.558  21.867  1.00  0.00    +0.000 C 
ATOM     88  S1  UNL A   1      28.056  31.014  21.338  1.00  0.00    +0.000 S 
ATOM    125  H35 UNL A   1      28.911  31.077  24.796  1.00  0.00    +0.000 H 
ATOM    126  H36 UNL A   1      29.244  33.393  23.710  1.00  0.00    +0.000 H 
ATOM    127  H37 UNL A   1      28.623  33.387  21.257  1.00  0.00    +0.000 H 
ENDBRANCH   82   84
ENDBRANCH   81   82
ENDBRANCH    2   78
ENDBRANCH    3    2
ENDBRANCH    5    3
ENDBRANCH    6    5
ENDBRANCH    7    6
ENDBRANCH    8    7
ENDBRANCH    9    8
ENDBRANCH   10    9
ENDBRANCH   11   10
ENDBRANCH   12   11
ENDBRANCH   13   12
ENDBRANCH   15   13
ENDBRANCH   19   18
BRANCH   23   24
ATOM     33  C24 UNL A   1      40.020  33.170  35.731  1.00  0.00    +0.000 C 
ATOM     34  F5  UNL A   1      40.938  33.633  34.868  1.00  0.00    +0.000 F 
ATOM     24  C19 UNL A   1      39.514  31.870  35.597  1.00  0.00    +0.000 C 
ATOM     25  C20 UNL A   1      38.560  31.436  36.531  1.00  0.00    +0.000 C 
ATOM     26  F1  UNL A   1      38.036  30.205  36.437  1.00  0.00    +0.000 F 
ATOM     27  C21 UNL A   1      38.103  32.286  37.534  1.00  0.00    +0.000 C 
ATOM     28  F2  UNL A   1      37.150  31.870  38.379  1.00  0.00    +0.000 F 
ATOM     29  C22 UNL A   1      38.618  33.568  37.648  1.00  0.00    +0.000 C 
ATOM     30  F3  UNL A   1      38.177  34.386  38.615  1.00  0.00    +0.000 F 
ATOM     31  C23 UNL A   1      39.583  34.008  36.754  1.00  0.00    +0.000 C 
ATOM     32  F4  UNL A   1      40.089  35.243  36.870  1.00  0.00    +0.000 F 
ENDBRANCH   23   24
BRANCH   40   41
ATOM     41  C30 UNL A   1      45.162  27.637  34.132  1.00  0.00    +0.000 C 
ATOM     42  C31 UNL A   1      45.180  26.450  34.879  1.00  0.00    +0.000 C 
ATOM     43  F6  UNL A   1      44.052  25.744  35.050  1.00  0.00    +0.000 F 
ATOM     44  C32 UNL A   1      46.353  26.002  35.478  1.00  0.00    +0.000 C 
ATOM     45  F7  UNL A   1      46.342  24.882  36.215  1.00  0.00    +0.000 F 
ATOM     46  C33 UNL A   1      47.533  26.713  35.319  1.00  0.00    +0.000 C 
ATOM     47  F8  UNL A   1      48.664  26.273  35.887  1.00  0.00    +0.000 F 
ATOM     48  C34 UNL A   1      47.540  27.884  34.576  1.00  0.00    +0.000 C 
ATOM     49  F9  UNL A   1      48.682  28.567  34.412  1.00  0.00    +0.000 F 
ATOM     50  C35 UNL A   1      46.364  28.349  33.996  1.00  0.00    +0.000 C 
ATOM     51  F10 UNL A   1      46.398  29.486  33.287  1.00  0.00    +0.000 F 
ENDBRANCH   40   41
BRANCH   55   56
ATOM     65  C44 UNL A   1      42.126  25.018  27.644  1.00  0.00    +0.000 C 
ATOM     66  F15 UNL A   1      41.328  24.413  28.536  1.00  0.00    +0.000 F 
ATOM     56  C39 UNL A   1      42.487  26.360  27.821  1.00  0.00    +0.000 C 
ATOM     57  C40 UNL A   1      43.329  26.944  26.864  1.00  0.00    +0.000 C 
ATOM     58  F11 UNL A   1      43.685  28.230  26.983  1.00  0.00    +0.000 F 
ATOM     59  C41 UNL A   1      43.782  26.216  25.766  1.00  0.00    +0.000 C 
ATOM     60  F12 UNL A   1      44.561  26.806  24.849  1.00  0.00    +0.000 F 
ATOM     61  C42 UNL A   1      43.423  24.885  25.617  1.00  0.00    +0.000 C 
ATOM     62  F13 UNL A   1      43.867  24.182  24.567  1.00  0.00    +0.000 F 
ATOM     63  C43 UNL A   1      42.598  24.284  26.557  1.00  0.00    +0.000 C 
ATOM     64  F14 UNL A   1      42.260  22.994  26.424  1.00  0.00    +0.000 F 
ENDBRANCH   55   56
TORSDOF 19
ENDMDL
MODEL 2
REMARK VINA RESULT:     -10.4     19.734     24.782
ROOT
ATOM     19  C15 UNL A   1      52.853  20.369  11.578  1.00  0.00    +0.000 C 
ATOM     20  C16 UNL A   1      52.678  20.910  12.968  1.00  0.00    +0.000 C 
ATOM     21  N3  UNL A   1      53.552  21.009  13.937  1.00  0.00    +0.000 N 
ATOM     22  C17 UNL A   1      52.888  21.643  14.978  1.00  0.00    +0.000 C 
ATOM     23  C18 UNL A   1      53.348  21.936  16.218  1.00  0.00    +0.000 C 
ATOM     35  C25 UNL A   1      54.664  21.602  16.691  1.00  0.00    +0.000 C 
ATOM     36  C26 UNL A   1      55.206  21.801  17.949  1.00  0.00    +0.000 C 
ATOM     37  C27 UNL A   1      56.527  21.341  17.933  1.00  0.00    +0.000 C 
ATOM     38  C28 UNL A   1      56.794  20.818  16.678  1.00  0.00    +0.000 C 
ATOM     39  N4  UNL A   1      55.646  20.992  15.924  1.00  0.00    +0.000 N 
ATOM     40  C29 UNL A   1      58.007  20.205  16.202  1.00  0.00    +0.000 C 
ATOM     52  C36 UNL A   1      58.199  19.723  14.949  1.00  0.00    +0.000 C 
ATOM     53  N5  UNL A   1      57.310  19.691  13.883  1.00  0.00    +0.000 N 
ATOM     54  C37 UNL A   1      57.958  19.128  12.892  1.00  0.00    +0.000 C 
ATOM     55  C38 UNL A   1      57.475  18.814  11.502  1.00  0.00    +0.000 C 
ATOM     67  C45 UNL A   1      56.194  19.070  11.174  1.00  0.00    +0.000 C 
ATOM     68  C46 UNL A   1      55.588  18.827   9.868  1.00  0.00    +0.000 C 
ATOM     69  C47 UNL A   1      54.324  19.279   9.881  1.00  0.00    +0.000 C 
ATOM     70  C48 UNL A   1      54.019  19.808  11.211  1.00  0.00    +0.000 C 
ATOM     71  N6  UNL A   1      55.177  19.612  11.922  1.00  0.00    +0.000 N 
ATOM     72  C49 UNL A   1      59.347  18.769  13.208  1.00  0.00    +0.000 C 
ATOM     73  C50 UNL A   1      59.432  19.123  14.485  1.00  0.00    +0.000 C 
ATOM     74  C51 UNL A   1      51.551  21.940  14.510  1.00  0.00    +0.000 C 
ATOM     75  C52 UNL A   1      51.347  21.442  13.300  1.00  0.00    +0.000 C 
ATOM    111  H21 UNL A   1      54.720  22.216  18.759  1.00  0.00    +0.000 H 
ATOM    112  H22 UNL A   1      57.191  21.384  18.722  1.00  0.00    +0.000 H 
ATOM    113  H23 UNL A   1      55.540  20.722  14.983  1.00  0.00    +0.000 H 
ATOM    114  H24 UNL A   1      56.056  18.381   9.064  1.00  0.00    +0.000 H 
ATOM    115  H25 UNL A   1      53.670  19.256   9.082  1.00  0.00    +0.000 H 
ATOM    116  H26 UNL A   1      55.270  19.839  12.875  1.00  0.00    +0.000 H 
ATOM    117  H27 UNL A   1      60.068  18.350  12.600  1.00  0.00    +0.000 H 
ATOM    118  H28 UNL A   1      60.271  18.989  15.071  1.00  0.00    +0.000 H 
ATOM    119  H29 UNL A   1      50.849  22.471  15.049  1.00  0.00    +0.000 H 
ATOM    120  H30 UNL A   1      50.482  21.431  12.737  1.00  0.00    +0.000 H 
ENDROOT
BRANCH   19   18
ATOM     76  C53 UNL A   1      51.695  21.752   9.864  1.00  0.00    +0.000 C 
ATOM    109  H19 UNL A   1      49.098  19.010   9.234  1.00  0.00    +0.000 H 
ATOM     77  C54 UNL A   1      50.666  21.966   8.953  1.00  0.00    +0.000 C 
ATOM     15  C11 UNL A   1      49.753  20.942   8.684  1.00  0.00    +0.000 C 
ATOM     16  C12 UNL A   1      49.799  19.748   9.407  1.00  0.00    +0.000 C 
ATOM     17  C13 UNL A   1      50.796  19.556  10.366  1.00  0.00    +0.000 C 
ATOM    110  H20 UNL A   1      50.819  18.685  10.918  1.00  0.00    +0.000 H 
ATOM     18  C14 UNL A   1      51.767  20.547  10.582  1.00  0.00    +0.000 C 
ATOM    121  H31 UNL A   1      52.410  22.480  10.012  1.00  0.00    +0.000 H 
ATOM    122  H32 UNL A   1      50.576  22.879   8.479  1.00  0.00    +0.000 H 
BRANCH   15   13
ATOM     13  C10 UNL A   1      48.729  21.107   7.632  1.00  0.00    +0.000 C 
ATOM     14  O2  UNL A   1      48.507  22.220   7.163  1.00  0.00    +0.000 O 
BRANCH   13   12
ATOM    108  H18 UNL A   1      47.218  19.790   7.727  1.00  0.00    +0.000 H 
ATOM     12  N2  UNL A   1      48.019  20.014   7.200  1.00  0.00    +0.000 N 
BRANCH   12   11
ATOM    106  H16 UNL A   1      47.462  19.180   5.396  1.00  0.00    +0.000 H 
ATOM     11  C9  UNL A   1      48.294  19.142   6.069  1.00  0.00    +0.000 C 
ATOM    107  H17 UNL A   1      49.192  19.487   5.602  1.00  0.00    +0.000 H 
BRANCH   11   10
ATOM    105  H15 UNL A   1      48.061  17.589   7.456  1.00  0.00    +0.000 H 
ATOM     10  C8  UNL A   1      48.516  17.695   6.493  1.00  0.00    +0.000 C 
ATOM    104  H14 UNL A   1      49.570  17.509   6.503  1.00  0.00    +0.000 H 
BRANCH   10    9
ATOM      9  C7  UNL A   1      47.857  16.654   5.587  1.00  0.00    +0.000 C 
ATOM    102  H12 UNL A   1      48.331  16.701   4.629  1.00  0.00    +0.000 H 
ATOM    103  H13 UNL A   1      47.981  15.711   6.077  1.00  0.00    +0.000 H 
BRANCH    9    8
ATOM    100  H10 UNL A   1      45.847  16.365   6.200  1.00  0.00    +0.000 H 
ATOM    101  H11 UNL A   1      46.186  17.890   5.324  1.00  0.00    +0.000 H 
ATOM      8  C6  UNL A   1      46.352  16.835   5.381  1.00  0.00    +0.000 C 
BRANCH    8    7
ATOM     98  H8  UNL A   1      46.613  15.941   3.468  1.00  0.00    +0.000 H 
ATOM     99  H9  UNL A   1      45.155  15.432   4.365  1.00  0.00    +0.000 H 
ATOM      7  C5  UNL A   1      45.790  16.246   4.079  1.00  0.00    +0.000 C 
BRANCH    7    6
ATOM     97  H7  UNL A   1      43.920  16.829   3.234  1.00  0.00    +0.000 H 
ATOM      6  C4  UNL A   1      44.919  17.211   3.265  1.00  0.00    +0.000 C 
ATOM     96  H6  UNL A   1      45.317  17.293   2.275  1.00  0.00    +0.000 H 
BRANCH    6    5
ATOM      5  N1  UNL A   1      44.895  18.525   3.878  1.00  0.00    +0.000 N 
ATOM     95  H5  UNL A   1      45.273  18.591   4.785  1.00  0.00    +0.000 H 
BRANCH    5    3
ATOM      3  C3  UNL A   1      44.408  19.686   3.341  1.00  0.00    +0.000 C 
ATOM      4  O1  UNL A   1      44.397  20.678   4.073  1.00  0.00    +0.000 O 
BRANCH    3    2
ATOM      2  C2  UNL A   1      43.869  19.687   1.896  1.00  0.00    +0.000 C 
ATOM     94  H4  UNL A   1      44.051  18.724   1.467  1.00  0.00    +0.000 H 
BRANCH    2    1
ATOM      1  C1  UNL A   1      44.623  20.755   1.093  1.00  0.00    +0.000 C 
ATOM     91  H1  UNL A   1      45.638  20.803   1.428  1.00  0.00    +0.000 H 
ATOM     92  H2  UNL A   1      44.156  21.706   1.237  1.00  0.00    +0.000 H 
ATOM     93  H3  UNL A   1      44.603  20.501   0.054  1.00  0.00    +0.000 H 
ENDBRANCH    2    1
BRANCH    2   78
ATOM    129  H39 UNL A   1      41.873  18.084   2.867  1.00  0.00    +0.000 H 
ATOM     78  C55 UNL A   1      42.342  19.848   1.806  1.00  0.00    +0.000 C 
ATOM     79  C56 UNL A   1      41.755  20.902   1.087  1.00  0.00    +0.000 C 
ATOM     80  C57 UNL A   1      40.366  21.073   1.050  1.00  0.00    +0.000 C 
ATOM     81  C58 UNL A   1      39.520  20.181   1.716  1.00  0.00    +0.000 C 
ATOM     89  C64 UNL A   1      40.085  19.080   2.366  1.00  0.00    +0.000 C 
ATOM     90  C65 UNL A   1      41.476  18.913   2.398  1.00  0.00    +0.000 C 
ATOM    123  H33 UNL A   1      42.359  21.564   0.575  1.00  0.00    +0.000 H 
ATOM    124  H34 UNL A   1      39.963  21.865   0.526  1.00  0.00    +0.000 H 
ATOM    128  H38 UNL A   1      39.474  18.387   2.825  1.00  0.00    +0.000 H 
BRANCH   81   82
ATOM     82  C59 UNL A   1      38.042  20.421   1.657  1.00  0.00    +0.000 C 
ATOM     83  O3  UNL A   1      37.506  20.445   0.550  1.00  0.00    +0.000 O 
BRANCH   82   84
ATOM     84  C60 UNL A   1      37.300  20.604   2.891  1.00  0.00    +0.000 C 
ATOM     85  C61 UNL A   1      36.987  21.767   3.571  1.00  0.00    +0.000 C 
ATOM     86  C62 UNL A   1      36.260  21.510   4.771  1.00  0.00    +0.000 C 
ATOM     87  C63 UNL A   1      36.031  20.165   4.957  1.00  0.00    +0.000 C 
ATOM     88  S1  UNL A   1      36.665  19.222   3.679  1.00  0.00    +0.000 S 
ATOM    125  H35 UNL A   1      37.248  22.711   3.246  1.00  0.00    +0.000 H 
ATOM    126  H36 UNL A   1      35.945  22.245   5.423  1.00  0.00    +0.000 H 
ATOM    127  H37 UNL A   1      35.535  19.772   5.771  1.00  0.00    +0.000 H 
ENDBRANCH   82   84
ENDBRANCH   81   82
ENDBRANCH    2   78
ENDBRANCH    3    2
ENDBRANCH    5    3
ENDBRANCH    6    5
ENDBRANCH    7    6
ENDBRANCH    8    7
ENDBRANCH    9    8
ENDBRANCH   10    9
ENDBRANCH   11   10
ENDBRANCH   12   11
ENDBRANCH   13   12
ENDBRANCH   15   13
ENDBRANCH   19   18
BRANCH   23   24
ATOM     33  C24 UNL A   1      52.330  24.060  17.113  1.00  0.00    +0.000 C 
ATOM     34  F5  UNL A   1      53.078  24.766  16.251  1.00  0.00    +0.000 F 
ATOM     24  C19 UNL A   1      52.415  22.661  17.144  1.00  0.00    +0.000 C 
ATOM     25  C20 UNL A   1      51.614  21.975  18.069  1.00  0.00    +0.000 C 
ATOM     26  F1  UNL A   1      51.650  20.635  18.129  1.00  0.00    +0.000 F 
ATOM     27  C21 UNL A   1      50.734  22.660  18.902  1.00  0.00    +0.000 C 
ATOM     28  F2  UNL A   1      49.938  21.979  19.737  1.00  0.00    +0.000 F 
ATOM     29  C22 UNL A   1      50.668  24.044  18.855  1.00  0.00    +0.000 C 
ATOM     30  F3  UNL A   1      49.820  24.703  19.658  1.00  0.00    +0.000 F 
ATOM     31  C23 UNL A   1      51.471  24.745  17.969  1.00  0.00    +0.000 C 
ATOM     32  F4  UNL A   1      51.414  26.084  17.929  1.00  0.00    +0.000 F 
ENDBRANCH   23   24
BRANCH   40   41
ATOM     41  C30 UNL A   1      59.139  20.064  17.175  1.00  0.00    +0.000 C 
ATOM     42  C31 UNL A   1      59.980  21.142  17.486  1.00  0.00    +0.000 C 
ATOM     43  F6  UNL A   1      59.831  22.318  16.857  1.00  0.00    +0.000 F 
ATOM     44  C32 UNL A   1      60.997  21.004  18.426  1.00  0.00    +0.000 C 
ATOM     45  F7  UNL A   1      61.811  22.037  18.686  1.00  0.00    +0.000 F 
ATOM     46  C33 UNL A   1      61.175  19.800  19.091  1.00  0.00    +0.000 C 
ATOM     47  F8  UNL A   1      62.147  19.673  20.004  1.00  0.00    +0.000 F 
ATOM     48  C34 UNL A   1      60.348  18.724  18.804  1.00  0.00    +0.000 C 
ATOM     49  F9  UNL A   1      60.511  17.562  19.453  1.00  0.00    +0.000 F 
ATOM     50  C35 UNL A   1      59.345  18.850  17.848  1.00  0.00    +0.000 C 
ATOM     51  F10 UNL A   1      58.563  17.792  17.588  1.00  0.00    +0.000 F 
ENDBRANCH   40   41
BRANCH   55   56
ATOM     65  C44 UNL A   1      58.517  16.803  10.401  1.00  0.00    +0.000 C 
ATOM     66  F15 UNL A   1      57.811  15.999  11.208  1.00  0.00    +0.000 F 
ATOM     56  C39 UNL A   1      58.379  18.194  10.500  1.00  0.00    +0.000 C 
ATOM     57  C40 UNL A   1      59.144  18.992   9.638  1.00  0.00    +0.000 C 
ATOM     58  F11 UNL A   1      59.032  20.327   9.686  1.00  0.00    +0.000 F 
ATOM     59  C41 UNL A   1      60.005  18.420   8.704  1.00  0.00    +0.000 C 
ATOM     60  F12 UNL A   1      60.702  19.204   7.871  1.00  0.00    +0.000 F 
ATOM     61  C42 UNL A   1      60.135  17.041   8.631  1.00  0.00    +0.000 C 
ATOM     62  F13 UNL A   1      60.970  16.491   7.740  1.00  0.00    +0.000 F 
ATOM     63  C43 UNL A   1      59.395  16.232   9.481  1.00  0.00    +0.000 C 
ATOM     64  F14 UNL A   1      59.528  14.900   9.422  1.00  0.00    +0.000 F 
ENDBRANCH   55   56
TORSDOF 19
ENDMDL
MODEL 3
REMARK VINA RESULT:     -10.4      0.907      2.070
ROOT
ATOM     19  C15 UNL A   1      38.144  29.594  30.014  1.00  0.00    +0.000 C 
ATOM     20  C16 UNL A   1      38.407  30.146  31.386  1.00  0.00    +0.000 C 
ATOM     21  N3  UNL A   1      39.474  30.035  32.135  1.00  0.00    +0.000 N 
ATOM     22  C17 UNL A   1      39.217  30.792  33.270  1.00  0.00    +0.000 C 
ATOM     23  C18 UNL A   1      39.994  30.961  34.366  1.00  0.00    +0.000 C 
ATOM     35  C25 UNL A   1      41.274  30.334  34.553  1.00  0.00    +0.000 C 
ATOM     36  C26 UNL A   1      42.112  30.392  35.653  1.00  0.00    +0.000 C 
ATOM     37  C27 UNL A   1      43.260  29.645  35.367  1.00  0.00    +0.000 C 
ATOM     38  C28 UNL A   1      43.118  29.088  34.106  1.00  0.00    +0.000 C 
ATOM     39  N4  UNL A   1      41.899  29.525  33.615  1.00  0.00    +0.000 N 
ATOM     40  C29 UNL A   1      44.028  28.222  33.401  1.00  0.00    +0.000 C 
ATOM     52  C36 UNL A   1      43.824  27.722  32.158  1.00  0.00    +0.000 C 
ATOM     53  N5  UNL A   1      42.736  27.902  31.314  1.00  0.00    +0.000 N 
ATOM     54  C37 UNL A   1      43.006  27.218  30.229  1.00  0.00    +0.000 C 
ATOM     55  C38 UNL A   1      42.168  27.035  28.992  1.00  0.00    +0.000 C 
ATOM     67  C45 UNL A   1      40.937  27.577  28.942  1.00  0.00    +0.000 C 
ATOM     68  C46 UNL A   1      40.017  27.491  27.812  1.00  0.00    +0.000 C 
ATOM     69  C47 UNL A   1      38.920  28.217  28.083  1.00  0.00    +0.000 C 
ATOM     70  C48 UNL A   1      39.045  28.787  29.424  1.00  0.00    +0.000 C 
ATOM     71  N6  UNL A   1      40.258  28.327  29.871  1.00  0.00    +0.000 N 
ATOM     72  C49 UNL A   1      44.315  26.551  30.248  1.00  0.00    +0.000 C 
ATOM     73  C50 UNL A   1      44.758  26.864  31.459  1.00  0.00    +0.000 C 
ATOM     74  C51 UNL A   1      37.909  31.388  33.094  1.00  0.00    +0.000 C 
ATOM     75  C52 UNL A   1      37.336  30.962  31.979  1.00  0.00    +0.000 C 
ATOM    111  H21 UNL A   1      41.923  30.898  36.532  1.00  0.00    +0.000 H 
ATOM    112  H22 UNL A   1      44.075  29.529  35.989  1.00  0.00    +0.000 H 
ATOM    113  H23 UNL A   1      41.530  29.296  32.731  1.00  0.00    +0.000 H 
ATOM    114  H24 UNL A   1      40.184  26.959  26.943  1.00  0.00    +0.000 H 
ATOM    115  H25 UNL A   1      38.117  28.350  27.447  1.00  0.00    +0.000 H 
ATOM    116  H26 UNL A   1      40.609  28.518  30.772  1.00  0.00    +0.000 H 
ATOM    117  H27 UNL A   1      44.770  25.986  29.514  1.00  0.00    +0.000 H 
ATOM    118  H28 UNL A   1      45.654  26.537  31.853  1.00  0.00    +0.000 H 
ATOM    119  H29 UNL A   1      37.481  32.059  33.751  1.00  0.00    +0.000 H 
ATOM    120  H30 UNL A   1      36.387  31.152  31.620  1.00  0.00    +0.000 H 
ENDROOT
BRANCH   19   18
ATOM     76  C53 UNL A   1      36.906  31.302  28.695  1.00  0.00    +0.000 C 
ATOM    109  H19 UNL A   1      33.864  29.003  28.348  1.00  0.00    +0.000 H 
ATOM     77  C54 UNL A   1      35.770  31.750  28.031  1.00  0.00    +0.000 C 
ATOM     15  C11 UNL A   1      34.683  30.888  27.856  1.00  0.00    +0.000 C 
ATOM     16  C12 UNL A   1      34.685  29.621  28.445  1.00  0.00    +0.000 C 
ATOM     17  C13 UNL A   1      35.803  29.194  29.166  1.00  0.00    +0.000 C 
ATOM    110  H20 UNL A   1      35.799  28.269  29.621  1.00  0.00    +0.000 H 
ATOM     18  C14 UNL A   1      36.932  30.023  29.274  1.00  0.00    +0.000 C 
ATOM    121  H31 UNL A   1      37.735  31.912  28.764  1.00  0.00    +0.000 H 
ATOM    122  H32 UNL A   1      35.728  32.716  27.668  1.00  0.00    +0.000 H 
BRANCH   15   13
ATOM     13  C10 UNL A   1      33.518  31.303  27.047  1.00  0.00    +0.000 C 
ATOM     14  O2  UNL A   1      32.943  32.358  27.298  1.00  0.00    +0.000 O 
BRANCH   13   12
ATOM    108  H18 UNL A   1      33.593  30.538  25.193  1.00  0.00    +0.000 H 
ATOM     12  N2  UNL A   1      33.077  30.492  26.030  1.00  0.00    +0.000 N 
BRANCH   12   11
ATOM    106  H16 UNL A   1      31.284  29.844  26.821  1.00  0.00    +0.000 H 
ATOM     11  C9  UNL A   1      31.949  29.574  26.027  1.00  0.00    +0.000 C 
ATOM    107  H17 UNL A   1      31.470  29.649  25.073  1.00  0.00    +0.000 H 
BRANCH   11   10
ATOM    105  H15 UNL A   1      31.566  27.520  25.883  1.00  0.00    +0.000 H 
ATOM     10  C8  UNL A   1      32.381  28.125  26.219  1.00  0.00    +0.000 C 
ATOM    104  H14 UNL A   1      32.614  27.982  27.254  1.00  0.00    +0.000 H 
BRANCH   10    9
ATOM      9  C7  UNL A   1      33.600  27.706  25.396  1.00  0.00    +0.000 C 
ATOM    102  H12 UNL A   1      33.496  28.120  24.415  1.00  0.00    +0.000 H 
ATOM    103  H13 UNL A   1      34.456  28.071  25.923  1.00  0.00    +0.000 H 
BRANCH    9    8
ATOM    100  H10 UNL A   1      33.540  25.920  24.252  1.00  0.00    +0.000 H 
ATOM    101  H11 UNL A   1      34.820  26.005  25.501  1.00  0.00    +0.000 H 
ATOM      8  C6  UNL A   1      33.797  26.195  25.255  1.00  0.00    +0.000 C 
BRANCH    8    7
ATOM     98  H8  UNL A   1      32.916  25.826  27.156  1.00  0.00    +0.000 H 
ATOM     99  H9  UNL A   1      32.002  25.212  25.750  1.00  0.00    +0.000 H 
ATOM      7  C5  UNL A   1      32.963  25.330  26.209  1.00  0.00    +0.000 C 
BRANCH    7    6
ATOM     97  H7  UNL A   1      33.185  23.569  27.393  1.00  0.00    +0.000 H 
ATOM      6  C4  UNL A   1      33.512  23.916  26.435  1.00  0.00    +0.000 C 
ATOM     96  H6  UNL A   1      34.581  23.945  26.397  1.00  0.00    +0.000 H 
BRANCH    6    5
ATOM      5  N1  UNL A   1      33.024  23.004  25.419  1.00  0.00    +0.000 N 
ATOM     95  H5  UNL A   1      33.706  22.488  24.932  1.00  0.00    +0.000 H 
BRANCH    5    3
ATOM      3  C3  UNL A   1      31.723  22.779  25.059  1.00  0.00    +0.000 C 
ATOM      4  O1  UNL A   1      30.983  22.296  25.918  1.00  0.00    +0.000 O 
BRANCH    3    2
ATOM      2  C2  UNL A   1      31.267  23.092  23.619  1.00  0.00    +0.000 C 
ATOM     94  H4  UNL A   1      30.300  22.661  23.470  1.00  0.00    +0.000 H 
BRANCH    2    1
ATOM      1  C1  UNL A   1      32.266  22.459  22.641  1.00  0.00    +0.000 C 
ATOM     91  H1  UNL A   1      32.744  21.624  23.110  1.00  0.00    +0.000 H 
ATOM     92  H2  UNL A   1      33.004  23.182  22.366  1.00  0.00    +0.000 H 
ATOM     93  H3  UNL A   1      31.748  22.127  21.766  1.00  0.00    +0.000 H 
ENDBRANCH    2    1
BRANCH    2   78
ATOM    129  H39 UNL A   1      29.531  24.851  24.797  1.00  0.00    +0.000 H 
ATOM     78  C55 UNL A   1      31.048  24.591  23.353  1.00  0.00    +0.000 C 
ATOM     79  C56 UNL A   1      31.736  25.264  22.329  1.00  0.00    +0.000 C 
ATOM     80  C57 UNL A   1      31.570  26.639  22.123  1.00  0.00    +0.000 C 
ATOM     81  C58 UNL A   1      30.694  27.379  22.923  1.00  0.00    +0.000 C 
ATOM     89  C64 UNL A   1      29.941  26.708  23.890  1.00  0.00    +0.000 C 
ATOM     90  C65 UNL A   1      30.109  25.332  24.091  1.00  0.00    +0.000 C 
ATOM    123  H33 UNL A   1      32.376  24.735  21.716  1.00  0.00    +0.000 H 
ATOM    124  H34 UNL A   1      32.100  27.110  21.374  1.00  0.00    +0.000 H 
ATOM    128  H38 UNL A   1      29.257  27.230  24.460  1.00  0.00    +0.000 H 
BRANCH   81   82
ATOM     82  C59 UNL A   1      30.568  28.851  22.670  1.00  0.00    +0.000 C 
ATOM     83  O3  UNL A   1      31.544  29.442  22.209  1.00  0.00    +0.000 O 
BRANCH   82   84
ATOM     84  C60 UNL A   1      29.313  29.519  22.962  1.00  0.00    +0.000 C 
ATOM     85  C61 UNL A   1      28.015  29.081  22.778  1.00  0.00    +0.000 C 
ATOM     86  C62 UNL A   1      27.056  30.061  23.171  1.00  0.00    +0.000 C 
ATOM     87  C63 UNL A   1      27.655  31.203  23.655  1.00  0.00    +0.000 C 
ATOM     88  S1  UNL A   1      29.360  31.083  23.658  1.00  0.00    +0.000 S 
ATOM    125  H35 UNL A   1      27.768  28.153  22.401  1.00  0.00    +0.000 H 
ATOM    126  H36 UNL A   1      26.035  29.930  23.101  1.00  0.00    +0.000 H 
ATOM    127  H37 UNL A   1      27.135  32.034  23.977  1.00  0.00    +0.000 H 
ENDBRANCH   82   84
ENDBRANCH   81   82
ENDBRANCH    2   78
ENDBRANCH    3    2
ENDBRANCH    5    3
ENDBRANCH    6    5
ENDBRANCH    7    6
ENDBRANCH    8    7
ENDBRANCH    9    8
ENDBRANCH   10    9
ENDBRANCH   11   10
ENDBRANCH   12   11
ENDBRANCH   13   12
ENDBRANCH   15   13
ENDBRANCH   19   18
BRANCH   23   24
ATOM     33  C24 UNL A   1      39.905  33.201  35.516  1.00  0.00    +0.000 C 
ATOM     34  F5  UNL A   1      40.781  33.681  34.619  1.00  0.00    +0.000 F 
ATOM     24  C19 UNL A   1      39.476  31.869  35.443  1.00  0.00    +0.000 C 
ATOM     25  C20 UNL A   1      38.563  31.419  36.410  1.00  0.00    +0.000 C 
ATOM     26  F1  UNL A   1      38.112  30.156  36.376  1.00  0.00    +0.000 F 
ATOM     27  C21 UNL A   1      38.072  32.281  37.387  1.00  0.00    +0.000 C 
ATOM     28  F2  UNL A   1      37.158  31.844  38.264  1.00  0.00    +0.000 F 
ATOM     29  C22 UNL A   1      38.511  33.595  37.440  1.00  0.00    +0.000 C 
ATOM     30  F3  UNL A   1      38.037  34.424  38.381  1.00  0.00    +0.000 F 
ATOM     31  C23 UNL A   1      39.435  34.053  36.513  1.00  0.00    +0.000 C 
ATOM     32  F4  UNL A   1      39.868  35.320  36.569  1.00  0.00    +0.000 F 
ENDBRANCH   23   24
BRANCH   40   41
ATOM     41  C30 UNL A   1      45.287  27.819  34.108  1.00  0.00    +0.000 C 
ATOM     42  C31 UNL A   1      46.457  28.587  34.023  1.00  0.00    +0.000 C 
ATOM     43  F6  UNL A   1      46.493  29.675  33.238  1.00  0.00    +0.000 F 
ATOM     44  C32 UNL A   1      47.603  28.222  34.723  1.00  0.00    +0.000 C 
ATOM     45  F7  UNL A   1      48.721  28.951  34.602  1.00  0.00    +0.000 F 
ATOM     46  C33 UNL A   1      47.593  27.101  35.540  1.00  0.00    +0.000 C 
ATOM     47  F8  UNL A   1      48.694  26.758  36.222  1.00  0.00    +0.000 F 
ATOM     48  C34 UNL A   1      46.444  26.332  35.646  1.00  0.00    +0.000 C 
ATOM     49  F9  UNL A   1      46.430  25.255  36.444  1.00  0.00    +0.000 F 
ATOM     50  C35 UNL A   1      45.303  26.681  34.929  1.00  0.00    +0.000 C 
ATOM     51  F10 UNL A   1      44.208  25.917  35.047  1.00  0.00    +0.000 F 
ENDBRANCH   40   41
BRANCH   55   56
ATOM     65  C44 UNL A   1      43.463  26.812  26.844  1.00  0.00    +0.000 C 
ATOM     66  F15 UNL A   1      43.808  28.106  26.921  1.00  0.00    +0.000 F 
ATOM     56  C39 UNL A   1      42.666  26.237  27.843  1.00  0.00    +0.000 C 
ATOM     57  C40 UNL A   1      42.328  24.883  27.713  1.00  0.00    +0.000 C 
ATOM     58  F11 UNL A   1      41.583  24.287  28.654  1.00  0.00    +0.000 F 
ATOM     59  C41 UNL A   1      42.780  24.130  26.632  1.00  0.00    +0.000 C 
ATOM     60  F12 UNL A   1      42.468  22.830  26.546  1.00  0.00    +0.000 F 
ATOM     61  C42 UNL A   1      43.557  24.722  25.648  1.00  0.00    +0.000 C 
ATOM     62  F13 UNL A   1      43.984  24.001  24.603  1.00  0.00    +0.000 F 
ATOM     63  C43 UNL A   1      43.897  26.064  25.751  1.00  0.00    +0.000 C 
ATOM     64  F14 UNL A   1      44.636  26.643  24.796  1.00  0.00    +0.000 F 
ENDBRANCH   55   56
TORSDOF 19
ENDMDL
MODEL 4
REMARK VINA RESULT:     -10.2     20.061     25.006
ROOT
ATOM     19  C15 UNL A   1      53.063  20.243  11.669  1.00  0.00    +0.000 C 
ATOM     20  C16 UNL A   1      52.846  20.781  13.055  1.00  0.00    +0.000 C 
ATOM     21  N3  UNL A   1      53.690  20.874  14.050  1.00  0.00    +0.000 N 
ATOM     22  C17 UNL A   1      52.996  21.508  15.073  1.00  0.00    +0.000 C 
ATOM     23  C18 UNL A   1      53.418  21.796  16.326  1.00  0.00    +0.000 C 
ATOM     35  C25 UNL A   1      54.718  21.457  16.840  1.00  0.00    +0.000 C 
ATOM     36  C26 UNL A   1      55.221  21.650  18.115  1.00  0.00    +0.000 C 
ATOM     37  C27 UNL A   1      56.540  21.186  18.139  1.00  0.00    +0.000 C 
ATOM     38  C28 UNL A   1      56.845  20.665  16.891  1.00  0.00    +0.000 C 
ATOM     39  N4  UNL A   1      55.721  20.845  16.102  1.00  0.00    +0.000 N 
ATOM     40  C29 UNL A   1      58.070  20.049  16.451  1.00  0.00    +0.000 C 
ATOM     52  C36 UNL A   1      58.299  19.570  15.203  1.00  0.00    +0.000 C 
ATOM     53  N5  UNL A   1      57.444  19.543  14.110  1.00  0.00    +0.000 N 
ATOM     54  C37 UNL A   1      58.120  18.982  13.138  1.00  0.00    +0.000 C 
ATOM     55  C38 UNL A   1      57.680  18.672  11.733  1.00  0.00    +0.000 C 
ATOM     67  C45 UNL A   1      56.411  18.933  11.366  1.00  0.00    +0.000 C 
ATOM     68  C46 UNL A   1      55.844  18.696  10.041  1.00  0.00    +0.000 C 
ATOM     69  C47 UNL A   1      54.581  19.152  10.017  1.00  0.00    +0.000 C 
ATOM     70  C48 UNL A   1      54.238  19.678  11.338  1.00  0.00    +0.000 C 
ATOM     71  N6  UNL A   1      55.373  19.477  12.083  1.00  0.00    +0.000 N 
ATOM     72  C49 UNL A   1      59.498  18.617  13.496  1.00  0.00    +0.000 C 
ATOM     73  C50 UNL A   1      59.544  18.968  14.775  1.00  0.00    +0.000 C 
ATOM     74  C51 UNL A   1      51.675  21.810  14.564  1.00  0.00    +0.000 C 
ATOM     75  C52 UNL A   1      51.508  21.316  13.347  1.00  0.00    +0.000 C 
ATOM    111  H21 UNL A   1      54.712  22.065  18.910  1.00  0.00    +0.000 H 
ATOM    112  H22 UNL A   1      57.180  21.225  18.948  1.00  0.00    +0.000 H 
ATOM    113  H23 UNL A   1      55.644  20.578  15.157  1.00  0.00    +0.000 H 
ATOM    114  H24 UNL A   1      56.336  18.251   9.251  1.00  0.00    +0.000 H 
ATOM    115  H25 UNL A   1      53.953  19.133   9.198  1.00  0.00    +0.000 H 
ATOM    116  H26 UNL A   1      55.437  19.701  13.040  1.00  0.00    +0.000 H 
ATOM    117  H27 UNL A   1      60.235  18.197  12.909  1.00  0.00    +0.000 H 
ATOM    118  H28 UNL A   1      60.364  18.829  15.387  1.00  0.00    +0.000 H 
ATOM    119  H29 UNL A   1      50.958  22.342  15.082  1.00  0.00    +0.000 H 
ATOM    120  H30 UNL A   1      50.660  21.309  12.758  1.00  0.00    +0.000 H 
ENDROOT
BRANCH   19   18
ATOM     76  C53 UNL A   1      51.139  19.360  10.362  1.00  0.00    +0.000 C 
ATOM    109  H19 UNL A   1      50.757  22.664   8.465  1.00  0.00    +0.000 H 
ATOM     77  C54 UNL A   1      50.167  19.486   9.375  1.00  0.00    +0.000 C 
ATOM     15  C11 UNL A   1      49.993  20.711   8.725  1.00  0.00    +0.000 C 
ATOM     16  C12 UNL A   1      50.864  21.774   8.977  1.00  0.00    +0.000 C 
ATOM     17  C13 UNL A   1      51.881  21.627   9.924  1.00  0.00    +0.000 C 
ATOM    110  H20 UNL A   1      52.539  22.402  10.096  1.00  0.00    +0.000 H 
ATOM     18  C14 UNL A   1      52.008  20.427  10.641  1.00  0.00    +0.000 C 
ATOM    121  H31 UNL A   1      51.223  18.479  10.891  1.00  0.00    +0.000 H 
ATOM    122  H32 UNL A   1      49.576  18.677   9.124  1.00  0.00    +0.000 H 
BRANCH   15   13
ATOM     13  C10 UNL A   1      48.886  20.901   7.765  1.00  0.00    +0.000 C 
ATOM     14  O2  UNL A   1      48.261  21.957   7.752  1.00  0.00    +0.000 O 
BRANCH   13   12
ATOM    108  H18 UNL A   1      47.890  19.237   7.246  1.00  0.00    +0.000 H 
ATOM     12  N2  UNL A   1      48.553  19.881   6.907  1.00  0.00    +0.000 N 
BRANCH   12   11
ATOM    106  H16 UNL A   1      49.290  20.565   5.104  1.00  0.00    +0.000 H 
ATOM     11  C9  UNL A   1      49.049  19.628   5.564  1.00  0.00    +0.000 C 
ATOM    107  H17 UNL A   1      49.911  19.000   5.647  1.00  0.00    +0.000 H 
BRANCH   11   10
ATOM    105  H15 UNL A   1      48.392  17.907   4.567  1.00  0.00    +0.000 H 
ATOM     10  C8  UNL A   1      48.027  18.904   4.696  1.00  0.00    +0.000 C 
ATOM    104  H14 UNL A   1      47.933  19.440   3.774  1.00  0.00    +0.000 H 
BRANCH   10    9
ATOM      9  C7  UNL A   1      46.634  18.778   5.316  1.00  0.00    +0.000 C 
ATOM    102  H12 UNL A   1      46.667  19.210   6.294  1.00  0.00    +0.000 H 
ATOM    103  H13 UNL A   1      45.965  19.281   4.651  1.00  0.00    +0.000 H 
BRANCH    9    8
ATOM    100  H10 UNL A   1      46.923  16.677   5.243  1.00  0.00    +0.000 H 
ATOM    101  H11 UNL A   1      45.727  17.261   6.442  1.00  0.00    +0.000 H 
ATOM      8  C6  UNL A   1      46.111  17.346   5.447  1.00  0.00    +0.000 C 
BRANCH    8    7
ATOM     98  H8  UNL A   1      44.861  15.914   4.492  1.00  0.00    +0.000 H 
ATOM     99  H9  UNL A   1      44.082  17.468   4.902  1.00  0.00    +0.000 H 
ATOM      7  C5  UNL A   1      44.951  16.980   4.511  1.00  0.00    +0.000 C 
BRANCH    7    6
ATOM     97  H7  UNL A   1      45.320  16.633   2.439  1.00  0.00    +0.000 H 
ATOM      6  C4  UNL A   1      45.114  17.474   3.068  1.00  0.00    +0.000 C 
ATOM     96  H6  UNL A   1      45.921  18.176   3.027  1.00  0.00    +0.000 H 
BRANCH    6    5
ATOM      5  N1  UNL A   1      43.900  18.117   2.603  1.00  0.00    +0.000 N 
ATOM     95  H5  UNL A   1      43.400  17.646   1.898  1.00  0.00    +0.000 H 
BRANCH    5    3
ATOM      3  C3  UNL A   1      43.370  19.303   3.033  1.00  0.00    +0.000 C 
ATOM      4  O1  UNL A   1      44.157  20.236   3.205  1.00  0.00    +0.000 O 
BRANCH    3    2
ATOM      2  C2  UNL A   1      41.857  19.401   3.315  1.00  0.00    +0.000 C 
ATOM     94  H4  UNL A   1      41.700  20.157   4.056  1.00  0.00    +0.000 H 
BRANCH    2    1
ATOM      1  C1  UNL A   1      41.371  18.049   3.854  1.00  0.00    +0.000 C 
ATOM     91  H1  UNL A   1      42.197  17.371   3.915  1.00  0.00    +0.000 H 
ATOM     92  H2  UNL A   1      40.629  17.648   3.196  1.00  0.00    +0.000 H 
ATOM     93  H3  UNL A   1      40.949  18.184   4.828  1.00  0.00    +0.000 H 
ENDBRANCH    2    1
BRANCH    2   78
ATOM    129  H39 UNL A   1      39.241  18.922   2.664  1.00  0.00    +0.000 H 
ATOM     78  C55 UNL A   1      41.034  19.888   2.110  1.00  0.00    +0.000 C 
ATOM     79  C56 UNL A   1      41.616  20.649   1.082  1.00  0.00    +0.000 C 
ATOM     80  C57 UNL A   1      40.852  21.132   0.014  1.00  0.00    +0.000 C 
ATOM     81  C58 UNL A   1      39.485  20.852  -0.070  1.00  0.00    +0.000 C 
ATOM     89  C64 UNL A   1      38.910  20.027   0.901  1.00  0.00    +0.000 C 
ATOM     90  C65 UNL A   1      39.679  19.544   1.967  1.00  0.00    +0.000 C 
ATOM    123  H33 UNL A   1      42.626  20.856   1.115  1.00  0.00    +0.000 H 
ATOM    124  H34 UNL A   1      41.303  21.701  -0.720  1.00  0.00    +0.000 H 
ATOM    128  H38 UNL A   1      37.912  19.773   0.831  1.00  0.00    +0.000 H 
BRANCH   81   82
ATOM     82  C59 UNL A   1      38.712  21.409  -1.227  1.00  0.00    +0.000 C 
ATOM     83  O3  UNL A   1      39.246  21.399  -2.335  1.00  0.00    +0.000 O 
BRANCH   82   84
ATOM     84  C60 UNL A   1      37.373  21.925  -1.007  1.00  0.00    +0.000 C 
ATOM     85  C61 UNL A   1      36.222  21.262  -0.620  1.00  0.00    +0.000 C 
ATOM     86  C62 UNL A   1      35.098  22.136  -0.545  1.00  0.00    +0.000 C 
ATOM     87  C63 UNL A   1      35.432  23.435  -0.860  1.00  0.00    +0.000 C 
ATOM     88  S1  UNL A   1      37.095  23.601  -1.219  1.00  0.00    +0.000 S 
ATOM    125  H35 UNL A   1      36.183  20.253  -0.410  1.00  0.00    +0.000 H 
ATOM    126  H36 UNL A   1      34.147  21.832  -0.285  1.00  0.00    +0.000 H 
ATOM    127  H37 UNL A   1      34.758  24.215  -0.877  1.00  0.00    +0.000 H 
ENDBRANCH   82   84
ENDBRANCH   81   82
ENDBRANCH    2   78
ENDBRANCH    3    2
ENDBRANCH    5    3
ENDBRANCH    6    5
ENDBRANCH    7    6
ENDBRANCH    8    7
ENDBRANCH    9    8
ENDBRANCH   10    9
ENDBRANCH   11   10
ENDBRANCH   12   11
ENDBRANCH   13   12
ENDBRANCH   15   13
ENDBRANCH   19   18
BRANCH   23   24
ATOM     33  C24 UNL A   1      52.341  23.917  17.157  1.00  0.00    +0.000 C 
ATOM     34  F5  UNL A   1      53.079  24.618  16.283  1.00  0.00    +0.000 F 
ATOM     24  C19 UNL A   1      52.460  22.522  17.225  1.00  0.00    +0.000 C 
ATOM     25  C20 UNL A   1      51.667  21.840  18.161  1.00  0.00    +0.000 C 
ATOM     26  F1  UNL A   1      51.734  20.503  18.256  1.00  0.00    +0.000 F 
ATOM     27  C21 UNL A   1      50.763  22.525  18.969  1.00  0.00    +0.000 C 
ATOM     28  F2  UNL A   1      49.975  21.847  19.814  1.00  0.00    +0.000 F 
ATOM     29  C22 UNL A   1      50.663  23.905  18.885  1.00  0.00    +0.000 C 
ATOM     30  F3  UNL A   1      49.792  24.564  19.662  1.00  0.00    +0.000 F 
ATOM     31  C23 UNL A   1      51.458  24.603  17.987  1.00  0.00    +0.000 C 
ATOM     32  F4  UNL A   1      51.368  25.938  17.912  1.00  0.00    +0.000 F 
ENDBRANCH   23   24
BRANCH   40   41
ATOM     41  C30 UNL A   1      59.171  19.902  17.458  1.00  0.00    +0.000 C 
ATOM     42  C31 UNL A   1      59.516  18.653  17.993  1.00  0.00    +0.000 C 
ATOM     43  F6  UNL A   1      58.811  17.559  17.663  1.00  0.00    +0.000 F 
ATOM     44  C32 UNL A   1      60.571  18.529  18.893  1.00  0.00    +0.000 C 
ATOM     45  F7  UNL A   1      60.864  17.332  19.418  1.00  0.00    +0.000 F 
ATOM     46  C33 UNL A   1      61.315  19.643  19.252  1.00  0.00    +0.000 C 
ATOM     47  F8  UNL A   1      62.338  19.520  20.110  1.00  0.00    +0.000 F 
ATOM     48  C34 UNL A   1      60.997  20.887  18.727  1.00  0.00    +0.000 C 
ATOM     49  F9  UNL A   1      61.722  21.962  19.064  1.00  0.00    +0.000 F 
ATOM     50  C35 UNL A   1      59.928  21.019  17.846  1.00  0.00    +0.000 C 
ATOM     51  F10 UNL A   1      59.639  22.233  17.357  1.00  0.00    +0.000 F 
ENDBRANCH   40   41
BRANCH   55   56
ATOM     65  C44 UNL A   1      59.396  18.832   9.898  1.00  0.00    +0.000 C 
ATOM     66  F15 UNL A   1      59.327  20.171   9.954  1.00  0.00    +0.000 F 
ATOM     56  C39 UNL A   1      58.613  18.052  10.758  1.00  0.00    +0.000 C 
ATOM     57  C40 UNL A   1      58.716  16.658  10.656  1.00  0.00    +0.000 C 
ATOM     58  F11 UNL A   1      57.999  15.872  11.471  1.00  0.00    +0.000 F 
ATOM     59  C41 UNL A   1      59.579  16.067   9.735  1.00  0.00    +0.000 C 
ATOM     60  F12 UNL A   1      59.683  14.733   9.678  1.00  0.00    +0.000 F 
ATOM     61  C42 UNL A   1      60.336  16.859   8.884  1.00  0.00    +0.000 C 
ATOM     62  F13 UNL A   1      61.159  16.291   7.992  1.00  0.00    +0.000 F 
ATOM     63  C43 UNL A   1      60.243  18.241   8.962  1.00  0.00    +0.000 C 
ATOM     64  F14 UNL A   1      60.962  19.008   8.132  1.00  0.00    +0.000 F 
ENDBRANCH   55   56
TORSDOF 19
ENDMDL
MODEL 5
REMARK VINA RESULT:     -10.2     20.051     24.996
ROOT
ATOM     19  C15 UNL A   1      53.018  20.320  11.686  1.00  0.00    +0.000 C 
ATOM     20  C16 UNL A   1      52.815  20.886  13.063  1.00  0.00    +0.000 C 
ATOM     21  N3  UNL A   1      53.668  21.001  14.048  1.00  0.00    +0.000 N 
ATOM     22  C17 UNL A   1      52.983  21.654  15.064  1.00  0.00    +0.000 C 
ATOM     23  C18 UNL A   1      53.417  21.969  16.307  1.00  0.00    +0.000 C 
ATOM     35  C25 UNL A   1      54.723  21.641  16.814  1.00  0.00    +0.000 C 
ATOM     36  C26 UNL A   1      55.238  21.861  18.080  1.00  0.00    +0.000 C 
ATOM     37  C27 UNL A   1      56.558  21.399  18.101  1.00  0.00    +0.000 C 
ATOM     38  C28 UNL A   1      56.851  20.853  16.861  1.00  0.00    +0.000 C 
ATOM     39  N4  UNL A   1      55.719  21.015  16.080  1.00  0.00    +0.000 N 
ATOM     40  C29 UNL A   1      58.073  20.229  16.422  1.00  0.00    +0.000 C 
ATOM     52  C36 UNL A   1      58.290  19.725  15.182  1.00  0.00    +0.000 C 
ATOM     53  N5  UNL A   1      57.424  19.675  14.098  1.00  0.00    +0.000 N 
ATOM     54  C37 UNL A   1      58.091  19.094  13.131  1.00  0.00    +0.000 C 
ATOM     55  C38 UNL A   1      57.638  18.755  11.737  1.00  0.00    +0.000 C 
ATOM     67  C45 UNL A   1      56.365  19.007  11.377  1.00  0.00    +0.000 C 
ATOM     68  C46 UNL A   1      55.786  18.743  10.063  1.00  0.00    +0.000 C 
ATOM     69  C47 UNL A   1      54.522  19.196  10.042  1.00  0.00    +0.000 C 
ATOM     70  C48 UNL A   1      54.191  19.750  11.355  1.00  0.00    +0.000 C 
ATOM     71  N6  UNL A   1      55.333  19.565  12.093  1.00  0.00    +0.000 N 
ATOM     72  C49 UNL A   1      59.473  18.738  13.483  1.00  0.00    +0.000 C 
ATOM     73  C50 UNL A   1      59.532  19.115  14.755  1.00  0.00    +0.000 C 
ATOM     74  C51 UNL A   1      51.657  21.945  14.562  1.00  0.00    +0.000 C 
ATOM     75  C52 UNL A   1      51.478  21.426  13.357  1.00  0.00    +0.000 C 
ATOM    111  H21 UNL A   1      54.736  22.292  18.872  1.00  0.00    +0.000 H 
ATOM    112  H22 UNL A   1      57.205  21.455  18.902  1.00  0.00    +0.000 H 
ATOM    113  H23 UNL A   1      55.633  20.729  15.141  1.00  0.00    +0.000 H 
ATOM    114  H24 UNL A   1      56.270  18.282   9.278  1.00  0.00    +0.000 H 
ATOM    115  H25 UNL A   1      53.886  19.160   9.229  1.00  0.00    +0.000 H 
ATOM    116  H26 UNL A   1      55.406  19.809  13.044  1.00  0.00    +0.000 H 
ATOM    117  H27 UNL A   1      60.205  18.307  12.898  1.00  0.00    +0.000 H 
ATOM    118  H28 UNL A   1      60.357  18.989  15.361  1.00  0.00    +0.000 H 
ATOM    119  H29 UNL A   1      50.945  22.486  15.076  1.00  0.00    +0.000 H 
ATOM    120  H30 UNL A   1      50.625  21.405  12.776  1.00  0.00    +0.000 H 
ENDROOT
BRANCH   19   18
ATOM     76  C53 UNL A   1      51.079  19.410  10.421  1.00  0.00    +0.000 C 
ATOM    109  H19 UNL A   1      50.686  22.669   8.448  1.00  0.00    +0.000 H 
ATOM     77  C54 UNL A   1      50.097  19.515   9.442  1.00  0.00    +0.000 C 
ATOM     15  C11 UNL A   1      49.919  20.725   8.764  1.00  0.00    +0.000 C 
ATOM     16  C12 UNL A   1      50.796  21.791   8.981  1.00  0.00    +0.000 C 
ATOM     17  C13 UNL A   1      51.822  21.664   9.920  1.00  0.00    +0.000 C 
ATOM    110  H20 UNL A   1      52.484  22.441  10.066  1.00  0.00    +0.000 H 
ATOM     18  C14 UNL A   1      51.954  20.481  10.665  1.00  0.00    +0.000 C 
ATOM    121  H31 UNL A   1      51.166  18.542  10.970  1.00  0.00    +0.000 H 
ATOM    122  H32 UNL A   1      49.502  18.702   9.216  1.00  0.00    +0.000 H 
BRANCH   15   13
ATOM     13  C10 UNL A   1      48.803  20.894   7.810  1.00  0.00    +0.000 C 
ATOM     14  O2  UNL A   1      48.151  21.934   7.809  1.00  0.00    +0.000 O 
BRANCH   13   12
ATOM    108  H18 UNL A   1      47.752  19.286   7.227  1.00  0.00    +0.000 H 
ATOM     12  N2  UNL A   1      48.491  19.873   6.946  1.00  0.00    +0.000 N 
BRANCH   12   11
ATOM    106  H16 UNL A   1      49.458  20.448   5.216  1.00  0.00    +0.000 H 
ATOM     11  C9  UNL A   1      49.108  19.544   5.671  1.00  0.00    +0.000 C 
ATOM    107  H17 UNL A   1      49.912  18.865   5.862  1.00  0.00    +0.000 H 
BRANCH   11   10
ATOM    105  H15 UNL A   1      48.458  17.843   4.636  1.00  0.00    +0.000 H 
ATOM     10  C8  UNL A   1      48.136  18.860   4.717  1.00  0.00    +0.000 C 
ATOM    104  H14 UNL A   1      48.160  19.384   3.784  1.00  0.00    +0.000 H 
BRANCH   10    9
ATOM      9  C7  UNL A   1      46.686  18.819   5.201  1.00  0.00    +0.000 C 
ATOM    102  H12 UNL A   1      46.653  19.232   6.187  1.00  0.00    +0.000 H 
ATOM    103  H13 UNL A   1      46.117  19.377   4.487  1.00  0.00    +0.000 H 
BRANCH    9    8
ATOM    100  H10 UNL A   1      46.793  16.719   4.915  1.00  0.00    +0.000 H 
ATOM    101  H11 UNL A   1      45.754  17.272   6.265  1.00  0.00    +0.000 H 
ATOM      8  C6  UNL A   1      46.059  17.423   5.250  1.00  0.00    +0.000 C 
BRANCH    8    7
ATOM     98  H8  UNL A   1      44.460  16.229   4.515  1.00  0.00    +0.000 H 
ATOM     99  H9  UNL A   1      44.090  17.962   4.738  1.00  0.00    +0.000 H 
ATOM      7  C5  UNL A   1      44.799  17.236   4.395  1.00  0.00    +0.000 C 
BRANCH    7    6
ATOM     97  H7  UNL A   1      45.047  16.560   2.387  1.00  0.00    +0.000 H 
ATOM      6  C4  UNL A   1      45.000  17.499   2.897  1.00  0.00    +0.000 C 
ATOM     96  H6  UNL A   1      45.909  18.045   2.755  1.00  0.00    +0.000 H 
BRANCH    6    5
ATOM      5  N1  UNL A   1      43.894  18.267   2.356  1.00  0.00    +0.000 N 
ATOM     95  H5  UNL A   1      43.522  17.952   1.501  1.00  0.00    +0.000 H 
BRANCH    5    3
ATOM      3  C3  UNL A   1      43.309  19.378   2.898  1.00  0.00    +0.000 C 
ATOM      4  O1  UNL A   1      44.058  20.306   3.211  1.00  0.00    +0.000 O 
BRANCH    3    2
ATOM      2  C2  UNL A   1      41.784  19.399   3.128  1.00  0.00    +0.000 C 
ATOM     94  H4  UNL A   1      41.568  20.112   3.896  1.00  0.00    +0.000 H 
BRANCH    2    1
ATOM      1  C1  UNL A   1      41.339  18.004   3.585  1.00  0.00    +0.000 C 
ATOM     91  H1  UNL A   1      41.189  18.006   4.644  1.00  0.00    +0.000 H 
ATOM     92  H2  UNL A   1      42.093  17.289   3.333  1.00  0.00    +0.000 H 
ATOM     93  H3  UNL A   1      40.423  17.744   3.097  1.00  0.00    +0.000 H 
ENDBRANCH    2    1
BRANCH    2   78
ATOM    129  H39 UNL A   1      39.641  18.282   1.841  1.00  0.00    +0.000 H 
ATOM     78  C55 UNL A   1      40.984  19.909   1.917  1.00  0.00    +0.000 C 
ATOM     79  C56 UNL A   1      41.349  21.082   1.236  1.00  0.00    +0.000 C 
ATOM     80  C57 UNL A   1      40.589  21.568   0.166  1.00  0.00    +0.000 C 
ATOM     81  C58 UNL A   1      39.451  20.884  -0.270  1.00  0.00    +0.000 C 
ATOM     89  C64 UNL A   1      39.123  19.672   0.343  1.00  0.00    +0.000 C 
ATOM     90  C65 UNL A   1      39.888  19.188   1.413  1.00  0.00    +0.000 C 
ATOM    123  H33 UNL A   1      42.194  21.596   1.530  1.00  0.00    +0.000 H 
ATOM    124  H34 UNL A   1      40.872  22.442  -0.306  1.00  0.00    +0.000 H 
ATOM    128  H38 UNL A   1      38.312  19.130   0.007  1.00  0.00    +0.000 H 
BRANCH   81   82
ATOM     82  C59 UNL A   1      38.665  21.459  -1.409  1.00  0.00    +0.000 C 
ATOM     83  O3  UNL A   1      39.122  21.335  -2.544  1.00  0.00    +0.000 O 
BRANCH   82   84
ATOM     84  C60 UNL A   1      37.403  22.124  -1.140  1.00  0.00    +0.000 C 
ATOM     85  C61 UNL A   1      36.995  23.408  -1.454  1.00  0.00    +0.000 C 
ATOM     86  C62 UNL A   1      35.677  23.683  -0.983  1.00  0.00    +0.000 C 
ATOM     87  C63 UNL A   1      35.120  22.598  -0.344  1.00  0.00    +0.000 C 
ATOM     88  S1  UNL A   1      36.171  21.249  -0.334  1.00  0.00    +0.000 S 
ATOM    125  H35 UNL A   1      37.577  24.086  -1.968  1.00  0.00    +0.000 H 
ATOM    126  H36 UNL A   1      35.198  24.589  -1.107  1.00  0.00    +0.000 H 
ATOM    127  H37 UNL A   1      34.179  22.599   0.080  1.00  0.00    +0.000 H 
ENDBRANCH   82   84
ENDBRANCH   81   82
ENDBRANCH    2   78
ENDBRANCH    3    2
ENDBRANCH    5    3
ENDBRANCH    6    5
ENDBRANCH    7    6
ENDBRANCH    8    7
ENDBRANCH    9    8
ENDBRANCH   10    9
ENDBRANCH   11   10
ENDBRANCH   12   11
ENDBRANCH   13   12
ENDBRANCH   15   13
ENDBRANCH   19   18
BRANCH   23   24
ATOM     33  C24 UNL A   1      51.643  22.015  18.095  1.00  0.00    +0.000 C 
ATOM     34  F5  UNL A   1      51.699  20.676  18.166  1.00  0.00    +0.000 F 
ATOM     24  C19 UNL A   1      52.467  22.711  17.200  1.00  0.00    +0.000 C 
ATOM     25  C20 UNL A   1      52.362  24.111  17.164  1.00  0.00    +0.000 C 
ATOM     26  F1  UNL A   1      53.139  24.824  16.335  1.00  0.00    +0.000 F 
ATOM     27  C21 UNL A   1      51.495  24.786  18.019  1.00  0.00    +0.000 C 
ATOM     28  F2  UNL A   1      51.455  26.126  18.007  1.00  0.00    +0.000 F 
ATOM     29  C22 UNL A   1      50.689  24.076  18.895  1.00  0.00    +0.000 C 
ATOM     30  F3  UNL A   1      49.854  24.728  19.717  1.00  0.00    +0.000 F 
ATOM     31  C23 UNL A   1      50.754  22.691  18.927  1.00  0.00    +0.000 C 
ATOM     32  F4  UNL A   1      49.968  22.004  19.767  1.00  0.00    +0.000 F 
ENDBRANCH   23   24
BRANCH   40   41
ATOM     41  C30 UNL A   1      59.183  20.104  17.421  1.00  0.00    +0.000 C 
ATOM     42  C31 UNL A   1      59.978  21.202  17.779  1.00  0.00    +0.000 C 
ATOM     43  F6  UNL A   1      59.804  22.387  17.173  1.00  0.00    +0.000 F 
ATOM     44  C32 UNL A   1      60.975  21.077  18.742  1.00  0.00    +0.000 C 
ATOM     45  F7  UNL A   1      61.746  22.131  19.047  1.00  0.00    +0.000 F 
ATOM     46  C33 UNL A   1      61.177  19.864  19.384  1.00  0.00    +0.000 C 
ATOM     47  F8  UNL A   1      62.129  19.749  20.319  1.00  0.00    +0.000 F 
ATOM     48  C34 UNL A   1      60.396  18.768  19.051  1.00  0.00    +0.000 C 
ATOM     49  F9  UNL A   1      60.582  17.597  19.677  1.00  0.00    +0.000 F 
ATOM     50  C35 UNL A   1      59.414  18.882  18.071  1.00  0.00    +0.000 C 
ATOM     51  F10 UNL A   1      58.676  17.805  17.766  1.00  0.00    +0.000 F 
ENDBRANCH   40   41
BRANCH   55   56
ATOM     65  C44 UNL A   1      58.758  16.729  10.747  1.00  0.00    +0.000 C 
ATOM     66  F15 UNL A   1      58.092  15.944  11.607  1.00  0.00    +0.000 F 
ATOM     56  C39 UNL A   1      58.562  18.116  10.766  1.00  0.00    +0.000 C 
ATOM     57  C40 UNL A   1      59.287  18.894   9.852  1.00  0.00    +0.000 C 
ATOM     58  F11 UNL A   1      59.117  20.223   9.822  1.00  0.00    +0.000 F 
ATOM     59  C41 UNL A   1      60.166  18.304   8.946  1.00  0.00    +0.000 C 
ATOM     60  F12 UNL A   1      60.824  19.066   8.062  1.00  0.00    +0.000 F 
ATOM     61  C42 UNL A   1      60.355  16.931   8.953  1.00  0.00    +0.000 C 
ATOM     62  F13 UNL A   1      61.207  16.364   8.089  1.00  0.00    +0.000 F 
ATOM     63  C43 UNL A   1      59.655  16.142   9.856  1.00  0.00    +0.000 C 
ATOM     64  F14 UNL A   1      59.845  14.816   9.875  1.00  0.00    +0.000 F 
ENDBRANCH   55   56
TORSDOF 19
ENDMDL
MODEL 6
REMARK VINA RESULT:      -9.8     26.340     35.014
ROOT
ATOM     19  C15 UNL A   1      22.229   8.779   7.757  1.00  0.00    +0.000 C 
ATOM     20  C16 UNL A   1      23.343   8.211   6.926  1.00  0.00    +0.000 C 
ATOM     21  N3  UNL A   1      23.730   6.968   6.793  1.00  0.00    +0.000 N 
ATOM     22  C17 UNL A   1      24.753   6.991   5.854  1.00  0.00    +0.000 C 
ATOM     23  C18 UNL A   1      25.509   5.962   5.405  1.00  0.00    +0.000 C 
ATOM     35  C25 UNL A   1      25.385   4.605   5.868  1.00  0.00    +0.000 C 
ATOM     36  C26 UNL A   1      26.144   3.501   5.521  1.00  0.00    +0.000 C 
ATOM     37  C27 UNL A   1      25.637   2.391   6.204  1.00  0.00    +0.000 C 
ATOM     38  C28 UNL A   1      24.589   2.811   7.008  1.00  0.00    +0.000 C 
ATOM     39  N4  UNL A   1      24.441   4.170   6.786  1.00  0.00    +0.000 N 
ATOM     40  C29 UNL A   1      23.783   2.031   7.911  1.00  0.00    +0.000 C 
ATOM     52  C36 UNL A   1      22.762   2.513   8.661  1.00  0.00    +0.000 C 
ATOM     53  N5  UNL A   1      22.282   3.813   8.747  1.00  0.00    +0.000 N 
ATOM     54  C37 UNL A   1      21.291   3.775   9.603  1.00  0.00    +0.000 C 
ATOM     55  C38 UNL A   1      20.423   4.900  10.099  1.00  0.00    +0.000 C 
ATOM     67  C45 UNL A   1      20.675   6.158   9.689  1.00  0.00    +0.000 C 
ATOM     68  C46 UNL A   1      19.917   7.344  10.076  1.00  0.00    +0.000 C 
ATOM     69  C47 UNL A   1      20.398   8.407   9.412  1.00  0.00    +0.000 C 
ATOM     70  C48 UNL A   1      21.524   7.982   8.581  1.00  0.00    +0.000 C 
ATOM     71  N6  UNL A   1      21.637   6.638   8.834  1.00  0.00    +0.000 N 
ATOM     72  C49 UNL A   1      21.007   2.435  10.135  1.00  0.00    +0.000 C 
ATOM     73  C50 UNL A   1      21.953   1.708   9.553  1.00  0.00    +0.000 C 
ATOM     74  C51 UNL A   1      24.901   8.365   5.423  1.00  0.00    +0.000 C 
ATOM     75  C52 UNL A   1      24.104   9.169   6.108  1.00  0.00    +0.000 C 
ATOM    111  H21 UNL A   1      26.946   3.497   4.871  1.00  0.00    +0.000 H 
ATOM    112  H22 UNL A   1      25.984   1.422   6.123  1.00  0.00    +0.000 H 
ATOM    113  H23 UNL A   1      23.764   4.743   7.216  1.00  0.00    +0.000 H 
ATOM    114  H24 UNL A   1      19.136   7.362  10.750  1.00  0.00    +0.000 H 
ATOM    115  H25 UNL A   1      20.032   9.371   9.477  1.00  0.00    +0.000 H 
ATOM    116  H26 UNL A   1      22.341   6.072   8.441  1.00  0.00    +0.000 H 
ATOM    117  H27 UNL A   1      20.267   2.136  10.789  1.00  0.00    +0.000 H 
ATOM    118  H28 UNL A   1      22.094   0.699   9.715  1.00  0.00    +0.000 H 
ATOM    119  H29 UNL A   1      25.543   8.676   4.677  1.00  0.00    +0.000 H 
ATOM    120  H30 UNL A   1      24.033  10.198   6.077  1.00  0.00    +0.000 H 
ENDROOT
BRANCH   19   18
ATOM     76  C53 UNL A   1      20.886  10.539   6.623  1.00  0.00    +0.000 C 
ATOM    109  H19 UNL A   1      22.467  13.292   8.764  1.00  0.00    +0.000 H 
ATOM     77  C54 UNL A   1      20.535  11.869   6.414  1.00  0.00    +0.000 C 
ATOM     15  C11 UNL A   1      21.072  12.865   7.235  1.00  0.00    +0.000 C 
ATOM     16  C12 UNL A   1      22.044  12.548   8.187  1.00  0.00    +0.000 C 
ATOM     17  C13 UNL A   1      22.442  11.220   8.355  1.00  0.00    +0.000 C 
ATOM    110  H20 UNL A   1      23.176  10.985   9.041  1.00  0.00    +0.000 H 
ATOM     18  C14 UNL A   1      21.846  10.203   7.591  1.00  0.00    +0.000 C 
ATOM    121  H31 UNL A   1      20.439   9.796   6.065  1.00  0.00    +0.000 H 
ATOM    122  H32 UNL A   1      19.882  12.119   5.655  1.00  0.00    +0.000 H 
BRANCH   15   13
ATOM     13  C10 UNL A   1      20.617  14.266   7.110  1.00  0.00    +0.000 C 
ATOM     14  O2  UNL A   1      19.450  14.507   6.818  1.00  0.00    +0.000 O 
BRANCH   13   12
ATOM    108  H18 UNL A   1      22.049  15.540   6.515  1.00  0.00    +0.000 H 
ATOM     12  N2  UNL A   1      21.514  15.288   7.302  1.00  0.00    +0.000 N 
BRANCH   12   11
ATOM    106  H16 UNL A   1      21.376  17.033   8.396  1.00  0.00    +0.000 H 
ATOM     11  C9  UNL A   1      21.778  16.047   8.514  1.00  0.00    +0.000 C 
ATOM    107  H17 UNL A   1      21.316  15.532   9.330  1.00  0.00    +0.000 H 
BRANCH   11   10
ATOM    105  H15 UNL A   1      23.506  17.200   8.782  1.00  0.00    +0.000 H 
ATOM     10  C8  UNL A   1      23.267  16.157   8.816  1.00  0.00    +0.000 C 
ATOM    104  H14 UNL A   1      23.798  15.580   8.088  1.00  0.00    +0.000 H 
BRANCH   10    9
ATOM      9  C7  UNL A   1      23.678  15.664  10.205  1.00  0.00    +0.000 C 
ATOM    102  H12 UNL A   1      23.480  14.614  10.255  1.00  0.00    +0.000 H 
ATOM    103  H13 UNL A   1      24.714  15.907  10.313  1.00  0.00    +0.000 H 
BRANCH    9    8
ATOM    100  H10 UNL A   1      23.196  17.382  11.351  1.00  0.00    +0.000 H 
ATOM    101  H11 UNL A   1      21.913  16.138  11.230  1.00  0.00    +0.000 H 
ATOM      8  C6  UNL A   1      22.954  16.339  11.372  1.00  0.00    +0.000 C 
BRANCH    8    7
ATOM     98  H8  UNL A   1      22.654  14.981  12.981  1.00  0.00    +0.000 H 
ATOM     99  H9  UNL A   1      24.338  15.517  12.728  1.00  0.00    +0.000 H 
ATOM      7  C5  UNL A   1      23.306  15.801  12.765  1.00  0.00    +0.000 C 
BRANCH    7    6
ATOM     97  H7  UNL A   1      23.451  16.357  14.819  1.00  0.00    +0.000 H 
ATOM      6  C4  UNL A   1      23.178  16.827  13.898  1.00  0.00    +0.000 C 
ATOM     96  H6  UNL A   1      22.167  17.174  13.943  1.00  0.00    +0.000 H 
BRANCH    6    5
ATOM      5  N1  UNL A   1      24.059  17.956  13.672  1.00  0.00    +0.000 N 
ATOM     95  H5  UNL A   1      25.021  17.753  13.609  1.00  0.00    +0.000 H 
BRANCH    5    3
ATOM      3  C3  UNL A   1      23.709  19.272  13.537  1.00  0.00    +0.000 C 
ATOM      4  O1  UNL A   1      22.565  19.581  13.877  1.00  0.00    +0.000 O 
BRANCH    3    2
ATOM      2  C2  UNL A   1      24.721  20.271  12.941  1.00  0.00    +0.000 C 
ATOM     94  H4  UNL A   1      25.444  20.508  13.693  1.00  0.00    +0.000 H 
BRANCH    2    1
ATOM      1  C1  UNL A   1      23.969  21.546  12.535  1.00  0.00    +0.000 C 
ATOM     91  H1  UNL A   1      24.634  22.202  12.014  1.00  0.00    +0.000 H 
ATOM     92  H2  UNL A   1      23.599  22.036  13.411  1.00  0.00    +0.000 H 
ATOM     93  H3  UNL A   1      23.150  21.289  11.897  1.00  0.00    +0.000 H 
ENDBRANCH    2    1
BRANCH    2   78
ATOM    129  H39 UNL A   1      27.409  19.771  12.807  1.00  0.00    +0.000 H 
ATOM     78  C55 UNL A   1      25.560  19.688  11.792  1.00  0.00    +0.000 C 
ATOM     79  C56 UNL A   1      24.989  19.385  10.544  1.00  0.00    +0.000 C 
ATOM     80  C57 UNL A   1      25.747  18.808   9.519  1.00  0.00    +0.000 C 
ATOM     81  C58 UNL A   1      27.106  18.535   9.702  1.00  0.00    +0.000 C 
ATOM     89  C64 UNL A   1      27.706  18.908  10.908  1.00  0.00    +0.000 C 
ATOM     90  C65 UNL A   1      26.944  19.487  11.931  1.00  0.00    +0.000 C 
ATOM    123  H33 UNL A   1      23.991  19.592  10.381  1.00  0.00    +0.000 H 
ATOM    124  H34 UNL A   1      25.298  18.582   8.618  1.00  0.00    +0.000 H 
ATOM    128  H38 UNL A   1      28.718  18.754  11.046  1.00  0.00    +0.000 H 
BRANCH   81   82
ATOM     82  C59 UNL A   1      27.865  17.901   8.577  1.00  0.00    +0.000 C 
ATOM     83  O3  UNL A   1      29.090  18.012   8.573  1.00  0.00    +0.000 O 
BRANCH   82   84
ATOM     84  C60 UNL A   1      27.140  17.177   7.548  1.00  0.00    +0.000 C 
ATOM     85  C61 UNL A   1      26.697  15.867   7.534  1.00  0.00    +0.000 C 
ATOM     86  C62 UNL A   1      26.045  15.533   6.310  1.00  0.00    +0.000 C 
ATOM     87  C63 UNL A   1      25.999  16.602   5.442  1.00  0.00    +0.000 C 
ATOM     88  S1  UNL A   1      26.715  18.003   6.110  1.00  0.00    +0.000 S 
ATOM    125  H35 UNL A   1      26.823  15.209   8.318  1.00  0.00    +0.000 H 
ATOM    126  H36 UNL A   1      25.654  14.602   6.100  1.00  0.00    +0.000 H 
ATOM    127  H37 UNL A   1      25.582  16.561   4.499  1.00  0.00    +0.000 H 
ENDBRANCH   82   84
ENDBRANCH   81   82
ENDBRANCH    2   78
ENDBRANCH    3    2
ENDBRANCH    5    3
ENDBRANCH    6    5
ENDBRANCH    7    6
ENDBRANCH    8    7
ENDBRANCH    9    8
ENDBRANCH   10    9
ENDBRANCH   11   10
ENDBRANCH   12   11
ENDBRANCH   13   12
ENDBRANCH   15   13
ENDBRANCH   19   18
BRANCH   23   24
ATOM     33  C24 UNL A   1      26.196   6.221   2.995  1.00  0.00    +0.000 C 
ATOM     34  F5  UNL A   1      24.947   5.904   2.619  1.00  0.00    +0.000 F 
ATOM     24  C19 UNL A   1      26.536   6.269   4.354  1.00  0.00    +0.000 C 
ATOM     25  C20 UNL A   1      27.858   6.601   4.689  1.00  0.00    +0.000 C 
ATOM     26  F1  UNL A   1      28.229   6.673   5.976  1.00  0.00    +0.000 F 
ATOM     27  C21 UNL A   1      28.790   6.910   3.703  1.00  0.00    +0.000 C 
ATOM     28  F2  UNL A   1      30.031   7.280   4.050  1.00  0.00    +0.000 F 
ATOM     29  C22 UNL A   1      28.432   6.855   2.365  1.00  0.00    +0.000 C 
ATOM     30  F3  UNL A   1      29.331   7.153   1.416  1.00  0.00    +0.000 F 
ATOM     31  C23 UNL A   1      27.139   6.501   2.009  1.00  0.00    +0.000 C 
ATOM     32  F4  UNL A   1      26.794   6.438   0.716  1.00  0.00    +0.000 F 
ENDBRANCH   23   24
BRANCH   40   41
ATOM     41  C30 UNL A   1      24.116   0.576   8.054  1.00  0.00    +0.000 C 
ATOM     42  C31 UNL A   1      25.018   0.120   9.026  1.00  0.00    +0.000 C 
ATOM     43  F6  UNL A   1      25.664   0.996   9.812  1.00  0.00    +0.000 F 
ATOM     44  C32 UNL A   1      25.280  -1.239   9.175  1.00  0.00    +0.000 C 
ATOM     45  F7  UNL A   1      26.170  -1.652  10.088  1.00  0.00    +0.000 F 
ATOM     46  C33 UNL A   1      24.628  -2.166   8.376  1.00  0.00    +0.000 C 
ATOM     47  F8  UNL A   1      24.873  -3.475   8.528  1.00  0.00    +0.000 F 
ATOM     48  C34 UNL A   1      23.725  -1.737   7.414  1.00  0.00    +0.000 C 
ATOM     49  F9  UNL A   1      23.085  -2.632   6.649  1.00  0.00    +0.000 F 
ATOM     50  C35 UNL A   1      23.478  -0.378   7.247  1.00  0.00    +0.000 C 
ATOM     51  F10 UNL A   1      22.604   0.010   6.307  1.00  0.00    +0.000 F 
ENDBRANCH   40   41
BRANCH   55   56
ATOM     65  C44 UNL A   1      19.533   4.672  12.443  1.00  0.00    +0.000 C 
ATOM     66  F15 UNL A   1      20.753   4.943  12.930  1.00  0.00    +0.000 F 
ATOM     56  C39 UNL A   1      19.319   4.648  11.059  1.00  0.00    +0.000 C 
ATOM     57  C40 UNL A   1      18.028   4.353  10.600  1.00  0.00    +0.000 C 
ATOM     58  F11 UNL A   1      17.772   4.336   9.285  1.00  0.00    +0.000 F 
ATOM     59  C41 UNL A   1      16.988   4.102  11.493  1.00  0.00    +0.000 C 
ATOM     60  F12 UNL A   1      15.756   3.852  11.030  1.00  0.00    +0.000 F 
ATOM     61  C42 UNL A   1      17.225   4.118  12.859  1.00  0.00    +0.000 C 
ATOM     62  F13 UNL A   1      16.228   3.867  13.718  1.00  0.00    +0.000 F 
ATOM     63  C43 UNL A   1      18.498   4.399  13.336  1.00  0.00    +0.000 C 
ATOM     64  F14 UNL A   1      18.734   4.402  14.654  1.00  0.00    +0.000 F 
ENDBRANCH   55   56
TORSDOF 19
ENDMDL
MODEL 7
REMARK VINA RESULT:      -9.8      3.696      8.295
ROOT
ATOM     19  C15 UNL A   1      40.508  28.391  29.281  1.00  0.00    +0.000 C 
ATOM     20  C16 UNL A   1      41.847  28.464  29.959  1.00  0.00    +0.000 C 
ATOM     21  N3  UNL A   1      42.298  29.345  30.815  1.00  0.00    +0.000 N 
ATOM     22  C17 UNL A   1      43.563  28.903  31.177  1.00  0.00    +0.000 C 
ATOM     23  C18 UNL A   1      44.458  29.492  32.005  1.00  0.00    +0.000 C 
ATOM     35  C25 UNL A   1      44.240  30.752  32.665  1.00  0.00    +0.000 C 
ATOM     36  C26 UNL A   1      45.107  31.463  33.476  1.00  0.00    +0.000 C 
ATOM     37  C27 UNL A   1      44.449  32.618  33.911  1.00  0.00    +0.000 C 
ATOM     38  C28 UNL A   1      43.187  32.646  33.339  1.00  0.00    +0.000 C 
ATOM     39  N4  UNL A   1      43.070  31.492  32.583  1.00  0.00    +0.000 N 
ATOM     40  C29 UNL A   1      42.164  33.652  33.471  1.00  0.00    +0.000 C 
ATOM     52  C36 UNL A   1      40.943  33.605  32.886  1.00  0.00    +0.000 C 
ATOM     53  N5  UNL A   1      40.417  32.633  32.045  1.00  0.00    +0.000 N 
ATOM     54  C37 UNL A   1      39.208  33.037  31.740  1.00  0.00    +0.000 C 
ATOM     55  C38 UNL A   1      38.190  32.388  30.842  1.00  0.00    +0.000 C 
ATOM     67  C45 UNL A   1      38.515  31.259  30.183  1.00  0.00    +0.000 C 
ATOM     68  C46 UNL A   1      37.634  30.515  29.288  1.00  0.00    +0.000 C 
ATOM     69  C47 UNL A   1      38.263  29.402  28.879  1.00  0.00    +0.000 C 
ATOM     70  C48 UNL A   1      39.608  29.375  29.454  1.00  0.00    +0.000 C 
ATOM     71  N6  UNL A   1      39.681  30.533  30.187  1.00  0.00    +0.000 N 
ATOM     72  C49 UNL A   1      38.816  34.300  32.382  1.00  0.00    +0.000 C 
ATOM     73  C50 UNL A   1      39.922  34.619  33.043  1.00  0.00    +0.000 C 
ATOM     74  C51 UNL A   1      43.793  27.656  30.478  1.00  0.00    +0.000 C 
ATOM     75  C52 UNL A   1      42.793  27.378  29.656  1.00  0.00    +0.000 C 
ATOM    111  H21 UNL A   1      46.073  31.190  33.717  1.00  0.00    +0.000 H 
ATOM    112  H22 UNL A   1      44.836  33.329  34.551  1.00  0.00    +0.000 H 
ATOM    113  H23 UNL A   1      42.273  31.234  32.064  1.00  0.00    +0.000 H 
ATOM    114  H24 UNL A   1      36.680  30.799  29.015  1.00  0.00    +0.000 H 
ATOM    115  H25 UNL A   1      37.862  28.681  28.258  1.00  0.00    +0.000 H 
ATOM    116  H26 UNL A   1      40.491  30.815  30.670  1.00  0.00    +0.000 H 
ATOM    117  H27 UNL A   1      37.918  34.806  32.332  1.00  0.00    +0.000 H 
ATOM    118  H28 UNL A   1      40.038  35.481  33.598  1.00  0.00    +0.000 H 
ATOM    119  H29 UNL A   1      44.627  27.061  30.606  1.00  0.00    +0.000 H 
ATOM    120  H30 UNL A   1      42.701  26.604  28.980  1.00  0.00    +0.000 H 
ENDROOT
BRANCH   19   18
ATOM     76  C53 UNL A   1      39.413  26.163  29.128  1.00  0.00    +0.000 C 
ATOM    109  H19 UNL A   1      40.461  25.766  25.467  1.00  0.00    +0.000 H 
ATOM     77  C54 UNL A   1      39.096  24.998  28.437  1.00  0.00    +0.000 C 
ATOM     15  C11 UNL A   1      39.430  24.880  27.084  1.00  0.00    +0.000 C 
ATOM     16  C12 UNL A   1      40.181  25.875  26.454  1.00  0.00    +0.000 C 
ATOM     17  C13 UNL A   1      40.554  27.018  27.166  1.00  0.00    +0.000 C 
ATOM    110  H20 UNL A   1      41.127  27.744  26.710  1.00  0.00    +0.000 H 
ATOM     18  C14 UNL A   1      40.149  27.181  28.501  1.00  0.00    +0.000 C 
ATOM    121  H31 UNL A   1      39.106  26.280  30.106  1.00  0.00    +0.000 H 
ATOM    122  H32 UNL A   1      38.616  24.222  28.922  1.00  0.00    +0.000 H 
BRANCH   15   13
ATOM     13  C10 UNL A   1      38.993  23.705  26.303  1.00  0.00    +0.000 C 
ATOM     14  O2  UNL A   1      39.664  22.678  26.315  1.00  0.00    +0.000 O 
BRANCH   13   12
ATOM    108  H18 UNL A   1      37.421  24.668  25.508  1.00  0.00    +0.000 H 
ATOM     12  N2  UNL A   1      37.845  23.781  25.553  1.00  0.00    +0.000 N 
BRANCH   12   11
ATOM    106  H16 UNL A   1      36.483  23.170  24.128  1.00  0.00    +0.000 H 
ATOM     11  C9  UNL A   1      37.173  22.724  24.814  1.00  0.00    +0.000 C 
ATOM    107  H17 UNL A   1      37.921  22.155  24.303  1.00  0.00    +0.000 H 
BRANCH   11   10
ATOM    105  H15 UNL A   1      35.436  22.199  25.862  1.00  0.00    +0.000 H 
ATOM     10  C8  UNL A   1      36.409  21.773  25.729  1.00  0.00    +0.000 C 
ATOM    104  H14 UNL A   1      36.957  21.681  26.644  1.00  0.00    +0.000 H 
BRANCH   10    9
ATOM      9  C7  UNL A   1      36.194  20.370  25.160  1.00  0.00    +0.000 C 
ATOM    102  H12 UNL A   1      37.015  20.146  24.512  1.00  0.00    +0.000 H 
ATOM    103  H13 UNL A   1      36.125  19.714  26.002  1.00  0.00    +0.000 H 
BRANCH    9    8
ATOM    100  H10 UNL A   1      34.370  21.116  24.375  1.00  0.00    +0.000 H 
ATOM    101  H11 UNL A   1      35.195  19.871  23.386  1.00  0.00    +0.000 H 
ATOM      8  C6  UNL A   1      34.899  20.185  24.365  1.00  0.00    +0.000 C 
BRANCH    8    7
ATOM     98  H8  UNL A   1      33.725  18.434  24.086  1.00  0.00    +0.000 H 
ATOM     99  H9  UNL A   1      34.465  18.617  25.701  1.00  0.00    +0.000 H 
ATOM      7  C5  UNL A   1      33.953  19.098  24.892  1.00  0.00    +0.000 C 
BRANCH    7    6
ATOM     97  H7  UNL A   1      32.499  19.221  26.449  1.00  0.00    +0.000 H 
ATOM      6  C4  UNL A   1      32.632  19.626  25.467  1.00  0.00    +0.000 C 
ATOM     96  H6  UNL A   1      31.827  19.325  24.829  1.00  0.00    +0.000 H 
BRANCH    6    5
ATOM      5  N1  UNL A   1      32.651  21.073  25.559  1.00  0.00    +0.000 N 
ATOM     95  H5  UNL A   1      32.597  21.565  24.708  1.00  0.00    +0.000 H 
BRANCH    5    3
ATOM      3  C3  UNL A   1      32.736  21.834  26.694  1.00  0.00    +0.000 C 
ATOM      4  O1  UNL A   1      33.597  21.514  27.516  1.00  0.00    +0.000 O 
BRANCH    3    2
ATOM      2  C2  UNL A   1      31.747  22.998  26.904  1.00  0.00    +0.000 C 
ATOM     94  H4  UNL A   1      31.567  23.102  27.953  1.00  0.00    +0.000 H 
BRANCH    2    1
ATOM      1  C1  UNL A   1      30.431  22.657  26.192  1.00  0.00    +0.000 C 
ATOM     91  H1  UNL A   1      30.372  21.600  26.038  1.00  0.00    +0.000 H 
ATOM     92  H2  UNL A   1      30.397  23.156  25.246  1.00  0.00    +0.000 H 
ATOM     93  H3  UNL A   1      29.606  22.976  26.793  1.00  0.00    +0.000 H 
ENDBRANCH    2    1
BRANCH    2   78
ATOM    129  H39 UNL A   1      34.208  23.658  25.902  1.00  0.00    +0.000 H 
ATOM     78  C55 UNL A   1      32.308  24.368  26.487  1.00  0.00    +0.000 C 
ATOM     79  C56 UNL A   1      31.566  25.549  26.659  1.00  0.00    +0.000 C 
ATOM     80  C57 UNL A   1      32.061  26.787  26.232  1.00  0.00    +0.000 C 
ATOM     81  C58 UNL A   1      33.323  26.884  25.639  1.00  0.00    +0.000 C 
ATOM     89  C64 UNL A   1      34.107  25.731  25.538  1.00  0.00    +0.000 C 
ATOM     90  C65 UNL A   1      33.607  24.495  25.968  1.00  0.00    +0.000 C 
ATOM    123  H33 UNL A   1      30.638  25.504  27.108  1.00  0.00    +0.000 H 
ATOM    124  H34 UNL A   1      31.488  27.636  26.357  1.00  0.00    +0.000 H 
ATOM    128  H38 UNL A   1      35.059  25.791  25.143  1.00  0.00    +0.000 H 
BRANCH   81   82
ATOM     82  C59 UNL A   1      33.796  28.232  25.185  1.00  0.00    +0.000 C 
ATOM     83  O3  UNL A   1      34.176  28.347  24.020  1.00  0.00    +0.000 O 
BRANCH   82   84
ATOM     84  C60 UNL A   1      33.780  29.344  26.118  1.00  0.00    +0.000 C 
ATOM     85  C61 UNL A   1      34.738  29.746  27.031  1.00  0.00    +0.000 C 
ATOM     86  C62 UNL A   1      34.320  30.881  27.785  1.00  0.00    +0.000 C 
ATOM     87  C63 UNL A   1      33.067  31.316  27.411  1.00  0.00    +0.000 C 
ATOM     88  S1  UNL A   1      32.414  30.375  26.142  1.00  0.00    +0.000 S 
ATOM    125  H35 UNL A   1      35.650  29.278  27.152  1.00  0.00    +0.000 H 
ATOM    126  H36 UNL A   1      34.887  31.325  28.524  1.00  0.00    +0.000 H 
ATOM    127  H37 UNL A   1      32.581  32.115  27.845  1.00  0.00    +0.000 H 
ENDBRANCH   82   84
ENDBRANCH   81   82
ENDBRANCH    2   78
ENDBRANCH    3    2
ENDBRANCH    5    3
ENDBRANCH    6    5
ENDBRANCH    7    6
ENDBRANCH    8    7
ENDBRANCH    9    8
ENDBRANCH   10    9
ENDBRANCH   11   10
ENDBRANCH   12   11
ENDBRANCH   13   12
ENDBRANCH   15   13
ENDBRANCH   19   18
BRANCH   23   24
ATOM     33  C24 UNL A   1      46.852  28.988  31.404  1.00  0.00    +0.000 C 
ATOM     34  F5  UNL A   1      46.760  29.847  30.376  1.00  0.00    +0.000 F 
ATOM     24  C19 UNL A   1      45.752  28.771  32.246  1.00  0.00    +0.000 C 
ATOM     25  C20 UNL A   1      45.903  27.858  33.301  1.00  0.00    +0.000 C 
ATOM     26  F1  UNL A   1      44.884  27.627  34.143  1.00  0.00    +0.000 F 
ATOM     27  C21 UNL A   1      47.119  27.219  33.526  1.00  0.00    +0.000 C 
ATOM     28  F2  UNL A   1      47.256  26.396  34.575  1.00  0.00    +0.000 F 
ATOM     29  C22 UNL A   1      48.192  27.448  32.680  1.00  0.00    +0.000 C 
ATOM     30  F3  UNL A   1      49.363  26.832  32.898  1.00  0.00    +0.000 F 
ATOM     31  C23 UNL A   1      48.058  28.324  31.613  1.00  0.00    +0.000 C 
ATOM     32  F4  UNL A   1      49.092  28.538  30.789  1.00  0.00    +0.000 F 
ENDBRANCH   23   24
BRANCH   40   41
ATOM     41  C30 UNL A   1      42.485  34.859  34.301  1.00  0.00    +0.000 C 
ATOM     42  C31 UNL A   1      42.326  34.858  35.694  1.00  0.00    +0.000 C 
ATOM     43  F6  UNL A   1      41.810  33.784  36.313  1.00  0.00    +0.000 F 
ATOM     44  C32 UNL A   1      42.672  35.972  36.452  1.00  0.00    +0.000 C 
ATOM     45  F7  UNL A   1      42.483  35.963  37.779  1.00  0.00    +0.000 F 
ATOM     46  C33 UNL A   1      43.207  37.095  35.838  1.00  0.00    +0.000 C 
ATOM     47  F8  UNL A   1      43.550  38.163  36.571  1.00  0.00    +0.000 F 
ATOM     48  C34 UNL A   1      43.380  37.114  34.462  1.00  0.00    +0.000 C 
ATOM     49  F9  UNL A   1      43.907  38.194  33.868  1.00  0.00    +0.000 F 
ATOM     50  C35 UNL A   1      43.013  36.011  33.698  1.00  0.00    +0.000 C 
ATOM     51  F10 UNL A   1      43.188  36.058  32.369  1.00  0.00    +0.000 F 
ENDBRANCH   40   41
BRANCH   55   56
ATOM     65  C44 UNL A   1      35.835  32.852  31.601  1.00  0.00    +0.000 C 
ATOM     66  F15 UNL A   1      36.070  32.174  32.734  1.00  0.00    +0.000 F 
ATOM     56  C39 UNL A   1      36.848  32.993  30.644  1.00  0.00    +0.000 C 
ATOM     57  C40 UNL A   1      36.551  33.704  29.474  1.00  0.00    +0.000 C 
ATOM     58  F11 UNL A   1      37.495  33.879  28.539  1.00  0.00    +0.000 F 
ATOM     59  C41 UNL A   1      35.291  34.264  29.274  1.00  0.00    +0.000 C 
ATOM     60  F12 UNL A   1      35.040  34.965  28.160  1.00  0.00    +0.000 F 
ATOM     61  C42 UNL A   1      34.298  34.102  30.229  1.00  0.00    +0.000 C 
ATOM     62  F13 UNL A   1      33.083  34.631  30.033  1.00  0.00    +0.000 F 
ATOM     63  C43 UNL A   1      34.568  33.393  31.391  1.00  0.00    +0.000 C 
ATOM     64  F14 UNL A   1      33.607  33.223  32.309  1.00  0.00    +0.000 F 
ENDBRANCH   55   56
TORSDOF 19
ENDMDL
MODEL 8
REMARK VINA RESULT:      -9.7     26.208     34.560
ROOT
ATOM     19  C15 UNL A   1      22.248   8.753   7.337  1.00  0.00    +0.000 C 
ATOM     20  C16 UNL A   1      21.474   7.831   8.236  1.00  0.00    +0.000 C 
ATOM     21  N3  UNL A   1      21.665   6.561   8.485  1.00  0.00    +0.000 N 
ATOM     22  C17 UNL A   1      20.714   6.218   9.437  1.00  0.00    +0.000 C 
ATOM     23  C18 UNL A   1      20.471   5.006   9.988  1.00  0.00    +0.000 C 
ATOM     35  C25 UNL A   1      21.183   3.804   9.644  1.00  0.00    +0.000 C 
ATOM     36  C26 UNL A   1      20.973   2.515  10.101  1.00  0.00    +0.000 C 
ATOM     37  C27 UNL A   1      21.927   1.681   9.509  1.00  0.00    +0.000 C 
ATOM     38  C28 UNL A   1      22.705   2.443   8.652  1.00  0.00    +0.000 C 
ATOM     39  N4  UNL A   1      22.243   3.745   8.751  1.00  0.00    +0.000 N 
ATOM     40  C29 UNL A   1      23.790   2.016   7.806  1.00  0.00    +0.000 C 
ATOM     52  C36 UNL A   1      24.515   2.827   6.998  1.00  0.00    +0.000 C 
ATOM     53  N5  UNL A   1      24.382   4.194   6.788  1.00  0.00    +0.000 N 
ATOM     54  C37 UNL A   1      25.310   4.517   5.920  1.00  0.00    +0.000 C 
ATOM     55  C38 UNL A   1      25.611   5.859   5.311  1.00  0.00    +0.000 C 
ATOM     67  C45 UNL A   1      24.829   6.912   5.614  1.00  0.00    +0.000 C 
ATOM     68  C46 UNL A   1      25.003   8.272   5.110  1.00  0.00    +0.000 C 
ATOM     69  C47 UNL A   1      24.093   9.073   5.687  1.00  0.00    +0.000 C 
ATOM     70  C48 UNL A   1      23.247   8.274   6.573  1.00  0.00    +0.000 C 
ATOM     71  N6  UNL A   1      23.735   6.998   6.441  1.00  0.00    +0.000 N 
ATOM     72  C49 UNL A   1      26.160   3.393   5.503  1.00  0.00    +0.000 C 
ATOM     73  C50 UNL A   1      25.612   2.381   6.165  1.00  0.00    +0.000 C 
ATOM     74  C51 UNL A   1      19.973   7.422   9.748  1.00  0.00    +0.000 C 
ATOM     75  C52 UNL A   1      20.355   8.430   8.980  1.00  0.00    +0.000 C 
ATOM    111  H21 UNL A   1      20.240   2.219  10.764  1.00  0.00    +0.000 H 
ATOM    112  H22 UNL A   1      22.035   0.669   9.681  1.00  0.00    +0.000 H 
ATOM    113  H23 UNL A   1      22.611   4.515   8.260  1.00  0.00    +0.000 H 
ATOM    114  H24 UNL A   1      25.712   8.569   4.422  1.00  0.00    +0.000 H 
ATOM    115  H25 UNL A   1      24.004  10.089   5.530  1.00  0.00    +0.000 H 
ATOM    116  H26 UNL A   1      23.340   6.219   6.896  1.00  0.00    +0.000 H 
ATOM    117  H27 UNL A   1      26.970   3.390   4.864  1.00  0.00    +0.000 H 
ATOM    118  H28 UNL A   1      25.928   1.402   6.095  1.00  0.00    +0.000 H 
ATOM    119  H29 UNL A   1      19.244   7.486  10.475  1.00  0.00    +0.000 H 
ATOM    120  H30 UNL A   1      19.970   9.386   8.919  1.00  0.00    +0.000 H 
ENDROOT
BRANCH   19   18
ATOM     76  C53 UNL A   1      21.034  10.742   6.468  1.00  0.00    +0.000 C 
ATOM    109  H19 UNL A   1      22.813  13.059   8.944  1.00  0.00    +0.000 H 
ATOM     77  C54 UNL A   1      20.780  12.110   6.445  1.00  0.00    +0.000 C 
ATOM     15  C11 UNL A   1      21.388  12.944   7.388  1.00  0.00    +0.000 C 
ATOM     16  C12 UNL A   1      22.336  12.432   8.276  1.00  0.00    +0.000 C 
ATOM     17  C13 UNL A   1      22.638  11.068   8.257  1.00  0.00    +0.000 C 
ATOM    110  H20 UNL A   1      23.354  10.691   8.897  1.00  0.00    +0.000 H 
ATOM     18  C14 UNL A   1      21.969  10.210   7.370  1.00  0.00    +0.000 C 
ATOM    121  H31 UNL A   1      20.533  10.116   5.819  1.00  0.00    +0.000 H 
ATOM    122  H32 UNL A   1      20.145  12.507   5.734  1.00  0.00    +0.000 H 
BRANCH   15   13
ATOM     13  C10 UNL A   1      21.036  14.378   7.459  1.00  0.00    +0.000 C 
ATOM     14  O2  UNL A   1      20.728  14.984   6.437  1.00  0.00    +0.000 O 
BRANCH   13   12
ATOM    108  H18 UNL A   1      20.473  14.669   9.363  1.00  0.00    +0.000 H 
ATOM     12  N2  UNL A   1      21.075  15.025   8.669  1.00  0.00    +0.000 N 
BRANCH   12   11
ATOM    106  H16 UNL A   1      22.004  16.811   8.217  1.00  0.00    +0.000 H 
ATOM     11  C9  UNL A   1      21.887  16.165   9.063  1.00  0.00    +0.000 C 
ATOM    107  H17 UNL A   1      21.387  16.660   9.868  1.00  0.00    +0.000 H 
BRANCH   11   10
ATOM    105  H15 UNL A   1      23.974  16.353   9.025  1.00  0.00    +0.000 H 
ATOM     10  C8  UNL A   1      23.268  15.749   9.557  1.00  0.00    +0.000 C 
ATOM    104  H14 UNL A   1      23.386  14.701   9.371  1.00  0.00    +0.000 H 
BRANCH   10    9
ATOM      9  C7  UNL A   1      23.518  15.999  11.045  1.00  0.00    +0.000 C 
ATOM    102  H12 UNL A   1      23.095  15.185  11.594  1.00  0.00    +0.000 H 
ATOM    103  H13 UNL A   1      24.578  16.083  11.159  1.00  0.00    +0.000 H 
BRANCH    9    8
ATOM    100  H10 UNL A   1      23.641  18.080  11.439  1.00  0.00    +0.000 H 
ATOM    101  H11 UNL A   1      22.007  17.451  11.061  1.00  0.00    +0.000 H 
ATOM      8  C6  UNL A   1      22.924  17.300  11.591  1.00  0.00    +0.000 C 
BRANCH    8    7
ATOM     98  H8  UNL A   1      21.711  17.921  13.225  1.00  0.00    +0.000 H 
ATOM     99  H9  UNL A   1      22.355  16.259  13.330  1.00  0.00    +0.000 H 
ATOM      7  C5  UNL A   1      22.556  17.281  13.081  1.00  0.00    +0.000 C 
BRANCH    7    6
ATOM     97  H7  UNL A   1      24.388  16.953  14.124  1.00  0.00    +0.000 H 
ATOM      6  C4  UNL A   1      23.675  17.745  14.021  1.00  0.00    +0.000 C 
ATOM     96  H6  UNL A   1      23.254  17.991  14.974  1.00  0.00    +0.000 H 
BRANCH    6    5
ATOM      5  N1  UNL A   1      24.350  18.911  13.483  1.00  0.00    +0.000 N 
ATOM     95  H5  UNL A   1      23.772  19.651  13.187  1.00  0.00    +0.000 H 
BRANCH    5    3
ATOM      3  C3  UNL A   1      25.698  19.101  13.341  1.00  0.00    +0.000 C 
ATOM      4  O1  UNL A   1      26.429  18.531  14.152  1.00  0.00    +0.000 O 
BRANCH    3    2
ATOM      2  C2  UNL A   1      26.221  20.030  12.226  1.00  0.00    +0.000 C 
ATOM     94  H4  UNL A   1      27.171  20.417  12.529  1.00  0.00    +0.000 H 
BRANCH    2    1
ATOM      1  C1  UNL A   1      25.229  21.187  12.049  1.00  0.00    +0.000 C 
ATOM     91  H1  UNL A   1      25.013  21.316  11.009  1.00  0.00    +0.000 H 
ATOM     92  H2  UNL A   1      25.658  22.087  12.437  1.00  0.00    +0.000 H 
ATOM     93  H3  UNL A   1      24.325  20.967  12.576  1.00  0.00    +0.000 H 
ENDBRANCH    2    1
BRANCH    2   78
ATOM    129  H39 UNL A   1      28.593  19.074  11.249  1.00  0.00    +0.000 H 
ATOM     78  C55 UNL A   1      26.523  19.301  10.906  1.00  0.00    +0.000 C 
ATOM     79  C56 UNL A   1      25.526  19.090   9.938  1.00  0.00    +0.000 C 
ATOM     80  C57 UNL A   1      25.794  18.383   8.760  1.00  0.00    +0.000 C 
ATOM     81  C58 UNL A   1      27.074  17.882   8.505  1.00  0.00    +0.000 C 
ATOM     89  C64 UNL A   1      28.095  18.156   9.419  1.00  0.00    +0.000 C 
ATOM     90  C65 UNL A   1      27.822  18.866  10.595  1.00  0.00    +0.000 C 
ATOM    123  H33 UNL A   1      24.577  19.464  10.098  1.00  0.00    +0.000 H 
ATOM    124  H34 UNL A   1      25.039  18.230   8.074  1.00  0.00    +0.000 H 
ATOM    128  H38 UNL A   1      29.056  17.833   9.226  1.00  0.00    +0.000 H 
BRANCH   81   82
ATOM     82  C59 UNL A   1      27.301  17.118   7.236  1.00  0.00    +0.000 C 
ATOM     83  O3  UNL A   1      28.429  17.136   6.746  1.00  0.00    +0.000 O 
BRANCH   82   84
ATOM     84  C60 UNL A   1      26.200  16.382   6.641  1.00  0.00    +0.000 C 
ATOM     85  C61 UNL A   1      25.632  15.179   7.020  1.00  0.00    +0.000 C 
ATOM     86  C62 UNL A   1      24.578  14.782   6.145  1.00  0.00    +0.000 C 
ATOM     87  C63 UNL A   1      24.367  15.702   5.142  1.00  0.00    +0.000 C 
ATOM     88  S1  UNL A   1      25.417  17.045   5.270  1.00  0.00    +0.000 S 
ATOM    125  H35 UNL A   1      25.937  14.633   7.841  1.00  0.00    +0.000 H 
ATOM    126  H36 UNL A   1      24.038  13.909   6.251  1.00  0.00    +0.000 H 
ATOM    127  H37 UNL A   1      23.659  15.592   4.399  1.00  0.00    +0.000 H 
ENDBRANCH   82   84
ENDBRANCH   81   82
ENDBRANCH    2   78
ENDBRANCH    3    2
ENDBRANCH    5    3
ENDBRANCH    6    5
ENDBRANCH    7    6
ENDBRANCH    8    7
ENDBRANCH    9    8
ENDBRANCH   10    9
ENDBRANCH   11   10
ENDBRANCH   12   11
ENDBRANCH   13   12
ENDBRANCH   15   13
ENDBRANCH   19   18
BRANCH   23   24
ATOM     33  C24 UNL A   1      19.715   4.949  12.391  1.00  0.00    +0.000 C 
ATOM     34  F5  UNL A   1      20.995   5.046  12.782  1.00  0.00    +0.000 F 
ATOM     24  C19 UNL A   1      19.391   4.926  11.027  1.00  0.00    +0.000 C 
ATOM     25  C20 UNL A   1      18.036   4.817  10.676  1.00  0.00    +0.000 C 
ATOM     26  F1  UNL A   1      17.674   4.805   9.384  1.00  0.00    +0.000 F 
ATOM     27  C21 UNL A   1      17.045   4.772  11.652  1.00  0.00    +0.000 C 
ATOM     28  F2  UNL A   1      15.755   4.726  11.292  1.00  0.00    +0.000 F 
ATOM     29  C22 UNL A   1      17.389   4.794  12.995  1.00  0.00    +0.000 C 
ATOM     30  F3  UNL A   1      16.433   4.751  13.934  1.00  0.00    +0.000 F 
ATOM     31  C23 UNL A   1      18.723   4.872  13.366  1.00  0.00    +0.000 C 
ATOM     32  F4  UNL A   1      19.057   4.884  14.663  1.00  0.00    +0.000 F 
ENDBRANCH   23   24
BRANCH   40   41
ATOM     41  C30 UNL A   1      24.126   0.555   7.797  1.00  0.00    +0.000 C 
ATOM     42  C31 UNL A   1      23.538  -0.330   6.882  1.00  0.00    +0.000 C 
ATOM     43  F6  UNL A   1      22.597   0.107   6.031  1.00  0.00    +0.000 F 
ATOM     44  C32 UNL A   1      23.897  -1.674   6.859  1.00  0.00    +0.000 C 
ATOM     45  F7  UNL A   1      23.300  -2.511   5.999  1.00  0.00    +0.000 F 
ATOM     46  C33 UNL A   1      24.867  -2.152   7.728  1.00  0.00    +0.000 C 
ATOM     47  F8  UNL A   1      25.219  -3.445   7.697  1.00  0.00    +0.000 F 
ATOM     48  C34 UNL A   1      25.467  -1.292   8.635  1.00  0.00    +0.000 C 
ATOM     49  F9  UNL A   1      26.412  -1.750   9.469  1.00  0.00    +0.000 F 
ATOM     50  C35 UNL A   1      25.094   0.048   8.678  1.00  0.00    +0.000 C 
ATOM     51  F10 UNL A   1      25.687   0.857   9.567  1.00  0.00    +0.000 F 
ENDBRANCH   40   41
BRANCH   55   56
ATOM     65  C44 UNL A   1      28.024   6.361   4.797  1.00  0.00    +0.000 C 
ATOM     66  F15 UNL A   1      28.269   6.513   6.106  1.00  0.00    +0.000 F 
ATOM     56  C39 UNL A   1      26.736   6.030   4.357  1.00  0.00    +0.000 C 
ATOM     57  C40 UNL A   1      26.530   5.889   2.977  1.00  0.00    +0.000 C 
ATOM     58  F11 UNL A   1      25.318   5.556   2.513  1.00  0.00    +0.000 F 
ATOM     59  C41 UNL A   1      27.576   6.061   2.074  1.00  0.00    +0.000 C 
ATOM     60  F12 UNL A   1      27.360   5.891   0.762  1.00  0.00    +0.000 F 
ATOM     61  C42 UNL A   1      28.841   6.400   2.530  1.00  0.00    +0.000 C 
ATOM     62  F13 UNL A   1      29.845   6.575   1.660  1.00  0.00    +0.000 F 
ATOM     63  C43 UNL A   1      29.066   6.554   3.890  1.00  0.00    +0.000 C 
ATOM     64  F14 UNL A   1      30.283   6.895   4.334  1.00  0.00    +0.000 F 
ENDBRANCH   55   56
TORSDOF 19
ENDMDL
MODEL 9
REMARK VINA RESULT:      -9.6     26.350     34.842
ROOT
ATOM     19  C15 UNL A   1      23.552  17.632   4.504  1.00  0.00    +0.000 C 
ATOM     20  C16 UNL A   1      23.372  16.156   4.291  1.00  0.00    +0.000 C 
ATOM     21  N3  UNL A   1      22.408  15.517   3.678  1.00  0.00    +0.000 N 
ATOM     22  C17 UNL A   1      22.768  14.176   3.708  1.00  0.00    +0.000 C 
ATOM     23  C18 UNL A   1      22.079  13.108   3.243  1.00  0.00    +0.000 C 
ATOM     35  C25 UNL A   1      20.781  13.188   2.628  1.00  0.00    +0.000 C 
ATOM     36  C26 UNL A   1      19.972  12.158   2.179  1.00  0.00    +0.000 C 
ATOM     37  C27 UNL A   1      18.815  12.720   1.630  1.00  0.00    +0.000 C 
ATOM     38  C28 UNL A   1      18.884  14.096   1.774  1.00  0.00    +0.000 C 
ATOM     39  N4  UNL A   1      20.098  14.370   2.381  1.00  0.00    +0.000 N 
ATOM     40  C29 UNL A   1      17.914  15.088   1.388  1.00  0.00    +0.000 C 
ATOM     52  C36 UNL A   1      18.057  16.426   1.553  1.00  0.00    +0.000 C 
ATOM     53  N5  UNL A   1      19.113  17.126   2.122  1.00  0.00    +0.000 N 
ATOM     54  C37 UNL A   1      18.784  18.393   2.053  1.00  0.00    +0.000 C 
ATOM     55  C38 UNL A   1      19.543  19.597   2.542  1.00  0.00    +0.000 C 
ATOM     67  C45 UNL A   1      20.706  19.422   3.197  1.00  0.00    +0.000 C 
ATOM     68  C46 UNL A   1      21.554  20.490   3.720  1.00  0.00    +0.000 C 
ATOM     69  C47 UNL A   1      22.669  19.950   4.238  1.00  0.00    +0.000 C 
ATOM     70  C48 UNL A   1      22.596  18.494   4.117  1.00  0.00    +0.000 C 
ATOM     71  N6  UNL A   1      21.381  18.269   3.518  1.00  0.00    +0.000 N 
ATOM     72  C49 UNL A   1      17.492  18.644   1.400  1.00  0.00    +0.000 C 
ATOM     73  C50 UNL A   1      17.076  17.410   1.143  1.00  0.00    +0.000 C 
ATOM     74  C51 UNL A   1      24.055  14.098   4.365  1.00  0.00    +0.000 C 
ATOM     75  C52 UNL A   1      24.438  15.285   4.810  1.00  0.00    +0.000 C 
ATOM    111  H21 UNL A   1      20.186  11.151   2.239  1.00  0.00    +0.000 H 
ATOM    112  H22 UNL A   1      18.041  12.198   1.190  1.00  0.00    +0.000 H 
ATOM    113  H23 UNL A   1      20.429  15.271   2.605  1.00  0.00    +0.000 H 
ATOM    114  H24 UNL A   1      21.332  21.497   3.695  1.00  0.00    +0.000 H 
ATOM    115  H25 UNL A   1      23.453  20.478   4.654  1.00  0.00    +0.000 H 
ATOM    116  H26 UNL A   1      21.029  17.369   3.334  1.00  0.00    +0.000 H 
ATOM    117  H27 UNL A   1      17.029  19.543   1.194  1.00  0.00    +0.000 H 
ATOM    118  H28 UNL A   1      16.169  17.180   0.708  1.00  0.00    +0.000 H 
ATOM    119  H29 UNL A   1      24.603  13.230   4.471  1.00  0.00    +0.000 H 
ATOM    120  H30 UNL A   1      25.266  15.533   5.372  1.00  0.00    +0.000 H 
ENDROOT
BRANCH   19   18
ATOM     76  C53 UNL A   1      25.985  18.085   4.252  1.00  0.00    +0.000 C 
ATOM    109  H19 UNL A   1      26.208  19.516   7.797  1.00  0.00    +0.000 H 
ATOM     77  C54 UNL A   1      27.210  18.514   4.752  1.00  0.00    +0.000 C 
ATOM     15  C11 UNL A   1      27.277  19.088   6.026  1.00  0.00    +0.000 C 
ATOM     16  C12 UNL A   1      26.145  19.128   6.843  1.00  0.00    +0.000 C 
ATOM     17  C13 UNL A   1      24.927  18.639   6.363  1.00  0.00    +0.000 C 
ATOM    110  H20 UNL A   1      24.094  18.647   6.972  1.00  0.00    +0.000 H 
ATOM     18  C14 UNL A   1      24.834  18.139   5.054  1.00  0.00    +0.000 C 
ATOM    121  H31 UNL A   1      25.922  17.726   3.288  1.00  0.00    +0.000 H 
ATOM    122  H32 UNL A   1      28.067  18.408   4.186  1.00  0.00    +0.000 H 
BRANCH   15   13
ATOM     13  C10 UNL A   1      28.545  19.662   6.524  1.00  0.00    +0.000 C 
ATOM     14  O2  UNL A   1      28.550  20.771   7.049  1.00  0.00    +0.000 O 
BRANCH   13   12
ATOM    108  H18 UNL A   1      30.323  19.279   5.676  1.00  0.00    +0.000 H 
ATOM     12  N2  UNL A   1      29.712  18.954   6.377  1.00  0.00    +0.000 N 
BRANCH   12   11
ATOM    106  H16 UNL A   1      30.520  17.056   6.423  1.00  0.00    +0.000 H 
ATOM     11  C9  UNL A   1      30.166  17.789   7.118  1.00  0.00    +0.000 C 
ATOM    107  H17 UNL A   1      30.943  18.106   7.782  1.00  0.00    +0.000 H 
BRANCH   11   10
ATOM    105  H15 UNL A   1      28.189  17.778   7.811  1.00  0.00    +0.000 H 
ATOM     10  C8  UNL A   1      29.057  17.170   7.961  1.00  0.00    +0.000 C 
ATOM    104  H14 UNL A   1      29.385  17.149   8.979  1.00  0.00    +0.000 H 
BRANCH   10    9
ATOM      9  C7  UNL A   1      28.664  15.748   7.558  1.00  0.00    +0.000 C 
ATOM    102  H12 UNL A   1      29.370  15.402   6.832  1.00  0.00    +0.000 H 
ATOM    103  H13 UNL A   1      28.665  15.172   8.459  1.00  0.00    +0.000 H 
BRANCH    9    8
ATOM    100  H10 UNL A   1      27.123  16.399   6.254  1.00  0.00    +0.000 H 
ATOM    101  H11 UNL A   1      27.223  14.631   6.525  1.00  0.00    +0.000 H 
ATOM      8  C6  UNL A   1      27.262  15.607   6.962  1.00  0.00    +0.000 C 
BRANCH    8    7
ATOM     98  H8  UNL A   1      26.526  15.748   8.952  1.00  0.00    +0.000 H 
ATOM     99  H9  UNL A   1      25.512  16.516   7.699  1.00  0.00    +0.000 H 
ATOM      7  C5  UNL A   1      26.108  15.668   7.971  1.00  0.00    +0.000 C 
BRANCH    7    6
ATOM     97  H7  UNL A   1      25.759  13.565   8.052  1.00  0.00    +0.000 H 
ATOM      6  C4  UNL A   1      25.172  14.453   7.946  1.00  0.00    +0.000 C 
ATOM     96  H6  UNL A   1      24.641  14.439   7.017  1.00  0.00    +0.000 H 
BRANCH    6    5
ATOM      5  N1  UNL A   1      24.219  14.514   9.037  1.00  0.00    +0.000 N 
ATOM     95  H5  UNL A   1      24.595  14.490   9.947  1.00  0.00    +0.000 H 
BRANCH    5    3
ATOM      3  C3  UNL A   1      22.856  14.602   8.948  1.00  0.00    +0.000 C 
ATOM      4  O1  UNL A   1      22.247  13.564   8.682  1.00  0.00    +0.000 O 
BRANCH    3    2
ATOM      2  C2  UNL A   1      22.168  15.969   9.137  1.00  0.00    +0.000 C 
ATOM     94  H4  UNL A   1      21.220  15.808   9.606  1.00  0.00    +0.000 H 
BRANCH    2    1
ATOM      1  C1  UNL A   1      21.954  16.604   7.756  1.00  0.00    +0.000 C 
ATOM     91  H1  UNL A   1      22.080  15.860   6.998  1.00  0.00    +0.000 H 
ATOM     92  H2  UNL A   1      22.668  17.386   7.609  1.00  0.00    +0.000 H 
ATOM     93  H3  UNL A   1      20.965  17.008   7.699  1.00  0.00    +0.000 H 
ENDBRANCH    2    1
BRANCH    2   78
ATOM    129  H39 UNL A   1      23.747  18.146   8.625  1.00  0.00    +0.000 H 
ATOM     78  C55 UNL A   1      22.907  16.903  10.110  1.00  0.00    +0.000 C 
ATOM     79  C56 UNL A   1      22.903  16.673  11.496  1.00  0.00    +0.000 C 
ATOM     80  C57 UNL A   1      23.536  17.553  12.381  1.00  0.00    +0.000 C 
ATOM     81  C58 UNL A   1      24.209  18.682  11.905  1.00  0.00    +0.000 C 
ATOM     89  C64 UNL A   1      24.292  18.879  10.524  1.00  0.00    +0.000 C 
ATOM     90  C65 UNL A   1      23.659  17.994   9.642  1.00  0.00    +0.000 C 
ATOM    123  H33 UNL A   1      22.425  15.838  11.869  1.00  0.00    +0.000 H 
ATOM    124  H34 UNL A   1      23.504  17.367  13.396  1.00  0.00    +0.000 H 
ATOM    128  H38 UNL A   1      24.823  19.683  10.152  1.00  0.00    +0.000 H 
BRANCH   81   82
ATOM     82  C59 UNL A   1      24.853  19.600  12.899  1.00  0.00    +0.000 C 
ATOM     83  O3  UNL A   1      25.597  19.104  13.744  1.00  0.00    +0.000 O 
BRANCH   82   84
ATOM     84  C60 UNL A   1      24.592  21.026  12.826  1.00  0.00    +0.000 C 
ATOM     85  C61 UNL A   1      23.411  21.720  13.022  1.00  0.00    +0.000 C 
ATOM     86  C62 UNL A   1      23.574  23.124  12.828  1.00  0.00    +0.000 C 
ATOM     87  C63 UNL A   1      24.873  23.453  12.509  1.00  0.00    +0.000 C 
ATOM     88  S1  UNL A   1      25.892  22.081  12.469  1.00  0.00    +0.000 S 
ATOM    125  H35 UNL A   1      22.517  21.273  13.278  1.00  0.00    +0.000 H 
ATOM    126  H36 UNL A   1      22.809  23.811  12.916  1.00  0.00    +0.000 H 
ATOM    127  H37 UNL A   1      25.193  24.415  12.317  1.00  0.00    +0.000 H 
ENDBRANCH   82   84
ENDBRANCH   81   82
ENDBRANCH    2   78
ENDBRANCH    3    2
ENDBRANCH    5    3
ENDBRANCH    6    5
ENDBRANCH    7    6
ENDBRANCH    8    7
ENDBRANCH    9    8
ENDBRANCH   10    9
ENDBRANCH   11   10
ENDBRANCH   12   11
ENDBRANCH   13   12
ENDBRANCH   15   13
ENDBRANCH   19   18
BRANCH   23   24
ATOM     33  C24 UNL A   1      23.466  11.217   2.322  1.00  0.00    +0.000 C 
ATOM     34  F5  UNL A   1      23.611  11.900   1.176  1.00  0.00    +0.000 F 
ATOM     24  C19 UNL A   1      22.724  11.760   3.381  1.00  0.00    +0.000 C 
ATOM     25  C20 UNL A   1      22.601  10.999   4.554  1.00  0.00    +0.000 C 
ATOM     26  F1  UNL A   1      21.913  11.481   5.600  1.00  0.00    +0.000 F 
ATOM     27  C21 UNL A   1      23.230   9.763   4.675  1.00  0.00    +0.000 C 
ATOM     28  F2  UNL A   1      23.146   9.082   5.826  1.00  0.00    +0.000 F 
ATOM     29  C22 UNL A   1      23.957   9.245   3.615  1.00  0.00    +0.000 C 
ATOM     30  F3  UNL A   1      24.562   8.055   3.733  1.00  0.00    +0.000 F 
ATOM     31  C23 UNL A   1      24.068   9.966   2.435  1.00  0.00    +0.000 C 
ATOM     32  F4  UNL A   1      24.763   9.463   1.406  1.00  0.00    +0.000 F 
ENDBRANCH   23   24
BRANCH   40   41
ATOM     41  C30 UNL A   1      16.633  14.603   0.779  1.00  0.00    +0.000 C 
ATOM     42  C31 UNL A   1      16.513  14.376  -0.600  1.00  0.00    +0.000 C 
ATOM     43  F6  UNL A   1      17.535  14.661  -1.422  1.00  0.00    +0.000 F 
ATOM     44  C32 UNL A   1      15.331  13.881  -1.142  1.00  0.00    +0.000 C 
ATOM     45  F7  UNL A   1      15.225  13.702  -2.466  1.00  0.00    +0.000 F 
ATOM     46  C33 UNL A   1      14.258  13.579  -0.315  1.00  0.00    +0.000 C 
ATOM     47  F8  UNL A   1      13.124  13.092  -0.838  1.00  0.00    +0.000 F 
ATOM     48  C34 UNL A   1      14.358  13.787   1.052  1.00  0.00    +0.000 C 
ATOM     49  F9  UNL A   1      13.327  13.485   1.853  1.00  0.00    +0.000 F 
ATOM     50  C35 UNL A   1      15.531  14.304   1.595  1.00  0.00    +0.000 C 
ATOM     51  F10 UNL A   1      15.599  14.499   2.919  1.00  0.00    +0.000 F 
ENDBRANCH   40   41
BRANCH   55   56
ATOM     65  C44 UNL A   1      19.374  21.738   1.228  1.00  0.00    +0.000 C 
ATOM     66  F15 UNL A   1      20.205  21.233   0.304  1.00  0.00    +0.000 F 
ATOM     56  C39 UNL A   1      19.012  20.968   2.342  1.00  0.00    +0.000 C 
ATOM     57  C40 UNL A   1      18.146  21.543   3.282  1.00  0.00    +0.000 C 
ATOM     58  F11 UNL A   1      17.758  20.838   4.354  1.00  0.00    +0.000 F 
ATOM     59  C41 UNL A   1      17.652  22.834   3.110  1.00  0.00    +0.000 C 
ATOM     60  F12 UNL A   1      16.802  23.350   4.007  1.00  0.00    +0.000 F 
ATOM     61  C42 UNL A   1      18.034  23.583   2.007  1.00  0.00    +0.000 C 
ATOM     62  F13 UNL A   1      17.568  24.829   1.845  1.00  0.00    +0.000 F 
ATOM     63  C43 UNL A   1      18.897  23.038   1.067  1.00  0.00    +0.000 C 
ATOM     64  F14 UNL A   1      19.279  23.763   0.008  1.00  0.00    +0.000 F 
ENDBRANCH   55   56
TORSDOF 19
ENDMDL
MODEL 10
REMARK VINA RESULT:      -9.5     38.634     43.854
ROOT
ATOM     19  C15 UNL A   1      29.101 -14.484  31.594  1.00  0.00    +0.000 C 
ATOM     20  C16 UNL A   1      28.155 -13.641  30.787  1.00  0.00    +0.000 C 
ATOM     21  N3  UNL A   1      27.142 -12.916  31.186  1.00  0.00    +0.000 N 
ATOM     22  C17 UNL A   1      26.656 -12.289  30.047  1.00  0.00    +0.000 C 
ATOM     23  C18 UNL A   1      25.587 -11.467  29.926  1.00  0.00    +0.000 C 
ATOM     35  C25 UNL A   1      24.719 -11.106  31.015  1.00  0.00    +0.000 C 
ATOM     36  C26 UNL A   1      23.574 -10.328  30.986  1.00  0.00    +0.000 C 
ATOM     37  C27 UNL A   1      23.080 -10.230  32.291  1.00  0.00    +0.000 C 
ATOM     38  C28 UNL A   1      23.894 -10.979  33.126  1.00  0.00    +0.000 C 
ATOM     39  N4  UNL A   1      24.899 -11.504  32.332  1.00  0.00    +0.000 N 
ATOM     40  C29 UNL A   1      23.763 -11.200  34.543  1.00  0.00    +0.000 C 
ATOM     52  C36 UNL A   1      24.610 -11.941  35.299  1.00  0.00    +0.000 C 
ATOM     53  N5  UNL A   1      25.740 -12.645  34.905  1.00  0.00    +0.000 N 
ATOM     54  C37 UNL A   1      26.216 -13.200  35.993  1.00  0.00    +0.000 C 
ATOM     55  C38 UNL A   1      27.413 -14.098  36.153  1.00  0.00    +0.000 C 
ATOM     67  C45 UNL A   1      28.112 -14.467  35.063  1.00  0.00    +0.000 C 
ATOM     68  C46 UNL A   1      29.295 -15.322  35.063  1.00  0.00    +0.000 C 
ATOM     69  C47 UNL A   1      29.775 -15.408  33.812  1.00  0.00    +0.000 C 
ATOM     70  C48 UNL A   1      28.907 -14.643  32.915  1.00  0.00    +0.000 C 
ATOM     71  N6  UNL A   1      27.928 -14.147  33.740  1.00  0.00    +0.000 N 
ATOM     72  C49 UNL A   1      25.457 -12.883  37.211  1.00  0.00    +0.000 C 
ATOM     73  C50 UNL A   1      24.470 -12.139  36.727  1.00  0.00    +0.000 C 
ATOM     74  C51 UNL A   1      27.509 -12.689  28.947  1.00  0.00    +0.000 C 
ATOM     75  C52 UNL A   1      28.405 -13.582  29.338  1.00  0.00    +0.000 C 
ATOM    111  H21 UNL A   1      23.157  -9.897  30.147  1.00  0.00    +0.000 H 
ATOM    112  H22 UNL A   1      22.251  -9.690  32.583  1.00  0.00    +0.000 H 
ATOM    113  H23 UNL A   1      25.634 -12.077  32.653  1.00  0.00    +0.000 H 
ATOM    114  H24 UNL A   1      29.699 -15.785  35.892  1.00  0.00    +0.000 H 
ATOM    115  H25 UNL A   1      30.619 -15.929  33.528  1.00  0.00    +0.000 H 
ATOM    116  H26 UNL A   1      27.168 -13.613  33.414  1.00  0.00    +0.000 H 
ATOM    117  H27 UNL A   1      25.642 -13.164  38.186  1.00  0.00    +0.000 H 
ATOM    118  H28 UNL A   1      23.702 -11.751  37.295  1.00  0.00    +0.000 H 
ATOM    119  H29 UNL A   1      27.428 -12.325  27.985  1.00  0.00    +0.000 H 
ATOM    120  H30 UNL A   1      29.098 -14.100  28.775  1.00  0.00    +0.000 H 
ENDROOT
BRANCH   19   18
ATOM     76  C53 UNL A   1      30.159 -16.195  30.131  1.00  0.00    +0.000 C 
ATOM    109  H19 UNL A   1      33.627 -14.650  30.630  1.00  0.00    +0.000 H 
ATOM     77  C54 UNL A   1      31.273 -16.783  29.539  1.00  0.00    +0.000 C 
ATOM     15  C11 UNL A   1      32.529 -16.183  29.677  1.00  0.00    +0.000 C 
ATOM     16  C12 UNL A   1      32.691 -15.066  30.499  1.00  0.00    +0.000 C 
ATOM     17  C13 UNL A   1      31.582 -14.513  31.144  1.00  0.00    +0.000 C 
ATOM    110  H20 UNL A   1      31.702 -13.701  31.769  1.00  0.00    +0.000 H 
ATOM     18  C14 UNL A   1      30.304 -15.059  30.943  1.00  0.00    +0.000 C 
ATOM    121  H31 UNL A   1      29.222 -16.596  29.973  1.00  0.00    +0.000 H 
ATOM    122  H32 UNL A   1      31.173 -17.658  29.001  1.00  0.00    +0.000 H 
BRANCH   15   13
ATOM     13  C10 UNL A   1      33.700 -16.722  28.955  1.00  0.00    +0.000 C 
ATOM     14  O2  UNL A   1      34.479 -17.477  29.529  1.00  0.00    +0.000 O 
BRANCH   13   12
ATOM    108  H18 UNL A   1      34.145 -17.088  27.032  1.00  0.00    +0.000 H 
ATOM     12  N2  UNL A   1      33.918 -16.355  27.650  1.00  0.00    +0.000 N 
BRANCH   12   11
ATOM    106  H16 UNL A   1      34.005 -14.301  27.830  1.00  0.00    +0.000 H 
ATOM     11  C9  UNL A   1      33.857 -15.028  27.058  1.00  0.00    +0.000 C 
ATOM    107  H17 UNL A   1      34.621 -14.968  26.312  1.00  0.00    +0.000 H 
BRANCH   11   10
ATOM    105  H15 UNL A   1      32.037 -15.706  26.273  1.00  0.00    +0.000 H 
ATOM     10  C8  UNL A   1      32.519 -14.757  26.379  1.00  0.00    +0.000 C 
ATOM    104  H14 UNL A   1      32.713 -14.276  25.443  1.00  0.00    +0.000 H 
BRANCH   10    9
ATOM      9  C7  UNL A   1      31.563 -13.872  27.180  1.00  0.00    +0.000 C 
ATOM    102  H12 UNL A   1      30.590 -13.956  26.743  1.00  0.00    +0.000 H 
ATOM    103  H13 UNL A   1      31.606 -14.222  28.189  1.00  0.00    +0.000 H 
BRANCH    9    8
ATOM    100  H10 UNL A   1      32.715 -12.223  26.508  1.00  0.00    +0.000 H 
ATOM    101  H11 UNL A   1      31.037 -11.851  27.011  1.00  0.00    +0.000 H 
ATOM      8  C6  UNL A   1      31.937 -12.389  27.224  1.00  0.00    +0.000 C 
BRANCH    8    7
ATOM     98  H8  UNL A   1      33.096 -12.601  28.995  1.00  0.00    +0.000 H 
ATOM     99  H9  UNL A   1      32.897 -10.930  28.399  1.00  0.00    +0.000 H 
ATOM      7  C5  UNL A   1      32.427 -11.874  28.584  1.00  0.00    +0.000 C 
BRANCH    7    6
ATOM     97  H7  UNL A   1      31.761 -11.452  30.566  1.00  0.00    +0.000 H 
ATOM      6  C4  UNL A   1      31.315 -11.612  29.607  1.00  0.00    +0.000 C 
ATOM     96  H6  UNL A   1      30.661 -12.459  29.639  1.00  0.00    +0.000 H 
BRANCH    6    5
ATOM      5  N1  UNL A   1      30.551 -10.433  29.247  1.00  0.00    +0.000 N 
ATOM     95  H5  UNL A   1      29.796 -10.574  28.631  1.00  0.00    +0.000 H 
BRANCH    5    3
ATOM      3  C3  UNL A   1      30.758  -9.147  29.667  1.00  0.00    +0.000 C 
ATOM      4  O1  UNL A   1      30.680  -8.937  30.879  1.00  0.00    +0.000 O 
BRANCH    3    2
ATOM      2  C2  UNL A   1      31.027  -8.042  28.626  1.00  0.00    +0.000 C 
ATOM     94  H4  UNL A   1      31.516  -7.227  29.117  1.00  0.00    +0.000 H 
BRANCH    2    1
ATOM      1  C1  UNL A   1      29.684  -7.565  28.059  1.00  0.00    +0.000 C 
ATOM     91  H1  UNL A   1      29.594  -6.508  28.194  1.00  0.00    +0.000 H 
ATOM     92  H2  UNL A   1      28.885  -8.058  28.572  1.00  0.00    +0.000 H 
ATOM     93  H3  UNL A   1      29.634  -7.796  27.016  1.00  0.00    +0.000 H 
ENDBRANCH    2    1
BRANCH    2   78
ATOM    129  H39 UNL A   1      33.765  -8.063  28.645  1.00  0.00    +0.000 H 
ATOM     78  C55 UNL A   1      32.020  -8.458  27.526  1.00  0.00    +0.000 C 
ATOM     79  C56 UNL A   1      31.582  -8.844  26.248  1.00  0.00    +0.000 C 
ATOM     80  C57 UNL A   1      32.485  -9.269  25.267  1.00  0.00    +0.000 C 
ATOM     81  C58 UNL A   1      33.858  -9.303  25.529  1.00  0.00    +0.000 C 
ATOM     89  C64 UNL A   1      34.315  -8.843  26.767  1.00  0.00    +0.000 C 
ATOM     90  C65 UNL A   1      33.407  -8.416  27.744  1.00  0.00    +0.000 C 
ATOM    123  H33 UNL A   1      30.574  -8.813  26.028  1.00  0.00    +0.000 H 
ATOM    124  H34 UNL A   1      32.133  -9.561  24.342  1.00  0.00    +0.000 H 
ATOM    128  H38 UNL A   1      35.329  -8.819  26.962  1.00  0.00    +0.000 H 
BRANCH   81   82
ATOM     82  C59 UNL A   1      34.778  -9.784  24.448  1.00  0.00    +0.000 C 
ATOM     83  O3  UNL A   1      35.092  -8.988  23.563  1.00  0.00    +0.000 O 
BRANCH   82   84
ATOM     84  C60 UNL A   1      35.270 -11.149  24.486  1.00  0.00    +0.000 C 
ATOM     85  C61 UNL A   1      35.890 -11.837  25.513  1.00  0.00    +0.000 C 
ATOM     86  C62 UNL A   1      36.248 -13.164  25.132  1.00  0.00    +0.000 C 
ATOM     87  C63 UNL A   1      35.874 -13.447  23.837  1.00  0.00    +0.000 C 
ATOM     88  S1  UNL A   1      35.076 -12.129  23.096  1.00  0.00    +0.000 S 
ATOM    125  H35 UNL A   1      36.073 -11.436  26.446  1.00  0.00    +0.000 H 
ATOM    126  H36 UNL A   1      36.729 -13.833  25.753  1.00  0.00    +0.000 H 
ATOM    127  H37 UNL A   1      36.055 -14.348  23.369  1.00  0.00    +0.000 H 
ENDBRANCH   82   84
ENDBRANCH   81   82
ENDBRANCH    2   78
ENDBRANCH    3    2
ENDBRANCH    5    3
ENDBRANCH    6    5
ENDBRANCH    7    6
ENDBRANCH    8    7
ENDBRANCH    9    8
ENDBRANCH   10    9
ENDBRANCH   11   10
ENDBRANCH   12   11
ENDBRANCH   13   12
ENDBRANCH   15   13
ENDBRANCH   19   18
BRANCH   23   24
ATOM     33  C24 UNL A   1      26.033  -9.801  28.090  1.00  0.00    +0.000 C 
ATOM     34  F5  UNL A   1      26.995  -9.248  28.844  1.00  0.00    +0.000 F 
ATOM     24  C19 UNL A   1      25.304 -10.900  28.566  1.00  0.00    +0.000 C 
ATOM     25  C20 UNL A   1      24.306 -11.435  27.737  1.00  0.00    +0.000 C 
ATOM     26  F1  UNL A   1      23.590 -12.495  28.142  1.00  0.00    +0.000 F 
ATOM     27  C21 UNL A   1      24.075 -10.915  26.466  1.00  0.00    +0.000 C 
ATOM     28  F2  UNL A   1      23.157 -11.479  25.671  1.00  0.00    +0.000 F 
ATOM     29  C22 UNL A   1      24.808  -9.827  26.017  1.00  0.00    +0.000 C 
ATOM     30  F3  UNL A   1      24.585  -9.327  24.793  1.00  0.00    +0.000 F 
ATOM     31  C23 UNL A   1      25.779  -9.263  26.830  1.00  0.00    +0.000 C 
ATOM     32  F4  UNL A   1      26.481  -8.206  26.400  1.00  0.00    +0.000 F 
ENDBRANCH   23   24
BRANCH   40   41
ATOM     41  C30 UNL A   1      22.584 -10.583  35.234  1.00  0.00    +0.000 C 
ATOM     42  C31 UNL A   1      22.570  -9.229  35.598  1.00  0.00    +0.000 C 
ATOM     43  F6  UNL A   1      23.655  -8.465  35.397  1.00  0.00    +0.000 F 
ATOM     44  C32 UNL A   1      21.449  -8.663  36.196  1.00  0.00    +0.000 C 
ATOM     45  F7  UNL A   1      21.467  -7.375  36.567  1.00  0.00    +0.000 F 
ATOM     46  C33 UNL A   1      20.314  -9.429  36.417  1.00  0.00    +0.000 C 
ATOM     47  F8  UNL A   1      19.231  -8.880  36.983  1.00  0.00    +0.000 F 
ATOM     48  C34 UNL A   1      20.303 -10.768  36.056  1.00  0.00    +0.000 C 
ATOM     49  F9  UNL A   1      19.204 -11.508  36.258  1.00  0.00    +0.000 F 
ATOM     50  C35 UNL A   1      21.431 -11.344  35.479  1.00  0.00    +0.000 C 
ATOM     51  F10 UNL A   1      21.395 -12.642  35.143  1.00  0.00    +0.000 F 
ENDBRANCH   40   41
BRANCH   55   56
ATOM     65  C44 UNL A   1      27.168 -15.704  38.076  1.00  0.00    +0.000 C 
ATOM     66  F15 UNL A   1      26.177 -16.329  37.424  1.00  0.00    +0.000 F 
ATOM     56  C39 UNL A   1      27.813 -14.608  37.489  1.00  0.00    +0.000 C 
ATOM     57  C40 UNL A   1      28.838 -13.984  38.214  1.00  0.00    +0.000 C 
ATOM     58  F11 UNL A   1      29.494 -12.943  37.685  1.00  0.00    +0.000 F 
ATOM     59  C41 UNL A   1      29.211 -14.448  39.474  1.00  0.00    +0.000 C 
ATOM     60  F12 UNL A   1      30.214 -13.854  40.134  1.00  0.00    +0.000 F 
ATOM     61  C42 UNL A   1      28.550 -15.527  40.042  1.00  0.00    +0.000 C 
ATOM     62  F13 UNL A   1      28.902 -15.967  41.257  1.00  0.00    +0.000 F 
ATOM     63  C43 UNL A   1      27.526 -16.154  39.346  1.00  0.00    +0.000 C 
ATOM     64  F14 UNL A   1      26.877 -17.188  39.897  1.00  0.00    +0.000 F 
ENDBRANCH   55   56
TORSDOF 19
ENDMDL
