MODEL 1
REMARK VINA RESULT:     -10.5      0.000      0.000
ROOT
ATOM    136  H33 UNL A   1      11.366  19.566  18.294  1.00  0.00    +0.000 H 
ATOM    137  H34 UNL A   1      11.800  18.199  16.117  1.00  0.00    +0.000 H 
ATOM    138  H35 UNL A   1      11.320  15.538  19.252  1.00  0.00    +0.000 H 
ATOM    139  H36 UNL A   1      11.397   9.552  21.445  1.00  0.00    +0.000 H 
ATOM    140  H37 UNL A   1      10.770  10.872  23.522  1.00  0.00    +0.000 H 
ATOM    141  H38 UNL A   1      11.275  13.577  20.406  1.00  0.00    +0.000 H 
ATOM    142  H39 UNL A   1      12.162  10.796  16.316  1.00  0.00    +0.000 H 
ATOM    143  H40 UNL A   1      12.385  12.998  15.030  1.00  0.00    +0.000 H 
ATOM    144  H41 UNL A   1      10.246  18.202  23.370  1.00  0.00    +0.000 H 
ATOM    145  H42 UNL A   1      10.290  16.032  24.730  1.00  0.00    +0.000 H 
ATOM     45  C32 UNL A   1      10.716  13.694  23.149  1.00  0.00    +0.000 C 
ATOM     46  C33 UNL A   1      10.702  15.124  22.693  1.00  0.00    +0.000 C 
ATOM     47  N9  UNL A   1      10.889  15.607  21.489  1.00  0.00    +0.000 N 
ATOM     48  C34 UNL A   1      10.752  16.984  21.605  1.00  0.00    +0.000 C 
ATOM     49  C35 UNL A   1      10.882  17.928  20.642  1.00  0.00    +0.000 C 
ATOM     61  C42 UNL A   1      11.207  17.647  19.265  1.00  0.00    +0.000 C 
ATOM     62  C43 UNL A   1      11.400  18.538  18.224  1.00  0.00    +0.000 C 
ATOM     63  C44 UNL A   1      11.649  17.804  17.058  1.00  0.00    +0.000 C 
ATOM     64  C45 UNL A   1      11.658  16.457  17.383  1.00  0.00    +0.000 C 
ATOM     65  N10 UNL A   1      11.382  16.374  18.739  1.00  0.00    +0.000 N 
ATOM     66  C46 UNL A   1      11.897  15.329  16.519  1.00  0.00    +0.000 C 
ATOM     78  C53 UNL A   1      11.918  14.033  16.917  1.00  0.00    +0.000 C 
ATOM     79  N11 UNL A   1      11.715  13.508  18.184  1.00  0.00    +0.000 N 
ATOM     80  C54 UNL A   1      11.810  12.209  18.054  1.00  0.00    +0.000 C 
ATOM     81  C55 UNL A   1      11.688  11.142  19.102  1.00  0.00    +0.000 C 
ATOM     93  C62 UNL A   1      11.428  11.500  20.372  1.00  0.00    +0.000 C 
ATOM     94  C63 UNL A   1      11.280  10.577  21.492  1.00  0.00    +0.000 C 
ATOM     95  C64 UNL A   1      10.967  11.276  22.592  1.00  0.00    +0.000 C 
ATOM     96  C65 UNL A   1      10.948  12.703  22.266  1.00  0.00    +0.000 C 
ATOM     97  N12 UNL A   1      11.226  12.741  20.924  1.00  0.00    +0.000 N 
ATOM     98  C66 UNL A   1      12.072  11.758  16.681  1.00  0.00    +0.000 C 
ATOM     99  C67 UNL A   1      12.165  12.911  16.035  1.00  0.00    +0.000 C 
ATOM    100  C68 UNL A   1      10.441  17.260  22.992  1.00  0.00    +0.000 C 
ATOM    101  C69 UNL A   1      10.438  16.148  23.715  1.00  0.00    +0.000 C 
ENDROOT
BRANCH   45   44
ATOM    102  C70 UNL A   1       9.229  12.979  25.050  1.00  0.00    +0.000 C 
ATOM    103  C71 UNL A   1       9.056  12.621  26.390  1.00  0.00    +0.000 C 
ATOM    134  H31 UNL A   1      12.263  12.724  27.364  1.00  0.00    +0.000 H 
ATOM     41  C28 UNL A   1      10.160  12.577  27.248  1.00  0.00    +0.000 C 
ATOM     42  C29 UNL A   1      11.439  12.847  26.756  1.00  0.00    +0.000 C 
ATOM     43  C30 UNL A   1      11.599  13.280  25.444  1.00  0.00    +0.000 C 
ATOM    135  H32 UNL A   1      12.533  13.563  25.108  1.00  0.00    +0.000 H 
ATOM     44  C31 UNL A   1      10.498  13.335  24.573  1.00  0.00    +0.000 C 
ATOM    146  H43 UNL A   1       8.419  12.982  24.411  1.00  0.00    +0.000 H 
ATOM    147  H44 UNL A   1       8.115  12.387  26.746  1.00  0.00    +0.000 H 
BRANCH   41    2
ATOM      1  O1  UNL A   1      10.884  11.786  29.333  1.00  0.00    +0.000 O 
ATOM      2  C1  UNL A   1       9.949  12.230  28.671  1.00  0.00    +0.000 C 
BRANCH    2    3
ATOM      3  N1  UNL A   1       8.708  12.379  29.238  1.00  0.00    +0.000 N 
ATOM    104  H1  UNL A   1       8.352  13.297  29.246  1.00  0.00    +0.000 H 
BRANCH    3    4
ATOM    105  H2  UNL A   1       8.434  10.510  30.062  1.00  0.00    +0.000 H 
ATOM    106  H3  UNL A   1       7.077  11.151  29.117  1.00  0.00    +0.000 H 
ATOM      4  C2  UNL A   1       7.844  11.372  29.830  1.00  0.00    +0.000 C 
BRANCH    4    5
ATOM    107  H4  UNL A   1       7.917  12.130  31.801  1.00  0.00    +0.000 H 
ATOM    108  H5  UNL A   1       6.552  11.028  31.433  1.00  0.00    +0.000 H 
ATOM      5  C3  UNL A   1       7.157  11.847  31.103  1.00  0.00    +0.000 C 
BRANCH    5    6
ATOM    110  H7  UNL A   1       6.582  13.590  30.107  1.00  0.00    +0.000 H 
ATOM    109  H6  UNL A   1       5.220  12.639  30.789  1.00  0.00    +0.000 H 
ATOM      6  C4  UNL A   1       6.205  13.030  30.937  1.00  0.00    +0.000 C 
BRANCH    6    7
ATOM    111  H8  UNL A   1       6.633  13.554  32.945  1.00  0.00    +0.000 H 
ATOM      7  C5  UNL A   1       6.148  14.014  32.109  1.00  0.00    +0.000 C 
ATOM    112  H9  UNL A   1       5.109  14.219  32.260  1.00  0.00    +0.000 H 
BRANCH    7    8
ATOM    113  H10 UNL A   1       7.866  15.237  31.879  1.00  0.00    +0.000 H 
ATOM    114  H11 UNL A   1       6.452  16.009  32.671  1.00  0.00    +0.000 H 
ATOM      8  C6  UNL A   1       6.806  15.379  31.880  1.00  0.00    +0.000 C 
BRANCH    8    9
ATOM      9  C7  UNL A   1       6.427  16.090  30.584  1.00  0.00    +0.000 C 
ATOM    115  H12 UNL A   1       6.042  17.059  30.824  1.00  0.00    +0.000 H 
ATOM    116  H13 UNL A   1       5.696  15.489  30.085  1.00  0.00    +0.000 H 
BRANCH    9   10
ATOM     10  N2  UNL A   1       7.556  16.248  29.685  1.00  0.00    +0.000 N 
ATOM    117  H14 UNL A   1       7.952  15.413  29.346  1.00  0.00    +0.000 H 
BRANCH   10   11
ATOM     11  C8  UNL A   1       8.145  17.407  29.245  1.00  0.00    +0.000 C 
ATOM     12  O2  UNL A   1       7.517  18.189  28.535  1.00  0.00    +0.000 O 
BRANCH   11   13
ATOM     13  C9  UNL A   1       9.525  17.747  29.648  1.00  0.00    +0.000 C 
ATOM     14  C10 UNL A   1       9.790  17.766  31.024  1.00  0.00    +0.000 C 
ATOM     15  C11 UNL A   1      11.068  18.076  31.484  1.00  0.00    +0.000 C 
ATOM     16  C12 UNL A   1      12.079  18.360  30.571  1.00  0.00    +0.000 C 
ATOM     17  C13 UNL A   1      11.809  18.358  29.198  1.00  0.00    +0.000 C 
ATOM     18  C14 UNL A   1      10.523  18.081  28.709  1.00  0.00    +0.000 C 
ATOM    118  H15 UNL A   1       9.039  17.551  31.698  1.00  0.00    +0.000 H 
ATOM    119  H16 UNL A   1      11.263  18.095  32.497  1.00  0.00    +0.000 H 
ATOM    120  H17 UNL A   1      13.031  18.574  30.908  1.00  0.00    +0.000 H 
ATOM    121  H18 UNL A   1      12.571  18.564  28.533  1.00  0.00    +0.000 H 
BRANCH   18   19
ATOM    122  H19 UNL A   1      10.017  17.316  26.884  1.00  0.00    +0.000 H 
ATOM     19  N3  UNL A   1      10.218  18.168  27.333  1.00  0.00    +0.000 N 
BRANCH   19   20
ATOM     40  N8  UNL A   1      11.282  20.020  26.463  1.00  0.00    +0.000 N 
ATOM     20  C15 UNL A   1      10.165  19.306  26.530  1.00  0.00    +0.000 C 
ATOM     21  N4  UNL A   1       9.039  19.628  25.915  1.00  0.00    +0.000 N 
ATOM     22  C16 UNL A   1       9.119  20.750  25.221  1.00  0.00    +0.000 C 
ATOM     23 Cl1  UNL A   1       7.697  21.227  24.403  1.00  0.00    +0.000 Cl
ATOM     24  N5  UNL A   1      10.172  21.531  25.065  1.00  0.00    +0.000 N 
ATOM     25  C17 UNL A   1      11.252  21.108  25.699  1.00  0.00    +0.000 C 
BRANCH   25   26
ATOM     26  N6  UNL A   1      12.483  21.755  25.536  1.00  0.00    +0.000 N 
ATOM    123  H20 UNL A   1      12.472  22.735  25.449  1.00  0.00    +0.000 H 
BRANCH   26   27
ATOM    132  H29 UNL A   1      16.561  20.737  27.250  1.00  0.00    +0.000 H 
ATOM    133  H30 UNL A   1      14.400  21.816  27.356  1.00  0.00    +0.000 H 
ATOM     38  C26 UNL A   1      15.911  20.657  26.452  1.00  0.00    +0.000 C 
ATOM     39  C27 UNL A   1      14.651  21.260  26.524  1.00  0.00    +0.000 C 
ATOM    124  H21 UNL A   1      13.452  20.303  23.559  1.00  0.00    +0.000 H 
ATOM    125  H22 UNL A   1      15.670  19.341  23.390  1.00  0.00    +0.000 H 
ATOM     27  C18 UNL A   1      13.732  21.117  25.484  1.00  0.00    +0.000 C 
ATOM     28  C19 UNL A   1      14.116  20.408  24.341  1.00  0.00    +0.000 C 
ATOM     29  C20 UNL A   1      15.393  19.842  24.249  1.00  0.00    +0.000 C 
ATOM     30  C21 UNL A   1      16.300  19.948  25.311  1.00  0.00    +0.000 C 
BRANCH   30   31
ATOM     33  C23 UNL A   1      19.118  17.417  25.536  1.00  0.00    +0.000 C 
ATOM    129  H26 UNL A   1      19.554  17.824  26.426  1.00  0.00    +0.000 H 
ATOM     35  C24 UNL A   1      19.938  19.247  24.354  1.00  0.00    +0.000 C 
ATOM     36  C25 UNL A   1      18.638  20.048  24.550  1.00  0.00    +0.000 C 
ATOM     37  O4  UNL A   1      18.605  21.239  24.233  1.00  0.00    +0.000 O 
ATOM     34  O3  UNL A   1      19.872  17.832  24.401  1.00  0.00    +0.000 O 
ATOM    130  H27 UNL A   1      20.332  19.514  23.396  1.00  0.00    +0.000 H 
ATOM    131  H28 UNL A   1      20.538  19.510  25.200  1.00  0.00    +0.000 H 
ATOM    127  H24 UNL A   1      17.172  17.676  26.302  1.00  0.00    +0.000 H 
ATOM    128  H25 UNL A   1      19.123  16.348  25.598  1.00  0.00    +0.000 H 
ATOM    126  H23 UNL A   1      17.242  17.436  24.547  1.00  0.00    +0.000 H 
ATOM     31  N7  UNL A   1      17.600  19.370  25.208  1.00  0.00    +0.000 N 
ATOM     32  C22 UNL A   1      17.686  17.914  25.394  1.00  0.00    +0.000 C 
ENDBRANCH   30   31
ENDBRANCH   26   27
ENDBRANCH   25   26
ENDBRANCH   19   20
ENDBRANCH   18   19
ENDBRANCH   11   13
ENDBRANCH   10   11
ENDBRANCH    9   10
ENDBRANCH    8    9
ENDBRANCH    7    8
ENDBRANCH    6    7
ENDBRANCH    5    6
ENDBRANCH    4    5
ENDBRANCH    3    4
ENDBRANCH    2    3
ENDBRANCH   41    2
ENDBRANCH   45   44
BRANCH   49   50
ATOM     50  C36 UNL A   1      10.661  19.361  21.032  1.00  0.00    +0.000 C 
ATOM     51  C37 UNL A   1      11.725  20.191  21.417  1.00  0.00    +0.000 C 
ATOM     52  F1  UNL A   1      12.968  19.697  21.509  1.00  0.00    +0.000 F 
ATOM     53  C38 UNL A   1      11.509  21.530  21.736  1.00  0.00    +0.000 C 
ATOM     54  F2  UNL A   1      12.535  22.297  22.133  1.00  0.00    +0.000 F 
ATOM     55  C39 UNL A   1      10.235  22.072  21.646  1.00  0.00    +0.000 C 
ATOM     56  F3  UNL A   1      10.032  23.363  21.941  1.00  0.00    +0.000 F 
ATOM     57  C40 UNL A   1       9.172  21.273  21.255  1.00  0.00    +0.000 C 
ATOM     58  F4  UNL A   1       7.942  21.797  21.155  1.00  0.00    +0.000 F 
ATOM     59  C41 UNL A   1       9.380  19.928  20.960  1.00  0.00    +0.000 C 
ATOM     60  F5  UNL A   1       8.330  19.180  20.589  1.00  0.00    +0.000 F 
ENDBRANCH   49   50
BRANCH   66   67
ATOM     67  C47 UNL A   1      12.167  15.598  15.068  1.00  0.00    +0.000 C 
ATOM     68  C48 UNL A   1      13.472  15.767  14.583  1.00  0.00    +0.000 C 
ATOM     69  F6  UNL A   1      14.515  15.728  15.427  1.00  0.00    +0.000 F 
ATOM     70  C49 UNL A   1      13.706  16.021  13.236  1.00  0.00    +0.000 C 
ATOM     71  F7  UNL A   1      14.958  16.229  12.803  1.00  0.00    +0.000 F 
ATOM     72  C50 UNL A   1      12.645  16.079  12.344  1.00  0.00    +0.000 C 
ATOM     73  F8  UNL A   1      12.874  16.323  11.046  1.00  0.00    +0.000 F 
ATOM     74  C51 UNL A   1      11.349  15.895  12.798  1.00  0.00    +0.000 C 
ATOM     75  F9  UNL A   1      10.324  15.942  11.935  1.00  0.00    +0.000 F 
ATOM     76  C52 UNL A   1      11.108  15.667  14.149  1.00  0.00    +0.000 C 
ATOM     77  F10 UNL A   1       9.842  15.510  14.564  1.00  0.00    +0.000 F 
ENDBRANCH   66   67
BRANCH   81   82
ATOM     82  C56 UNL A   1      11.848   9.705  18.763  1.00  0.00    +0.000 C 
ATOM     83  C57 UNL A   1      13.071   9.050  18.961  1.00  0.00    +0.000 C 
ATOM     84  F11 UNL A   1      14.129   9.731  19.426  1.00  0.00    +0.000 F 
ATOM     85  C58 UNL A   1      13.221   7.700  18.651  1.00  0.00    +0.000 C 
ATOM     86  F12 UNL A   1      14.411   7.105  18.815  1.00  0.00    +0.000 F 
ATOM     87  C59 UNL A   1      12.143   6.974  18.166  1.00  0.00    +0.000 C 
ATOM     88  F13 UNL A   1      12.285   5.672  17.880  1.00  0.00    +0.000 F 
ATOM     89  C60 UNL A   1      10.920   7.598  17.975  1.00  0.00    +0.000 C 
ATOM     90  F14 UNL A   1       9.872   6.896  17.523  1.00  0.00    +0.000 F 
ATOM     91  C61 UNL A   1      10.778   8.954  18.256  1.00  0.00    +0.000 C 
ATOM     92  F15 UNL A   1       9.586   9.535  18.055  1.00  0.00    +0.000 F 
ENDBRANCH   81   82
TORSDOF 20
ENDMDL
MODEL 2
REMARK VINA RESULT:      -9.8     35.876     41.668
ROOT
ATOM    136  H33 UNL A   1      17.827  51.007  -2.560  1.00  0.00    +0.000 H 
ATOM    137  H34 UNL A   1      18.152  53.589  -2.408  1.00  0.00    +0.000 H 
ATOM    138  H35 UNL A   1      16.363  52.294   1.094  1.00  0.00    +0.000 H 
ATOM    139  H36 UNL A   1      13.696  53.632   6.728  1.00  0.00    +0.000 H 
ATOM    140  H37 UNL A   1      13.568  51.097   6.667  1.00  0.00    +0.000 H 
ATOM    141  H38 UNL A   1      15.339  52.361   3.125  1.00  0.00    +0.000 H 
ATOM    142  H39 UNL A   1      15.836  57.343   3.551  1.00  0.00    +0.000 H 
ATOM    143  H40 UNL A   1      16.836  57.312   1.195  1.00  0.00    +0.000 H 
ATOM    144  H41 UNL A   1      15.979  47.294   0.858  1.00  0.00    +0.000 H 
ATOM    145  H42 UNL A   1      14.729  47.329   3.093  1.00  0.00    +0.000 H 
ATOM     45  C32 UNL A   1      14.524  49.930   4.252  1.00  0.00    +0.000 C 
ATOM     46  C33 UNL A   1      15.124  49.557   2.928  1.00  0.00    +0.000 C 
ATOM     47  N9  UNL A   1      15.670  50.332   2.023  1.00  0.00    +0.000 N 
ATOM     48  C34 UNL A   1      16.086  49.489   1.000  1.00  0.00    +0.000 C 
ATOM     49  C35 UNL A   1      16.683  49.817  -0.171  1.00  0.00    +0.000 C 
ATOM     61  C42 UNL A   1      16.997  51.165  -0.575  1.00  0.00    +0.000 C 
ATOM     62  C43 UNL A   1      17.565  51.602  -1.759  1.00  0.00    +0.000 C 
ATOM     63  C44 UNL A   1      17.725  52.991  -1.684  1.00  0.00    +0.000 C 
ATOM     64  C45 UNL A   1      17.214  53.425  -0.472  1.00  0.00    +0.000 C 
ATOM     65  N10 UNL A   1      16.773  52.295   0.200  1.00  0.00    +0.000 N 
ATOM     66  C46 UNL A   1      17.135  54.770   0.037  1.00  0.00    +0.000 C 
ATOM     78  C53 UNL A   1      16.591  55.123   1.228  1.00  0.00    +0.000 C 
ATOM     79  N11 UNL A   1      16.018  54.314   2.197  1.00  0.00    +0.000 N 
ATOM     80  C54 UNL A   1      15.664  55.115   3.170  1.00  0.00    +0.000 C 
ATOM     81  C55 UNL A   1      14.987  54.785   4.468  1.00  0.00    +0.000 C 
ATOM     93  C62 UNL A   1      14.689  53.502   4.742  1.00  0.00    +0.000 C 
ATOM     94  C63 UNL A   1      14.037  53.032   5.960  1.00  0.00    +0.000 C 
ATOM     95  C64 UNL A   1      13.954  51.695   5.919  1.00  0.00    +0.000 C 
ATOM     96  C65 UNL A   1      14.495  51.218   4.645  1.00  0.00    +0.000 C 
ATOM     97  N12 UNL A   1      14.916  52.360   4.015  1.00  0.00    +0.000 N 
ATOM     98  C66 UNL A   1      15.985  56.529   2.935  1.00  0.00    +0.000 C 
ATOM     99  C67 UNL A   1      16.515  56.483   1.721  1.00  0.00    +0.000 C 
ATOM    100  C68 UNL A   1      15.753  48.139   1.406  1.00  0.00    +0.000 C 
ATOM    101  C69 UNL A   1      15.120  48.129   2.572  1.00  0.00    +0.000 C 
ENDROOT
BRANCH   45   44
ATOM    102  C70 UNL A   1      14.705  48.236   6.107  1.00  0.00    +0.000 C 
ATOM    103  C71 UNL A   1      14.116  47.294   6.954  1.00  0.00    +0.000 C 
ATOM    134  H31 UNL A   1      10.927  47.658   5.986  1.00  0.00    +0.000 H 
ATOM     41  C28 UNL A   1      12.742  47.046   6.874  1.00  0.00    +0.000 C 
ATOM     42  C29 UNL A   1      11.952  47.772   5.980  1.00  0.00    +0.000 C 
ATOM     43  C30 UNL A   1      12.550  48.651   5.083  1.00  0.00    +0.000 C 
ATOM    135  H32 UNL A   1      11.976  49.121   4.366  1.00  0.00    +0.000 H 
ATOM     44  C31 UNL A   1      13.930  48.904   5.148  1.00  0.00    +0.000 C 
ATOM    146  H43 UNL A   1      15.714  48.440   6.187  1.00  0.00    +0.000 H 
ATOM    147  H44 UNL A   1      14.694  46.782   7.640  1.00  0.00    +0.000 H 
BRANCH   41    2
ATOM      1  O1  UNL A   1      11.866  44.913   7.300  1.00  0.00    +0.000 O 
ATOM      2  C1  UNL A   1      12.145  46.019   7.756  1.00  0.00    +0.000 C 
BRANCH    2    3
ATOM      3  N1  UNL A   1      11.881  46.312   9.071  1.00  0.00    +0.000 N 
ATOM    104  H1  UNL A   1      10.929  46.323   9.320  1.00  0.00    +0.000 H 
BRANCH    3    4
ATOM    105  H2  UNL A   1      13.791  46.716   9.734  1.00  0.00    +0.000 H 
ATOM    106  H3  UNL A   1      12.757  45.802  10.848  1.00  0.00    +0.000 H 
ATOM      4  C2  UNL A   1      12.810  46.610  10.149  1.00  0.00    +0.000 C 
BRANCH    4    5
ATOM    107  H4  UNL A   1      13.378  48.371  11.170  1.00  0.00    +0.000 H 
ATOM    108  H5  UNL A   1      11.874  47.580  11.743  1.00  0.00    +0.000 H 
ATOM      5  C3  UNL A   1      12.462  47.887  10.902  1.00  0.00    +0.000 C 
BRANCH    5    6
ATOM    110  H7  UNL A   1      10.935  48.306   9.539  1.00  0.00    +0.000 H 
ATOM    109  H6  UNL A   1      11.115  49.519  10.852  1.00  0.00    +0.000 H 
ATOM      6  C4  UNL A   1      11.604  48.891  10.136  1.00  0.00    +0.000 C 
BRANCH    6    7
ATOM    111  H8  UNL A   1      12.643  49.198   8.315  1.00  0.00    +0.000 H 
ATOM      7  C5  UNL A   1      12.351  49.797   9.152  1.00  0.00    +0.000 C 
ATOM    112  H9  UNL A   1      13.168  50.209   9.706  1.00  0.00    +0.000 H 
BRANCH    7    8
ATOM    113  H10 UNL A   1      10.553  50.901   8.928  1.00  0.00    +0.000 H 
ATOM    114  H11 UNL A   1      11.703  50.984   7.552  1.00  0.00    +0.000 H 
ATOM      8  C6  UNL A   1      11.571  51.002   8.614  1.00  0.00    +0.000 C 
BRANCH    8    9
ATOM      9  C7  UNL A   1      12.069  52.372   9.070  1.00  0.00    +0.000 C 
ATOM    115  H12 UNL A   1      11.265  52.884   9.557  1.00  0.00    +0.000 H 
ATOM    116  H13 UNL A   1      12.405  52.900   8.204  1.00  0.00    +0.000 H 
BRANCH    9   10
ATOM     10  N2  UNL A   1      13.187  52.279   9.992  1.00  0.00    +0.000 N 
ATOM    117  H14 UNL A   1      12.974  51.929  10.887  1.00  0.00    +0.000 H 
BRANCH   10   11
ATOM     11  C8  UNL A   1      14.501  52.614   9.781  1.00  0.00    +0.000 C 
ATOM     12  O2  UNL A   1      14.796  53.738   9.382  1.00  0.00    +0.000 O 
BRANCH   11   13
ATOM     13  C9  UNL A   1      15.578  51.643  10.066  1.00  0.00    +0.000 C 
ATOM     14  C10 UNL A   1      15.934  50.776   9.024  1.00  0.00    +0.000 C 
ATOM     15  C11 UNL A   1      16.942  49.834   9.214  1.00  0.00    +0.000 C 
ATOM     16  C12 UNL A   1      17.596  49.763  10.439  1.00  0.00    +0.000 C 
ATOM     17  C13 UNL A   1      17.229  50.617  11.485  1.00  0.00    +0.000 C 
ATOM     18  C14 UNL A   1      16.195  51.554  11.331  1.00  0.00    +0.000 C 
ATOM    118  H15 UNL A   1      15.448  50.835   8.115  1.00  0.00    +0.000 H 
ATOM    119  H16 UNL A   1      17.201  49.192   8.449  1.00  0.00    +0.000 H 
ATOM    120  H17 UNL A   1      18.355  49.077  10.578  1.00  0.00    +0.000 H 
ATOM    121  H18 UNL A   1      17.729  50.557  12.386  1.00  0.00    +0.000 H 
BRANCH   18   19
ATOM    122  H19 UNL A   1      16.381  53.051  12.708  1.00  0.00    +0.000 H 
ATOM     19  N3  UNL A   1      15.754  52.355  12.407  1.00  0.00    +0.000 N 
BRANCH   19   20
ATOM     40  N8  UNL A   1      13.948  53.449  13.334  1.00  0.00    +0.000 N 
ATOM     20  C15 UNL A   1      14.545  52.287  13.096  1.00  0.00    +0.000 C 
ATOM     21  N4  UNL A   1      14.075  51.116  13.491  1.00  0.00    +0.000 N 
ATOM     22  C16 UNL A   1      12.941  51.202  14.167  1.00  0.00    +0.000 C 
ATOM     23 Cl1  UNL A   1      12.280  49.724  14.711  1.00  0.00    +0.000 Cl
ATOM     24  N5  UNL A   1      12.249  52.290  14.448  1.00  0.00    +0.000 N 
ATOM     25  C17 UNL A   1      12.790  53.405  13.987  1.00  0.00    +0.000 C 
BRANCH   25   26
ATOM     26  N6  UNL A   1      12.121  54.629  14.093  1.00  0.00    +0.000 N 
ATOM    123  H20 UNL A   1      12.100  55.059  14.978  1.00  0.00    +0.000 H 
BRANCH   26   27
ATOM    132  H29 UNL A   1      11.432  55.483   9.688  1.00  0.00    +0.000 H 
ATOM    133  H30 UNL A   1      12.532  54.319  11.500  1.00  0.00    +0.000 H 
ATOM     38  C26 UNL A   1      11.199  55.722  10.666  1.00  0.00    +0.000 C 
ATOM     39  C27 UNL A   1      11.815  55.030  11.712  1.00  0.00    +0.000 C 
ATOM    124  H21 UNL A   1      10.288  56.517  14.281  1.00  0.00    +0.000 H 
ATOM    125  H22 UNL A   1       9.290  57.784  12.474  1.00  0.00    +0.000 H 
ATOM     27  C18 UNL A   1      11.473  55.292  13.039  1.00  0.00    +0.000 C 
ATOM     28  C19 UNL A   1      10.544  56.303  13.305  1.00  0.00    +0.000 C 
ATOM     29  C20 UNL A   1       9.958  57.026  12.260  1.00  0.00    +0.000 C 
ATOM     30  C21 UNL A   1      10.268  56.733  10.926  1.00  0.00    +0.000 C 
BRANCH   30   31
ATOM     33  C23 UNL A   1       7.806  57.774   8.234  1.00  0.00    +0.000 C 
ATOM    129  H26 UNL A   1       8.378  57.391   7.414  1.00  0.00    +0.000 H 
ATOM     35  C24 UNL A   1       9.355  59.499   8.445  1.00  0.00    +0.000 C 
ATOM     36  C25 UNL A   1      10.191  58.719   9.475  1.00  0.00    +0.000 C 
ATOM     37  O4  UNL A   1      11.295  59.151   9.813  1.00  0.00    +0.000 O 
ATOM     34  O3  UNL A   1       7.978  59.185   8.318  1.00  0.00    +0.000 O 
ATOM    130  H27 UNL A   1       9.421  60.535   8.704  1.00  0.00    +0.000 H 
ATOM    131  H28 UNL A   1       9.775  59.222   7.501  1.00  0.00    +0.000 H 
ATOM    127  H24 UNL A   1       8.232  56.074   9.403  1.00  0.00    +0.000 H 
ATOM    128  H25 UNL A   1       6.771  57.549   8.078  1.00  0.00    +0.000 H 
ATOM    126  H23 UNL A   1       7.645  57.468  10.327  1.00  0.00    +0.000 H 
ATOM     31  N7  UNL A   1       9.668  57.477   9.866  1.00  0.00    +0.000 N 
ATOM     32  C22 UNL A   1       8.279  57.135   9.532  1.00  0.00    +0.000 C 
ENDBRANCH   30   31
ENDBRANCH   26   27
ENDBRANCH   25   26
ENDBRANCH   19   20
ENDBRANCH   18   19
ENDBRANCH   11   13
ENDBRANCH   10   11
ENDBRANCH    9   10
ENDBRANCH    8    9
ENDBRANCH    7    8
ENDBRANCH    6    7
ENDBRANCH    5    6
ENDBRANCH    4    5
ENDBRANCH    3    4
ENDBRANCH    2    3
ENDBRANCH   41    2
ENDBRANCH   45   44
BRANCH   49   50
ATOM     50  C36 UNL A   1      17.052  48.701  -1.104  1.00  0.00    +0.000 C 
ATOM     51  C37 UNL A   1      18.246  47.980  -0.954  1.00  0.00    +0.000 C 
ATOM     52  F1  UNL A   1      19.125  48.319   0.001  1.00  0.00    +0.000 F 
ATOM     53  C38 UNL A   1      18.554  46.919  -1.804  1.00  0.00    +0.000 C 
ATOM     54  F2  UNL A   1      19.716  46.265  -1.661  1.00  0.00    +0.000 F 
ATOM     55  C39 UNL A   1      17.665  46.541  -2.798  1.00  0.00    +0.000 C 
ATOM     56  F3  UNL A   1      17.958  45.513  -3.606  1.00  0.00    +0.000 F 
ATOM     57  C40 UNL A   1      16.474  47.232  -2.956  1.00  0.00    +0.000 C 
ATOM     58  F4  UNL A   1      15.606  46.860  -3.908  1.00  0.00    +0.000 F 
ATOM     59  C41 UNL A   1      16.174  48.308  -2.125  1.00  0.00    +0.000 C 
ATOM     60  F5  UNL A   1      15.015  48.959  -2.307  1.00  0.00    +0.000 F 
ENDBRANCH   49   50
BRANCH   66   67
ATOM     67  C47 UNL A   1      17.674  55.879  -0.818  1.00  0.00    +0.000 C 
ATOM     68  C48 UNL A   1      19.021  56.264  -0.755  1.00  0.00    +0.000 C 
ATOM     69  F6  UNL A   1      19.854  55.665   0.110  1.00  0.00    +0.000 F 
ATOM     70  C49 UNL A   1      19.506  57.298  -1.550  1.00  0.00    +0.000 C 
ATOM     71  F7  UNL A   1      20.785  57.683  -1.437  1.00  0.00    +0.000 F 
ATOM     72  C50 UNL A   1      18.663  57.943  -2.443  1.00  0.00    +0.000 C 
ATOM     73  F8  UNL A   1      19.133  58.939  -3.208  1.00  0.00    +0.000 F 
ATOM     74  C51 UNL A   1      17.333  57.565  -2.536  1.00  0.00    +0.000 C 
ATOM     75  F9  UNL A   1      16.520  58.182  -3.405  1.00  0.00    +0.000 F 
ATOM     76  C52 UNL A   1      16.838  56.549  -1.724  1.00  0.00    +0.000 C 
ATOM     77  F10 UNL A   1      15.542  56.216  -1.822  1.00  0.00    +0.000 F 
ENDBRANCH   66   67
BRANCH   81   82
ATOM     82  C56 UNL A   1      14.643  55.843   5.451  1.00  0.00    +0.000 C 
ATOM     83  C57 UNL A   1      15.636  56.465   6.219  1.00  0.00    +0.000 C 
ATOM     84  F11 UNL A   1      16.915  56.079   6.100  1.00  0.00    +0.000 F 
ATOM     85  C58 UNL A   1      15.315  57.465   7.135  1.00  0.00    +0.000 C 
ATOM     86  F12 UNL A   1      16.278  58.018   7.884  1.00  0.00    +0.000 F 
ATOM     87  C59 UNL A   1      13.999  57.881   7.278  1.00  0.00    +0.000 C 
ATOM     88  F13 UNL A   1      13.693  58.851   8.151  1.00  0.00    +0.000 F 
ATOM     89  C60 UNL A   1      13.002  57.289   6.519  1.00  0.00    +0.000 C 
ATOM     90  F14 UNL A   1      11.732  57.700   6.642  1.00  0.00    +0.000 F 
ATOM     91  C61 UNL A   1      13.318  56.269   5.625  1.00  0.00    +0.000 C 
ATOM     92  F15 UNL A   1      12.333  55.709   4.909  1.00  0.00    +0.000 F 
ENDBRANCH   81   82
TORSDOF 20
ENDMDL
MODEL 3
REMARK VINA RESULT:      -9.7     34.479     40.348
ROOT
ATOM    136  H33 UNL A   1      17.822  51.137  -2.693  1.00  0.00    +0.000 H 
ATOM    137  H34 UNL A   1      18.138  53.717  -2.488  1.00  0.00    +0.000 H 
ATOM    138  H35 UNL A   1      16.345  52.344   0.983  1.00  0.00    +0.000 H 
ATOM    139  H36 UNL A   1      13.661  53.557   6.636  1.00  0.00    +0.000 H 
ATOM    140  H37 UNL A   1      13.542  51.023   6.523  1.00  0.00    +0.000 H 
ATOM    141  H38 UNL A   1      15.316  52.366   3.012  1.00  0.00    +0.000 H 
ATOM    142  H39 UNL A   1      15.795  57.340   3.541  1.00  0.00    +0.000 H 
ATOM    143  H40 UNL A   1      16.800  57.360   1.188  1.00  0.00    +0.000 H 
ATOM    144  H41 UNL A   1      15.979  47.348   0.643  1.00  0.00    +0.000 H 
ATOM    145  H42 UNL A   1      14.723  47.334   2.875  1.00  0.00    +0.000 H 
ATOM     45  C32 UNL A   1      14.507  49.909   4.087  1.00  0.00    +0.000 C 
ATOM     46  C33 UNL A   1      15.112  49.565   2.757  1.00  0.00    +0.000 C 
ATOM     47  N9  UNL A   1      15.656  50.361   1.869  1.00  0.00    +0.000 N 
ATOM     48  C34 UNL A   1      16.078  49.541   0.831  1.00  0.00    +0.000 C 
ATOM     49  C35 UNL A   1      16.676  49.895  -0.332  1.00  0.00    +0.000 C 
ATOM     61  C42 UNL A   1      16.987  51.252  -0.707  1.00  0.00    +0.000 C 
ATOM     62  C43 UNL A   1      17.556  51.715  -1.881  1.00  0.00    +0.000 C 
ATOM     63  C44 UNL A   1      17.711  53.102  -1.777  1.00  0.00    +0.000 C 
ATOM     64  C45 UNL A   1      17.195  53.510  -0.558  1.00  0.00    +0.000 C 
ATOM     65  N10 UNL A   1      16.757  52.364   0.090  1.00  0.00    +0.000 N 
ATOM     66  C46 UNL A   1      17.111  54.844  -0.022  1.00  0.00    +0.000 C 
ATOM     78  C53 UNL A   1      16.563  55.170   1.175  1.00  0.00    +0.000 C 
ATOM     79  N11 UNL A   1      15.990  54.340   2.125  1.00  0.00    +0.000 N 
ATOM     80  C54 UNL A   1      15.631  55.120   3.114  1.00  0.00    +0.000 C 
ATOM     81  C55 UNL A   1      14.953  54.760   4.404  1.00  0.00    +0.000 C 
ATOM     93  C62 UNL A   1      14.658  53.471   4.651  1.00  0.00    +0.000 C 
ATOM     94  C63 UNL A   1      14.006  52.974   5.857  1.00  0.00    +0.000 C 
ATOM     95  C64 UNL A   1      13.927  51.638   5.789  1.00  0.00    +0.000 C 
ATOM     96  C65 UNL A   1      14.473  51.189   4.506  1.00  0.00    +0.000 C 
ATOM     97  N12 UNL A   1      14.891  52.345   3.900  1.00  0.00    +0.000 N 
ATOM     98  C66 UNL A   1      15.948  56.539   2.909  1.00  0.00    +0.000 C 
ATOM     99  C67 UNL A   1      16.482  56.520   1.696  1.00  0.00    +0.000 C 
ATOM    100  C68 UNL A   1      15.749  48.182   1.208  1.00  0.00    +0.000 C 
ATOM    101  C69 UNL A   1      15.113  48.146   2.372  1.00  0.00    +0.000 C 
ENDROOT
BRANCH   45   44
ATOM    102  C70 UNL A   1      14.698  48.150   5.879  1.00  0.00    +0.000 C 
ATOM    103  C71 UNL A   1      14.112  47.189   6.707  1.00  0.00    +0.000 C 
ATOM    134  H31 UNL A   1      10.909  47.639   5.822  1.00  0.00    +0.000 H 
ATOM     41  C28 UNL A   1      12.732  46.967   6.648  1.00  0.00    +0.000 C 
ATOM     42  C29 UNL A   1      11.936  47.737   5.797  1.00  0.00    +0.000 C 
ATOM     43  C30 UNL A   1      12.529  48.636   4.918  1.00  0.00    +0.000 C 
ATOM    135  H32 UNL A   1      11.948  49.140   4.229  1.00  0.00    +0.000 H 
ATOM     44  C31 UNL A   1      13.915  48.864   4.961  1.00  0.00    +0.000 C 
ATOM    146  H43 UNL A   1      15.712  48.334   5.943  1.00  0.00    +0.000 H 
ATOM    147  H44 UNL A   1      14.695  46.644   7.362  1.00  0.00    +0.000 H 
BRANCH   41    2
ATOM      1  O1  UNL A   1      11.778  44.856   7.010  1.00  0.00    +0.000 O 
ATOM      2  C1  UNL A   1      12.136  45.920   7.508  1.00  0.00    +0.000 C 
BRANCH    2    3
ATOM      3  N1  UNL A   1      11.960  46.152   8.849  1.00  0.00    +0.000 N 
ATOM    104  H1  UNL A   1      11.025  46.207   9.151  1.00  0.00    +0.000 H 
BRANCH    3    4
ATOM    105  H2  UNL A   1      13.931  46.245   9.444  1.00  0.00    +0.000 H 
ATOM    106  H3  UNL A   1      12.793  45.568  10.624  1.00  0.00    +0.000 H 
ATOM      4  C2  UNL A   1      12.961  46.327   9.888  1.00  0.00    +0.000 C 
BRANCH    4    5
ATOM    107  H4  UNL A   1      13.839  48.109  10.609  1.00  0.00    +0.000 H 
ATOM    108  H5  UNL A   1      12.466  47.467  11.566  1.00  0.00    +0.000 H 
ATOM      5  C3  UNL A   1      12.862  47.673  10.593  1.00  0.00    +0.000 C 
BRANCH    5    6
ATOM    110  H7  UNL A   1      11.209  48.101   9.389  1.00  0.00    +0.000 H 
ATOM    109  H6  UNL A   1      11.460  49.252  10.745  1.00  0.00    +0.000 H 
ATOM      6  C4  UNL A   1      11.906  48.681   9.957  1.00  0.00    +0.000 C 
BRANCH    6    7
ATOM    111  H8  UNL A   1      12.892  49.098   8.128  1.00  0.00    +0.000 H 
ATOM      7  C5  UNL A   1      12.533  49.664   8.963  1.00  0.00    +0.000 C 
ATOM    112  H9  UNL A   1      13.297  50.176   9.511  1.00  0.00    +0.000 H 
BRANCH    7    8
ATOM    113  H10 UNL A   1      10.610  50.524   8.718  1.00  0.00    +0.000 H 
ATOM    114  H11 UNL A   1      11.761  50.772   7.363  1.00  0.00    +0.000 H 
ATOM      8  C6  UNL A   1      11.611  50.762   8.423  1.00  0.00    +0.000 C 
BRANCH    8    9
ATOM      9  C7  UNL A   1      11.916  52.179   8.898  1.00  0.00    +0.000 C 
ATOM    115  H12 UNL A   1      11.032  52.592   9.338  1.00  0.00    +0.000 H 
ATOM    116  H13 UNL A   1      12.234  52.746   8.049  1.00  0.00    +0.000 H 
BRANCH    9   10
ATOM     10  N2  UNL A   1      12.985  52.219   9.881  1.00  0.00    +0.000 N 
ATOM    117  H14 UNL A   1      12.758  51.873  10.773  1.00  0.00    +0.000 H 
BRANCH   10   11
ATOM     11  C8  UNL A   1      14.271  52.674   9.729  1.00  0.00    +0.000 C 
ATOM     12  O2  UNL A   1      14.480  53.832   9.376  1.00  0.00    +0.000 O 
BRANCH   11   13
ATOM     13  C9  UNL A   1      15.419  51.791  10.025  1.00  0.00    +0.000 C 
ATOM     14  C10 UNL A   1      15.977  51.102   8.939  1.00  0.00    +0.000 C 
ATOM     15  C11 UNL A   1      17.063  50.253   9.136  1.00  0.00    +0.000 C 
ATOM     16  C12 UNL A   1      17.593  50.097  10.413  1.00  0.00    +0.000 C 
ATOM     17  C13 UNL A   1      17.025  50.772  11.499  1.00  0.00    +0.000 C 
ATOM     18  C14 UNL A   1      15.910  51.608  11.334  1.00  0.00    +0.000 C 
ATOM    118  H15 UNL A   1      15.583  51.224   7.993  1.00  0.00    +0.000 H 
ATOM    119  H16 UNL A   1      17.472  49.741   8.338  1.00  0.00    +0.000 H 
ATOM    120  H17 UNL A   1      18.409  49.481  10.559  1.00  0.00    +0.000 H 
ATOM    121  H18 UNL A   1      17.434  50.651  12.439  1.00  0.00    +0.000 H 
BRANCH   18   19
ATOM    122  H19 UNL A   1      15.702  53.033  12.783  1.00  0.00    +0.000 H 
ATOM     19  N3  UNL A   1      15.272  52.219  12.435  1.00  0.00    +0.000 N 
BRANCH   19   20
ATOM     40  N8  UNL A   1      13.789  50.535  12.969  1.00  0.00    +0.000 N 
ATOM     20  C15 UNL A   1      14.110  51.818  13.092  1.00  0.00    +0.000 C 
ATOM     21  N4  UNL A   1      13.389  52.704  13.759  1.00  0.00    +0.000 N 
ATOM     22  C16 UNL A   1      12.294  52.195  14.298  1.00  0.00    +0.000 C 
ATOM     23 Cl1  UNL A   1      11.314  53.287  15.173  1.00  0.00    +0.000 Cl
ATOM     24  N5  UNL A   1      11.882  50.941  14.262  1.00  0.00    +0.000 N 
ATOM     25  C17 UNL A   1      12.685  50.132  13.592  1.00  0.00    +0.000 C 
BRANCH   25   26
ATOM     26  N6  UNL A   1      12.457  48.751  13.563  1.00  0.00    +0.000 N 
ATOM    123  H20 UNL A   1      12.911  48.232  12.861  1.00  0.00    +0.000 H 
BRANCH   26   27
ATOM    132  H29 UNL A   1      11.591  46.792  17.565  1.00  0.00    +0.000 H 
ATOM    133  H30 UNL A   1      13.009  48.026  16.045  1.00  0.00    +0.000 H 
ATOM     38  C26 UNL A   1      11.264  46.986  16.605  1.00  0.00    +0.000 C 
ATOM     39  C27 UNL A   1      12.073  47.722  15.735  1.00  0.00    +0.000 C 
ATOM    124  H21 UNL A   1      10.045  47.797  13.084  1.00  0.00    +0.000 H 
ATOM    125  H22 UNL A   1       8.682  46.437  14.555  1.00  0.00    +0.000 H 
ATOM     27  C18 UNL A   1      11.630  48.048  14.453  1.00  0.00    +0.000 C 
ATOM     28  C19 UNL A   1      10.383  47.574  14.033  1.00  0.00    +0.000 C 
ATOM     29  C20 UNL A   1       9.590  46.799  14.887  1.00  0.00    +0.000 C 
ATOM     30  C21 UNL A   1      10.016  46.510  16.190  1.00  0.00    +0.000 C 
BRANCH   30   31
ATOM     33  C23 UNL A   1       8.568  43.479  17.955  1.00  0.00    +0.000 C 
ATOM    129  H26 UNL A   1       7.690  43.413  17.346  1.00  0.00    +0.000 H 
ATOM     35  C24 UNL A   1       7.659  45.363  18.977  1.00  0.00    +0.000 C 
ATOM     36  C25 UNL A   1       8.347  46.321  17.988  1.00  0.00    +0.000 C 
ATOM     37  O4  UNL A   1       8.041  47.515  17.989  1.00  0.00    +0.000 O 
ATOM     34  O3  UNL A   1       8.242  44.090  19.200  1.00  0.00    +0.000 O 
ATOM    130  H27 UNL A   1       7.616  45.861  19.923  1.00  0.00    +0.000 H 
ATOM    131  H28 UNL A   1       6.718  45.143  18.518  1.00  0.00    +0.000 H 
ATOM    127  H24 UNL A   1       9.771  43.896  16.276  1.00  0.00    +0.000 H 
ATOM    128  H25 UNL A   1       8.952  42.495  18.129  1.00  0.00    +0.000 H 
ATOM    126  H23 UNL A   1      10.516  44.310  17.831  1.00  0.00    +0.000 H 
ATOM     31  N7  UNL A   1       9.203  45.717  17.055  1.00  0.00    +0.000 N 
ATOM     32  C22 UNL A   1       9.620  44.321  17.246  1.00  0.00    +0.000 C 
ENDBRANCH   30   31
ENDBRANCH   26   27
ENDBRANCH   25   26
ENDBRANCH   19   20
ENDBRANCH   18   19
ENDBRANCH   11   13
ENDBRANCH   10   11
ENDBRANCH    9   10
ENDBRANCH    8    9
ENDBRANCH    7    8
ENDBRANCH    6    7
ENDBRANCH    5    6
ENDBRANCH    4    5
ENDBRANCH    3    4
ENDBRANCH    2    3
ENDBRANCH   41    2
ENDBRANCH   45   44
BRANCH   49   50
ATOM     50  C36 UNL A   1      17.052  48.799  -1.287  1.00  0.00    +0.000 C 
ATOM     51  C37 UNL A   1      18.254  48.088  -1.156  1.00  0.00    +0.000 C 
ATOM     52  F1  UNL A   1      19.134  48.419  -0.200  1.00  0.00    +0.000 F 
ATOM     53  C38 UNL A   1      18.568  47.046  -2.026  1.00  0.00    +0.000 C 
ATOM     54  F2  UNL A   1      19.737  46.401  -1.902  1.00  0.00    +0.000 F 
ATOM     55  C39 UNL A   1      17.677  46.676  -3.022  1.00  0.00    +0.000 C 
ATOM     56  F3  UNL A   1      17.975  45.666  -3.850  1.00  0.00    +0.000 F 
ATOM     57  C40 UNL A   1      16.478  47.357  -3.162  1.00  0.00    +0.000 C 
ATOM     58  F4  UNL A   1      15.609  46.994  -4.116  1.00  0.00    +0.000 F 
ATOM     59  C41 UNL A   1      16.172  48.415  -2.310  1.00  0.00    +0.000 C 
ATOM     60  F5  UNL A   1      15.005  49.058  -2.474  1.00  0.00    +0.000 F 
ENDBRANCH   49   50
BRANCH   66   67
ATOM     67  C47 UNL A   1      17.648  55.972  -0.852  1.00  0.00    +0.000 C 
ATOM     68  C48 UNL A   1      18.994  56.358  -0.782  1.00  0.00    +0.000 C 
ATOM     69  F6  UNL A   1      19.829  55.741   0.070  1.00  0.00    +0.000 F 
ATOM     70  C49 UNL A   1      19.477  57.410  -1.554  1.00  0.00    +0.000 C 
ATOM     71  F7  UNL A   1      20.756  57.794  -1.433  1.00  0.00    +0.000 F 
ATOM     72  C50 UNL A   1      18.634  58.073  -2.433  1.00  0.00    +0.000 C 
ATOM     73  F8  UNL A   1      19.102  59.085  -3.176  1.00  0.00    +0.000 F 
ATOM     74  C51 UNL A   1      17.304  57.694  -2.533  1.00  0.00    +0.000 C 
ATOM     75  F9  UNL A   1      16.490  58.328  -3.389  1.00  0.00    +0.000 F 
ATOM     76  C52 UNL A   1      16.811  56.660  -1.743  1.00  0.00    +0.000 C 
ATOM     77  F10 UNL A   1      15.516  56.327  -1.849  1.00  0.00    +0.000 F 
ENDBRANCH   66   67
BRANCH   81   82
ATOM     82  C56 UNL A   1      14.603  55.798   5.407  1.00  0.00    +0.000 C 
ATOM     83  C57 UNL A   1      15.592  56.409   6.188  1.00  0.00    +0.000 C 
ATOM     84  F11 UNL A   1      16.873  56.032   6.062  1.00  0.00    +0.000 F 
ATOM     85  C58 UNL A   1      15.265  57.389   7.123  1.00  0.00    +0.000 C 
ATOM     86  F12 UNL A   1      16.226  57.933   7.884  1.00  0.00    +0.000 F 
ATOM     87  C59 UNL A   1      13.947  57.795   7.274  1.00  0.00    +0.000 C 
ATOM     88  F13 UNL A   1      13.636  58.746   8.166  1.00  0.00    +0.000 F 
ATOM     89  C60 UNL A   1      12.954  57.212   6.503  1.00  0.00    +0.000 C 
ATOM     90  F14 UNL A   1      11.682  57.614   6.633  1.00  0.00    +0.000 F 
ATOM     91  C61 UNL A   1      13.275  56.212   5.589  1.00  0.00    +0.000 C 
ATOM     92  F15 UNL A   1      12.293  55.661   4.861  1.00  0.00    +0.000 F 
ENDBRANCH   81   82
TORSDOF 20
ENDMDL
MODEL 4
REMARK VINA RESULT:      -9.7     33.707     39.652
ROOT
ATOM    136  H33 UNL A   1      13.565  46.702   2.258  1.00  0.00    +0.000 H 
ATOM    137  H34 UNL A   1      15.258  47.063   0.309  1.00  0.00    +0.000 H 
ATOM    138  H35 UNL A   1      14.949  50.601   2.438  1.00  0.00    +0.000 H 
ATOM    139  H36 UNL A   1      16.449  56.760   3.115  1.00  0.00    +0.000 H 
ATOM    140  H37 UNL A   1      14.961  56.349   5.131  1.00  0.00    +0.000 H 
ATOM    141  H38 UNL A   1      15.221  52.788   3.003  1.00  0.00    +0.000 H 
ATOM    142  H39 UNL A   1      18.461  53.668  -0.737  1.00  0.00    +0.000 H 
ATOM    143  H40 UNL A   1      18.038  51.258  -1.491  1.00  0.00    +0.000 H 
ATOM    144  H41 UNL A   1      11.869  49.788   6.318  1.00  0.00    +0.000 H 
ATOM    145  H42 UNL A   1      12.061  52.267   6.932  1.00  0.00    +0.000 H 
ATOM     45  C32 UNL A   1      13.866  53.725   5.269  1.00  0.00    +0.000 C 
ATOM     46  C33 UNL A   1      13.464  52.284   5.149  1.00  0.00    +0.000 C 
ATOM     47  N9  UNL A   1      13.840  51.394   4.264  1.00  0.00    +0.000 N 
ATOM     48  C34 UNL A   1      13.196  50.213   4.612  1.00  0.00    +0.000 C 
ATOM     49  C35 UNL A   1      13.242  49.013   3.987  1.00  0.00    +0.000 C 
ATOM     61  C42 UNL A   1      14.001  48.747   2.790  1.00  0.00    +0.000 C 
ATOM     62  C43 UNL A   1      14.079  47.574   2.059  1.00  0.00    +0.000 C 
ATOM     63  C44 UNL A   1      14.976  47.772   1.003  1.00  0.00    +0.000 C 
ATOM     64  C45 UNL A   1      15.421  49.084   1.048  1.00  0.00    +0.000 C 
ATOM     65  N10 UNL A   1      14.817  49.670   2.151  1.00  0.00    +0.000 N 
ATOM     66  C46 UNL A   1      16.331  49.752   0.154  1.00  0.00    +0.000 C 
ATOM     78  C53 UNL A   1      16.700  51.054   0.246  1.00  0.00    +0.000 C 
ATOM     79  N11 UNL A   1      16.316  52.003   1.181  1.00  0.00    +0.000 N 
ATOM     80  C54 UNL A   1      16.958  53.100   0.863  1.00  0.00    +0.000 C 
ATOM     81  C55 UNL A   1      16.915  54.446   1.524  1.00  0.00    +0.000 C 
ATOM     93  C62 UNL A   1      16.142  54.616   2.612  1.00  0.00    +0.000 C 
ATOM     94  C63 UNL A   1      16.003  55.861   3.359  1.00  0.00    +0.000 C 
ATOM     95  C64 UNL A   1      15.203  55.648   4.413  1.00  0.00    +0.000 C 
ATOM     96  C65 UNL A   1      14.727  54.264   4.383  1.00  0.00    +0.000 C 
ATOM     97  N12 UNL A   1      15.342  53.725   3.284  1.00  0.00    +0.000 N 
ATOM     98  C66 UNL A   1      17.836  52.967  -0.307  1.00  0.00    +0.000 C 
ATOM     99  C67 UNL A   1      17.613  51.711  -0.666  1.00  0.00    +0.000 C 
ATOM    100  C68 UNL A   1      12.424  50.492   5.806  1.00  0.00    +0.000 C 
ATOM    101  C69 UNL A   1      12.523  51.768   6.156  1.00  0.00    +0.000 C 
ENDROOT
BRANCH   45   44
ATOM    102  C70 UNL A   1      13.941  54.692   7.593  1.00  0.00    +0.000 C 
ATOM    103  C71 UNL A   1      13.418  55.537   8.575  1.00  0.00    +0.000 C 
ATOM    134  H31 UNL A   1      10.951  56.935   6.786  1.00  0.00    +0.000 H 
ATOM     41  C28 UNL A   1      12.293  56.319   8.295  1.00  0.00    +0.000 C 
ATOM     42  C29 UNL A   1      11.721  56.290   7.021  1.00  0.00    +0.000 C 
ATOM     43  C30 UNL A   1      12.192  55.391   6.070  1.00  0.00    +0.000 C 
ATOM    135  H32 UNL A   1      11.713  55.309   5.160  1.00  0.00    +0.000 H 
ATOM     44  C31 UNL A   1      13.318  54.594   6.341  1.00  0.00    +0.000 C 
ATOM    146  H43 UNL A   1      14.789  54.137   7.790  1.00  0.00    +0.000 H 
ATOM    147  H44 UNL A   1      13.862  55.585   9.506  1.00  0.00    +0.000 H 
BRANCH   41    2
ATOM      1  O1  UNL A   1      12.048  58.366   9.411  1.00  0.00    +0.000 O 
ATOM      2  C1  UNL A   1      11.734  57.180   9.361  1.00  0.00    +0.000 C 
BRANCH    2    3
ATOM      3  N1  UNL A   1      10.891  56.646  10.304  1.00  0.00    +0.000 N 
ATOM    104  H1  UNL A   1       9.929  56.753  10.121  1.00  0.00    +0.000 H 
BRANCH    3    4
ATOM    105  H2  UNL A   1      10.814  56.497  12.358  1.00  0.00    +0.000 H 
ATOM    106  H3  UNL A   1      12.283  55.871  11.586  1.00  0.00    +0.000 H 
ATOM      4  C2  UNL A   1      11.218  55.945  11.534  1.00  0.00    +0.000 C 
BRANCH    4    5
ATOM    107  H4  UNL A   1      10.724  54.117  10.595  1.00  0.00    +0.000 H 
ATOM    108  H5  UNL A   1       9.659  54.619  11.947  1.00  0.00    +0.000 H 
ATOM      5  C3  UNL A   1      10.661  54.529  11.581  1.00  0.00    +0.000 C 
BRANCH    5    6
ATOM    110  H7  UNL A   1      10.644  53.306  13.274  1.00  0.00    +0.000 H 
ATOM    109  H6  UNL A   1      11.735  52.745  11.962  1.00  0.00    +0.000 H 
ATOM      6  C4  UNL A   1      11.372  53.572  12.536  1.00  0.00    +0.000 C 
BRANCH    6    7
ATOM    111  H8  UNL A   1      12.356  54.028  14.357  1.00  0.00    +0.000 H 
ATOM      7  C5  UNL A   1      12.555  54.158  13.313  1.00  0.00    +0.000 C 
ATOM    112  H9  UNL A   1      12.624  55.179  13.002  1.00  0.00    +0.000 H 
BRANCH    7    8
ATOM    113  H10 UNL A   1      13.882  52.504  13.257  1.00  0.00    +0.000 H 
ATOM    114  H11 UNL A   1      14.627  54.098  13.615  1.00  0.00    +0.000 H 
ATOM      8  C6  UNL A   1      13.929  53.546  13.019  1.00  0.00    +0.000 C 
BRANCH    8    9
ATOM      9  C7  UNL A   1      14.419  53.677  11.579  1.00  0.00    +0.000 C 
ATOM    115  H12 UNL A   1      15.224  54.381  11.554  1.00  0.00    +0.000 H 
ATOM    116  H13 UNL A   1      13.593  54.001  10.983  1.00  0.00    +0.000 H 
BRANCH    9   10
ATOM     10  N2  UNL A   1      14.888  52.415  11.035  1.00  0.00    +0.000 N 
ATOM    117  H14 UNL A   1      15.787  52.134  11.322  1.00  0.00    +0.000 H 
BRANCH   10   11
ATOM     11  C8  UNL A   1      14.245  51.562  10.173  1.00  0.00    +0.000 C 
ATOM     12  O2  UNL A   1      13.018  51.533  10.133  1.00  0.00    +0.000 O 
BRANCH   11   13
ATOM     13  C9  UNL A   1      15.018  50.697   9.256  1.00  0.00    +0.000 C 
ATOM     14  C10 UNL A   1      15.393  51.261   8.028  1.00  0.00    +0.000 C 
ATOM     15  C11 UNL A   1      16.125  50.510   7.112  1.00  0.00    +0.000 C 
ATOM     16  C12 UNL A   1      16.486  49.203   7.423  1.00  0.00    +0.000 C 
ATOM     17  C13 UNL A   1      16.097  48.636   8.642  1.00  0.00    +0.000 C 
ATOM     18  C14 UNL A   1      15.331  49.359   9.570  1.00  0.00    +0.000 C 
ATOM    118  H15 UNL A   1      15.127  52.232   7.804  1.00  0.00    +0.000 H 
ATOM    119  H16 UNL A   1      16.397  50.922   6.206  1.00  0.00    +0.000 H 
ATOM    120  H17 UNL A   1      17.042  48.650   6.753  1.00  0.00    +0.000 H 
ATOM    121  H18 UNL A   1      16.378  47.667   8.861  1.00  0.00    +0.000 H 
BRANCH   18   19
ATOM    122  H19 UNL A   1      15.494  48.728  11.506  1.00  0.00    +0.000 H 
ATOM     19  N3  UNL A   1      14.854  48.766  10.759  1.00  0.00    +0.000 N 
BRANCH   19   20
ATOM     40  N8  UNL A   1      13.049  48.553  12.179  1.00  0.00    +0.000 N 
ATOM     20  C15 UNL A   1      13.593  48.230  11.011  1.00  0.00    +0.000 C 
ATOM     21  N4  UNL A   1      13.025  47.431  10.124  1.00  0.00    +0.000 N 
ATOM     22  C16 UNL A   1      11.850  46.964  10.510  1.00  0.00    +0.000 C 
ATOM     23 Cl1  UNL A   1      11.061  45.920   9.410  1.00  0.00    +0.000 Cl
ATOM     24  N5  UNL A   1      11.203  47.226  11.630  1.00  0.00    +0.000 N 
ATOM     25  C17 UNL A   1      11.843  48.055  12.437  1.00  0.00    +0.000 C 
BRANCH   25   26
ATOM     26  N6  UNL A   1      11.241  48.531  13.608  1.00  0.00    +0.000 N 
ATOM    123  H20 UNL A   1      11.283  49.500  13.777  1.00  0.00    +0.000 H 
BRANCH   26   27
ATOM    132  H29 UNL A   1      11.112  45.153  16.637  1.00  0.00    +0.000 H 
ATOM    133  H30 UNL A   1      12.254  46.534  15.014  1.00  0.00    +0.000 H 
ATOM     38  C26 UNL A   1      10.588  45.886  16.131  1.00  0.00    +0.000 C 
ATOM     39  C27 UNL A   1      11.255  46.702  15.213  1.00  0.00    +0.000 C 
ATOM    124  H21 UNL A   1       8.705  48.662  14.319  1.00  0.00    +0.000 H 
ATOM    125  H22 UNL A   1       7.525  47.187  15.836  1.00  0.00    +0.000 H 
ATOM     27  C18 UNL A   1      10.585  47.738  14.561  1.00  0.00    +0.000 C 
ATOM     28  C19 UNL A   1       9.218  47.907  14.801  1.00  0.00    +0.000 C 
ATOM     29  C20 UNL A   1       8.539  47.064  15.687  1.00  0.00    +0.000 C 
ATOM     30  C21 UNL A   1       9.222  46.052  16.375  1.00  0.00    +0.000 C 
BRANCH   30   31
ATOM     33  C23 UNL A   1       7.162  43.140  17.670  1.00  0.00    +0.000 C 
ATOM    129  H26 UNL A   1       6.243  43.685  17.743  1.00  0.00    +0.000 H 
ATOM     35  C24 UNL A   1       7.943  44.303  19.529  1.00  0.00    +0.000 C 
ATOM     36  C25 UNL A   1       8.595  45.396  18.662  1.00  0.00    +0.000 C 
ATOM     37  O4  UNL A   1       9.036  46.414  19.200  1.00  0.00    +0.000 O 
ATOM     34  O3  UNL A   1       7.749  43.019  18.962  1.00  0.00    +0.000 O 
ATOM    130  H27 UNL A   1       8.558  44.178  20.395  1.00  0.00    +0.000 H 
ATOM    131  H28 UNL A   1       6.951  44.665  19.705  1.00  0.00    +0.000 H 
ATOM    127  H24 UNL A   1       7.620  44.044  15.823  1.00  0.00    +0.000 H 
ATOM    128  H25 UNL A   1       6.964  42.166  17.274  1.00  0.00    +0.000 H 
ATOM    126  H23 UNL A   1       9.004  43.283  16.628  1.00  0.00    +0.000 H 
ATOM     31  N7  UNL A   1       8.522  45.194  17.276  1.00  0.00    +0.000 N 
ATOM     32  C22 UNL A   1       8.126  43.880  16.751  1.00  0.00    +0.000 C 
ENDBRANCH   30   31
ENDBRANCH   26   27
ENDBRANCH   25   26
ENDBRANCH   19   20
ENDBRANCH   18   19
ENDBRANCH   11   13
ENDBRANCH   10   11
ENDBRANCH    9   10
ENDBRANCH    8    9
ENDBRANCH    7    8
ENDBRANCH    6    7
ENDBRANCH    5    6
ENDBRANCH    4    5
ENDBRANCH    3    4
ENDBRANCH    2    3
ENDBRANCH   41    2
ENDBRANCH   45   44
BRANCH   49   50
ATOM     50  C36 UNL A   1      12.460  47.881   4.587  1.00  0.00    +0.000 C 
ATOM     51  C37 UNL A   1      13.004  47.057   5.585  1.00  0.00    +0.000 C 
ATOM     52  F1  UNL A   1      14.273  47.226   5.982  1.00  0.00    +0.000 F 
ATOM     53  C38 UNL A   1      12.249  46.037   6.161  1.00  0.00    +0.000 C 
ATOM     54  F2  UNL A   1      12.800  45.242   7.089  1.00  0.00    +0.000 F 
ATOM     55  C39 UNL A   1      10.933  45.840   5.775  1.00  0.00    +0.000 C 
ATOM     56  F3  UNL A   1      10.205  44.866   6.339  1.00  0.00    +0.000 F 
ATOM     57  C40 UNL A   1      10.371  46.650   4.800  1.00  0.00    +0.000 C 
ATOM     58  F4  UNL A   1       9.094  46.470   4.434  1.00  0.00    +0.000 F 
ATOM     59  C41 UNL A   1      11.129  47.654   4.204  1.00  0.00    +0.000 C 
ATOM     60  F5  UNL A   1      10.559  48.419   3.261  1.00  0.00    +0.000 F 
ENDBRANCH   49   50
BRANCH   66   67
ATOM     67  C47 UNL A   1      16.907  48.963  -0.984  1.00  0.00    +0.000 C 
ATOM     68  C48 UNL A   1      16.277  48.916  -2.237  1.00  0.00    +0.000 C 
ATOM     69  F6  UNL A   1      15.112  49.554  -2.430  1.00  0.00    +0.000 F 
ATOM     70  C49 UNL A   1      16.820  48.174  -3.282  1.00  0.00    +0.000 C 
ATOM     71  F7  UNL A   1      16.174  48.102  -4.455  1.00  0.00    +0.000 F 
ATOM     72  C50 UNL A   1      18.016  47.495  -3.106  1.00  0.00    +0.000 C 
ATOM     73  F8  UNL A   1      18.537  46.782  -4.114  1.00  0.00    +0.000 F 
ATOM     74  C51 UNL A   1      18.666  47.544  -1.882  1.00  0.00    +0.000 C 
ATOM     75  F9  UNL A   1      19.826  46.896  -1.713  1.00  0.00    +0.000 F 
ATOM     76  C52 UNL A   1      18.113  48.263  -0.826  1.00  0.00    +0.000 C 
ATOM     77  F10 UNL A   1      18.754  48.279   0.352  1.00  0.00    +0.000 F 
ENDBRANCH   66   67
BRANCH   81   82
ATOM     82  C56 UNL A   1      17.706  55.588   1.002  1.00  0.00    +0.000 C 
ATOM     83  C57 UNL A   1      17.173  56.455   0.039  1.00  0.00    +0.000 C 
ATOM     84  F11 UNL A   1      15.944  56.236  -0.452  1.00  0.00    +0.000 F 
ATOM     85  C58 UNL A   1      17.911  57.532  -0.446  1.00  0.00    +0.000 C 
ATOM     86  F12 UNL A   1      17.393  58.325  -1.393  1.00  0.00    +0.000 F 
ATOM     87  C59 UNL A   1      19.186  57.779   0.044  1.00  0.00    +0.000 C 
ATOM     88  F13 UNL A   1      19.891  58.822  -0.415  1.00  0.00    +0.000 F 
ATOM     89  C60 UNL A   1      19.729  56.942   1.006  1.00  0.00    +0.000 C 
ATOM     90  F14 UNL A   1      20.953  57.187   1.495  1.00  0.00    +0.000 F 
ATOM     91  C61 UNL A   1      19.003  55.848   1.469  1.00  0.00    +0.000 C 
ATOM     92  F15 UNL A   1      19.555  55.050   2.395  1.00  0.00    +0.000 F 
ENDBRANCH   81   82
TORSDOF 20
ENDMDL
MODEL 5
REMARK VINA RESULT:      -9.3     32.325     39.357
ROOT
ATOM    136  H33 UNL A   1      28.040  23.202  -6.985  1.00  0.00    +0.000 H 
ATOM    137  H34 UNL A   1      26.111  24.586  -5.908  1.00  0.00    +0.000 H 
ATOM    138  H35 UNL A   1      25.161  23.899  -9.879  1.00  0.00    +0.000 H 
ATOM    139  H36 UNL A   1      21.280  24.845 -14.848  1.00  0.00    +0.000 H 
ATOM    140  H37 UNL A   1      23.056  23.325 -15.840  1.00  0.00    +0.000 H 
ATOM    141  H38 UNL A   1      24.059  24.017 -11.867  1.00  0.00    +0.000 H 
ATOM    142  H39 UNL A   1      20.287  26.736  -9.961  1.00  0.00    +0.000 H 
ATOM    143  H40 UNL A   1      21.593  26.760  -7.760  1.00  0.00    +0.000 H 
ATOM    144  H41 UNL A   1      28.781  21.030 -11.844  1.00  0.00    +0.000 H 
ATOM    145  H42 UNL A   1      27.633  21.221 -14.125  1.00  0.00    +0.000 H 
ATOM     45  C32 UNL A   1      25.174  22.669 -14.054  1.00  0.00    +0.000 C 
ATOM     46  C33 UNL A   1      26.133  22.427 -12.925  1.00  0.00    +0.000 C 
ATOM     47  N9  UNL A   1      26.059  22.830 -11.680  1.00  0.00    +0.000 N 
ATOM     48  C34 UNL A   1      27.185  22.320 -11.047  1.00  0.00    +0.000 C 
ATOM     49  C35 UNL A   1      27.573  22.483  -9.760  1.00  0.00    +0.000 C 
ATOM     61  C42 UNL A   1      26.848  23.257  -8.782  1.00  0.00    +0.000 C 
ATOM     62  C43 UNL A   1      27.181  23.514  -7.464  1.00  0.00    +0.000 C 
ATOM     63  C44 UNL A   1      26.153  24.271  -6.890  1.00  0.00    +0.000 C 
ATOM     64  C45 UNL A   1      25.201  24.525  -7.864  1.00  0.00    +0.000 C 
ATOM     65  N10 UNL A   1      25.638  23.895  -9.019  1.00  0.00    +0.000 N 
ATOM     66  C46 UNL A   1      23.982  25.284  -7.749  1.00  0.00    +0.000 C 
ATOM     78  C53 UNL A   1      23.109  25.515  -8.760  1.00  0.00    +0.000 C 
ATOM     79  N11 UNL A   1      23.172  25.090 -10.078  1.00  0.00    +0.000 N 
ATOM     80  C54 UNL A   1      22.087  25.545 -10.654  1.00  0.00    +0.000 C 
ATOM     81  C55 UNL A   1      21.639  25.396 -12.079  1.00  0.00    +0.000 C 
ATOM     93  C62 UNL A   1      22.404  24.694 -12.935  1.00  0.00    +0.000 C 
ATOM     94  C63 UNL A   1      22.095  24.463 -14.342  1.00  0.00    +0.000 C 
ATOM     95  C64 UNL A   1      23.043  23.676 -14.870  1.00  0.00    +0.000 C 
ATOM     96  C65 UNL A   1      24.056  23.393 -13.851  1.00  0.00    +0.000 C 
ATOM     97  N12 UNL A   1      23.589  24.031 -12.732  1.00  0.00    +0.000 N 
ATOM     98  C66 UNL A   1      21.202  26.303  -9.760  1.00  0.00    +0.000 C 
ATOM     99  C67 UNL A   1      21.890  26.286  -8.627  1.00  0.00    +0.000 C 
ATOM    100  C68 UNL A   1      27.916  21.558 -12.038  1.00  0.00    +0.000 C 
ATOM    101  C69 UNL A   1      27.329  21.625 -13.226  1.00  0.00    +0.000 C 
ENDROOT
BRANCH   45   44
ATOM    102  C70 UNL A   1      25.976  22.956 -16.424  1.00  0.00    +0.000 C 
ATOM    103  C71 UNL A   1      26.237  22.429 -17.691  1.00  0.00    +0.000 C 
ATOM    134  H31 UNL A   1      25.455  19.226 -17.083  1.00  0.00    +0.000 H 
ATOM     41  C28 UNL A   1      25.997  21.074 -17.946  1.00  0.00    +0.000 C 
ATOM     42  C29 UNL A   1      25.542  20.241 -16.922  1.00  0.00    +0.000 C 
ATOM     43  C30 UNL A   1      25.208  20.782 -15.685  1.00  0.00    +0.000 C 
ATOM    135  H32 UNL A   1      24.789  20.180 -14.958  1.00  0.00    +0.000 H 
ATOM     44  C31 UNL A   1      25.436  22.142 -15.418  1.00  0.00    +0.000 C 
ATOM    146  H43 UNL A   1      26.181  23.949 -16.228  1.00  0.00    +0.000 H 
ATOM    147  H44 UNL A   1      26.608  23.037 -18.439  1.00  0.00    +0.000 H 
BRANCH   41    2
ATOM      1  O1  UNL A   1      27.285  20.839 -19.891  1.00  0.00    +0.000 O 
ATOM      2  C1  UNL A   1      26.247  20.544 -19.305  1.00  0.00    +0.000 C 
BRANCH    2    3
ATOM      3  N1  UNL A   1      25.308  19.750 -19.915  1.00  0.00    +0.000 N 
ATOM    104  H1  UNL A   1      25.666  19.054 -20.513  1.00  0.00    +0.000 H 
BRANCH    3    4
ATOM    105  H2  UNL A   1      23.464  20.262 -20.679  1.00  0.00    +0.000 H 
ATOM    106  H3  UNL A   1      23.624  20.337 -18.914  1.00  0.00    +0.000 H 
ATOM      4  C2  UNL A   1      23.860  19.791 -19.803  1.00  0.00    +0.000 C 
BRANCH    4    5
ATOM    107  H4  UNL A   1      23.861  17.711 -20.179  1.00  0.00    +0.000 H 
ATOM    108  H5  UNL A   1      22.250  18.493 -20.087  1.00  0.00    +0.000 H 
ATOM      5  C3  UNL A   1      23.232  18.410 -19.669  1.00  0.00    +0.000 C 
BRANCH    5    6
ATOM    110  H7  UNL A   1      23.999  17.571 -17.916  1.00  0.00    +0.000 H 
ATOM    109  H6  UNL A   1      22.645  18.722 -17.659  1.00  0.00    +0.000 H 
ATOM      6  C4  UNL A   1      23.037  17.912 -18.238  1.00  0.00    +0.000 C 
BRANCH    6    7
ATOM    111  H8  UNL A   1      22.483  15.909 -18.656  1.00  0.00    +0.000 H 
ATOM      7  C5  UNL A   1      22.096  16.715 -18.068  1.00  0.00    +0.000 C 
ATOM    112  H9  UNL A   1      21.132  17.063 -18.376  1.00  0.00    +0.000 H 
BRANCH    7    8
ATOM    113  H10 UNL A   1      22.261  16.956 -15.966  1.00  0.00    +0.000 H 
ATOM    114  H11 UNL A   1      22.453  15.281 -16.584  1.00  0.00    +0.000 H 
ATOM      8  C6  UNL A   1      21.907  16.200 -16.636  1.00  0.00    +0.000 C 
BRANCH    8    9
ATOM      9  C7  UNL A   1      20.474  15.855 -16.239  1.00  0.00    +0.000 C 
ATOM    115  H12 UNL A   1      20.395  15.896 -15.172  1.00  0.00    +0.000 H 
ATOM    116  H13 UNL A   1      20.260  14.876 -16.613  1.00  0.00    +0.000 H 
BRANCH    9   10
ATOM     10  N2  UNL A   1      19.502  16.769 -16.812  1.00  0.00    +0.000 N 
ATOM    117  H14 UNL A   1      19.048  16.453 -17.626  1.00  0.00    +0.000 H 
BRANCH   10   11
ATOM     11  C8  UNL A   1      19.131  18.014 -16.369  1.00  0.00    +0.000 C 
ATOM     12  O2  UNL A   1      18.101  18.156 -15.714  1.00  0.00    +0.000 O 
BRANCH   11   13
ATOM     13  C9  UNL A   1      19.982  19.191 -16.640  1.00  0.00    +0.000 C 
ATOM     14  C10 UNL A   1      19.823  19.805 -17.891  1.00  0.00    +0.000 C 
ATOM     15  C11 UNL A   1      20.588  20.922 -18.221  1.00  0.00    +0.000 C 
ATOM     16  C12 UNL A   1      21.503  21.426 -17.302  1.00  0.00    +0.000 C 
ATOM     17  C13 UNL A   1      21.673  20.803 -16.062  1.00  0.00    +0.000 C 
ATOM     18  C14 UNL A   1      20.940  19.657 -15.716  1.00  0.00    +0.000 C 
ATOM    118  H15 UNL A   1      19.140  19.431 -18.567  1.00  0.00    +0.000 H 
ATOM    119  H16 UNL A   1      20.475  21.372 -19.142  1.00  0.00    +0.000 H 
ATOM    120  H17 UNL A   1      22.059  22.264 -17.538  1.00  0.00    +0.000 H 
ATOM    121  H18 UNL A   1      22.352  21.193 -15.388  1.00  0.00    +0.000 H 
BRANCH   18   19
ATOM    122  H19 UNL A   1      20.515  18.267 -14.280  1.00  0.00    +0.000 H 
ATOM     19  N3  UNL A   1      21.170  18.966 -14.507  1.00  0.00    +0.000 N 
BRANCH   19   20
ATOM     40  N8  UNL A   1      23.149  18.207 -13.597  1.00  0.00    +0.000 N 
ATOM     20  C15 UNL A   1      22.208  19.144 -13.594  1.00  0.00    +0.000 C 
ATOM     21  N4  UNL A   1      22.198  20.184 -12.777  1.00  0.00    +0.000 N 
ATOM     22  C16 UNL A   1      23.220  20.207 -11.939  1.00  0.00    +0.000 C 
ATOM     23 Cl1  UNL A   1      23.267  21.524 -10.851  1.00  0.00    +0.000 Cl
ATOM     24  N5  UNL A   1      24.221  19.350 -11.860  1.00  0.00    +0.000 N 
ATOM     25  C17 UNL A   1      24.151  18.362 -12.736  1.00  0.00    +0.000 C 
BRANCH   25   26
ATOM     26  N6  UNL A   1      25.195  17.438 -12.866  1.00  0.00    +0.000 N 
ATOM    123  H20 UNL A   1      24.950  16.498 -13.023  1.00  0.00    +0.000 H 
BRANCH   26   27
ATOM    132  H29 UNL A   1      29.181  18.575 -14.715  1.00  0.00    +0.000 H 
ATOM    133  H30 UNL A   1      26.820  18.074 -14.852  1.00  0.00    +0.000 H 
ATOM     38  C26 UNL A   1      28.665  18.310 -13.860  1.00  0.00    +0.000 C 
ATOM     39  C27 UNL A   1      27.294  18.046 -13.936  1.00  0.00    +0.000 C 
ATOM    124  H21 UNL A   1      26.712  17.421 -10.709  1.00  0.00    +0.000 H 
ATOM    125  H22 UNL A   1      29.105  17.781 -10.591  1.00  0.00    +0.000 H 
ATOM     27  C18 UNL A   1      26.562  17.744 -12.787  1.00  0.00    +0.000 C 
ATOM     28  C19 UNL A   1      27.237  17.653 -11.566  1.00  0.00    +0.000 C 
ATOM     29  C20 UNL A   1      28.617  17.875 -11.496  1.00  0.00    +0.000 C 
ATOM     30  C21 UNL A   1      29.344  18.221 -12.642  1.00  0.00    +0.000 C 
BRANCH   30   31
ATOM     33  C23 UNL A   1      32.673  20.022 -12.364  1.00  0.00    +0.000 C 
ATOM    129  H26 UNL A   1      32.911  19.963 -13.406  1.00  0.00    +0.000 H 
ATOM     35  C24 UNL A   1      33.113  17.743 -12.184  1.00  0.00    +0.000 C 
ATOM     36  C25 UNL A   1      31.642  17.365 -12.435  1.00  0.00    +0.000 C 
ATOM     37  O4  UNL A   1      31.343  16.183 -12.619  1.00  0.00    +0.000 O 
ATOM     34  O3  UNL A   1      33.398  19.026 -11.651  1.00  0.00    +0.000 O 
ATOM    130  H27 UNL A   1      33.513  17.022 -11.503  1.00  0.00    +0.000 H 
ATOM    131  H28 UNL A   1      33.550  17.762 -13.160  1.00  0.00    +0.000 H 
ATOM    127  H24 UNL A   1      30.662  20.489 -12.791  1.00  0.00    +0.000 H 
ATOM    128  H25 UNL A   1      32.938  20.991 -11.995  1.00  0.00    +0.000 H 
ATOM    126  H23 UNL A   1      30.948  19.932 -11.132  1.00  0.00    +0.000 H 
ATOM     31  N7  UNL A   1      30.752  18.443 -12.563  1.00  0.00    +0.000 N 
ATOM     32  C22 UNL A   1      31.180  19.791 -12.166  1.00  0.00    +0.000 C 
ENDBRANCH   30   31
ENDBRANCH   26   27
ENDBRANCH   25   26
ENDBRANCH   19   20
ENDBRANCH   18   19
ENDBRANCH   11   13
ENDBRANCH   10   11
ENDBRANCH    9   10
ENDBRANCH    8    9
ENDBRANCH    7    8
ENDBRANCH    6    7
ENDBRANCH    5    6
ENDBRANCH    4    5
ENDBRANCH    3    4
ENDBRANCH    2    3
ENDBRANCH   41    2
ENDBRANCH   45   44
BRANCH   49   50
ATOM     50  C36 UNL A   1      28.836  21.803  -9.318  1.00  0.00    +0.000 C 
ATOM     51  C37 UNL A   1      28.854  20.447  -8.956  1.00  0.00    +0.000 C 
ATOM     52  F1  UNL A   1      27.716  19.739  -8.933  1.00  0.00    +0.000 F 
ATOM     53  C38 UNL A   1      30.043  19.820  -8.588  1.00  0.00    +0.000 C 
ATOM     54  F2  UNL A   1      30.032  18.532  -8.214  1.00  0.00    +0.000 F 
ATOM     55  C39 UNL A   1      31.237  20.524  -8.605  1.00  0.00    +0.000 C 
ATOM     56  F3  UNL A   1      32.382  19.916  -8.264  1.00  0.00    +0.000 F 
ATOM     57  C40 UNL A   1      31.245  21.861  -8.972  1.00  0.00    +0.000 C 
ATOM     58  F4  UNL A   1      32.400  22.541  -9.003  1.00  0.00    +0.000 F 
ATOM     59  C41 UNL A   1      30.055  22.498  -9.316  1.00  0.00    +0.000 C 
ATOM     60  F5  UNL A   1      30.094  23.793  -9.662  1.00  0.00    +0.000 F 
ENDBRANCH   49   50
BRANCH   66   67
ATOM     67  C47 UNL A   1      23.653  25.889  -6.417  1.00  0.00    +0.000 C 
ATOM     68  C48 UNL A   1      23.958  27.226  -6.122  1.00  0.00    +0.000 C 
ATOM     69  F6  UNL A   1      24.594  27.987  -7.026  1.00  0.00    +0.000 F 
ATOM     70  C49 UNL A   1      23.651  27.771  -4.879  1.00  0.00    +0.000 C 
ATOM     71  F7  UNL A   1      23.998  29.037  -4.602  1.00  0.00    +0.000 F 
ATOM     72  C50 UNL A   1      23.006  27.003  -3.922  1.00  0.00    +0.000 C 
ATOM     73  F8  UNL A   1      22.711  27.532  -2.726  1.00  0.00    +0.000 F 
ATOM     74  C51 UNL A   1      22.676  25.686  -4.199  1.00  0.00    +0.000 C 
ATOM     75  F9  UNL A   1      22.044  24.945  -3.278  1.00  0.00    +0.000 F 
ATOM     76  C52 UNL A   1      23.005  25.128  -5.431  1.00  0.00    +0.000 C 
ATOM     77  F10 UNL A   1      22.690  23.846  -5.666  1.00  0.00    +0.000 F 
ENDBRANCH   66   67
BRANCH   81   82
ATOM     82  C56 UNL A   1      20.374  26.007 -12.558  1.00  0.00    +0.000 C 
ATOM     83  C57 UNL A   1      20.316  27.361 -12.912  1.00  0.00    +0.000 C 
ATOM     84  F11 UNL A   1      21.404  28.134 -12.784  1.00  0.00    +0.000 F 
ATOM     85  C58 UNL A   1      19.131  27.934 -13.369  1.00  0.00    +0.000 C 
ATOM     86  F12 UNL A   1      19.091  29.240 -13.667  1.00  0.00    +0.000 F 
ATOM     87  C59 UNL A   1      17.990  27.156 -13.509  1.00  0.00    +0.000 C 
ATOM     88  F13 UNL A   1      16.854  27.706 -13.960  1.00  0.00    +0.000 F 
ATOM     89  C60 UNL A   1      18.028  25.811 -13.176  1.00  0.00    +0.000 C 
ATOM     90  F14 UNL A   1      16.933  25.052 -13.326  1.00  0.00    +0.000 F 
ATOM     91  C61 UNL A   1      19.204  25.245 -12.690  1.00  0.00    +0.000 C 
ATOM     92  F15 UNL A   1      19.210  23.943 -12.370  1.00  0.00    +0.000 F 
ENDBRANCH   81   82
TORSDOF 20
ENDMDL
MODEL 6
REMARK VINA RESULT:      -9.2     35.013     40.841
ROOT
ATOM    136  H33 UNL A   1      17.762  50.856  -2.402  1.00  0.00    +0.000 H 
ATOM    137  H34 UNL A   1      18.110  53.439  -2.342  1.00  0.00    +0.000 H 
ATOM    138  H35 UNL A   1      16.336  52.281   1.215  1.00  0.00    +0.000 H 
ATOM    139  H36 UNL A   1      13.723  53.837   6.818  1.00  0.00    +0.000 H 
ATOM    140  H37 UNL A   1      13.573  51.302   6.846  1.00  0.00    +0.000 H 
ATOM    141  H38 UNL A   1      15.328  52.427   3.250  1.00  0.00    +0.000 H 
ATOM    142  H39 UNL A   1      15.869  57.417   3.499  1.00  0.00    +0.000 H 
ATOM    143  H40 UNL A   1      16.852  57.295   1.139  1.00  0.00    +0.000 H 
ATOM    144  H41 UNL A   1      15.909  47.280   1.155  1.00  0.00    +0.000 H 
ATOM    145  H42 UNL A   1      14.676  47.403   3.397  1.00  0.00    +0.000 H 
ATOM     45  C32 UNL A   1      14.501  50.044   4.467  1.00  0.00    +0.000 C 
ATOM     46  C33 UNL A   1      15.088  49.620   3.152  1.00  0.00    +0.000 C 
ATOM     47  N9  UNL A   1      15.634  50.358   2.216  1.00  0.00    +0.000 N 
ATOM     48  C34 UNL A   1      16.035  49.477   1.221  1.00  0.00    +0.000 C 
ATOM     49  C35 UNL A   1      16.626  49.760   0.035  1.00  0.00    +0.000 C 
ATOM     61  C42 UNL A   1      16.949  51.090  -0.418  1.00  0.00    +0.000 C 
ATOM     62  C43 UNL A   1      17.512  51.481  -1.621  1.00  0.00    +0.000 C 
ATOM     63  C44 UNL A   1      17.684  52.870  -1.595  1.00  0.00    +0.000 C 
ATOM     64  C45 UNL A   1      17.185  53.350  -0.395  1.00  0.00    +0.000 C 
ATOM     65  N10 UNL A   1      16.739  52.248   0.319  1.00  0.00    +0.000 N 
ATOM     66  C46 UNL A   1      17.121  54.713   0.067  1.00  0.00    +0.000 C 
ATOM     78  C53 UNL A   1      16.589  55.111   1.249  1.00  0.00    +0.000 C 
ATOM     79  N11 UNL A   1      16.016  54.341   2.249  1.00  0.00    +0.000 N 
ATOM     80  C54 UNL A   1      15.676  55.179   3.197  1.00  0.00    +0.000 C 
ATOM     81  C55 UNL A   1      15.006  54.899   4.511  1.00  0.00    +0.000 C 
ATOM     93  C62 UNL A   1      14.699  53.629   4.831  1.00  0.00    +0.000 C 
ATOM     94  C63 UNL A   1      14.053  53.208   6.069  1.00  0.00    +0.000 C 
ATOM     95  C64 UNL A   1      13.958  51.871   6.075  1.00  0.00    +0.000 C 
ATOM     96  C65 UNL A   1      14.486  51.345   4.815  1.00  0.00    +0.000 C 
ATOM     97  N12 UNL A   1      14.911  52.461   4.142  1.00  0.00    +0.000 N 
ATOM     98  C66 UNL A   1      16.008  56.580   2.911  1.00  0.00    +0.000 C 
ATOM     99  C67 UNL A   1      16.528  56.488   1.696  1.00  0.00    +0.000 C 
ATOM    100  C68 UNL A   1      15.694  48.145   1.676  1.00  0.00    +0.000 C 
ATOM    101  C69 UNL A   1      15.070  48.181   2.846  1.00  0.00    +0.000 C 
ENDROOT
BRANCH   45   44
ATOM    102  C70 UNL A   1      14.678  48.428   6.390  1.00  0.00    +0.000 C 
ATOM    103  C71 UNL A   1      14.088  47.520   7.273  1.00  0.00    +0.000 C 
ATOM    134  H31 UNL A   1      10.901  47.840   6.280  1.00  0.00    +0.000 H 
ATOM     41  C28 UNL A   1      12.714  47.267   7.198  1.00  0.00    +0.000 C 
ATOM     42  C29 UNL A   1      11.926  47.956   6.273  1.00  0.00    +0.000 C 
ATOM     43  C30 UNL A   1      12.526  48.798   5.343  1.00  0.00    +0.000 C 
ATOM    135  H32 UNL A   1      11.954  49.237   4.604  1.00  0.00    +0.000 H 
ATOM     44  C31 UNL A   1      13.906  49.055   5.402  1.00  0.00    +0.000 C 
ATOM    146  H43 UNL A   1      15.686  48.637   6.465  1.00  0.00    +0.000 H 
ATOM    147  H44 UNL A   1      14.664  47.038   7.982  1.00  0.00    +0.000 H 
BRANCH   41    2
ATOM      1  O1  UNL A   1      12.043  45.098   7.782  1.00  0.00    +0.000 O 
ATOM      2  C1  UNL A   1      12.115  46.277   8.120  1.00  0.00    +0.000 C 
BRANCH    2    3
ATOM      3  N1  UNL A   1      11.619  46.681   9.335  1.00  0.00    +0.000 N 
ATOM    104  H1  UNL A   1      10.772  46.260   9.607  1.00  0.00    +0.000 H 
BRANCH    3    4
ATOM    105  H2  UNL A   1      12.932  48.205   9.780  1.00  0.00    +0.000 H 
ATOM    106  H3  UNL A   1      12.553  47.091  11.107  1.00  0.00    +0.000 H 
ATOM      4  C2  UNL A   1      12.168  47.642  10.275  1.00  0.00    +0.000 C 
BRANCH    4    5
ATOM    107  H4  UNL A   1      11.561  49.136  11.642  1.00  0.00    +0.000 H 
ATOM    108  H5  UNL A   1      10.279  48.014  11.083  1.00  0.00    +0.000 H 
ATOM      5  C3  UNL A   1      11.126  48.612  10.816  1.00  0.00    +0.000 C 
BRANCH    5    6
ATOM    110  H7  UNL A   1      10.037  49.098   9.101  1.00  0.00    +0.000 H 
ATOM    109  H6  UNL A   1      10.043  50.373  10.365  1.00  0.00    +0.000 H 
ATOM      6  C4  UNL A   1      10.609  49.647   9.820  1.00  0.00    +0.000 C 
BRANCH    6    7
ATOM    111  H8  UNL A   1      11.969  49.766   8.199  1.00  0.00    +0.000 H 
ATOM      7  C5  UNL A   1      11.677  50.394   9.015  1.00  0.00    +0.000 C 
ATOM    112  H9  UNL A   1      12.462  50.608   9.710  1.00  0.00    +0.000 H 
BRANCH    7    8
ATOM    113  H10 UNL A   1      10.196  51.815   8.478  1.00  0.00    +0.000 H 
ATOM    114  H11 UNL A   1      11.661  51.777   7.442  1.00  0.00    +0.000 H 
ATOM      8  C6  UNL A   1      11.263  51.751   8.435  1.00  0.00    +0.000 C 
BRANCH    8    9
ATOM      9  C7  UNL A   1      11.835  52.977   9.142  1.00  0.00    +0.000 C 
ATOM    115  H12 UNL A   1      11.024  53.564   9.522  1.00  0.00    +0.000 H 
ATOM    116  H13 UNL A   1      12.416  53.523   8.429  1.00  0.00    +0.000 H 
BRANCH    9   10
ATOM     10  N2  UNL A   1      12.710  52.626  10.247  1.00  0.00    +0.000 N 
ATOM    117  H14 UNL A   1      12.315  52.044  10.936  1.00  0.00    +0.000 H 
BRANCH   10   11
ATOM     11  C8  UNL A   1      14.015  52.995  10.457  1.00  0.00    +0.000 C 
ATOM     12  O2  UNL A   1      14.302  54.177  10.635  1.00  0.00    +0.000 O 
BRANCH   11   13
ATOM     13  C9  UNL A   1      15.085  51.977  10.510  1.00  0.00    +0.000 C 
ATOM     14  C10 UNL A   1      15.577  51.519   9.279  1.00  0.00    +0.000 C 
ATOM     15  C11 UNL A   1      16.587  50.561   9.246  1.00  0.00    +0.000 C 
ATOM     16  C12 UNL A   1      17.108  50.066  10.437  1.00  0.00    +0.000 C 
ATOM     17  C13 UNL A   1      16.604  50.511  11.665  1.00  0.00    +0.000 C 
ATOM     18  C14 UNL A   1      15.564  51.452  11.727  1.00  0.00    +0.000 C 
ATOM    118  H15 UNL A   1      15.191  51.892   8.398  1.00  0.00    +0.000 H 
ATOM    119  H16 UNL A   1      16.947  50.219   8.341  1.00  0.00    +0.000 H 
ATOM    120  H17 UNL A   1      17.868  49.368  10.416  1.00  0.00    +0.000 H 
ATOM    121  H18 UNL A   1      17.006  50.140  12.540  1.00  0.00    +0.000 H 
BRANCH   18   19
ATOM    122  H19 UNL A   1      15.422  52.587  13.419  1.00  0.00    +0.000 H 
ATOM     19  N3  UNL A   1      14.986  51.836  12.956  1.00  0.00    +0.000 N 
BRANCH   19   20
ATOM     40  N8  UNL A   1      13.125  52.144  14.283  1.00  0.00    +0.000 N 
ATOM     20  C15 UNL A   1      13.875  51.291  13.597  1.00  0.00    +0.000 C 
ATOM     21  N4  UNL A   1      13.641  49.991  13.520  1.00  0.00    +0.000 N 
ATOM     22  C16 UNL A   1      12.579  49.605  14.206  1.00  0.00    +0.000 C 
ATOM     23 Cl1  UNL A   1      12.220  47.935  14.153  1.00  0.00    +0.000 Cl
ATOM     24  N5  UNL A   1      11.750  50.357  14.906  1.00  0.00    +0.000 N 
ATOM     25  C17 UNL A   1      12.057  51.643  14.898  1.00  0.00    +0.000 C 
BRANCH   25   26
ATOM     26  N6  UNL A   1      11.212  52.590  15.489  1.00  0.00    +0.000 N 
ATOM    123  H20 UNL A   1      10.794  53.255  14.896  1.00  0.00    +0.000 H 
BRANCH   26   27
ATOM    132  H29 UNL A   1       8.959  54.317  19.030  1.00  0.00    +0.000 H 
ATOM    133  H30 UNL A   1       9.447  54.166  16.667  1.00  0.00    +0.000 H 
ATOM     38  C26 UNL A   1       9.699  53.677  18.701  1.00  0.00    +0.000 C 
ATOM     39  C27 UNL A   1       9.963  53.571  17.333  1.00  0.00    +0.000 C 
ATOM    124  H21 UNL A   1      12.362  51.252  17.450  1.00  0.00    +0.000 H 
ATOM    125  H22 UNL A   1      11.976  51.506  19.828  1.00  0.00    +0.000 H 
ATOM     27  C18 UNL A   1      10.916  52.669  16.858  1.00  0.00    +0.000 C 
ATOM     28  C19 UNL A   1      11.646  51.916  17.783  1.00  0.00    +0.000 C 
ATOM     29  C20 UNL A   1      11.414  52.053  19.157  1.00  0.00    +0.000 C 
ATOM     30  C21 UNL A   1      10.425  52.925  19.630  1.00  0.00    +0.000 C 
BRANCH   30   31
ATOM     33  C23 UNL A   1      10.244  54.467  23.092  1.00  0.00    +0.000 C 
ATOM    129  H26 UNL A   1      11.146  54.018  23.455  1.00  0.00    +0.000 H 
ATOM     35  C24 UNL A   1       9.213  52.385  23.219  1.00  0.00    +0.000 C 
ATOM     36  C25 UNL A   1       9.557  52.044  21.758  1.00  0.00    +0.000 C 
ATOM     37  O4  UNL A   1       9.364  50.901  21.340  1.00  0.00    +0.000 O 
ATOM     34  O3  UNL A   1       9.119  53.750  23.590  1.00  0.00    +0.000 O 
ATOM    130  H27 UNL A   1       8.267  51.933  23.434  1.00  0.00    +0.000 H 
ATOM    131  H28 UNL A   1      10.048  52.017  23.778  1.00  0.00    +0.000 H 
ATOM    127  H24 UNL A   1      11.134  54.886  21.228  1.00  0.00    +0.000 H 
ATOM    128  H25 UNL A   1      10.197  55.483  23.426  1.00  0.00    +0.000 H 
ATOM    126  H23 UNL A   1       9.362  54.951  21.225  1.00  0.00    +0.000 H 
ATOM     31  N7  UNL A   1      10.196  53.061  21.032  1.00  0.00    +0.000 N 
ATOM     32  C22 UNL A   1      10.229  54.429  21.570  1.00  0.00    +0.000 C 
ENDBRANCH   30   31
ENDBRANCH   26   27
ENDBRANCH   25   26
ENDBRANCH   19   20
ENDBRANCH   18   19
ENDBRANCH   11   13
ENDBRANCH   10   11
ENDBRANCH    9   10
ENDBRANCH    8    9
ENDBRANCH    7    8
ENDBRANCH    6    7
ENDBRANCH    5    6
ENDBRANCH    4    5
ENDBRANCH    3    4
ENDBRANCH    2    3
ENDBRANCH   41    2
ENDBRANCH   45   44
BRANCH   49   50
ATOM     50  C36 UNL A   1      16.979  48.609  -0.862  1.00  0.00    +0.000 C 
ATOM     51  C37 UNL A   1      16.108  48.166  -1.869  1.00  0.00    +0.000 C 
ATOM     52  F1  UNL A   1      14.898  48.727  -2.010  1.00  0.00    +0.000 F 
ATOM     53  C38 UNL A   1      16.469  47.123  -2.720  1.00  0.00    +0.000 C 
ATOM     54  F2  UNL A   1      15.607  46.695  -3.654  1.00  0.00    +0.000 F 
ATOM     55  C39 UNL A   1      17.714  46.525  -2.602  1.00  0.00    +0.000 C 
ATOM     56  F3  UNL A   1      18.064  45.531  -3.430  1.00  0.00    +0.000 F 
ATOM     57  C40 UNL A   1      18.595  46.956  -1.623  1.00  0.00    +0.000 C 
ATOM     58  F4  UNL A   1      19.806  46.389  -1.515  1.00  0.00    +0.000 F 
ATOM     59  C41 UNL A   1      18.229  47.980  -0.754  1.00  0.00    +0.000 C 
ATOM     60  F5  UNL A   1      19.102  48.372   0.186  1.00  0.00    +0.000 F 
ENDBRANCH   49   50
BRANCH   66   67
ATOM     67  C47 UNL A   1      17.663  55.786  -0.829  1.00  0.00    +0.000 C 
ATOM     68  C48 UNL A   1      16.849  56.440  -1.766  1.00  0.00    +0.000 C 
ATOM     69  F6  UNL A   1      15.562  56.085  -1.905  1.00  0.00    +0.000 F 
ATOM     70  C49 UNL A   1      17.367  57.431  -2.594  1.00  0.00    +0.000 C 
ATOM     71  F7  UNL A   1      16.583  58.007  -3.517  1.00  0.00    +0.000 F 
ATOM     72  C50 UNL A   1      18.697  57.808  -2.481  1.00  0.00    +0.000 C 
ATOM     73  F8  UNL A   1      19.194  58.763  -3.280  1.00  0.00    +0.000 F 
ATOM     74  C51 UNL A   1      19.514  57.189  -1.548  1.00  0.00    +0.000 C 
ATOM     75  F9  UNL A   1      20.797  57.559  -1.431  1.00  0.00    +0.000 F 
ATOM     76  C52 UNL A   1      19.007  56.179  -0.735  1.00  0.00    +0.000 C 
ATOM     77  F10 UNL A   1      19.825  55.586   0.147  1.00  0.00    +0.000 F 
ENDBRANCH   66   67
BRANCH   81   82
ATOM     82  C56 UNL A   1      14.678  55.994   5.458  1.00  0.00    +0.000 C 
ATOM     83  C57 UNL A   1      15.670  56.580   6.255  1.00  0.00    +0.000 C 
ATOM     84  F11 UNL A   1      16.931  56.126   6.197  1.00  0.00    +0.000 F 
ATOM     85  C58 UNL A   1      15.365  57.613   7.138  1.00  0.00    +0.000 C 
ATOM     86  F12 UNL A   1      16.324  58.132   7.917  1.00  0.00    +0.000 F 
ATOM     87  C59 UNL A   1      14.068  58.099   7.219  1.00  0.00    +0.000 C 
ATOM     88  F13 UNL A   1      13.777  59.101   8.061  1.00  0.00    +0.000 F 
ATOM     89  C60 UNL A   1      13.073  57.544   6.430  1.00  0.00    +0.000 C 
ATOM     90  F14 UNL A   1      11.822  58.022   6.492  1.00  0.00    +0.000 F 
ATOM     91  C61 UNL A   1      13.371  56.491   5.569  1.00  0.00    +0.000 C 
ATOM     92  F15 UNL A   1      12.388  55.967   4.823  1.00  0.00    +0.000 F 
ENDBRANCH   81   82
TORSDOF 20
ENDMDL
MODEL 7
REMARK VINA RESULT:      -9.1     36.002     41.768
ROOT
ATOM    136  H33 UNL A   1      18.114  50.933  -2.512  1.00  0.00    +0.000 H 
ATOM    137  H34 UNL A   1      18.511  53.506  -2.357  1.00  0.00    +0.000 H 
ATOM    138  H35 UNL A   1      16.515  52.288   1.060  1.00  0.00    +0.000 H 
ATOM    139  H36 UNL A   1      13.623  53.742   6.551  1.00  0.00    +0.000 H 
ATOM    140  H37 UNL A   1      13.420  51.212   6.496  1.00  0.00    +0.000 H 
ATOM    141  H38 UNL A   1      15.397  52.399   3.038  1.00  0.00    +0.000 H 
ATOM    142  H39 UNL A   1      16.027  57.366   3.464  1.00  0.00    +0.000 H 
ATOM    143  H40 UNL A   1      17.138  57.289   1.160  1.00  0.00    +0.000 H 
ATOM    144  H41 UNL A   1      15.989  47.300   0.829  1.00  0.00    +0.000 H 
ATOM    145  H42 UNL A   1      14.634  47.388   3.001  1.00  0.00    +0.000 H 
ATOM     45  C32 UNL A   1      14.454  50.001   4.137  1.00  0.00    +0.000 C 
ATOM     46  C33 UNL A   1      15.106  49.601   2.845  1.00  0.00    +0.000 C 
ATOM     47  N9  UNL A   1      15.718  50.353   1.963  1.00  0.00    +0.000 N 
ATOM     48  C34 UNL A   1      16.157  49.492   0.966  1.00  0.00    +0.000 C 
ATOM     49  C35 UNL A   1      16.820  49.795  -0.176  1.00  0.00    +0.000 C 
ATOM     61  C42 UNL A   1      17.195  51.130  -0.571  1.00  0.00    +0.000 C 
ATOM     62  C43 UNL A   1      17.832  51.542  -1.728  1.00  0.00    +0.000 C 
ATOM     63  C44 UNL A   1      18.031  52.925  -1.652  1.00  0.00    +0.000 C 
ATOM     64  C45 UNL A   1      17.475  53.382  -0.469  1.00  0.00    +0.000 C 
ATOM     65  N10 UNL A   1      16.968  52.270   0.187  1.00  0.00    +0.000 N 
ATOM     66  C46 UNL A   1      17.413  54.733   0.029  1.00  0.00    +0.000 C 
ATOM     78  C53 UNL A   1      16.824  55.109   1.191  1.00  0.00    +0.000 C 
ATOM     79  N11 UNL A   1      16.180  54.324   2.135  1.00  0.00    +0.000 N 
ATOM     80  C54 UNL A   1      15.804  55.142   3.086  1.00  0.00    +0.000 C 
ATOM     81  C55 UNL A   1      15.056  54.841   4.352  1.00  0.00    +0.000 C 
ATOM     93  C62 UNL A   1      14.705  53.569   4.617  1.00  0.00    +0.000 C 
ATOM     94  C63 UNL A   1      13.982  53.128   5.804  1.00  0.00    +0.000 C 
ATOM     95  C64 UNL A   1      13.859  51.793   5.765  1.00  0.00    +0.000 C 
ATOM     96  C65 UNL A   1      14.446  51.292   4.522  1.00  0.00    +0.000 C 
ATOM     97  N12 UNL A   1      14.932  52.417   3.907  1.00  0.00    +0.000 N 
ATOM     98  C66 UNL A   1      16.180  56.544   2.860  1.00  0.00    +0.000 C 
ATOM     99  C67 UNL A   1      16.767  56.474   1.674  1.00  0.00    +0.000 C 
ATOM    100  C68 UNL A   1      15.763  48.156   1.362  1.00  0.00    +0.000 C 
ATOM    101  C69 UNL A   1      15.075  48.173   2.496  1.00  0.00    +0.000 C 
ENDROOT
BRANCH   45   44
ATOM    102  C70 UNL A   1      14.452  48.423   6.099  1.00  0.00    +0.000 C 
ATOM    103  C71 UNL A   1      13.793  47.502   6.917  1.00  0.00    +0.000 C 
ATOM    134  H31 UNL A   1      10.749  47.662   5.519  1.00  0.00    +0.000 H 
ATOM     41  C28 UNL A   1      12.452  47.186   6.673  1.00  0.00    +0.000 C 
ATOM     42  C29 UNL A   1      11.761  47.824   5.641  1.00  0.00    +0.000 C 
ATOM     43  C30 UNL A   1      12.438  48.679   4.778  1.00  0.00    +0.000 C 
ATOM    135  H32 UNL A   1      11.947  49.081   3.964  1.00  0.00    +0.000 H 
ATOM     44  C31 UNL A   1      13.787  49.000   5.008  1.00  0.00    +0.000 C 
ATOM    146  H43 UNL A   1      15.432  48.677   6.297  1.00  0.00    +0.000 H 
ATOM    147  H44 UNL A   1      14.293  47.056   7.703  1.00  0.00    +0.000 H 
BRANCH   41    2
ATOM      1  O1  UNL A   1      12.316  45.826   8.578  1.00  0.00    +0.000 O 
ATOM      2  C1  UNL A   1      11.783  46.182   7.530  1.00  0.00    +0.000 C 
BRANCH    2    3
ATOM      3  N1  UNL A   1      10.587  45.634   7.140  1.00  0.00    +0.000 N 
ATOM    104  H1  UNL A   1      10.570  45.256   6.231  1.00  0.00    +0.000 H 
BRANCH    3    4
ATOM    105  H2  UNL A   1       9.339  46.275   8.649  1.00  0.00    +0.000 H 
ATOM    106  H3  UNL A   1       9.286  44.541   8.279  1.00  0.00    +0.000 H 
ATOM      4  C2  UNL A   1       9.340  45.532   7.879  1.00  0.00    +0.000 C 
BRANCH    4    5
ATOM    107  H4  UNL A   1       7.373  46.249   7.591  1.00  0.00    +0.000 H 
ATOM    108  H5  UNL A   1       7.807  44.760   6.691  1.00  0.00    +0.000 H 
ATOM      5  C3  UNL A   1       8.109  45.737   7.007  1.00  0.00    +0.000 C 
BRANCH    5    6
ATOM    110  H7  UNL A   1       9.383  46.465   5.520  1.00  0.00    +0.000 H 
ATOM    109  H6  UNL A   1       7.710  46.122   4.964  1.00  0.00    +0.000 H 
ATOM      6  C4  UNL A   1       8.335  46.538   5.726  1.00  0.00    +0.000 C 
BRANCH    6    7
ATOM    111  H8  UNL A   1       6.970  48.158   5.786  1.00  0.00    +0.000 H 
ATOM      7  C5  UNL A   1       8.033  48.038   5.812  1.00  0.00    +0.000 C 
ATOM    112  H9  UNL A   1       8.547  48.480   4.985  1.00  0.00    +0.000 H 
BRANCH    7    8
ATOM    113  H10 UNL A   1       9.540  48.397   7.262  1.00  0.00    +0.000 H 
ATOM    114  H11 UNL A   1       7.845  48.563   7.831  1.00  0.00    +0.000 H 
ATOM      8  C6  UNL A   1       8.556  48.764   7.056  1.00  0.00    +0.000 C 
BRANCH    8    9
ATOM      9  C7  UNL A   1       8.636  50.285   6.953  1.00  0.00    +0.000 C 
ATOM    115  H12 UNL A   1       7.830  50.710   7.514  1.00  0.00    +0.000 H 
ATOM    116  H13 UNL A   1       8.573  50.544   5.917  1.00  0.00    +0.000 H 
BRANCH    9   10
ATOM     10  N2  UNL A   1       9.888  50.813   7.465  1.00  0.00    +0.000 N 
ATOM    117  H14 UNL A   1      10.397  50.209   8.053  1.00  0.00    +0.000 H 
BRANCH   10   11
ATOM     11  C8  UNL A   1      10.458  52.040   7.237  1.00  0.00    +0.000 C 
ATOM     12  O2  UNL A   1      11.281  52.496   8.026  1.00  0.00    +0.000 O 
BRANCH   11   13
ATOM     13  C9  UNL A   1      10.117  52.812   6.022  1.00  0.00    +0.000 C 
ATOM     14  C10 UNL A   1      10.670  52.359   4.816  1.00  0.00    +0.000 C 
ATOM     15  C11 UNL A   1      10.394  53.032   3.628  1.00  0.00    +0.000 C 
ATOM     16  C12 UNL A   1       9.565  54.148   3.644  1.00  0.00    +0.000 C 
ATOM     17  C13 UNL A   1       9.028  54.610   4.851  1.00  0.00    +0.000 C 
ATOM     18  C14 UNL A   1       9.316  53.971   6.068  1.00  0.00    +0.000 C 
ATOM    118  H15 UNL A   1      11.281  51.527   4.808  1.00  0.00    +0.000 H 
ATOM    119  H16 UNL A   1      10.804  52.702   2.740  1.00  0.00    +0.000 H 
ATOM    120  H17 UNL A   1       9.346  54.639   2.763  1.00  0.00    +0.000 H 
ATOM    121  H18 UNL A   1       8.410  55.436   4.846  1.00  0.00    +0.000 H 
BRANCH   18   19
ATOM    122  H19 UNL A   1       8.095  54.008   7.704  1.00  0.00    +0.000 H 
ATOM     19  N3  UNL A   1       8.856  54.482   7.300  1.00  0.00    +0.000 N 
BRANCH   19   20
ATOM     40  N8  UNL A   1      10.116  55.281   9.060  1.00  0.00    +0.000 N 
ATOM     20  C15 UNL A   1       9.344  55.572   8.019  1.00  0.00    +0.000 C 
ATOM     21  N4  UNL A   1       9.009  56.801   7.665  1.00  0.00    +0.000 N 
ATOM     22  C16 UNL A   1       9.509  57.734   8.456  1.00  0.00    +0.000 C 
ATOM     23 Cl1  UNL A   1       9.111  59.347   8.057  1.00  0.00    +0.000 Cl
ATOM     24  N5  UNL A   1      10.299  57.570   9.502  1.00  0.00    +0.000 N 
ATOM     25  C17 UNL A   1      10.595  56.307   9.757  1.00  0.00    +0.000 C 
BRANCH   25   26
ATOM     26  N6  UNL A   1      11.517  55.970  10.754  1.00  0.00    +0.000 N 
ATOM    123  H20 UNL A   1      11.515  56.513  11.575  1.00  0.00    +0.000 H 
BRANCH   26   27
ATOM    132  H29 UNL A   1      15.026  53.831   8.826  1.00  0.00    +0.000 H 
ATOM    133  H30 UNL A   1      13.443  55.653   8.971  1.00  0.00    +0.000 H 
ATOM     38  C26 UNL A   1      14.299  53.819   9.559  1.00  0.00    +0.000 C 
ATOM     39  C27 UNL A   1      13.401  54.885   9.659  1.00  0.00    +0.000 C 
ATOM    124  H21 UNL A   1      11.661  53.847  12.312  1.00  0.00    +0.000 H 
ATOM    125  H22 UNL A   1      13.152  51.951  12.082  1.00  0.00    +0.000 H 
ATOM     27  C18 UNL A   1      12.447  54.922  10.677  1.00  0.00    +0.000 C 
ATOM     28  C19 UNL A   1      12.368  53.841  11.561  1.00  0.00    +0.000 C 
ATOM     29  C20 UNL A   1      13.237  52.752  11.435  1.00  0.00    +0.000 C 
ATOM     30  C21 UNL A   1      14.224  52.736  10.441  1.00  0.00    +0.000 C 
BRANCH   30   31
ATOM     33  C23 UNL A   1      17.246  50.494  10.927  1.00  0.00    +0.000 C 
ATOM    129  H26 UNL A   1      17.721  50.755  10.004  1.00  0.00    +0.000 H 
ATOM     35  C24 UNL A   1      15.677  49.270   9.720  1.00  0.00    +0.000 C 
ATOM     36  C25 UNL A   1      14.708  50.463   9.632  1.00  0.00    +0.000 C 
ATOM     37  O4  UNL A   1      13.719  50.388   8.898  1.00  0.00    +0.000 O 
ATOM     34  O3  UNL A   1      16.602  49.231  10.793  1.00  0.00    +0.000 O 
ATOM    130  H27 UNL A   1      15.082  48.384   9.782  1.00  0.00    +0.000 H 
ATOM    131  H28 UNL A   1      16.290  49.365   8.848  1.00  0.00    +0.000 H 
ATOM    127  H24 UNL A   1      16.701  52.499  11.282  1.00  0.00    +0.000 H 
ATOM    128  H25 UNL A   1      17.985  50.439  11.700  1.00  0.00    +0.000 H 
ATOM    126  H23 UNL A   1      15.803  51.314  12.248  1.00  0.00    +0.000 H 
ATOM     31  N7  UNL A   1      15.106  51.620  10.318  1.00  0.00    +0.000 N 
ATOM     32  C22 UNL A   1      16.208  51.549  11.287  1.00  0.00    +0.000 C 
ENDBRANCH   30   31
ENDBRANCH   26   27
ENDBRANCH   25   26
ENDBRANCH   19   20
ENDBRANCH   18   19
ENDBRANCH   11   13
ENDBRANCH   10   11
ENDBRANCH    9   10
ENDBRANCH    8    9
ENDBRANCH    7    8
ENDBRANCH    6    7
ENDBRANCH    5    6
ENDBRANCH    4    5
ENDBRANCH    3    4
ENDBRANCH    2    3
ENDBRANCH   41    2
ENDBRANCH   45   44
BRANCH   49   50
ATOM     50  C36 UNL A   1      17.199  48.662  -1.085  1.00  0.00    +0.000 C 
ATOM     51  C37 UNL A   1      18.321  47.859  -0.832  1.00  0.00    +0.000 C 
ATOM     52  F1  UNL A   1      19.126  48.130   0.206  1.00  0.00    +0.000 F 
ATOM     53  C38 UNL A   1      18.636  46.785  -1.663  1.00  0.00    +0.000 C 
ATOM     54  F2  UNL A   1      19.732  46.051  -1.420  1.00  0.00    +0.000 F 
ATOM     55  C39 UNL A   1      17.821  46.476  -2.741  1.00  0.00    +0.000 C 
ATOM     56  F3  UNL A   1      18.118  45.436  -3.532  1.00  0.00    +0.000 F 
ATOM     57  C40 UNL A   1      16.700  47.248  -3.003  1.00  0.00    +0.000 C 
ATOM     58  F4  UNL A   1      15.903  46.943  -4.037  1.00  0.00    +0.000 F 
ATOM     59  C41 UNL A   1      16.397  48.337  -2.190  1.00  0.00    +0.000 C 
ATOM     60  F5  UNL A   1      15.307  49.068  -2.471  1.00  0.00    +0.000 F 
ENDBRANCH   49   50
BRANCH   66   67
ATOM     67  C47 UNL A   1      18.027  55.819  -0.803  1.00  0.00    +0.000 C 
ATOM     68  C48 UNL A   1      19.370  56.193  -0.647  1.00  0.00    +0.000 C 
ATOM     69  F6  UNL A   1      20.130  55.603   0.289  1.00  0.00    +0.000 F 
ATOM     70  C49 UNL A   1      19.924  57.206  -1.423  1.00  0.00    +0.000 C 
ATOM     71  F7  UNL A   1      21.195  57.581  -1.222  1.00  0.00    +0.000 F 
ATOM     72  C50 UNL A   1      19.158  57.841  -2.390  1.00  0.00    +0.000 C 
ATOM     73  F8  UNL A   1      19.695  58.817  -3.136  1.00  0.00    +0.000 F 
ATOM     74  C51 UNL A   1      17.834  57.474  -2.574  1.00  0.00    +0.000 C 
ATOM     75  F9  UNL A   1      17.095  58.080  -3.514  1.00  0.00    +0.000 F 
ATOM     76  C52 UNL A   1      17.269  56.479  -1.782  1.00  0.00    +0.000 C 
ATOM     77  F10 UNL A   1      15.981  56.155  -1.971  1.00  0.00    +0.000 F 
ENDBRANCH   66   67
BRANCH   81   82
ATOM     82  C56 UNL A   1      14.698  55.916   5.311  1.00  0.00    +0.000 C 
ATOM     83  C57 UNL A   1      13.381  56.384   5.410  1.00  0.00    +0.000 C 
ATOM     84  F11 UNL A   1      12.431  55.887   4.604  1.00  0.00    +0.000 F 
ATOM     85  C58 UNL A   1      13.041  57.387   6.315  1.00  0.00    +0.000 C 
ATOM     86  F12 UNL A   1      11.782  57.844   6.365  1.00  0.00    +0.000 F 
ATOM     87  C59 UNL A   1      14.006  57.919   7.158  1.00  0.00    +0.000 C 
ATOM     88  F13 UNL A   1      13.676  58.876   8.037  1.00  0.00    +0.000 F 
ATOM     89  C60 UNL A   1      15.313  57.462   7.086  1.00  0.00    +0.000 C 
ATOM     90  F14 UNL A   1      16.244  57.961   7.911  1.00  0.00    +0.000 F 
ATOM     91  C61 UNL A   1      15.659  56.481   6.161  1.00  0.00    +0.000 C 
ATOM     92  F15 UNL A   1      16.932  56.062   6.108  1.00  0.00    +0.000 F 
ENDBRANCH   81   82
TORSDOF 20
ENDMDL
MODEL 8
REMARK VINA RESULT:      -8.9     40.803     46.268
ROOT
ATOM    136  H33 UNL A   1      45.308   7.006  56.743  1.00  0.00    +0.000 H 
ATOM    137  H34 UNL A   1      47.032   6.103  55.007  1.00  0.00    +0.000 H 
ATOM    138  H35 UNL A   1      45.034   9.309  53.312  1.00  0.00    +0.000 H 
ATOM    139  H36 UNL A   1      43.910  13.044  48.269  1.00  0.00    +0.000 H 
ATOM    140  H37 UNL A   1      42.382  14.051  50.029  1.00  0.00    +0.000 H 
ATOM    141  H38 UNL A   1      44.344  10.819  51.756  1.00  0.00    +0.000 H 
ATOM    142  H39 UNL A   1      47.569   9.164  48.276  1.00  0.00    +0.000 H 
ATOM    143  H40 UNL A   1      48.240   7.349  49.951  1.00  0.00    +0.000 H 
ATOM    144  H41 UNL A   1      41.904  11.164  56.771  1.00  0.00    +0.000 H 
ATOM    145  H42 UNL A   1      41.022  12.814  55.023  1.00  0.00    +0.000 H 
ATOM     45  C32 UNL A   1      42.376  12.662  52.515  1.00  0.00    +0.000 C 
ATOM     46  C33 UNL A   1      42.586  11.804  53.728  1.00  0.00    +0.000 C 
ATOM     47  N9  UNL A   1      43.417  10.805  53.897  1.00  0.00    +0.000 N 
ATOM     48  C34 UNL A   1      43.229  10.369  55.202  1.00  0.00    +0.000 C 
ATOM     49  C35 UNL A   1      43.838   9.342  55.843  1.00  0.00    +0.000 C 
ATOM     61  C42 UNL A   1      44.829   8.482  55.245  1.00  0.00    +0.000 C 
ATOM     62  C43 UNL A   1      45.473   7.390  55.800  1.00  0.00    +0.000 C 
ATOM     63  C44 UNL A   1      46.387   6.895  54.862  1.00  0.00    +0.000 C 
ATOM     64  C45 UNL A   1      46.278   7.650  53.705  1.00  0.00    +0.000 C 
ATOM     65  N10 UNL A   1      45.321   8.622  53.954  1.00  0.00    +0.000 N 
ATOM     66  C46 UNL A   1      46.996   7.498  52.466  1.00  0.00    +0.000 C 
ATOM     78  C53 UNL A   1      46.814   8.262  51.360  1.00  0.00    +0.000 C 
ATOM     79  N11 UNL A   1      45.944   9.325  51.171  1.00  0.00    +0.000 N 
ATOM     80  C54 UNL A   1      46.157   9.749  49.950  1.00  0.00    +0.000 C 
ATOM     81  C55 UNL A   1      45.489  10.870  49.209  1.00  0.00    +0.000 C 
ATOM     93  C62 UNL A   1      44.541  11.593  49.832  1.00  0.00    +0.000 C 
ATOM     94  C63 UNL A   1      43.811  12.709  49.241  1.00  0.00    +0.000 C 
ATOM     95  C64 UNL A   1      42.991  13.229  50.165  1.00  0.00    +0.000 C 
ATOM     96  C65 UNL A   1      43.097  12.445  51.397  1.00  0.00    +0.000 C 
ATOM     97  N12 UNL A   1      44.046  11.500  51.109  1.00  0.00    +0.000 N 
ATOM     98  C66 UNL A   1      47.200   9.010  49.228  1.00  0.00    +0.000 C 
ATOM     99  C67 UNL A   1      47.542   8.091  50.119  1.00  0.00    +0.000 C 
ATOM    100  C68 UNL A   1      42.222  11.228  55.791  1.00  0.00    +0.000 C 
ATOM    101  C69 UNL A   1      41.763  12.105  54.909  1.00  0.00    +0.000 C 
ENDROOT
BRANCH   45   44
ATOM    102  C70 UNL A   1      40.025  13.497  52.175  1.00  0.00    +0.000 C 
ATOM    103  C71 UNL A   1      39.088  14.534  52.196  1.00  0.00    +0.000 C 
ATOM    134  H31 UNL A   1      41.058  16.979  53.371  1.00  0.00    +0.000 H 
ATOM     41  C28 UNL A   1      39.479  15.820  52.584  1.00  0.00    +0.000 C 
ATOM     42  C29 UNL A   1      40.793  16.056  52.995  1.00  0.00    +0.000 C 
ATOM     43  C30 UNL A   1      41.742  15.044  52.898  1.00  0.00    +0.000 C 
ATOM    135  H32 UNL A   1      42.730  15.245  53.119  1.00  0.00    +0.000 H 
ATOM     44  C31 UNL A   1      41.364  13.750  52.503  1.00  0.00    +0.000 C 
ATOM    146  H43 UNL A   1      39.729  12.542  51.917  1.00  0.00    +0.000 H 
ATOM    147  H44 UNL A   1      38.108  14.352  51.927  1.00  0.00    +0.000 H 
BRANCH   41    2
ATOM      1  O1  UNL A   1      38.375  17.623  51.571  1.00  0.00    +0.000 O 
ATOM      2  C1  UNL A   1      38.479  16.910  52.566  1.00  0.00    +0.000 C 
BRANCH    2    3
ATOM      3  N1  UNL A   1      37.693  17.140  53.667  1.00  0.00    +0.000 N 
ATOM    104  H1  UNL A   1      37.916  17.945  54.188  1.00  0.00    +0.000 H 
BRANCH    3    4
ATOM    105  H2  UNL A   1      36.362  15.577  53.477  1.00  0.00    +0.000 H 
ATOM    106  H3  UNL A   1      35.748  17.029  54.290  1.00  0.00    +0.000 H 
ATOM      4  C2  UNL A   1      36.575  16.361  54.174  1.00  0.00    +0.000 C 
BRANCH    4    5
ATOM    107  H4  UNL A   1      35.942  15.769  56.101  1.00  0.00    +0.000 H 
ATOM    108  H5  UNL A   1      37.646  16.310  55.965  1.00  0.00    +0.000 H 
ATOM      5  C3  UNL A   1      36.850  15.737  55.536  1.00  0.00    +0.000 C 
BRANCH    5    6
ATOM    110  H7  UNL A   1      36.834  13.800  56.317  1.00  0.00    +0.000 H 
ATOM    109  H6  UNL A   1      37.119  13.886  54.545  1.00  0.00    +0.000 H 
ATOM      6  C4  UNL A   1      37.340  14.291  55.511  1.00  0.00    +0.000 C 
BRANCH    6    7
ATOM    111  H8  UNL A   1      39.330  15.016  55.587  1.00  0.00    +0.000 H 
ATOM      7  C5  UNL A   1      38.835  14.086  55.774  1.00  0.00    +0.000 C 
ATOM    112  H9  UNL A   1      39.132  13.289  55.125  1.00  0.00    +0.000 H 
BRANCH    7    8
ATOM    113  H10 UNL A   1      40.072  12.989  57.104  1.00  0.00    +0.000 H 
ATOM    114  H11 UNL A   1      38.349  13.145  57.581  1.00  0.00    +0.000 H 
ATOM      8  C6  UNL A   1      39.218  13.629  57.186  1.00  0.00    +0.000 C 
BRANCH    8    9
ATOM      9  C7  UNL A   1      39.558  14.741  58.174  1.00  0.00    +0.000 C 
ATOM    115  H12 UNL A   1      38.785  14.792  58.913  1.00  0.00    +0.000 H 
ATOM    116  H13 UNL A   1      39.636  15.654  57.623  1.00  0.00    +0.000 H 
BRANCH    9   10
ATOM     10  N2  UNL A   1      40.827  14.521  58.845  1.00  0.00    +0.000 N 
ATOM    117  H14 UNL A   1      40.855  13.760  59.469  1.00  0.00    +0.000 H 
BRANCH   10   11
ATOM     11  C8  UNL A   1      41.995  15.233  58.724  1.00  0.00    +0.000 C 
ATOM     12  O2  UNL A   1      41.972  16.393  58.320  1.00  0.00    +0.000 O 
BRANCH   11   13
ATOM     13  C9  UNL A   1      43.286  14.629  59.112  1.00  0.00    +0.000 C 
ATOM     14  C10 UNL A   1      43.611  14.665  60.476  1.00  0.00    +0.000 C 
ATOM     15  C11 UNL A   1      44.810  14.114  60.921  1.00  0.00    +0.000 C 
ATOM     16  C12 UNL A   1      45.678  13.524  60.009  1.00  0.00    +0.000 C 
ATOM     17  C13 UNL A   1      45.362  13.503  58.646  1.00  0.00    +0.000 C 
ATOM     18  C14 UNL A   1      44.176  14.080  58.165  1.00  0.00    +0.000 C 
ATOM    118  H15 UNL A   1      42.962  15.099  61.149  1.00  0.00    +0.000 H 
ATOM    119  H16 UNL A   1      45.053  14.144  61.924  1.00  0.00    +0.000 H 
ATOM    120  H17 UNL A   1      46.560  13.100  60.338  1.00  0.00    +0.000 H 
ATOM    121  H18 UNL A   1      46.013  13.056  57.982  1.00  0.00    +0.000 H 
BRANCH   18   19
ATOM    122  H19 UNL A   1      43.184  13.544  56.462  1.00  0.00    +0.000 H 
ATOM     19  N3  UNL A   1      43.891  14.148  56.785  1.00  0.00    +0.000 N 
BRANCH   19   20
ATOM     40  N8  UNL A   1      44.813  14.365  54.682  1.00  0.00    +0.000 N 
ATOM     20  C15 UNL A   1      44.481  14.963  55.820  1.00  0.00    +0.000 C 
ATOM     21  N4  UNL A   1      44.701  16.241  56.079  1.00  0.00    +0.000 N 
ATOM     22  C16 UNL A   1      45.302  16.884  55.093  1.00  0.00    +0.000 C 
ATOM     23 Cl1  UNL A   1      45.620  18.541  55.364  1.00  0.00    +0.000 Cl
ATOM     24  N5  UNL A   1      45.661  16.406  53.916  1.00  0.00    +0.000 N 
ATOM     25  C17 UNL A   1      45.374  15.127  53.747  1.00  0.00    +0.000 C 
BRANCH   25   26
ATOM     26  N6  UNL A   1      45.578  14.499  52.512  1.00  0.00    +0.000 N 
ATOM    123  H20 UNL A   1      44.786  14.338  51.950  1.00  0.00    +0.000 H 
BRANCH   26   27
ATOM    132  H29 UNL A   1      49.473  15.204  50.290  1.00  0.00    +0.000 H 
ATOM    133  H30 UNL A   1      47.345  15.938  51.172  1.00  0.00    +0.000 H 
ATOM     38  C26 UNL A   1      48.858  14.528  50.772  1.00  0.00    +0.000 C 
ATOM     39  C27 UNL A   1      47.640  14.959  51.305  1.00  0.00    +0.000 C 
ATOM    124  H21 UNL A   1      46.613  12.076  52.639  1.00  0.00    +0.000 H 
ATOM    125  H22 UNL A   1      48.677  11.304  51.632  1.00  0.00    +0.000 H 
ATOM     27  C18 UNL A   1      46.820  14.080  52.013  1.00  0.00    +0.000 C 
ATOM     28  C19 UNL A   1      47.213  12.742  52.128  1.00  0.00    +0.000 C 
ATOM     29  C20 UNL A   1      48.411  12.299  51.558  1.00  0.00    +0.000 C 
ATOM     30  C21 UNL A   1      49.256  13.192  50.886  1.00  0.00    +0.000 C 
BRANCH   30   31
ATOM     33  C23 UNL A   1      51.734  11.915  48.311  1.00  0.00    +0.000 C 
ATOM    129  H26 UNL A   1      51.695  10.892  48.626  1.00  0.00    +0.000 H 
ATOM     35  C24 UNL A   1      52.945  12.412  50.235  1.00  0.00    +0.000 C 
ATOM     36  C25 UNL A   1      51.676  12.769  51.030  1.00  0.00    +0.000 C 
ATOM     37  O4  UNL A   1      51.754  12.956  52.246  1.00  0.00    +0.000 O 
ATOM     34  O3  UNL A   1      52.912  12.528  48.823  1.00  0.00    +0.000 O 
ATOM    130  H27 UNL A   1      53.728  13.049  50.587  1.00  0.00    +0.000 H 
ATOM    131  H28 UNL A   1      53.077  11.364  50.409  1.00  0.00    +0.000 H 
ATOM    127  H24 UNL A   1      49.646  12.119  48.520  1.00  0.00    +0.000 H 
ATOM    128  H25 UNL A   1      51.745  11.955  47.241  1.00  0.00    +0.000 H 
ATOM    126  H23 UNL A   1      50.528  13.655  48.447  1.00  0.00    +0.000 H 
ATOM     31  N7  UNL A   1      50.475  12.731  50.304  1.00  0.00    +0.000 N 
ATOM     32  C22 UNL A   1      50.514  12.660  48.837  1.00  0.00    +0.000 C 
ENDBRANCH   30   31
ENDBRANCH   26   27
ENDBRANCH   25   26
ENDBRANCH   19   20
ENDBRANCH   18   19
ENDBRANCH   11   13
ENDBRANCH   10   11
ENDBRANCH    9   10
ENDBRANCH    8    9
ENDBRANCH    7    8
ENDBRANCH    6    7
ENDBRANCH    5    6
ENDBRANCH    4    5
ENDBRANCH    3    4
ENDBRANCH    2    3
ENDBRANCH   41    2
ENDBRANCH   45   44
BRANCH   49   50
ATOM     50  C36 UNL A   1      43.463   9.091  57.275  1.00  0.00    +0.000 C 
ATOM     51  C37 UNL A   1      44.142   9.714  58.333  1.00  0.00    +0.000 C 
ATOM     52  F1  UNL A   1      45.195  10.508  58.087  1.00  0.00    +0.000 F 
ATOM     53  C38 UNL A   1      43.755   9.503  59.655  1.00  0.00    +0.000 C 
ATOM     54  F2  UNL A   1      44.438  10.083  60.652  1.00  0.00    +0.000 F 
ATOM     55  C39 UNL A   1      42.668   8.691  59.942  1.00  0.00    +0.000 C 
ATOM     56  F3  UNL A   1      42.290   8.499  61.213  1.00  0.00    +0.000 F 
ATOM     57  C40 UNL A   1      41.975   8.076  58.911  1.00  0.00    +0.000 C 
ATOM     58  F4  UNL A   1      40.916   7.301  59.185  1.00  0.00    +0.000 F 
ATOM     59  C41 UNL A   1      42.374   8.265  57.591  1.00  0.00    +0.000 C 
ATOM     60  F5  UNL A   1      41.687   7.652  56.615  1.00  0.00    +0.000 F 
ENDBRANCH   49   50
BRANCH   66   67
ATOM     67  C47 UNL A   1      48.012   6.399  52.371  1.00  0.00    +0.000 C 
ATOM     68  C48 UNL A   1      47.637   5.075  52.097  1.00  0.00    +0.000 C 
ATOM     69  F6  UNL A   1      46.341   4.758  51.950  1.00  0.00    +0.000 F 
ATOM     70  C49 UNL A   1      48.591   4.065  52.017  1.00  0.00    +0.000 C 
ATOM     71  F7  UNL A   1      48.205   2.798  51.804  1.00  0.00    +0.000 F 
ATOM     72  C50 UNL A   1      49.936   4.362  52.177  1.00  0.00    +0.000 C 
ATOM     73  F8  UNL A   1      50.852   3.387  52.099  1.00  0.00    +0.000 F 
ATOM     74  C51 UNL A   1      50.330   5.667  52.429  1.00  0.00    +0.000 C 
ATOM     75  F9  UNL A   1      51.630   5.958  52.575  1.00  0.00    +0.000 F 
ATOM     76  C52 UNL A   1      49.377   6.676  52.535  1.00  0.00    +0.000 C 
ATOM     77  F10 UNL A   1      49.786   7.927  52.797  1.00  0.00    +0.000 F 
ENDBRANCH   66   67
BRANCH   81   82
ATOM     82  C56 UNL A   1      45.855  11.194  47.807  1.00  0.00    +0.000 C 
ATOM     83  C57 UNL A   1      45.412  10.397  46.743  1.00  0.00    +0.000 C 
ATOM     84  F11 UNL A   1      44.678   9.301  46.988  1.00  0.00    +0.000 F 
ATOM     85  C58 UNL A   1      45.747  10.704  45.427  1.00  0.00    +0.000 C 
ATOM     86  F12 UNL A   1      45.342   9.905  44.430  1.00  0.00    +0.000 F 
ATOM     87  C59 UNL A   1      46.508  11.831  45.147  1.00  0.00    +0.000 C 
ATOM     88  F13 UNL A   1      46.820  12.132  43.879  1.00  0.00    +0.000 F 
ATOM     89  C60 UNL A   1      46.946  12.641  46.182  1.00  0.00    +0.000 C 
ATOM     90  F14 UNL A   1      47.666  13.740  45.915  1.00  0.00    +0.000 F 
ATOM     91  C61 UNL A   1      46.637  12.318  47.501  1.00  0.00    +0.000 C 
ATOM     92  F15 UNL A   1      47.080  13.115  48.484  1.00  0.00    +0.000 F 
ENDBRANCH   81   82
TORSDOF 20
ENDMDL
MODEL 9
REMARK VINA RESULT:      -8.9     18.567     25.387
ROOT
ATOM    136  H33 UNL A   1      18.949   7.320  10.473  1.00  0.00    +0.000 H 
ATOM    137  H34 UNL A   1      19.754   9.318   9.004  1.00  0.00    +0.000 H 
ATOM    138  H35 UNL A   1      22.063   6.008   8.079  1.00  0.00    +0.000 H 
ATOM    139  H36 UNL A   1      26.952   3.427   4.905  1.00  0.00    +0.000 H 
ATOM    140  H37 UNL A   1      26.035   1.434   6.183  1.00  0.00    +0.000 H 
ATOM    141  H38 UNL A   1      23.714   4.741   7.160  1.00  0.00    +0.000 H 
ATOM    142  H39 UNL A   1      25.426   8.501   4.300  1.00  0.00    +0.000 H 
ATOM    143  H40 UNL A   1      23.686   9.988   5.446  1.00  0.00    +0.000 H 
ATOM    144  H41 UNL A   1      20.321   2.132  10.752  1.00  0.00    +0.000 H 
ATOM    145  H42 UNL A   1      22.226   0.694   9.824  1.00  0.00    +0.000 H 
ATOM     45  C32 UNL A   1      23.862   2.048   7.917  1.00  0.00    +0.000 C 
ATOM     46  C33 UNL A   1      22.712   2.605   8.704  1.00  0.00    +0.000 C 
ATOM     47  N9  UNL A   1      22.219   3.819   8.696  1.00  0.00    +0.000 N 
ATOM     48  C34 UNL A   1      21.152   3.804   9.584  1.00  0.00    +0.000 C 
ATOM     49  C35 UNL A   1      20.340   4.827   9.942  1.00  0.00    +0.000 C 
ATOM     61  C42 UNL A   1      20.456   6.173   9.439  1.00  0.00    +0.000 C 
ATOM     62  C43 UNL A   1      19.705   7.288   9.772  1.00  0.00    +0.000 C 
ATOM     63  C44 UNL A   1      20.148   8.364   8.995  1.00  0.00    +0.000 C 
ATOM     64  C45 UNL A   1      21.206   7.932   8.212  1.00  0.00    +0.000 C 
ATOM     65  N10 UNL A   1      21.383   6.585   8.492  1.00  0.00    +0.000 N 
ATOM     66  C46 UNL A   1      21.995   8.690   7.275  1.00  0.00    +0.000 C 
ATOM     78  C53 UNL A   1      23.040   8.202   6.561  1.00  0.00    +0.000 C 
ATOM     79  N11 UNL A   1      23.566   6.920   6.555  1.00  0.00    +0.000 N 
ATOM     80  C54 UNL A   1      24.547   6.939   5.686  1.00  0.00    +0.000 C 
ATOM     81  C55 UNL A   1      25.473   5.829   5.282  1.00  0.00    +0.000 C 
ATOM     93  C62 UNL A   1      25.320   4.614   5.838  1.00  0.00    +0.000 C 
ATOM     94  C63 UNL A   1      26.140   3.444   5.541  1.00  0.00    +0.000 C 
ATOM     95  C64 UNL A   1      25.666   2.397   6.230  1.00  0.00    +0.000 C 
ATOM     96  C65 UNL A   1      24.543   2.835   7.061  1.00  0.00    +0.000 C 
ATOM     97  N12 UNL A   1      24.404   4.164   6.757  1.00  0.00    +0.000 N 
ATOM     98  C66 UNL A   1      24.747   8.237   5.031  1.00  0.00    +0.000 C 
ATOM     99  C67 UNL A   1      23.826   8.981   5.627  1.00  0.00    +0.000 C 
ATOM    100  C68 UNL A   1      21.051   2.453  10.096  1.00  0.00    +0.000 C 
ATOM    101  C69 UNL A   1      22.017   1.682   9.614  1.00  0.00    +0.000 C 
ENDROOT
BRANCH   45   44
ATOM    102  C70 UNL A   1      25.059   0.222   9.171  1.00  0.00    +0.000 C 
ATOM    103  C71 UNL A   1      25.430  -1.119   9.306  1.00  0.00    +0.000 C 
ATOM    134  H31 UNL A   1      23.771  -2.375   6.676  1.00  0.00    +0.000 H 
ATOM     41  C28 UNL A   1      25.000  -2.060   8.364  1.00  0.00    +0.000 C 
ATOM     42  C29 UNL A   1      24.164  -1.667   7.316  1.00  0.00    +0.000 C 
ATOM     43  C30 UNL A   1      23.861  -0.322   7.137  1.00  0.00    +0.000 C 
ATOM    135  H32 UNL A   1      23.317  -0.023   6.313  1.00  0.00    +0.000 H 
ATOM     44  C31 UNL A   1      24.293   0.635   8.072  1.00  0.00    +0.000 C 
ATOM    146  H43 UNL A   1      25.352   0.910   9.882  1.00  0.00    +0.000 H 
ATOM    147  H44 UNL A   1      26.019  -1.416  10.100  1.00  0.00    +0.000 H 
BRANCH   41    2
ATOM      1  O1  UNL A   1      24.893  -4.341   7.832  1.00  0.00    +0.000 O 
ATOM      2  C1  UNL A   1      25.433  -3.467   8.506  1.00  0.00    +0.000 C 
BRANCH    2    3
ATOM      3  N1  UNL A   1      26.414  -3.796   9.408  1.00  0.00    +0.000 N 
ATOM    104  H1  UNL A   1      26.275  -3.467  10.325  1.00  0.00    +0.000 H 
BRANCH    3    4
ATOM    105  H2  UNL A   1      27.706  -4.807   8.160  1.00  0.00    +0.000 H 
ATOM    106  H3  UNL A   1      27.568  -5.436   9.813  1.00  0.00    +0.000 H 
ATOM      4  C2  UNL A   1      27.632  -4.562   9.199  1.00  0.00    +0.000 C 
BRANCH    4    5
ATOM    107  H4  UNL A   1      29.678  -4.096   8.946  1.00  0.00    +0.000 H 
ATOM    108  H5  UNL A   1      29.069  -4.072  10.632  1.00  0.00    +0.000 H 
ATOM      5  C3  UNL A   1      28.890  -3.808   9.610  1.00  0.00    +0.000 C 
BRANCH    5    6
ATOM    110  H7  UNL A   1      27.757  -2.070   9.371  1.00  0.00    +0.000 H 
ATOM    109  H6  UNL A   1      29.121  -1.916  10.529  1.00  0.00    +0.000 H 
ATOM      6  C4  UNL A   1      28.784  -2.285   9.583  1.00  0.00    +0.000 C 
BRANCH    6    7
ATOM    111  H8  UNL A   1      30.417  -1.087   8.960  1.00  0.00    +0.000 H 
ATOM      7  C5  UNL A   1      29.590  -1.576   8.490  1.00  0.00    +0.000 C 
ATOM    112  H9  UNL A   1      28.900  -0.914   8.010  1.00  0.00    +0.000 H 
BRANCH    7    8
ATOM    113  H10 UNL A   1      29.628  -2.224   6.470  1.00  0.00    +0.000 H 
ATOM    114  H11 UNL A   1      29.997  -3.475   7.704  1.00  0.00    +0.000 H 
ATOM      8  C6  UNL A   1      30.146  -2.467   7.374  1.00  0.00    +0.000 C 
BRANCH    8    9
ATOM      9  C7  UNL A   1      31.643  -2.337   7.105  1.00  0.00    +0.000 C 
ATOM    115  H12 UNL A   1      32.029  -3.299   6.840  1.00  0.00    +0.000 H 
ATOM    116  H13 UNL A   1      32.102  -1.961   7.995  1.00  0.00    +0.000 H 
BRANCH    9   10
ATOM     10  N2  UNL A   1      31.938  -1.406   6.030  1.00  0.00    +0.000 N 
ATOM    117  H14 UNL A   1      31.672  -1.697   5.129  1.00  0.00    +0.000 H 
BRANCH   10   11
ATOM     11  C8  UNL A   1      32.537  -0.173   6.105  1.00  0.00    +0.000 C 
ATOM     12  O2  UNL A   1      32.402   0.636   5.190  1.00  0.00    +0.000 O 
BRANCH   11   13
ATOM     13  C9  UNL A   1      33.318   0.211   7.299  1.00  0.00    +0.000 C 
ATOM     14  C10 UNL A   1      34.651  -0.222   7.343  1.00  0.00    +0.000 C 
ATOM     15  C11 UNL A   1      35.453   0.102   8.435  1.00  0.00    +0.000 C 
ATOM     16  C12 UNL A   1      34.927   0.860   9.475  1.00  0.00    +0.000 C 
ATOM     17  C13 UNL A   1      33.591   1.276   9.440  1.00  0.00    +0.000 C 
ATOM     18  C14 UNL A   1      32.751   0.937   8.367  1.00  0.00    +0.000 C 
ATOM    118  H15 UNL A   1      35.038  -0.780   6.566  1.00  0.00    +0.000 H 
ATOM    119  H16 UNL A   1      36.433  -0.220   8.470  1.00  0.00    +0.000 H 
ATOM    120  H17 UNL A   1      35.523   1.115  10.278  1.00  0.00    +0.000 H 
ATOM    121  H18 UNL A   1      33.217   1.844  10.216  1.00  0.00    +0.000 H 
BRANCH   18   19
ATOM    122  H19 UNL A   1      30.806   0.725   7.781  1.00  0.00    +0.000 H 
ATOM     19  N3  UNL A   1      31.380   1.271   8.365  1.00  0.00    +0.000 N 
BRANCH   19   20
ATOM     40  N8  UNL A   1      29.879   1.864  10.012  1.00  0.00    +0.000 N 
ATOM     20  C15 UNL A   1      30.735   2.275   9.084  1.00  0.00    +0.000 C 
ATOM     21  N4  UNL A   1      30.972   3.546   8.804  1.00  0.00    +0.000 N 
ATOM     22  C16 UNL A   1      30.263   4.389   9.535  1.00  0.00    +0.000 C 
ATOM     23 Cl1  UNL A   1      30.519   6.049   9.222  1.00  0.00    +0.000 Cl
ATOM     24  N5  UNL A   1      29.402   4.102  10.494  1.00  0.00    +0.000 N 
ATOM     25  C17 UNL A   1      29.256   2.807  10.713  1.00  0.00    +0.000 C 
BRANCH   25   26
ATOM     26  N6  UNL A   1      28.474   2.339  11.776  1.00  0.00    +0.000 N 
ATOM    123  H20 UNL A   1      27.672   2.859  12.012  1.00  0.00    +0.000 H 
BRANCH   26   27
ATOM    132  H29 UNL A   1      27.731  -1.985  12.938  1.00  0.00    +0.000 H 
ATOM    133  H30 UNL A   1      27.281  -0.015  11.611  1.00  0.00    +0.000 H 
ATOM     38  C26 UNL A   1      28.252  -1.113  13.126  1.00  0.00    +0.000 C 
ATOM     39  C27 UNL A   1      28.010   0.018  12.341  1.00  0.00    +0.000 C 
ATOM    124  H21 UNL A   1      30.226   2.092  13.732  1.00  0.00    +0.000 H 
ATOM    125  H22 UNL A   1      30.576   0.164  15.158  1.00  0.00    +0.000 H 
ATOM     27  C18 UNL A   1      28.743   1.190  12.534  1.00  0.00    +0.000 C 
ATOM     28  C19 UNL A   1      29.683   1.230  13.569  1.00  0.00    +0.000 C 
ATOM     29  C20 UNL A   1      29.895   0.112  14.384  1.00  0.00    +0.000 C 
ATOM     30  C21 UNL A   1      29.191  -1.079  14.161  1.00  0.00    +0.000 C 
BRANCH   30   31
ATOM     33  C23 UNL A   1      28.781  -3.563  16.999  1.00  0.00    +0.000 C 
ATOM    129  H26 UNL A   1      29.590  -3.183  17.589  1.00  0.00    +0.000 H 
ATOM     35  C24 UNL A   1      30.342  -4.463  15.525  1.00  0.00    +0.000 C 
ATOM     36  C25 UNL A   1      30.325  -3.212  14.629  1.00  0.00    +0.000 C 
ATOM     37  O4  UNL A   1      31.161  -3.098  13.730  1.00  0.00    +0.000 O 
ATOM     34  O3  UNL A   1      29.199  -4.741  16.317  1.00  0.00    +0.000 O 
ATOM    130  H27 UNL A   1      30.497  -5.307  14.886  1.00  0.00    +0.000 H 
ATOM    131  H28 UNL A   1      31.114  -4.265  16.239  1.00  0.00    +0.000 H 
ATOM    127  H24 UNL A   1      28.146  -1.614  16.511  1.00  0.00    +0.000 H 
ATOM    128  H25 UNL A   1      27.956  -3.794  17.640  1.00  0.00    +0.000 H 
ATOM    126  H23 UNL A   1      27.500  -2.882  15.452  1.00  0.00    +0.000 H 
ATOM     31  N7  UNL A   1      29.411  -2.213  14.998  1.00  0.00    +0.000 N 
ATOM     32  C22 UNL A   1      28.358  -2.517  15.977  1.00  0.00    +0.000 C 
ENDBRANCH   30   31
ENDBRANCH   26   27
ENDBRANCH   25   26
ENDBRANCH   19   20
ENDBRANCH   18   19
ENDBRANCH   11   13
ENDBRANCH   10   11
ENDBRANCH    9   10
ENDBRANCH    8    9
ENDBRANCH    7    8
ENDBRANCH    6    7
ENDBRANCH    5    6
ENDBRANCH    4    5
ENDBRANCH    3    4
ENDBRANCH    2    3
ENDBRANCH   41    2
ENDBRANCH   45   44
BRANCH   49   50
ATOM     50  C36 UNL A   1      19.237   4.536  10.919  1.00  0.00    +0.000 C 
ATOM     51  C37 UNL A   1      19.450   4.580  12.305  1.00  0.00    +0.000 C 
ATOM     52  F1  UNL A   1      20.676   4.824  12.792  1.00  0.00    +0.000 F 
ATOM     53  C38 UNL A   1      18.406   4.349  13.198  1.00  0.00    +0.000 C 
ATOM     54  F2  UNL A   1      18.640   4.364  14.518  1.00  0.00    +0.000 F 
ATOM     55  C39 UNL A   1      17.127   4.098  12.725  1.00  0.00    +0.000 C 
ATOM     56  F3  UNL A   1      16.121   3.888  13.586  1.00  0.00    +0.000 F 
ATOM     57  C40 UNL A   1      16.891   4.063  11.360  1.00  0.00    +0.000 C 
ATOM     58  F4  UNL A   1      15.652   3.834  10.900  1.00  0.00    +0.000 F 
ATOM     59  C41 UNL A   1      17.936   4.269  10.464  1.00  0.00    +0.000 C 
ATOM     60  F5  UNL A   1      17.677   4.223   9.149  1.00  0.00    +0.000 F 
ENDBRANCH   49   50
BRANCH   66   67
ATOM     67  C47 UNL A   1      21.659  10.139   7.081  1.00  0.00    +0.000 C 
ATOM     68  C48 UNL A   1      22.391  11.153   7.715  1.00  0.00    +0.000 C 
ATOM     69  F6  UNL A   1      23.395  10.840   8.549  1.00  0.00    +0.000 F 
ATOM     70  C49 UNL A   1      22.063  12.493   7.530  1.00  0.00    +0.000 C 
ATOM     71  F7  UNL A   1      22.744  13.443   8.186  1.00  0.00    +0.000 F 
ATOM     72  C50 UNL A   1      21.022  12.845   6.684  1.00  0.00    +0.000 C 
ATOM     73  F8  UNL A   1      20.709  14.136   6.507  1.00  0.00    +0.000 F 
ATOM     74  C51 UNL A   1      20.298  11.859   6.032  1.00  0.00    +0.000 C 
ATOM     75  F9  UNL A   1      19.297  12.198   5.207  1.00  0.00    +0.000 F 
ATOM     76  C52 UNL A   1      20.605  10.517   6.235  1.00  0.00    +0.000 C 
ATOM     77  F10 UNL A   1      19.877   9.584   5.604  1.00  0.00    +0.000 F 
ENDBRANCH   66   67
BRANCH   81   82
ATOM     82  C56 UNL A   1      26.550   6.048   4.285  1.00  0.00    +0.000 C 
ATOM     83  C57 UNL A   1      26.304   5.904   2.913  1.00  0.00    +0.000 C 
ATOM     84  F11 UNL A   1      25.089   5.526   2.487  1.00  0.00    +0.000 F 
ATOM     85  C58 UNL A   1      27.312   6.118   1.975  1.00  0.00    +0.000 C 
ATOM     86  F12 UNL A   1      27.060   5.938   0.671  1.00  0.00    +0.000 F 
ATOM     87  C59 UNL A   1      28.577   6.508   2.391  1.00  0.00    +0.000 C 
ATOM     88  F13 UNL A   1      29.543   6.725   1.487  1.00  0.00    +0.000 F 
ATOM     89  C60 UNL A   1      28.840   6.669   3.742  1.00  0.00    +0.000 C 
ATOM     90  F14 UNL A   1      30.056   7.063   4.146  1.00  0.00    +0.000 F 
ATOM     91  C61 UNL A   1      27.841   6.427   4.681  1.00  0.00    +0.000 C 
ATOM     92  F15 UNL A   1      28.125   6.584   5.982  1.00  0.00    +0.000 F 
ENDBRANCH   81   82
TORSDOF 20
ENDMDL
MODEL 10
REMARK VINA RESULT:      -8.8      6.974     13.812
ROOT
ATOM    136  H33 UNL A   1      10.453  14.990  26.197  1.00  0.00    +0.000 H 
ATOM    137  H34 UNL A   1      10.289  17.315  25.028  1.00  0.00    +0.000 H 
ATOM    138  H35 UNL A   1      11.079  14.457  22.138  1.00  0.00    +0.000 H 
ATOM    139  H36 UNL A   1      12.393  12.982  16.077  1.00  0.00    +0.000 H 
ATOM    140  H37 UNL A   1      12.347  10.697  17.183  1.00  0.00    +0.000 H 
ATOM    141  H38 UNL A   1      11.583  13.540  20.118  1.00  0.00    +0.000 H 
ATOM    142  H39 UNL A   1      11.361  17.950  17.719  1.00  0.00    +0.000 H 
ATOM    143  H40 UNL A   1      10.961  19.024  20.008  1.00  0.00    +0.000 H 
ATOM    144  H41 UNL A   1      11.144   9.974  24.398  1.00  0.00    +0.000 H 
ATOM    145  H42 UNL A   1      11.815   8.910  22.167  1.00  0.00    +0.000 H 
ATOM     45  C32 UNL A   1      11.922  10.762  19.998  1.00  0.00    +0.000 C 
ATOM     46  C33 UNL A   1      11.634  11.051  21.442  1.00  0.00    +0.000 C 
ATOM     47  N9  UNL A   1      11.382  12.201  22.018  1.00  0.00    +0.000 N 
ATOM     48  C34 UNL A   1      11.166  11.917  23.360  1.00  0.00    +0.000 C 
ATOM     49  C35 UNL A   1      10.895  12.777  24.370  1.00  0.00    +0.000 C 
ATOM     61  C42 UNL A   1      10.786  14.207  24.215  1.00  0.00    +0.000 C 
ATOM     62  C43 UNL A   1      10.555  15.166  25.186  1.00  0.00    +0.000 C 
ATOM     63  C44 UNL A   1      10.483  16.416  24.560  1.00  0.00    +0.000 C 
ATOM     64  C45 UNL A   1      10.717  16.241  23.206  1.00  0.00    +0.000 C 
ATOM     65  N10 UNL A   1      10.898  14.881  23.007  1.00  0.00    +0.000 N 
ATOM     66  C46 UNL A   1      10.768  17.241  22.169  1.00  0.00    +0.000 C 
ATOM     78  C53 UNL A   1      11.031  16.995  20.862  1.00  0.00    +0.000 C 
ATOM     79  N11 UNL A   1      11.293  15.784  20.239  1.00  0.00    +0.000 N 
ATOM     80  C54 UNL A   1      11.458  16.062  18.970  1.00  0.00    +0.000 C 
ATOM     81  C55 UNL A   1      11.774  15.135  17.833  1.00  0.00    +0.000 C 
ATOM     93  C62 UNL A   1      11.903  13.819  18.078  1.00  0.00    +0.000 C 
ATOM     94  C63 UNL A   1      12.205  12.802  17.076  1.00  0.00    +0.000 C 
ATOM     95  C64 UNL A   1      12.198  11.598  17.664  1.00  0.00    +0.000 C 
ATOM     96  C65 UNL A   1      11.948  11.764  19.097  1.00  0.00    +0.000 C 
ATOM     97  N12 UNL A   1      11.777  13.115  19.250  1.00  0.00    +0.000 N 
ATOM     98  C66 UNL A   1      11.306  17.484  18.639  1.00  0.00    +0.000 C 
ATOM     99  C67 UNL A   1      11.084  18.014  19.833  1.00  0.00    +0.000 C 
ATOM    100  C68 UNL A   1      11.291  10.482  23.511  1.00  0.00    +0.000 C 
ATOM    101  C69 UNL A   1      11.620   9.904  22.363  1.00  0.00    +0.000 C 
ENDROOT
BRANCH   45   44
ATOM    102  C70 UNL A   1      11.190   8.565  19.008  1.00  0.00    +0.000 C 
ATOM    103  C71 UNL A   1      11.488   7.279  18.549  1.00  0.00    +0.000 C 
ATOM    134  H31 UNL A   1      14.818   7.358  18.932  1.00  0.00    +0.000 H 
ATOM     41  C28 UNL A   1      12.809   6.820  18.570  1.00  0.00    +0.000 C 
ATOM     42  C29 UNL A   1      13.835   7.662  19.005  1.00  0.00    +0.000 C 
ATOM     43  C30 UNL A   1      13.529   8.911  19.535  1.00  0.00    +0.000 C 
ATOM    135  H32 UNL A   1      14.278   9.496  19.936  1.00  0.00    +0.000 H 
ATOM     44  C31 UNL A   1      12.205   9.382  19.527  1.00  0.00    +0.000 C 
ATOM    146  H43 UNL A   1      10.220   8.914  18.965  1.00  0.00    +0.000 H 
ATOM    147  H44 UNL A   1      10.734   6.669  18.194  1.00  0.00    +0.000 H 
BRANCH   41    2
ATOM      1  O1  UNL A   1      13.928   5.257  17.227  1.00  0.00    +0.000 O 
ATOM      2  C1  UNL A   1      13.097   5.443  18.112  1.00  0.00    +0.000 C 
BRANCH    2    3
ATOM      3  N1  UNL A   1      12.418   4.382  18.658  1.00  0.00    +0.000 N 
ATOM    104  H1  UNL A   1      12.290   4.416  19.633  1.00  0.00    +0.000 H 
BRANCH    3    4
ATOM    105  H2  UNL A   1      12.291   3.135  17.021  1.00  0.00    +0.000 H 
ATOM    106  H3  UNL A   1      10.800   3.345  17.958  1.00  0.00    +0.000 H 
ATOM      4  C2  UNL A   1      11.861   3.213  17.998  1.00  0.00    +0.000 C 
BRANCH    4    5
ATOM    107  H4  UNL A   1      12.955   1.427  18.277  1.00  0.00    +0.000 H 
ATOM    108  H5  UNL A   1      11.217   1.359  18.710  1.00  0.00    +0.000 H 
ATOM      5  C3  UNL A   1      12.129   1.916  18.750  1.00  0.00    +0.000 C 
BRANCH    5    6
ATOM    110  H7  UNL A   1      13.522   1.961  20.307  1.00  0.00    +0.000 H 
ATOM    109  H6  UNL A   1      12.098   3.027  20.551  1.00  0.00    +0.000 H 
ATOM      6  C4  UNL A   1      12.460   2.072  20.233  1.00  0.00    +0.000 C 
BRANCH    6    7
ATOM    111  H8  UNL A   1      12.306   0.070  20.911  1.00  0.00    +0.000 H 
ATOM      7  C5  UNL A   1      11.867   1.012  21.166  1.00  0.00    +0.000 C 
ATOM    112  H9  UNL A   1      10.808   1.060  21.017  1.00  0.00    +0.000 H 
BRANCH    7    8
ATOM    113  H10 UNL A   1      11.123   1.415  23.112  1.00  0.00    +0.000 H 
ATOM    114  H11 UNL A   1      12.758   2.060  22.746  1.00  0.00    +0.000 H 
ATOM      8  C6  UNL A   1      12.079   1.235  22.668  1.00  0.00    +0.000 C 
BRANCH    8    9
ATOM      9  C7  UNL A   1      12.738   0.084  23.424  1.00  0.00    +0.000 C 
ATOM    115  H12 UNL A   1      12.465   0.151  24.456  1.00  0.00    +0.000 H 
ATOM    116  H13 UNL A   1      13.795   0.170  23.290  1.00  0.00    +0.000 H 
BRANCH    9   10
ATOM     10  N2  UNL A   1      12.333  -1.216  22.919  1.00  0.00    +0.000 N 
ATOM    117  H14 UNL A   1      12.286  -1.299  21.940  1.00  0.00    +0.000 H 
BRANCH   10   11
ATOM     11  C8  UNL A   1      12.009  -2.347  23.627  1.00  0.00    +0.000 C 
ATOM     12  O2  UNL A   1      12.052  -3.449  23.086  1.00  0.00    +0.000 O 
BRANCH   11   13
ATOM     13  C9  UNL A   1      11.642  -2.258  25.056  1.00  0.00    +0.000 C 
ATOM     14  C10 UNL A   1      12.695  -2.319  25.980  1.00  0.00    +0.000 C 
ATOM     15  C11 UNL A   1      12.429  -2.240  27.345  1.00  0.00    +0.000 C 
ATOM     16  C12 UNL A   1      11.118  -2.094  27.785  1.00  0.00    +0.000 C 
ATOM     17  C13 UNL A   1      10.066  -2.050  26.864  1.00  0.00    +0.000 C 
ATOM     18  C14 UNL A   1      10.301  -2.161  25.484  1.00  0.00    +0.000 C 
ATOM    118  H15 UNL A   1      13.666  -2.423  25.649  1.00  0.00    +0.000 H 
ATOM    119  H16 UNL A   1      13.203  -2.290  28.026  1.00  0.00    +0.000 H 
ATOM    120  H17 UNL A   1      10.920  -2.018  28.795  1.00  0.00    +0.000 H 
ATOM    121  H18 UNL A   1       9.099  -1.935  27.205  1.00  0.00    +0.000 H 
BRANCH   18   19
ATOM    122  H19 UNL A   1       8.969  -3.112  24.263  1.00  0.00    +0.000 H 
ATOM     19  N3  UNL A   1       9.242  -2.212  24.553  1.00  0.00    +0.000 N 
BRANCH   19   20
ATOM     40  N8  UNL A   1       7.535  -0.670  24.727  1.00  0.00    +0.000 N 
ATOM     20  C15 UNL A   1       8.532  -1.151  23.993  1.00  0.00    +0.000 C 
ATOM     21  N4  UNL A   1       8.851  -0.705  22.790  1.00  0.00    +0.000 N 
ATOM     22  C16 UNL A   1       8.071   0.275  22.367  1.00  0.00    +0.000 C 
ATOM     23 Cl1  UNL A   1       8.426   0.898  20.815  1.00  0.00    +0.000 Cl
ATOM     24  N5  UNL A   1       7.069   0.847  23.009  1.00  0.00    +0.000 N 
ATOM     25  C17 UNL A   1       6.848   0.345  24.212  1.00  0.00    +0.000 C 
BRANCH   25   26
ATOM     26  N6  UNL A   1       5.903   0.919  25.070  1.00  0.00    +0.000 N 
ATOM    123  H20 UNL A   1       5.248   0.317  25.491  1.00  0.00    +0.000 H 
BRANCH   26   27
ATOM    132  H29 UNL A   1       3.598   4.805  25.508  1.00  0.00    +0.000 H 
ATOM    133  H30 UNL A   1       3.745   2.445  25.004  1.00  0.00    +0.000 H 
ATOM     38  C26 UNL A   1       4.515   4.331  25.543  1.00  0.00    +0.000 C 
ATOM     39  C27 UNL A   1       4.595   2.961  25.277  1.00  0.00    +0.000 C 
ATOM    124  H21 UNL A   1       7.871   2.535  25.756  1.00  0.00    +0.000 H 
ATOM    125  H22 UNL A   1       7.752   4.927  26.120  1.00  0.00    +0.000 H 
ATOM     27  C18 UNL A   1       5.812   2.286  25.376  1.00  0.00    +0.000 C 
ATOM     28  C19 UNL A   1       6.962   3.018  25.689  1.00  0.00    +0.000 C 
ATOM     29  C20 UNL A   1       6.891   4.397  25.912  1.00  0.00    +0.000 C 
ATOM     30  C21 UNL A   1       5.662   5.067  25.857  1.00  0.00    +0.000 C 
BRANCH   30   31
ATOM     33  C23 UNL A   1       5.681   8.406  27.661  1.00  0.00    +0.000 C 
ATOM    129  H26 UNL A   1       4.617   8.526  27.669  1.00  0.00    +0.000 H 
ATOM     35  C24 UNL A   1       5.667   8.864  25.379  1.00  0.00    +0.000 C 
ATOM     36  C25 UNL A   1       5.557   7.374  25.006  1.00  0.00    +0.000 C 
ATOM     37  O4  UNL A   1       5.334   7.056  23.836  1.00  0.00    +0.000 O 
ATOM     34  O3  UNL A   1       6.245   9.206  26.627  1.00  0.00    +0.000 O 
ATOM    130  H27 UNL A   1       6.252   9.337  24.618  1.00  0.00    +0.000 H 
ATOM    131  H28 UNL A   1       4.651   9.189  25.462  1.00  0.00    +0.000 H 
ATOM    127  H24 UNL A   1       5.510   6.360  28.138  1.00  0.00    +0.000 H 
ATOM    128  H25 UNL A   1       6.078   8.710  28.607  1.00  0.00    +0.000 H 
ATOM    126  H23 UNL A   1       7.089   6.829  27.482  1.00  0.00    +0.000 H 
ATOM     31  N7  UNL A   1       5.598   6.475  26.083  1.00  0.00    +0.000 N 
ATOM     32  C22 UNL A   1       6.028   6.945  27.407  1.00  0.00    +0.000 C 
ENDBRANCH   30   31
ENDBRANCH   26   27
ENDBRANCH   25   26
ENDBRANCH   19   20
ENDBRANCH   18   19
ENDBRANCH   11   13
ENDBRANCH   10   11
ENDBRANCH    9   10
ENDBRANCH    8    9
ENDBRANCH    7    8
ENDBRANCH    6    7
ENDBRANCH    5    6
ENDBRANCH    4    5
ENDBRANCH    3    4
ENDBRANCH    2    3
ENDBRANCH   41    2
ENDBRANCH   45   44
BRANCH   49   50
ATOM     50  C36 UNL A   1      10.682  12.203  25.741  1.00  0.00    +0.000 C 
ATOM     51  C37 UNL A   1       9.399  11.900  26.221  1.00  0.00    +0.000 C 
ATOM     52  F1  UNL A   1       8.317  12.181  25.481  1.00  0.00    +0.000 F 
ATOM     53  C38 UNL A   1       9.222  11.327  27.480  1.00  0.00    +0.000 C 
ATOM     54  F2  UNL A   1       7.985  11.077  27.931  1.00  0.00    +0.000 F 
ATOM     55  C39 UNL A   1      10.321  11.021  28.267  1.00  0.00    +0.000 C 
ATOM     56  F3  UNL A   1      10.150  10.460  29.472  1.00  0.00    +0.000 F 
ATOM     57  C40 UNL A   1      11.599  11.300  27.807  1.00  0.00    +0.000 C 
ATOM     58  F4  UNL A   1      12.664  10.992  28.561  1.00  0.00    +0.000 F 
ATOM     59  C41 UNL A   1      11.778  11.894  26.561  1.00  0.00    +0.000 C 
ATOM     60  F5  UNL A   1      13.027  12.156  26.145  1.00  0.00    +0.000 F 
ENDBRANCH   49   50
BRANCH   66   67
ATOM     67  C47 UNL A   1      10.533  18.670  22.557  1.00  0.00    +0.000 C 
ATOM     68  C48 UNL A   1       9.240  19.206  22.636  1.00  0.00    +0.000 C 
ATOM     69  F6  UNL A   1       8.176  18.449  22.325  1.00  0.00    +0.000 F 
ATOM     70  C49 UNL A   1       9.038  20.536  22.992  1.00  0.00    +0.000 C 
ATOM     71  F7  UNL A   1       7.796  21.041  23.012  1.00  0.00    +0.000 F 
ATOM     72  C50 UNL A   1      10.121  21.345  23.306  1.00  0.00    +0.000 C 
ATOM     73  F8  UNL A   1       9.923  22.625  23.649  1.00  0.00    +0.000 F 
ATOM     74  C51 UNL A   1      11.406  20.830  23.254  1.00  0.00    +0.000 C 
ATOM     75  F9  UNL A   1      12.453  21.607  23.566  1.00  0.00    +0.000 F 
ATOM     76  C52 UNL A   1      11.614  19.508  22.873  1.00  0.00    +0.000 C 
ATOM     77  F10 UNL A   1      12.871  19.041  22.814  1.00  0.00    +0.000 F 
ENDBRANCH   66   67
BRANCH   81   82
ATOM     82  C56 UNL A   1      11.947  15.643  16.448  1.00  0.00    +0.000 C 
ATOM     83  C57 UNL A   1      10.843  15.830  15.606  1.00  0.00    +0.000 C 
ATOM     84  F11 UNL A   1       9.612  15.512  16.033  1.00  0.00    +0.000 F 
ATOM     85  C58 UNL A   1      11.003  16.314  14.309  1.00  0.00    +0.000 C 
ATOM     86  F12 UNL A   1       9.935  16.449  13.510  1.00  0.00    +0.000 F 
ATOM     87  C59 UNL A   1      12.266  16.648  13.842  1.00  0.00    +0.000 C 
ATOM     88  F13 UNL A   1      12.417  17.125  12.598  1.00  0.00    +0.000 F 
ATOM     89  C60 UNL A   1      13.371  16.484  14.663  1.00  0.00    +0.000 C 
ATOM     90  F14 UNL A   1      14.590  16.822  14.221  1.00  0.00    +0.000 F 
ATOM     91  C61 UNL A   1      13.215  15.971  15.948  1.00  0.00    +0.000 C 
ATOM     92  F15 UNL A   1      14.302  15.816  16.718  1.00  0.00    +0.000 F 
ENDBRANCH   81   82
TORSDOF 20
ENDMDL
