MODEL 1
REMARK VINA RESULT:     -10.1      0.000      0.000
ROOT
ATOM     19  C15 UNL A   1      20.956  38.460  49.254  1.00  0.00    +0.000 C 
ATOM     20  C16 UNL A   1      21.760  39.730  49.311  1.00  0.00    +0.000 C 
ATOM     21  N3  UNL A   1      22.931  39.994  48.786  1.00  0.00    +0.000 N 
ATOM     22  C17 UNL A   1      23.209  41.313  49.121  1.00  0.00    +0.000 C 
ATOM     23  C18 UNL A   1      24.336  42.029  48.884  1.00  0.00    +0.000 C 
ATOM     35  C25 UNL A   1      25.487  41.525  48.178  1.00  0.00    +0.000 C 
ATOM     36  C26 UNL A   1      26.684  42.165  47.911  1.00  0.00    +0.000 C 
ATOM     37  C27 UNL A   1      27.488  41.298  47.161  1.00  0.00    +0.000 C 
ATOM     38  C28 UNL A   1      26.813  40.098  47.009  1.00  0.00    +0.000 C 
ATOM     39  N4  UNL A   1      25.582  40.255  47.628  1.00  0.00    +0.000 N 
ATOM     40  C29 UNL A   1      27.257  38.896  46.352  1.00  0.00    +0.000 C 
ATOM     52  C36 UNL A   1      26.527  37.758  46.243  1.00  0.00    +0.000 C 
ATOM     53  N5  UNL A   1      25.247  37.493  46.710  1.00  0.00    +0.000 N 
ATOM     54  C37 UNL A   1      24.972  36.269  46.332  1.00  0.00    +0.000 C 
ATOM     55  C38 UNL A   1      23.737  35.448  46.590  1.00  0.00    +0.000 C 
ATOM     67  C45 UNL A   1      22.740  35.975  47.327  1.00  0.00    +0.000 C 
ATOM     68  C46 UNL A   1      21.501  35.290  47.683  1.00  0.00    +0.000 C 
ATOM     69  C47 UNL A   1      20.728  36.126  48.394  1.00  0.00    +0.000 C 
ATOM     70  C48 UNL A   1      21.432  37.396  48.574  1.00  0.00    +0.000 C 
ATOM     71  N6  UNL A   1      22.616  37.216  47.903  1.00  0.00    +0.000 N 
ATOM     72  C49 UNL A   1      26.042  35.627  45.556  1.00  0.00    +0.000 C 
ATOM     73  C50 UNL A   1      26.985  36.558  45.577  1.00  0.00    +0.000 C 
ATOM     74  C51 UNL A   1      22.056  41.819  49.833  1.00  0.00    +0.000 C 
ATOM     75  C52 UNL A   1      21.160  40.863  50.034  1.00  0.00    +0.000 C 
ATOM    108  H21 UNL A   1      26.941  43.118  48.211  1.00  0.00    +0.000 H 
ATOM    109  H22 UNL A   1      28.424  41.516  46.786  1.00  0.00    +0.000 H 
ATOM    110  H23 UNL A   1      24.879  39.567  47.670  1.00  0.00    +0.000 H 
ATOM    111  H24 UNL A   1      21.259  34.320  47.430  1.00  0.00    +0.000 H 
ATOM    112  H25 UNL A   1      19.787  35.907  48.758  1.00  0.00    +0.000 H 
ATOM    113  H26 UNL A   1      23.311  37.910  47.842  1.00  0.00    +0.000 H 
ATOM    114  H27 UNL A   1      26.056  34.696  45.112  1.00  0.00    +0.000 H 
ATOM    115  H28 UNL A   1      27.925  36.442  45.168  1.00  0.00    +0.000 H 
ATOM    116  H29 UNL A   1      21.945  42.796  50.145  1.00  0.00    +0.000 H 
ATOM    117  H30 UNL A   1      20.273  40.903  50.559  1.00  0.00    +0.000 H 
ENDROOT
BRANCH   19   18
ATOM    106  H19 UNL A   1      18.157  37.245  52.722  1.00  0.00    +0.000 H 
ATOM    107  H20 UNL A   1      20.346  37.554  51.726  1.00  0.00    +0.000 H 
ATOM     76  C53 UNL A   1      18.471  38.808  49.247  1.00  0.00    +0.000 C 
ATOM     77  C54 UNL A   1      17.220  38.714  49.860  1.00  0.00    +0.000 C 
ATOM     15  C11 UNL A   1      17.094  38.084  51.100  1.00  0.00    +0.000 C 
ATOM     16  C12 UNL A   1      18.241  37.670  51.786  1.00  0.00    +0.000 C 
ATOM     17  C13 UNL A   1      19.500  37.832  51.204  1.00  0.00    +0.000 C 
ATOM     18  C14 UNL A   1      19.625  38.369  49.912  1.00  0.00    +0.000 C 
ATOM    118  H31 UNL A   1      18.547  39.205  48.297  1.00  0.00    +0.000 H 
ATOM    119  H32 UNL A   1      16.388  39.110  49.395  1.00  0.00    +0.000 H 
BRANCH   15   13
ATOM     13  C10 UNL A   1      15.775  37.867  51.739  1.00  0.00    +0.000 C 
ATOM     14  O2  UNL A   1      15.429  38.593  52.669  1.00  0.00    +0.000 O 
BRANCH   13   12
ATOM    105  H18 UNL A   1      15.265  35.946  51.538  1.00  0.00    +0.000 H 
ATOM     12  N2  UNL A   1      14.947  36.853  51.326  1.00  0.00    +0.000 N 
BRANCH   12   11
ATOM     11  C9  UNL A   1      13.676  36.907  50.624  1.00  0.00    +0.000 C 
ATOM    103  H16 UNL A   1      13.217  35.941  50.672  1.00  0.00    +0.000 H 
ATOM    104  H17 UNL A   1      13.077  37.655  51.102  1.00  0.00    +0.000 H 
BRANCH   11   10
ATOM     10  C8  UNL A   1      13.821  37.307  49.158  1.00  0.00    +0.000 C 
ATOM    101  H14 UNL A   1      12.867  37.647  48.813  1.00  0.00    +0.000 H 
ATOM    102  H15 UNL A   1      14.584  38.056  49.133  1.00  0.00    +0.000 H 
BRANCH   10    9
ATOM      9  C7  UNL A   1      14.295  36.198  48.214  1.00  0.00    +0.000 C 
ATOM     99  H12 UNL A   1      14.023  35.259  48.650  1.00  0.00    +0.000 H 
ATOM    100  H13 UNL A   1      13.823  36.393  47.275  1.00  0.00    +0.000 H 
BRANCH    9    8
ATOM     97  H10 UNL A   1      16.254  36.966  48.475  1.00  0.00    +0.000 H 
ATOM     98  H11 UNL A   1      16.131  35.193  48.225  1.00  0.00    +0.000 H 
ATOM      8  C6  UNL A   1      15.799  36.166  47.928  1.00  0.00    +0.000 C 
BRANCH    8    7
ATOM     95  H8  UNL A   1      15.577  37.063  46.014  1.00  0.00    +0.000 H 
ATOM      7  C5  UNL A   1      16.200  36.314  46.456  1.00  0.00    +0.000 C 
ATOM     96  H9  UNL A   1      17.239  36.570  46.454  1.00  0.00    +0.000 H 
BRANCH    7    6
ATOM     94  H7  UNL A   1      15.143  35.080  45.096  1.00  0.00    +0.000 H 
ATOM     93  H6  UNL A   1      16.112  34.193  46.276  1.00  0.00    +0.000 H 
ATOM      6  C4  UNL A   1      16.073  35.039  45.622  1.00  0.00    +0.000 C 
BRANCH    6    5
ATOM     92  H5  UNL A   1      16.908  35.267  43.748  1.00  0.00    +0.000 H 
ATOM      5  N1  UNL A   1      17.141  34.921  44.640  1.00  0.00    +0.000 N 
BRANCH    5    3
ATOM      3  C3  UNL A   1      18.407  34.417  44.731  1.00  0.00    +0.000 C 
ATOM      4  O1  UNL A   1      19.301  35.200  45.066  1.00  0.00    +0.000 O 
BRANCH    3    2
ATOM      2  C2  UNL A   1      18.735  32.942  44.433  1.00  0.00    +0.000 C 
ATOM     91  H4  UNL A   1      19.509  32.886  43.696  1.00  0.00    +0.000 H 
BRANCH    2    1
ATOM      1  C1  UNL A   1      19.245  32.296  45.730  1.00  0.00    +0.000 C 
ATOM     90  H3  UNL A   1      18.465  31.704  46.164  1.00  0.00    +0.000 H 
ATOM     89  H2  UNL A   1      20.086  31.673  45.512  1.00  0.00    +0.000 H 
ATOM     88  H1  UNL A   1      19.536  33.062  46.419  1.00  0.00    +0.000 H 
ENDBRANCH    2    1
BRANCH    2   78
ATOM     78  C55 UNL A   1      17.583  32.189  43.769  1.00  0.00    +0.000 C 
ATOM     79  C56 UNL A   1      17.347  32.269  42.384  1.00  0.00    +0.000 C 
ATOM     80  C57 UNL A   1      16.607  31.279  41.738  1.00  0.00    +0.000 C 
ATOM     81  C58 UNL A   1      16.152  30.201  42.483  1.00  0.00    +0.000 C 
ATOM     82  C59 UNL A   1      16.216  30.216  43.875  1.00  0.00    +0.000 C 
ATOM     83  C60 UNL A   1      16.842  31.267  44.524  1.00  0.00    +0.000 C 
ATOM     84  O3  UNL A   1      15.859  29.154  44.659  1.00  0.00    +0.000 O 
ATOM     85  C61 UNL A   1      15.815  27.911  43.946  1.00  0.00    +0.000 C 
ATOM     86  C62 UNL A   1      16.408  27.977  42.543  1.00  0.00    +0.000 C 
ATOM     87  O4  UNL A   1      15.806  29.054  41.811  1.00  0.00    +0.000 O 
ATOM    120  H33 UNL A   1      17.725  33.064  41.844  1.00  0.00    +0.000 H 
ATOM    121  H34 UNL A   1      16.402  31.349  40.729  1.00  0.00    +0.000 H 
ATOM    122  H35 UNL A   1      16.764  31.372  45.548  1.00  0.00    +0.000 H 
ATOM    123  H36 UNL A   1      14.792  27.606  43.865  1.00  0.00    +0.000 H 
ATOM    124  H37 UNL A   1      16.410  27.216  44.501  1.00  0.00    +0.000 H 
ATOM    125  H38 UNL A   1      16.222  27.054  42.035  1.00  0.00    +0.000 H 
ATOM    126  H39 UNL A   1      17.463  28.143  42.613  1.00  0.00    +0.000 H 
ENDBRANCH    2   78
ENDBRANCH    3    2
ENDBRANCH    5    3
ENDBRANCH    6    5
ENDBRANCH    7    6
ENDBRANCH    8    7
ENDBRANCH    9    8
ENDBRANCH   10    9
ENDBRANCH   11   10
ENDBRANCH   12   11
ENDBRANCH   13   12
ENDBRANCH   15   13
ENDBRANCH   19   18
BRANCH   23   24
ATOM     33  C24 UNL A   1      23.993  44.517  48.609  1.00  0.00    +0.000 C 
ATOM     34  F5  UNL A   1      23.522  44.307  47.371  1.00  0.00    +0.000 F 
ATOM     24  C19 UNL A   1      24.388  43.435  49.409  1.00  0.00    +0.000 C 
ATOM     25  C20 UNL A   1      24.880  43.717  50.694  1.00  0.00    +0.000 C 
ATOM     26  F1  UNL A   1      25.263  42.717  51.504  1.00  0.00    +0.000 F 
ATOM     27  C21 UNL A   1      24.951  45.024  51.165  1.00  0.00    +0.000 C 
ATOM     28  F2  UNL A   1      25.382  45.263  52.412  1.00  0.00    +0.000 F 
ATOM     29  C22 UNL A   1      24.567  46.079  50.351  1.00  0.00    +0.000 C 
ATOM     30  F3  UNL A   1      24.647  47.338  50.803  1.00  0.00    +0.000 F 
ATOM     31  C23 UNL A   1      24.095  45.827  49.073  1.00  0.00    +0.000 C 
ATOM     32  F4  UNL A   1      23.736  46.846  48.280  1.00  0.00    +0.000 F 
ENDBRANCH   23   24
BRANCH   40   41
ATOM     41  C30 UNL A   1      28.640  38.883  45.764  1.00  0.00    +0.000 C 
ATOM     42  C31 UNL A   1      28.942  39.561  44.573  1.00  0.00    +0.000 C 
ATOM     43  F6  UNL A   1      27.980  40.222  43.910  1.00  0.00    +0.000 F 
ATOM     44  C32 UNL A   1      30.224  39.520  44.031  1.00  0.00    +0.000 C 
ATOM     45  F7  UNL A   1      30.473  40.124  42.861  1.00  0.00    +0.000 F 
ATOM     46  C33 UNL A   1      31.236  38.836  44.687  1.00  0.00    +0.000 C 
ATOM     47  F8  UNL A   1      32.469  38.799  44.164  1.00  0.00    +0.000 F 
ATOM     48  C34 UNL A   1      30.968  38.183  45.881  1.00  0.00    +0.000 C 
ATOM     49  F9  UNL A   1      31.948  37.535  46.523  1.00  0.00    +0.000 F 
ATOM     50  C35 UNL A   1      29.679  38.194  46.408  1.00  0.00    +0.000 C 
ATOM     51  F10 UNL A   1      29.447  37.536  47.553  1.00  0.00    +0.000 F 
ENDBRANCH   40   41
BRANCH   55   56
ATOM     65  C44 UNL A   1      24.243  32.983  46.683  1.00  0.00    +0.000 C 
ATOM     66  F15 UNL A   1      24.994  33.185  47.776  1.00  0.00    +0.000 F 
ATOM     56  C39 UNL A   1      23.617  34.067  46.052  1.00  0.00    +0.000 C 
ATOM     57  C40 UNL A   1      22.850  33.798  44.908  1.00  0.00    +0.000 C 
ATOM     58  F11 UNL A   1      22.214  34.798  44.279  1.00  0.00    +0.000 F 
ATOM     59  C41 UNL A   1      22.689  32.497  44.438  1.00  0.00    +0.000 C 
ATOM     60  F12 UNL A   1      21.901  32.262  43.380  1.00  0.00    +0.000 F 
ATOM     61  C42 UNL A   1      23.323  31.442  45.078  1.00  0.00    +0.000 C 
ATOM     62  F13 UNL A   1      23.166  30.190  44.626  1.00  0.00    +0.000 F 
ATOM     63  C43 UNL A   1      24.110  31.686  46.192  1.00  0.00    +0.000 C 
ATOM     64  F14 UNL A   1      24.738  30.673  46.804  1.00  0.00    +0.000 F 
ENDBRANCH   55   56
TORSDOF 17
ENDMDL
MODEL 2
REMARK VINA RESULT:     -10.0     42.982     46.109
ROOT
ATOM     19  C15 UNL A   1      13.731  53.765   5.141  1.00  0.00    +0.000 C 
ATOM     20  C16 UNL A   1      14.644  54.241   4.045  1.00  0.00    +0.000 C 
ATOM     21  N3  UNL A   1      15.136  53.576   3.028  1.00  0.00    +0.000 N 
ATOM     22  C17 UNL A   1      15.901  54.487   2.313  1.00  0.00    +0.000 C 
ATOM     23  C18 UNL A   1      16.682  54.270   1.225  1.00  0.00    +0.000 C 
ATOM     35  C25 UNL A   1      16.833  52.994   0.574  1.00  0.00    +0.000 C 
ATOM     36  C26 UNL A   1      17.620  52.669  -0.517  1.00  0.00    +0.000 C 
ATOM     37  C27 UNL A   1      17.412  51.319  -0.823  1.00  0.00    +0.000 C 
ATOM     38  C28 UNL A   1      16.538  50.789   0.112  1.00  0.00    +0.000 C 
ATOM     39  N4  UNL A   1      16.181  51.830   0.956  1.00  0.00    +0.000 N 
ATOM     40  C29 UNL A   1      16.065  49.434   0.230  1.00  0.00    +0.000 C 
ATOM     52  C36 UNL A   1      15.200  48.996   1.179  1.00  0.00    +0.000 C 
ATOM     53  N5  UNL A   1      14.594  49.709   2.205  1.00  0.00    +0.000 N 
ATOM     54  C37 UNL A   1      13.826  48.852   2.832  1.00  0.00    +0.000 C 
ATOM     55  C38 UNL A   1      12.959  49.063   4.046  1.00  0.00    +0.000 C 
ATOM     67  C45 UNL A   1      12.939  50.273   4.636  1.00  0.00    +0.000 C 
ATOM     68  C46 UNL A   1      12.174  50.616   5.831  1.00  0.00    +0.000 C 
ATOM     69  C47 UNL A   1      12.368  51.914   6.117  1.00  0.00    +0.000 C 
ATOM     70  C48 UNL A   1      13.298  52.487   5.145  1.00  0.00    +0.000 C 
ATOM     71  N6  UNL A   1      13.582  51.440   4.301  1.00  0.00    +0.000 N 
ATOM     72  C49 UNL A   1      13.837  47.502   2.255  1.00  0.00    +0.000 C 
ATOM     73  C50 UNL A   1      14.730  47.632   1.284  1.00  0.00    +0.000 C 
ATOM     74  C51 UNL A   1      15.754  55.768   2.969  1.00  0.00    +0.000 C 
ATOM     75  C52 UNL A   1      15.040  55.657   4.080  1.00  0.00    +0.000 C 
ATOM    108  H21 UNL A   1      18.251  53.312  -1.020  1.00  0.00    +0.000 H 
ATOM    109  H22 UNL A   1      17.838  50.806  -1.610  1.00  0.00    +0.000 H 
ATOM    110  H23 UNL A   1      15.558  51.755   1.714  1.00  0.00    +0.000 H 
ATOM    111  H24 UNL A   1      11.581  49.966   6.370  1.00  0.00    +0.000 H 
ATOM    112  H25 UNL A   1      11.930  52.425   6.900  1.00  0.00    +0.000 H 
ATOM    113  H26 UNL A   1      14.188  51.519   3.531  1.00  0.00    +0.000 H 
ATOM    114  H27 UNL A   1      13.294  46.670   2.533  1.00  0.00    +0.000 H 
ATOM    115  H28 UNL A   1      15.047  46.859   0.679  1.00  0.00    +0.000 H 
ATOM    116  H29 UNL A   1      16.153  56.652   2.617  1.00  0.00    +0.000 H 
ATOM    117  H30 UNL A   1      14.819  56.377   4.785  1.00  0.00    +0.000 H 
ENDROOT
BRANCH   19   18
ATOM    106  H19 UNL A   1      14.025  55.690   9.330  1.00  0.00    +0.000 H 
ATOM    107  H20 UNL A   1      14.877  54.310   7.527  1.00  0.00    +0.000 H 
ATOM     76  C53 UNL A   1      12.101  55.451   6.034  1.00  0.00    +0.000 C 
ATOM     77  C54 UNL A   1      11.662  56.316   7.038  1.00  0.00    +0.000 C 
ATOM     15  C11 UNL A   1      12.325  56.356   8.267  1.00  0.00    +0.000 C 
ATOM     16  C12 UNL A   1      13.507  55.629   8.439  1.00  0.00    +0.000 C 
ATOM     17  C13 UNL A   1      13.987  54.820   7.407  1.00  0.00    +0.000 C 
ATOM     18  C14 UNL A   1      13.269  54.694   6.207  1.00  0.00    +0.000 C 
ATOM    118  H31 UNL A   1      11.562  55.369   5.157  1.00  0.00    +0.000 H 
ATOM    119  H32 UNL A   1      10.846  56.926   6.871  1.00  0.00    +0.000 H 
BRANCH   15   13
ATOM     13  C10 UNL A   1      11.832  57.178   9.397  1.00  0.00    +0.000 C 
ATOM     14  O2  UNL A   1      11.877  58.404   9.314  1.00  0.00    +0.000 O 
BRANCH   13   12
ATOM    105  H18 UNL A   1      11.714  56.965  11.379  1.00  0.00    +0.000 H 
ATOM     12  N2  UNL A   1      11.353  56.593  10.543  1.00  0.00    +0.000 N 
BRANCH   12   11
ATOM     11  C9  UNL A   1      10.399  55.510  10.714  1.00  0.00    +0.000 C 
ATOM    103  H16 UNL A   1       9.811  55.709  11.586  1.00  0.00    +0.000 H 
ATOM    104  H17 UNL A   1       9.798  55.469   9.830  1.00  0.00    +0.000 H 
BRANCH   11   10
ATOM     10  C8  UNL A   1      11.068  54.147  10.876  1.00  0.00    +0.000 C 
ATOM    101  H14 UNL A   1      10.363  53.487  11.338  1.00  0.00    +0.000 H 
ATOM    102  H15 UNL A   1      11.363  53.847   9.893  1.00  0.00    +0.000 H 
BRANCH   10    9
ATOM      9  C7  UNL A   1      12.346  54.134  11.719  1.00  0.00    +0.000 C 
ATOM     99  H12 UNL A   1      13.098  54.676  11.183  1.00  0.00    +0.000 H 
ATOM    100  H13 UNL A   1      12.082  54.571  12.658  1.00  0.00    +0.000 H 
BRANCH    9    8
ATOM     97  H10 UNL A   1      12.111  52.152  12.434  1.00  0.00    +0.000 H 
ATOM     98  H11 UNL A   1      13.325  52.379  11.132  1.00  0.00    +0.000 H 
ATOM      8  C6  UNL A   1      12.911  52.749  12.047  1.00  0.00    +0.000 C 
BRANCH    8    7
ATOM     95  H8  UNL A   1      13.999  53.611  13.656  1.00  0.00    +0.000 H 
ATOM      7  C5  UNL A   1      14.056  52.721  13.066  1.00  0.00    +0.000 C 
ATOM     96  H9  UNL A   1      13.927  51.824  13.636  1.00  0.00    +0.000 H 
BRANCH    7    6
ATOM     94  H7  UNL A   1      16.165  52.665  13.260  1.00  0.00    +0.000 H 
ATOM     93  H6  UNL A   1      15.594  53.471  11.797  1.00  0.00    +0.000 H 
ATOM      6  C4  UNL A   1      15.458  52.642  12.459  1.00  0.00    +0.000 C 
BRANCH    6    5
ATOM     92  H5  UNL A   1      14.928  50.758  11.803  1.00  0.00    +0.000 H 
ATOM      5  N1  UNL A   1      15.661  51.409  11.714  1.00  0.00    +0.000 N 
BRANCH    5    3
ATOM      3  C3  UNL A   1      16.686  50.990  10.913  1.00  0.00    +0.000 C 
ATOM      4  O1  UNL A   1      17.754  50.714  11.468  1.00  0.00    +0.000 O 
BRANCH    3    2
ATOM      2  C2  UNL A   1      16.543  50.859   9.386  1.00  0.00    +0.000 C 
ATOM     91  H4  UNL A   1      15.937  51.657   9.010  1.00  0.00    +0.000 H 
BRANCH    2    1
ATOM      1  C1  UNL A   1      17.944  50.974   8.765  1.00  0.00    +0.000 C 
ATOM     90  H3  UNL A   1      18.571  50.199   9.157  1.00  0.00    +0.000 H 
ATOM     89  H2  UNL A   1      17.874  50.872   7.703  1.00  0.00    +0.000 H 
ATOM     88  H1  UNL A   1      18.364  51.929   9.006  1.00  0.00    +0.000 H 
ENDBRANCH    2    1
BRANCH    2   78
ATOM     78  C55 UNL A   1      15.768  49.615   8.956  1.00  0.00    +0.000 C 
ATOM     79  C56 UNL A   1      16.334  48.329   9.026  1.00  0.00    +0.000 C 
ATOM     80  C57 UNL A   1      15.515  47.200   9.055  1.00  0.00    +0.000 C 
ATOM     81  C58 UNL A   1      14.139  47.380   9.058  1.00  0.00    +0.000 C 
ATOM     82  C59 UNL A   1      13.582  48.631   8.794  1.00  0.00    +0.000 C 
ATOM     83  C60 UNL A   1      14.406  49.733   8.639  1.00  0.00    +0.000 C 
ATOM     84  O3  UNL A   1      12.240  48.888   8.862  1.00  0.00    +0.000 O 
ATOM     85  C61 UNL A   1      11.511  47.910   9.614  1.00  0.00    +0.000 C 
ATOM     86  C62 UNL A   1      12.393  46.934  10.386  1.00  0.00    +0.000 C 
ATOM     87  O4  UNL A   1      13.355  46.344   9.501  1.00  0.00    +0.000 O 
ATOM    120  H33 UNL A   1      17.360  48.221   9.057  1.00  0.00    +0.000 H 
ATOM    121  H34 UNL A   1      15.924  46.253   9.072  1.00  0.00    +0.000 H 
ATOM    122  H35 UNL A   1      14.024  50.628   8.293  1.00  0.00    +0.000 H 
ATOM    123  H36 UNL A   1      10.903  47.349   8.935  1.00  0.00    +0.000 H 
ATOM    124  H37 UNL A   1      10.935  48.445  10.340  1.00  0.00    +0.000 H 
ATOM    125  H38 UNL A   1      11.783  46.165  10.812  1.00  0.00    +0.000 H 
ATOM    126  H39 UNL A   1      12.905  47.460  11.165  1.00  0.00    +0.000 H 
ENDBRANCH    2   78
ENDBRANCH    3    2
ENDBRANCH    5    3
ENDBRANCH    6    5
ENDBRANCH    7    6
ENDBRANCH    8    7
ENDBRANCH    9    8
ENDBRANCH   10    9
ENDBRANCH   11   10
ENDBRANCH   12   11
ENDBRANCH   13   12
ENDBRANCH   15   13
ENDBRANCH   19   18
BRANCH   23   24
ATOM     33  C24 UNL A   1      18.736  55.740   1.156  1.00  0.00    +0.000 C 
ATOM     34  F5  UNL A   1      19.314  54.961   2.082  1.00  0.00    +0.000 F 
ATOM     24  C19 UNL A   1      17.451  55.439   0.679  1.00  0.00    +0.000 C 
ATOM     25  C20 UNL A   1      16.894  56.294  -0.285  1.00  0.00    +0.000 C 
ATOM     26  F1  UNL A   1      15.672  56.045  -0.782  1.00  0.00    +0.000 F 
ATOM     27  C21 UNL A   1      17.602  57.390  -0.768  1.00  0.00    +0.000 C 
ATOM     28  F2  UNL A   1      17.066  58.166  -1.721  1.00  0.00    +0.000 F 
ATOM     29  C22 UNL A   1      18.865  57.676  -0.272  1.00  0.00    +0.000 C 
ATOM     30  F3  UNL A   1      19.541  58.739  -0.730  1.00  0.00    +0.000 F 
ATOM     31  C23 UNL A   1      19.429  56.857   0.693  1.00  0.00    +0.000 C 
ATOM     32  F4  UNL A   1      20.643  57.139   1.183  1.00  0.00    +0.000 F 
ENDBRANCH   23   24
BRANCH   40   41
ATOM     41  C30 UNL A   1      16.582  48.418  -0.748  1.00  0.00    +0.000 C 
ATOM     42  C31 UNL A   1      15.836  48.028  -1.871  1.00  0.00    +0.000 C 
ATOM     43  F6  UNL A   1      14.614  48.542  -2.081  1.00  0.00    +0.000 F 
ATOM     44  C32 UNL A   1      16.321  47.068  -2.755  1.00  0.00    +0.000 C 
ATOM     45  F7  UNL A   1      15.564  46.668  -3.786  1.00  0.00    +0.000 F 
ATOM     46  C33 UNL A   1      17.576  46.511  -2.559  1.00  0.00    +0.000 C 
ATOM     47  F8  UNL A   1      18.041  45.589  -3.412  1.00  0.00    +0.000 F 
ATOM     48  C34 UNL A   1      18.343  46.903  -1.472  1.00  0.00    +0.000 C 
ATOM     49  F9  UNL A   1      19.562  46.377  -1.290  1.00  0.00    +0.000 F 
ATOM     50  C35 UNL A   1      17.847  47.837  -0.568  1.00  0.00    +0.000 C 
ATOM     51  F10 UNL A   1      18.605  48.180   0.484  1.00  0.00    +0.000 F 
ENDBRANCH   40   41
BRANCH   55   56
ATOM     65  C44 UNL A   1      12.681  47.040   5.518  1.00  0.00    +0.000 C 
ATOM     66  F15 UNL A   1      13.964  47.143   5.892  1.00  0.00    +0.000 F 
ATOM     56  C39 UNL A   1      12.142  47.950   4.597  1.00  0.00    +0.000 C 
ATOM     57  C40 UNL A   1      10.796  47.789   4.236  1.00  0.00    +0.000 C 
ATOM     58  F11 UNL A   1      10.228  48.646   3.374  1.00  0.00    +0.000 F 
ATOM     59  C41 UNL A   1      10.014  46.782   4.798  1.00  0.00    +0.000 C 
ATOM     60  F12 UNL A   1       8.715  46.690   4.480  1.00  0.00    +0.000 F 
ATOM     61  C42 UNL A   1      10.571  45.891   5.703  1.00  0.00    +0.000 C 
ATOM     62  F13 UNL A   1       9.819  44.924   6.244  1.00  0.00    +0.000 F 
ATOM     63  C43 UNL A   1      11.907  46.012   6.053  1.00  0.00    +0.000 C 
ATOM     64  F14 UNL A   1      12.455  45.143   6.914  1.00  0.00    +0.000 F 
ENDBRANCH   55   56
TORSDOF 17
ENDMDL
MODEL 3
REMARK VINA RESULT:     -10.0     23.372     29.437
ROOT
ATOM     19  C15 UNL A   1      41.408  26.346  27.676  1.00  0.00    +0.000 C 
ATOM     20  C16 UNL A   1      42.833  26.611  27.272  1.00  0.00    +0.000 C 
ATOM     21  N3  UNL A   1      43.584  27.655  27.521  1.00  0.00    +0.000 N 
ATOM     22  C17 UNL A   1      44.815  27.385  26.939  1.00  0.00    +0.000 C 
ATOM     23  C18 UNL A   1      45.905  28.187  26.846  1.00  0.00    +0.000 C 
ATOM     35  C25 UNL A   1      45.984  29.517  27.395  1.00  0.00    +0.000 C 
ATOM     36  C26 UNL A   1      47.034  30.416  27.331  1.00  0.00    +0.000 C 
ATOM     37  C27 UNL A   1      46.674  31.565  28.044  1.00  0.00    +0.000 C 
ATOM     38  C28 UNL A   1      45.377  31.404  28.505  1.00  0.00    +0.000 C 
ATOM     39  N4  UNL A   1      44.971  30.139  28.110  1.00  0.00    +0.000 N 
ATOM     40  C29 UNL A   1      44.567  32.335  29.247  1.00  0.00    +0.000 C 
ATOM     52  C36 UNL A   1      43.300  32.095  29.667  1.00  0.00    +0.000 C 
ATOM     53  N5  UNL A   1      42.523  30.957  29.495  1.00  0.00    +0.000 N 
ATOM     54  C37 UNL A   1      41.388  31.201  30.104  1.00  0.00    +0.000 C 
ATOM     55  C38 UNL A   1      40.161  30.334  30.213  1.00  0.00    +0.000 C 
ATOM     67  C45 UNL A   1      40.148  29.135  29.601  1.00  0.00    +0.000 C 
ATOM     68  C46 UNL A   1      39.025  28.203  29.594  1.00  0.00    +0.000 C 
ATOM     69  C47 UNL A   1      39.376  27.098  28.917  1.00  0.00    +0.000 C 
ATOM     70  C48 UNL A   1      40.741  27.257  28.413  1.00  0.00    +0.000 C 
ATOM     71  N6  UNL A   1      41.121  28.494  28.871  1.00  0.00    +0.000 N 
ATOM     72  C49 UNL A   1      41.329  32.515  30.758  1.00  0.00    +0.000 C 
ATOM     73  C50 UNL A   1      42.498  33.038  30.416  1.00  0.00    +0.000 C 
ATOM     74  C51 UNL A   1      44.735  26.051  26.383  1.00  0.00    +0.000 C 
ATOM     75  C52 UNL A   1      43.512  25.555  26.505  1.00  0.00    +0.000 C 
ATOM    108  H21 UNL A   1      47.930  30.266  26.843  1.00  0.00    +0.000 H 
ATOM    109  H22 UNL A   1      47.271  32.392  28.199  1.00  0.00    +0.000 H 
ATOM    110  H23 UNL A   1      44.093  29.739  28.308  1.00  0.00    +0.000 H 
ATOM    111  H24 UNL A   1      38.107  28.368  30.037  1.00  0.00    +0.000 H 
ATOM    112  H25 UNL A   1      38.778  26.269  28.775  1.00  0.00    +0.000 H 
ATOM    113  H26 UNL A   1      42.005  28.886  28.693  1.00  0.00    +0.000 H 
ATOM    114  H27 UNL A   1      40.576  32.924  31.332  1.00  0.00    +0.000 H 
ATOM    115  H28 UNL A   1      42.799  33.996  30.656  1.00  0.00    +0.000 H 
ATOM    116  H29 UNL A   1      45.526  25.552  25.949  1.00  0.00    +0.000 H 
ATOM    117  H30 UNL A   1      43.136  24.661  26.155  1.00  0.00    +0.000 H 
ENDROOT
BRANCH   19   18
ATOM    106  H19 UNL A   1      40.891  21.758  27.841  1.00  0.00    +0.000 H 
ATOM    107  H20 UNL A   1      41.874  23.845  28.589  1.00  0.00    +0.000 H 
ATOM     76  C53 UNL A   1      39.685  25.074  26.367  1.00  0.00    +0.000 C 
ATOM     77  C54 UNL A   1      39.058  23.880  26.006  1.00  0.00    +0.000 C 
ATOM     15  C11 UNL A   1      39.539  22.662  26.492  1.00  0.00    +0.000 C 
ATOM     16  C12 UNL A   1      40.562  22.653  27.445  1.00  0.00    +0.000 C 
ATOM     17  C13 UNL A   1      41.140  23.854  27.862  1.00  0.00    +0.000 C 
ATOM     18  C14 UNL A   1      40.733  25.075  27.300  1.00  0.00    +0.000 C 
ATOM    118  H31 UNL A   1      39.375  25.964  25.945  1.00  0.00    +0.000 H 
ATOM    119  H32 UNL A   1      38.238  23.899  25.380  1.00  0.00    +0.000 H 
BRANCH   15   13
ATOM     13  C10 UNL A   1      38.973  21.365  26.054  1.00  0.00    +0.000 C 
ATOM     14  O2  UNL A   1      39.526  20.320  26.392  1.00  0.00    +0.000 O 
BRANCH   13   12
ATOM    105  H18 UNL A   1      38.037  21.368  24.289  1.00  0.00    +0.000 H 
ATOM     12  N2  UNL A   1      37.857  21.314  25.255  1.00  0.00    +0.000 N 
BRANCH   12   11
ATOM     11  C9  UNL A   1      36.454  21.193  25.612  1.00  0.00    +0.000 C 
ATOM    103  H16 UNL A   1      35.962  20.600  24.869  1.00  0.00    +0.000 H 
ATOM    104  H17 UNL A   1      36.406  20.738  26.579  1.00  0.00    +0.000 H 
BRANCH   11   10
ATOM     10  C8  UNL A   1      35.745  22.542  25.707  1.00  0.00    +0.000 C 
ATOM    101  H14 UNL A   1      34.704  22.357  25.872  1.00  0.00    +0.000 H 
ATOM    102  H15 UNL A   1      36.224  23.069  26.505  1.00  0.00    +0.000 H 
BRANCH   10    9
ATOM      9  C7  UNL A   1      35.872  23.444  24.476  1.00  0.00    +0.000 C 
ATOM     99  H12 UNL A   1      35.510  24.415  24.743  1.00  0.00    +0.000 H 
ATOM    100  H13 UNL A   1      36.906  23.425  24.206  1.00  0.00    +0.000 H 
BRANCH    9    8
ATOM     97  H10 UNL A   1      35.786  22.996  22.405  1.00  0.00    +0.000 H 
ATOM     98  H11 UNL A   1      34.729  22.009  23.468  1.00  0.00    +0.000 H 
ATOM      8  C6  UNL A   1      35.107  22.982  23.233  1.00  0.00    +0.000 C 
BRANCH    8    7
ATOM     95  H8  UNL A   1      33.737  24.562  23.613  1.00  0.00    +0.000 H 
ATOM      7  C5  UNL A   1      33.884  23.824  22.852  1.00  0.00    +0.000 C 
ATOM     96  H9  UNL A   1      34.095  24.242  21.890  1.00  0.00    +0.000 H 
BRANCH    7    6
ATOM     94  H7  UNL A   1      32.670  22.419  21.831  1.00  0.00    +0.000 H 
ATOM     93  H6  UNL A   1      31.770  23.728  22.603  1.00  0.00    +0.000 H 
ATOM      6  C4  UNL A   1      32.581  23.037  22.699  1.00  0.00    +0.000 C 
BRANCH    6    5
ATOM     92  H5  UNL A   1      32.434  21.212  23.653  1.00  0.00    +0.000 H 
ATOM      5  N1  UNL A   1      32.328  22.173  23.842  1.00  0.00    +0.000 N 
BRANCH    5    3
ATOM      3  C3  UNL A   1      31.969  22.452  25.130  1.00  0.00    +0.000 C 
ATOM      4  O1  UNL A   1      32.462  21.747  26.016  1.00  0.00    +0.000 O 
BRANCH    3    2
ATOM      2  C2  UNL A   1      30.994  23.589  25.490  1.00  0.00    +0.000 C 
ATOM     91  H4  UNL A   1      30.285  23.720  24.700  1.00  0.00    +0.000 H 
BRANCH    2    1
ATOM      1  C1  UNL A   1      30.238  23.181  26.764  1.00  0.00    +0.000 C 
ATOM     90  H3  UNL A   1      30.290  23.976  27.479  1.00  0.00    +0.000 H 
ATOM     89  H2  UNL A   1      29.215  22.983  26.524  1.00  0.00    +0.000 H 
ATOM     88  H1  UNL A   1      30.685  22.300  27.177  1.00  0.00    +0.000 H 
ENDBRANCH    2    1
BRANCH    2   78
ATOM     78  C55 UNL A   1      31.666  24.958  25.573  1.00  0.00    +0.000 C 
ATOM     79  C56 UNL A   1      32.970  25.113  26.078  1.00  0.00    +0.000 C 
ATOM     80  C57 UNL A   1      33.720  26.244  25.757  1.00  0.00    +0.000 C 
ATOM     81  C58 UNL A   1      33.168  27.182  24.896  1.00  0.00    +0.000 C 
ATOM     82  C59 UNL A   1      31.818  27.128  24.552  1.00  0.00    +0.000 C 
ATOM     83  C60 UNL A   1      31.040  26.065  24.981  1.00  0.00    +0.000 C 
ATOM     84  O3  UNL A   1      31.235  27.973  23.648  1.00  0.00    +0.000 O 
ATOM     85  C61 UNL A   1      32.179  28.627  22.791  1.00  0.00    +0.000 C 
ATOM     86  C62 UNL A   1      33.596  28.070  22.886  1.00  0.00    +0.000 C 
ATOM     87  O4  UNL A   1      34.018  28.050  24.256  1.00  0.00    +0.000 O 
ATOM    120  H33 UNL A   1      33.374  24.385  26.690  1.00  0.00    +0.000 H 
ATOM    121  H34 UNL A   1      34.664  26.381  26.152  1.00  0.00    +0.000 H 
ATOM    122  H35 UNL A   1      30.014  26.088  24.868  1.00  0.00    +0.000 H 
ATOM    123  H36 UNL A   1      32.208  29.664  23.051  1.00  0.00    +0.000 H 
ATOM    124  H37 UNL A   1      31.849  28.461  21.786  1.00  0.00    +0.000 H 
ATOM    125  H38 UNL A   1      34.259  28.689  22.318  1.00  0.00    +0.000 H 
ATOM    126  H39 UNL A   1      33.611  27.073  22.496  1.00  0.00    +0.000 H 
ENDBRANCH    2   78
ENDBRANCH    3    2
ENDBRANCH    5    3
ENDBRANCH    6    5
ENDBRANCH    7    6
ENDBRANCH    8    7
ENDBRANCH    9    8
ENDBRANCH   10    9
ENDBRANCH   11   10
ENDBRANCH   12   11
ENDBRANCH   13   12
ENDBRANCH   15   13
ENDBRANCH   19   18
BRANCH   23   24
ATOM     33  C24 UNL A   1      48.162  27.053  26.796  1.00  0.00    +0.000 C 
ATOM     34  F5  UNL A   1      48.109  26.908  28.128  1.00  0.00    +0.000 F 
ATOM     24  C19 UNL A   1      47.099  27.655  26.106  1.00  0.00    +0.000 C 
ATOM     25  C20 UNL A   1      47.213  27.786  24.713  1.00  0.00    +0.000 C 
ATOM     26  F1  UNL A   1      46.219  28.345  24.005  1.00  0.00    +0.000 F 
ATOM     27  C21 UNL A   1      48.333  27.314  24.036  1.00  0.00    +0.000 C 
ATOM     28  F2  UNL A   1      48.399  27.411  22.701  1.00  0.00    +0.000 F 
ATOM     29  C22 UNL A   1      49.378  26.735  24.740  1.00  0.00    +0.000 C 
ATOM     30  F3  UNL A   1      50.462  26.291  24.089  1.00  0.00    +0.000 F 
ATOM     31  C23 UNL A   1      49.297  26.611  26.118  1.00  0.00    +0.000 C 
ATOM     32  F4  UNL A   1      50.311  26.064  26.802  1.00  0.00    +0.000 F 
ENDBRANCH   23   24
BRANCH   40   41
ATOM     41  C30 UNL A   1      45.150  33.683  29.562  1.00  0.00    +0.000 C 
ATOM     42  C31 UNL A   1      44.991  34.777  28.697  1.00  0.00    +0.000 C 
ATOM     43  F6  UNL A   1      44.329  34.630  27.538  1.00  0.00    +0.000 F 
ATOM     44  C32 UNL A   1      45.556  36.014  28.994  1.00  0.00    +0.000 C 
ATOM     45  F7  UNL A   1      45.442  37.026  28.123  1.00  0.00    +0.000 F 
ATOM     46  C33 UNL A   1      46.254  36.194  30.179  1.00  0.00    +0.000 C 
ATOM     47  F8  UNL A   1      46.796  37.386  30.463  1.00  0.00    +0.000 F 
ATOM     48  C34 UNL A   1      46.399  35.136  31.063  1.00  0.00    +0.000 C 
ATOM     49  F9  UNL A   1      47.060  35.312  32.215  1.00  0.00    +0.000 F 
ATOM     50  C35 UNL A   1      45.863  33.888  30.753  1.00  0.00    +0.000 C 
ATOM     51  F10 UNL A   1      46.039  32.880  31.619  1.00  0.00    +0.000 F 
ENDBRANCH   40   41
BRANCH   55   56
ATOM     65  C44 UNL A   1      37.892  31.418  30.328  1.00  0.00    +0.000 C 
ATOM     66  F15 UNL A   1      37.935  31.635  29.006  1.00  0.00    +0.000 F 
ATOM     56  C39 UNL A   1      38.970  30.797  30.974  1.00  0.00    +0.000 C 
ATOM     57  C40 UNL A   1      38.875  30.603  32.360  1.00  0.00    +0.000 C 
ATOM     58  F11 UNL A   1      39.872  29.995  33.021  1.00  0.00    +0.000 F 
ATOM     59  C41 UNL A   1      37.734  30.982  33.063  1.00  0.00    +0.000 C 
ATOM     60  F12 UNL A   1      37.644  30.729  34.376  1.00  0.00    +0.000 F 
ATOM     61  C42 UNL A   1      36.682  31.600  32.403  1.00  0.00    +0.000 C 
ATOM     62  F13 UNL A   1      35.584  31.963  33.080  1.00  0.00    +0.000 F 
ATOM     63  C43 UNL A   1      36.766  31.829  31.039  1.00  0.00    +0.000 C 
ATOM     64  F14 UNL A   1      35.759  32.440  30.399  1.00  0.00    +0.000 F 
ENDBRANCH   55   56
TORSDOF 17
ENDMDL
MODEL 4
REMARK VINA RESULT:      -9.9      4.210      6.640
ROOT
ATOM     19  C15 UNL A   1      25.767  35.831  45.268  1.00  0.00    +0.000 C 
ATOM     20  C16 UNL A   1      25.579  37.026  46.161  1.00  0.00    +0.000 C 
ATOM     21  N3  UNL A   1      26.443  37.953  46.497  1.00  0.00    +0.000 N 
ATOM     22  C17 UNL A   1      25.755  38.831  47.324  1.00  0.00    +0.000 C 
ATOM     23  C18 UNL A   1      26.229  39.908  47.999  1.00  0.00    +0.000 C 
ATOM     35  C25 UNL A   1      27.593  40.367  47.944  1.00  0.00    +0.000 C 
ATOM     36  C26 UNL A   1      28.174  41.432  48.610  1.00  0.00    +0.000 C 
ATOM     37  C27 UNL A   1      29.513  41.522  48.213  1.00  0.00    +0.000 C 
ATOM     38  C28 UNL A   1      29.781  40.480  47.341  1.00  0.00    +0.000 C 
ATOM     39  N4  UNL A   1      28.592  39.786  47.175  1.00  0.00    +0.000 N 
ATOM     40  C29 UNL A   1      31.028  40.138  46.708  1.00  0.00    +0.000 C 
ATOM     52  C36 UNL A   1      31.206  39.097  45.858  1.00  0.00    +0.000 C 
ATOM     53  N5  UNL A   1      30.279  38.162  45.415  1.00  0.00    +0.000 N 
ATOM     54  C37 UNL A   1      30.925  37.379  44.586  1.00  0.00    +0.000 C 
ATOM     55  C38 UNL A   1      30.428  36.173  43.834  1.00  0.00    +0.000 C 
ATOM     67  C45 UNL A   1      29.155  35.770  44.007  1.00  0.00    +0.000 C 
ATOM     68  C46 UNL A   1      28.544  34.606  43.371  1.00  0.00    +0.000 C 
ATOM     69  C47 UNL A   1      27.258  34.527  43.746  1.00  0.00    +0.000 C 
ATOM     70  C48 UNL A   1      26.961  35.616  44.678  1.00  0.00    +0.000 C 
ATOM     71  N6  UNL A   1      28.145  36.305  44.770  1.00  0.00    +0.000 N 
ATOM     72  C49 UNL A   1      32.333  37.748  44.389  1.00  0.00    +0.000 C 
ATOM     73  C50 UNL A   1      32.465  38.767  45.225  1.00  0.00    +0.000 C 
ATOM     74  C51 UNL A   1      24.386  38.368  47.384  1.00  0.00    +0.000 C 
ATOM     75  C52 UNL A   1      24.240  37.222  46.736  1.00  0.00    +0.000 C 
ATOM    108  H21 UNL A   1      27.701  42.054  49.284  1.00  0.00    +0.000 H 
ATOM    109  H22 UNL A   1      30.186  42.242  48.518  1.00  0.00    +0.000 H 
ATOM    110  H23 UNL A   1      28.473  38.998  46.598  1.00  0.00    +0.000 H 
ATOM    111  H24 UNL A   1      29.025  33.950  42.736  1.00  0.00    +0.000 H 
ATOM    112  H25 UNL A   1      26.586  33.811  43.429  1.00  0.00    +0.000 H 
ATOM    113  H26 UNL A   1      28.260  37.105  45.330  1.00  0.00    +0.000 H 
ATOM    114  H27 UNL A   1      33.035  37.324  43.763  1.00  0.00    +0.000 H 
ATOM    115  H28 UNL A   1      33.352  39.263  45.402  1.00  0.00    +0.000 H 
ATOM    116  H29 UNL A   1      23.623  38.866  47.869  1.00  0.00    +0.000 H 
ATOM    117  H30 UNL A   1      23.404  36.623  46.654  1.00  0.00    +0.000 H 
ENDROOT
BRANCH   19   18
ATOM    106  H19 UNL A   1      21.659  34.756  43.447  1.00  0.00    +0.000 H 
ATOM    107  H20 UNL A   1      23.574  36.217  43.736  1.00  0.00    +0.000 H 
ATOM     76  C53 UNL A   1      24.637  33.608  45.553  1.00  0.00    +0.000 C 
ATOM     77  C54 UNL A   1      23.576  32.735  45.310  1.00  0.00    +0.000 C 
ATOM     15  C11 UNL A   1      22.457  33.173  44.596  1.00  0.00    +0.000 C 
ATOM     16  C12 UNL A   1      22.464  34.444  44.013  1.00  0.00    +0.000 C 
ATOM     17  C13 UNL A   1      23.559  35.292  44.195  1.00  0.00    +0.000 C 
ATOM     18  C14 UNL A   1      24.641  34.896  44.998  1.00  0.00    +0.000 C 
ATOM    118  H31 UNL A   1      25.425  33.304  46.147  1.00  0.00    +0.000 H 
ATOM    119  H32 UNL A   1      23.618  31.764  45.657  1.00  0.00    +0.000 H 
BRANCH   15   13
ATOM     13  C10 UNL A   1      21.265  32.316  44.404  1.00  0.00    +0.000 C 
ATOM     14  O2  UNL A   1      21.332  31.119  44.678  1.00  0.00    +0.000 O 
BRANCH   13   12
ATOM    105  H18 UNL A   1      19.915  32.606  42.961  1.00  0.00    +0.000 H 
ATOM     12  N2  UNL A   1      20.096  32.831  43.901  1.00  0.00    +0.000 N 
BRANCH   12   11
ATOM     11  C9  UNL A   1      19.085  33.658  44.539  1.00  0.00    +0.000 C 
ATOM    103  H16 UNL A   1      19.472  34.012  45.472  1.00  0.00    +0.000 H 
ATOM    104  H17 UNL A   1      18.860  34.462  43.870  1.00  0.00    +0.000 H 
BRANCH   11   10
ATOM     10  C8  UNL A   1      17.782  32.906  44.805  1.00  0.00    +0.000 C 
ATOM    101  H14 UNL A   1      17.860  31.940  44.351  1.00  0.00    +0.000 H 
ATOM    102  H15 UNL A   1      17.673  32.878  45.868  1.00  0.00    +0.000 H 
BRANCH   10    9
ATOM      9  C7  UNL A   1      16.513  33.575  44.271  1.00  0.00    +0.000 C 
ATOM     99  H12 UNL A   1      15.691  32.915  44.459  1.00  0.00    +0.000 H 
ATOM    100  H13 UNL A   1      16.441  34.513  44.780  1.00  0.00    +0.000 H 
BRANCH    9    8
ATOM     97  H10 UNL A   1      16.053  34.867  42.654  1.00  0.00    +0.000 H 
ATOM     98  H11 UNL A   1      17.542  33.882  42.475  1.00  0.00    +0.000 H 
ATOM      8  C6  UNL A   1      16.516  33.910  42.777  1.00  0.00    +0.000 C 
BRANCH    8    7
ATOM     95  H8  UNL A   1      14.859  32.654  42.337  1.00  0.00    +0.000 H 
ATOM      7  C5  UNL A   1      15.786  32.914  41.870  1.00  0.00    +0.000 C 
ATOM     96  H9  UNL A   1      15.662  33.403  40.926  1.00  0.00    +0.000 H 
BRANCH    7    6
ATOM     94  H7  UNL A   1      17.507  31.692  42.057  1.00  0.00    +0.000 H 
ATOM     93  H6  UNL A   1      16.651  31.507  40.524  1.00  0.00    +0.000 H 
ATOM      6  C4  UNL A   1      16.551  31.621  41.583  1.00  0.00    +0.000 C 
BRANCH    6    5
ATOM     92  H5  UNL A   1      14.984  30.284  41.717  1.00  0.00    +0.000 H 
ATOM      5  N1  UNL A   1      15.868  30.453  42.118  1.00  0.00    +0.000 N 
BRANCH    5    3
ATOM      3  C3  UNL A   1      16.230  29.548  43.075  1.00  0.00    +0.000 C 
ATOM      4  O1  UNL A   1      16.175  29.923  44.250  1.00  0.00    +0.000 O 
BRANCH    3    2
ATOM      2  C2  UNL A   1      16.691  28.119  42.732  1.00  0.00    +0.000 C 
ATOM     91  H4  UNL A   1      17.445  28.155  41.974  1.00  0.00    +0.000 H 
BRANCH    2    1
ATOM      1  C1  UNL A   1      17.299  27.499  43.999  1.00  0.00    +0.000 C 
ATOM     90  H3  UNL A   1      16.884  27.975  44.864  1.00  0.00    +0.000 H 
ATOM     89  H2  UNL A   1      17.076  26.453  44.027  1.00  0.00    +0.000 H 
ATOM     88  H1  UNL A   1      18.360  27.638  43.990  1.00  0.00    +0.000 H 
ENDBRANCH    2    1
BRANCH    2   78
ATOM     78  C55 UNL A   1      15.599  27.272  42.082  1.00  0.00    +0.000 C 
ATOM     79  C56 UNL A   1      15.425  27.232  40.686  1.00  0.00    +0.000 C 
ATOM     80  C57 UNL A   1      14.751  26.166  40.091  1.00  0.00    +0.000 C 
ATOM     81  C58 UNL A   1      14.300  25.133  40.901  1.00  0.00    +0.000 C 
ATOM     82  C59 UNL A   1      14.298  25.262  42.289  1.00  0.00    +0.000 C 
ATOM     83  C60 UNL A   1      14.856  26.385  42.877  1.00  0.00    +0.000 C 
ATOM     84  O3  UNL A   1      13.942  24.252  43.140  1.00  0.00    +0.000 O 
ATOM     85  C61 UNL A   1      13.975  22.956  42.529  1.00  0.00    +0.000 C 
ATOM     86  C62 UNL A   1      14.631  22.933  41.153  1.00  0.00    +0.000 C 
ATOM     87  O4  UNL A   1      14.026  23.924  40.310  1.00  0.00    +0.000 O 
ATOM    120  H33 UNL A   1      15.800  27.995  40.100  1.00  0.00    +0.000 H 
ATOM    121  H34 UNL A   1      14.591  26.147  39.071  1.00  0.00    +0.000 H 
ATOM    122  H35 UNL A   1      14.726  26.568  43.884  1.00  0.00    +0.000 H 
ATOM    123  H36 UNL A   1      12.968  22.606  42.428  1.00  0.00    +0.000 H 
ATOM    124  H37 UNL A   1      14.568  22.331  43.164  1.00  0.00    +0.000 H 
ATOM    125  H38 UNL A   1      14.501  21.966  40.714  1.00  0.00    +0.000 H 
ATOM    126  H39 UNL A   1      15.675  23.145  41.255  1.00  0.00    +0.000 H 
ENDBRANCH    2   78
ENDBRANCH    3    2
ENDBRANCH    5    3
ENDBRANCH    6    5
ENDBRANCH    7    6
ENDBRANCH    8    7
ENDBRANCH    9    8
ENDBRANCH   10    9
ENDBRANCH   11   10
ENDBRANCH   12   11
ENDBRANCH   13   12
ENDBRANCH   15   13
ENDBRANCH   19   18
BRANCH   23   24
ATOM     33  C24 UNL A   1      24.553  41.761  48.379  1.00  0.00    +0.000 C 
ATOM     34  F5  UNL A   1      24.693  42.138  47.100  1.00  0.00    +0.000 F 
ATOM     24  C19 UNL A   1      25.265  40.658  48.874  1.00  0.00    +0.000 C 
ATOM     25  C20 UNL A   1      25.084  40.314  50.223  1.00  0.00    +0.000 C 
ATOM     26  F1  UNL A   1      25.734  39.261  50.744  1.00  0.00    +0.000 F 
ATOM     27  C21 UNL A   1      24.209  41.029  51.036  1.00  0.00    +0.000 C 
ATOM     28  F2  UNL A   1      24.020  40.653  52.308  1.00  0.00    +0.000 F 
ATOM     29  C22 UNL A   1      23.526  42.123  50.528  1.00  0.00    +0.000 C 
ATOM     30  F3  UNL A   1      22.693  42.818  51.315  1.00  0.00    +0.000 F 
ATOM     31  C23 UNL A   1      23.702  42.493  49.204  1.00  0.00    +0.000 C 
ATOM     32  F4  UNL A   1      23.053  43.559  48.716  1.00  0.00    +0.000 F 
ENDBRANCH   23   24
BRANCH   40   41
ATOM     41  C30 UNL A   1      32.235  40.976  47.027  1.00  0.00    +0.000 C 
ATOM     42  C31 UNL A   1      32.467  42.206  46.393  1.00  0.00    +0.000 C 
ATOM     43  F6  UNL A   1      31.619  42.653  45.455  1.00  0.00    +0.000 F 
ATOM     44  C32 UNL A   1      33.601  42.959  46.685  1.00  0.00    +0.000 C 
ATOM     45  F7  UNL A   1      33.833  44.101  46.023  1.00  0.00    +0.000 F 
ATOM     46  C33 UNL A   1      34.502  42.519  47.644  1.00  0.00    +0.000 C 
ATOM     47  F8  UNL A   1      35.592  43.245  47.923  1.00  0.00    +0.000 F 
ATOM     48  C34 UNL A   1      34.278  41.320  48.303  1.00  0.00    +0.000 C 
ATOM     49  F9  UNL A   1      35.139  40.901  49.240  1.00  0.00    +0.000 F 
ATOM     50  C35 UNL A   1      33.162  40.549  47.989  1.00  0.00    +0.000 C 
ATOM     51  F10 UNL A   1      32.984  39.384  48.631  1.00  0.00    +0.000 F 
ENDBRANCH   40   41
BRANCH   55   56
ATOM     65  C44 UNL A   1      32.048  34.304  43.363  1.00  0.00    +0.000 C 
ATOM     66  F15 UNL A   1      31.953  33.908  44.640  1.00  0.00    +0.000 F 
ATOM     56  C39 UNL A   1      31.331  35.424  42.919  1.00  0.00    +0.000 C 
ATOM     57  C40 UNL A   1      31.473  35.798  41.575  1.00  0.00    +0.000 C 
ATOM     58  F11 UNL A   1      30.793  36.851  41.097  1.00  0.00    +0.000 F 
ATOM     59  C41 UNL A   1      32.272  35.061  40.703  1.00  0.00    +0.000 C 
ATOM     60  F12 UNL A   1      32.342  35.405  39.410  1.00  0.00    +0.000 F 
ATOM     61  C42 UNL A   1      32.976  33.959  41.167  1.00  0.00    +0.000 C 
ATOM     62  F13 UNL A   1      33.743  33.250  40.328  1.00  0.00    +0.000 F 
ATOM     63  C43 UNL A   1      32.873  33.588  42.498  1.00  0.00    +0.000 C 
ATOM     64  F14 UNL A   1      33.565  32.535  42.955  1.00  0.00    +0.000 F 
ENDBRANCH   55   56
TORSDOF 17
ENDMDL
MODEL 5
REMARK VINA RESULT:      -9.9     23.319     29.415
ROOT
ATOM     19  C15 UNL A   1      41.410  26.402  27.715  1.00  0.00    +0.000 C 
ATOM     20  C16 UNL A   1      42.837  26.663  27.318  1.00  0.00    +0.000 C 
ATOM     21  N3  UNL A   1      43.589  27.707  27.567  1.00  0.00    +0.000 N 
ATOM     22  C17 UNL A   1      44.823  27.433  26.993  1.00  0.00    +0.000 C 
ATOM     23  C18 UNL A   1      45.914  28.234  26.904  1.00  0.00    +0.000 C 
ATOM     35  C25 UNL A   1      45.992  29.566  27.446  1.00  0.00    +0.000 C 
ATOM     36  C26 UNL A   1      47.043  30.464  27.385  1.00  0.00    +0.000 C 
ATOM     37  C27 UNL A   1      46.679  31.617  28.090  1.00  0.00    +0.000 C 
ATOM     38  C28 UNL A   1      45.379  31.459  28.544  1.00  0.00    +0.000 C 
ATOM     39  N4  UNL A   1      44.974  30.192  28.153  1.00  0.00    +0.000 N 
ATOM     40  C29 UNL A   1      44.566  32.394  29.277  1.00  0.00    +0.000 C 
ATOM     52  C36 UNL A   1      43.296  32.158  29.690  1.00  0.00    +0.000 C 
ATOM     53  N5  UNL A   1      42.519  31.020  29.518  1.00  0.00    +0.000 N 
ATOM     54  C37 UNL A   1      41.381  31.268  30.120  1.00  0.00    +0.000 C 
ATOM     55  C38 UNL A   1      40.152  30.404  30.224  1.00  0.00    +0.000 C 
ATOM     67  C45 UNL A   1      40.142  29.201  29.619  1.00  0.00    +0.000 C 
ATOM     68  C46 UNL A   1      39.017  28.271  29.609  1.00  0.00    +0.000 C 
ATOM     69  C47 UNL A   1      39.371  27.162  28.940  1.00  0.00    +0.000 C 
ATOM     70  C48 UNL A   1      40.739  27.317  28.444  1.00  0.00    +0.000 C 
ATOM     71  N6  UNL A   1      41.118  28.556  28.898  1.00  0.00    +0.000 N 
ATOM     72  C49 UNL A   1      41.320  32.586  30.766  1.00  0.00    +0.000 C 
ATOM     73  C50 UNL A   1      42.491  33.106  30.430  1.00  0.00    +0.000 C 
ATOM     74  C51 UNL A   1      44.745  26.097  26.444  1.00  0.00    +0.000 C 
ATOM     75  C52 UNL A   1      43.521  25.603  26.561  1.00  0.00    +0.000 C 
ATOM    108  H21 UNL A   1      47.942  30.310  26.903  1.00  0.00    +0.000 H 
ATOM    109  H22 UNL A   1      47.277  32.443  28.245  1.00  0.00    +0.000 H 
ATOM    110  H23 UNL A   1      44.095  29.795  28.347  1.00  0.00    +0.000 H 
ATOM    111  H24 UNL A   1      38.097  28.439  30.045  1.00  0.00    +0.000 H 
ATOM    112  H25 UNL A   1      38.773  26.333  28.798  1.00  0.00    +0.000 H 
ATOM    113  H26 UNL A   1      42.004  28.946  28.723  1.00  0.00    +0.000 H 
ATOM    114  H27 UNL A   1      40.563  32.998  31.334  1.00  0.00    +0.000 H 
ATOM    115  H28 UNL A   1      42.791  34.064  30.666  1.00  0.00    +0.000 H 
ATOM    116  H29 UNL A   1      45.538  25.595  26.017  1.00  0.00    +0.000 H 
ATOM    117  H30 UNL A   1      43.145  24.707  26.213  1.00  0.00    +0.000 H 
ENDROOT
BRANCH   19   18
ATOM    106  H19 UNL A   1      40.906  21.812  27.875  1.00  0.00    +0.000 H 
ATOM    107  H20 UNL A   1      41.888  23.900  28.620  1.00  0.00    +0.000 H 
ATOM     76  C53 UNL A   1      39.682  25.128  26.415  1.00  0.00    +0.000 C 
ATOM     77  C54 UNL A   1      39.056  23.933  26.056  1.00  0.00    +0.000 C 
ATOM     15  C11 UNL A   1      39.543  22.715  26.536  1.00  0.00    +0.000 C 
ATOM     16  C12 UNL A   1      40.572  22.707  27.483  1.00  0.00    +0.000 C 
ATOM     17  C13 UNL A   1      41.150  23.909  27.898  1.00  0.00    +0.000 C 
ATOM     18  C14 UNL A   1      40.736  25.129  27.341  1.00  0.00    +0.000 C 
ATOM    118  H31 UNL A   1      39.367  26.017  25.996  1.00  0.00    +0.000 H 
ATOM    119  H32 UNL A   1      38.232  23.950  25.435  1.00  0.00    +0.000 H 
BRANCH   15   13
ATOM     13  C10 UNL A   1      38.977  21.418  26.099  1.00  0.00    +0.000 C 
ATOM     14  O2  UNL A   1      39.690  20.416  26.106  1.00  0.00    +0.000 O 
BRANCH   13   12
ATOM    105  H18 UNL A   1      37.041  20.984  26.330  1.00  0.00    +0.000 H 
ATOM     12  N2  UNL A   1      37.679  21.323  25.662  1.00  0.00    +0.000 N 
BRANCH   12   11
ATOM     11  C9  UNL A   1      37.100  21.642  24.368  1.00  0.00    +0.000 C 
ATOM    103  H16 UNL A   1      37.618  22.486  23.961  1.00  0.00    +0.000 H 
ATOM    104  H17 UNL A   1      37.202  20.776  23.748  1.00  0.00    +0.000 H 
BRANCH   11   10
ATOM     10  C8  UNL A   1      35.612  21.975  24.447  1.00  0.00    +0.000 C 
ATOM    101  H14 UNL A   1      35.503  22.860  25.040  1.00  0.00    +0.000 H 
ATOM    102  H15 UNL A   1      35.283  22.088  23.436  1.00  0.00    +0.000 H 
BRANCH   10    9
ATOM      9  C7  UNL A   1      34.723  20.888  25.057  1.00  0.00    +0.000 C 
ATOM     99  H12 UNL A   1      34.305  20.318  24.253  1.00  0.00    +0.000 H 
ATOM    100  H13 UNL A   1      35.356  20.323  25.706  1.00  0.00    +0.000 H 
BRANCH    9    8
ATOM     97  H10 UNL A   1      33.524  20.768  26.801  1.00  0.00    +0.000 H 
ATOM     98  H11 UNL A   1      33.783  22.415  26.137  1.00  0.00    +0.000 H 
ATOM      8  C6  UNL A   1      33.568  21.387  25.929  1.00  0.00    +0.000 C 
BRANCH    8    7
ATOM     95  H8  UNL A   1      32.301  21.632  24.241  1.00  0.00    +0.000 H 
ATOM      7  C5  UNL A   1      32.183  21.375  25.273  1.00  0.00    +0.000 C 
ATOM     96  H9  UNL A   1      31.789  20.392  25.423  1.00  0.00    +0.000 H 
BRANCH    7    6
ATOM     94  H7  UNL A   1      31.442  22.498  26.909  1.00  0.00    +0.000 H 
ATOM     93  H6  UNL A   1      30.192  21.910  25.810  1.00  0.00    +0.000 H 
ATOM      6  C4  UNL A   1      31.168  22.340  25.888  1.00  0.00    +0.000 C 
BRANCH    6    5
ATOM     92  H5  UNL A   1      30.864  24.379  25.781  1.00  0.00    +0.000 H 
ATOM      5  N1  UNL A   1      31.167  23.631  25.217  1.00  0.00    +0.000 N 
BRANCH    5    3
ATOM      3  C3  UNL A   1      31.510  23.994  23.945  1.00  0.00    +0.000 C 
ATOM      4  O1  UNL A   1      30.591  24.120  23.131  1.00  0.00    +0.000 O 
BRANCH    3    2
ATOM      2  C2  UNL A   1      32.969  24.241  23.519  1.00  0.00    +0.000 C 
ATOM     91  H4  UNL A   1      33.627  23.657  24.128  1.00  0.00    +0.000 H 
BRANCH    2    1
ATOM      1  C1  UNL A   1      33.121  23.789  22.059  1.00  0.00    +0.000 C 
ATOM     90  H3  UNL A   1      32.622  24.484  21.416  1.00  0.00    +0.000 H 
ATOM     89  H2  UNL A   1      34.159  23.749  21.803  1.00  0.00    +0.000 H 
ATOM     88  H1  UNL A   1      32.687  22.818  21.939  1.00  0.00    +0.000 H 
ENDBRANCH    2    1
BRANCH    2   78
ATOM     78  C55 UNL A   1      33.443  25.669  23.785  1.00  0.00    +0.000 C 
ATOM     79  C56 UNL A   1      33.421  26.655  22.781  1.00  0.00    +0.000 C 
ATOM     80  C57 UNL A   1      33.432  28.007  23.122  1.00  0.00    +0.000 C 
ATOM     81  C58 UNL A   1      33.419  28.351  24.467  1.00  0.00    +0.000 C 
ATOM     82  C59 UNL A   1      33.635  27.388  25.452  1.00  0.00    +0.000 C 
ATOM     83  C60 UNL A   1      33.752  26.055  25.098  1.00  0.00    +0.000 C 
ATOM     84  O3  UNL A   1      33.556  27.649  26.792  1.00  0.00    +0.000 O 
ATOM     85  C61 UNL A   1      32.838  28.853  27.095  1.00  0.00    +0.000 C 
ATOM     86  C62 UNL A   1      32.104  29.457  25.902  1.00  0.00    +0.000 C 
ATOM     87  O4  UNL A   1      33.013  29.619  24.804  1.00  0.00    +0.000 O 
ATOM    120  H33 UNL A   1      33.396  26.376  21.787  1.00  0.00    +0.000 H 
ATOM    121  H34 UNL A   1      33.450  28.735  22.391  1.00  0.00    +0.000 H 
ATOM    122  H35 UNL A   1      34.064  25.355  25.789  1.00  0.00    +0.000 H 
ATOM    123  H36 UNL A   1      33.536  29.577  27.462  1.00  0.00    +0.000 H 
ATOM    124  H37 UNL A   1      32.092  28.594  27.817  1.00  0.00    +0.000 H 
ATOM    125  H38 UNL A   1      31.705  30.412  26.177  1.00  0.00    +0.000 H 
ATOM    126  H39 UNL A   1      31.308  28.805  25.609  1.00  0.00    +0.000 H 
ENDBRANCH    2   78
ENDBRANCH    3    2
ENDBRANCH    5    3
ENDBRANCH    6    5
ENDBRANCH    7    6
ENDBRANCH    8    7
ENDBRANCH    9    8
ENDBRANCH   10    9
ENDBRANCH   11   10
ENDBRANCH   12   11
ENDBRANCH   13   12
ENDBRANCH   15   13
ENDBRANCH   19   18
BRANCH   23   24
ATOM     33  C24 UNL A   1      48.191  27.139  26.876  1.00  0.00    +0.000 C 
ATOM     34  F5  UNL A   1      48.151  27.041  28.213  1.00  0.00    +0.000 F 
ATOM     24  C19 UNL A   1      47.112  27.696  26.174  1.00  0.00    +0.000 C 
ATOM     25  C20 UNL A   1      47.213  27.779  24.776  1.00  0.00    +0.000 C 
ATOM     26  F1  UNL A   1      46.204  28.295  24.056  1.00  0.00    +0.000 F 
ATOM     27  C21 UNL A   1      48.337  27.303  24.108  1.00  0.00    +0.000 C 
ATOM     28  F2  UNL A   1      48.391  27.353  22.769  1.00  0.00    +0.000 F 
ATOM     29  C22 UNL A   1      49.397  26.769  24.824  1.00  0.00    +0.000 C 
ATOM     30  F3  UNL A   1      50.484  26.322  24.180  1.00  0.00    +0.000 F 
ATOM     31  C23 UNL A   1      49.328  26.693  26.206  1.00  0.00    +0.000 C 
ATOM     32  F4  UNL A   1      50.358  26.189  26.900  1.00  0.00    +0.000 F 
ENDBRANCH   23   24
BRANCH   40   41
ATOM     41  C30 UNL A   1      45.148  33.744  29.589  1.00  0.00    +0.000 C 
ATOM     42  C31 UNL A   1      45.881  33.978  30.762  1.00  0.00    +0.000 C 
ATOM     43  F6  UNL A   1      46.056  32.993  31.657  1.00  0.00    +0.000 F 
ATOM     44  C32 UNL A   1      46.396  35.240  31.046  1.00  0.00    +0.000 C 
ATOM     45  F7  UNL A   1      47.040  35.454  32.202  1.00  0.00    +0.000 F 
ATOM     46  C33 UNL A   1      46.223  36.281  30.145  1.00  0.00    +0.000 C 
ATOM     47  F8  UNL A   1      46.720  37.495  30.420  1.00  0.00    +0.000 F 
ATOM     48  C34 UNL A   1      45.528  36.065  28.966  1.00  0.00    +0.000 C 
ATOM     49  F9  UNL A   1      45.374  37.066  28.088  1.00  0.00    +0.000 F 
ATOM     50  C35 UNL A   1      44.984  34.812  28.695  1.00  0.00    +0.000 C 
ATOM     51  F10 UNL A   1      44.298  34.642  27.555  1.00  0.00    +0.000 F 
ENDBRANCH   40   41
BRANCH   55   56
ATOM     65  C44 UNL A   1      38.835  30.653  32.355  1.00  0.00    +0.000 C 
ATOM     66  F15 UNL A   1      39.790  29.983  33.017  1.00  0.00    +0.000 F 
ATOM     56  C39 UNL A   1      38.957  30.871  30.976  1.00  0.00    +0.000 C 
ATOM     57  C40 UNL A   1      37.924  31.571  30.334  1.00  0.00    +0.000 C 
ATOM     58  F11 UNL A   1      38.004  31.823  29.019  1.00  0.00    +0.000 F 
ATOM     59  C41 UNL A   1      36.834  32.061  31.049  1.00  0.00    +0.000 C 
ATOM     60  F12 UNL A   1      35.892  32.778  30.420  1.00  0.00    +0.000 F 
ATOM     61  C42 UNL A   1      36.733  31.827  32.412  1.00  0.00    +0.000 C 
ATOM     62  F13 UNL A   1      35.684  32.300  33.099  1.00  0.00    +0.000 F 
ATOM     63  C43 UNL A   1      37.726  31.113  33.063  1.00  0.00    +0.000 C 
ATOM     64  F14 UNL A   1      37.625  30.870  34.377  1.00  0.00    +0.000 F 
ENDBRANCH   55   56
TORSDOF 17
ENDMDL
MODEL 6
REMARK VINA RESULT:      -9.8      4.336     12.511
ROOT
ATOM     19  C15 UNL A   1      25.051  39.653  47.083  1.00  0.00    +0.000 C 
ATOM     20  C16 UNL A   1      24.474  38.288  46.824  1.00  0.00    +0.000 C 
ATOM     21  N3  UNL A   1      23.276  37.831  47.092  1.00  0.00    +0.000 N 
ATOM     22  C17 UNL A   1      23.259  36.520  46.633  1.00  0.00    +0.000 C 
ATOM     23  C18 UNL A   1      22.276  35.593  46.751  1.00  0.00    +0.000 C 
ATOM     35  C25 UNL A   1      21.002  35.833  47.379  1.00  0.00    +0.000 C 
ATOM     36  C26 UNL A   1      19.953  34.951  47.570  1.00  0.00    +0.000 C 
ATOM     37  C27 UNL A   1      18.904  35.641  48.187  1.00  0.00    +0.000 C 
ATOM     38  C28 UNL A   1      19.320  36.940  48.432  1.00  0.00    +0.000 C 
ATOM     39  N4  UNL A   1      20.604  37.047  47.921  1.00  0.00    +0.000 N 
ATOM     40  C29 UNL A   1      18.603  38.003  49.086  1.00  0.00    +0.000 C 
ATOM     52  C36 UNL A   1      19.084  39.256  49.282  1.00  0.00    +0.000 C 
ATOM     53  N5  UNL A   1      20.315  39.786  48.918  1.00  0.00    +0.000 N 
ATOM     54  C37 UNL A   1      20.293  41.040  49.299  1.00  0.00    +0.000 C 
ATOM     55  C38 UNL A   1      21.372  42.085  49.192  1.00  0.00    +0.000 C 
ATOM     67  C45 UNL A   1      22.561  41.750  48.658  1.00  0.00    +0.000 C 
ATOM     68  C46 UNL A   1      23.706  42.645  48.516  1.00  0.00    +0.000 C 
ATOM     69  C47 UNL A   1      24.707  41.983  47.915  1.00  0.00    +0.000 C 
ATOM     70  C48 UNL A   1      24.288  40.605  47.660  1.00  0.00    +0.000 C 
ATOM     71  N6  UNL A   1      22.998  40.559  48.130  1.00  0.00    +0.000 N 
ATOM     72  C49 UNL A   1      19.031  41.454  49.926  1.00  0.00    +0.000 C 
ATOM     73  C50 UNL A   1      18.351  40.317  49.938  1.00  0.00    +0.000 C 
ATOM     74  C51 UNL A   1      24.539  36.276  46.005  1.00  0.00    +0.000 C 
ATOM     75  C52 UNL A   1      25.349  37.315  46.153  1.00  0.00    +0.000 C 
ATOM    108  H21 UNL A   1      19.945  33.955  47.302  1.00  0.00    +0.000 H 
ATOM    109  H22 UNL A   1      17.979  35.249  48.421  1.00  0.00    +0.000 H 
ATOM    110  H23 UNL A   1      21.154  37.864  47.938  1.00  0.00    +0.000 H 
ATOM    111  H24 UNL A   1      23.739  43.628  48.828  1.00  0.00    +0.000 H 
ATOM    112  H25 UNL A   1      25.628  42.383  47.673  1.00  0.00    +0.000 H 
ATOM    113  H26 UNL A   1      22.441  39.749  48.094  1.00  0.00    +0.000 H 
ATOM    114  H27 UNL A   1      18.749  42.385  50.269  1.00  0.00    +0.000 H 
ATOM    115  H28 UNL A   1      17.416  40.203  50.359  1.00  0.00    +0.000 H 
ATOM    116  H29 UNL A   1      24.789  35.408  45.508  1.00  0.00    +0.000 H 
ATOM    117  H30 UNL A   1      26.337  37.414  45.871  1.00  0.00    +0.000 H 
ENDROOT
BRANCH   19   18
ATOM    106  H19 UNL A   1      28.230  41.096  44.058  1.00  0.00    +0.000 H 
ATOM    107  H20 UNL A   1      25.941  40.733  44.771  1.00  0.00    +0.000 H 
ATOM     76  C53 UNL A   1      27.512  39.753  47.566  1.00  0.00    +0.000 C 
ATOM     77  C54 UNL A   1      28.822  40.050  47.186  1.00  0.00    +0.000 C 
ATOM     15  C11 UNL A   1      29.094  40.478  45.884  1.00  0.00    +0.000 C 
ATOM     16  C12 UNL A   1      28.037  40.737  45.006  1.00  0.00    +0.000 C 
ATOM     17  C13 UNL A   1      26.720  40.510  45.411  1.00  0.00    +0.000 C 
ATOM     18  C14 UNL A   1      26.446  39.980  46.683  1.00  0.00    +0.000 C 
ATOM    118  H31 UNL A   1      27.326  39.363  48.503  1.00  0.00    +0.000 H 
ATOM    119  H32 UNL A   1      29.590  39.953  47.869  1.00  0.00    +0.000 H 
BRANCH   15   13
ATOM     13  C10 UNL A   1      30.478  40.703  45.407  1.00  0.00    +0.000 C 
ATOM     14  O2  UNL A   1      31.136  41.629  45.879  1.00  0.00    +0.000 O 
BRANCH   13   12
ATOM    105  H18 UNL A   1      30.821  40.190  43.507  1.00  0.00    +0.000 H 
ATOM     12  N2  UNL A   1      31.027  39.912  44.428  1.00  0.00    +0.000 N 
BRANCH   12   11
ATOM     11  C9  UNL A   1      31.863  38.728  44.538  1.00  0.00    +0.000 C 
ATOM    103  H16 UNL A   1      32.278  38.513  43.576  1.00  0.00    +0.000 H 
ATOM    104  H17 UNL A   1      32.623  38.939  45.262  1.00  0.00    +0.000 H 
BRANCH   11   10
ATOM     10  C8  UNL A   1      31.096  37.501  45.025  1.00  0.00    +0.000 C 
ATOM    101  H14 UNL A   1      31.761  36.663  44.995  1.00  0.00    +0.000 H 
ATOM    102  H15 UNL A   1      30.748  37.744  46.007  1.00  0.00    +0.000 H 
BRANCH   10    9
ATOM      9  C7  UNL A   1      29.846  37.139  44.218  1.00  0.00    +0.000 C 
ATOM     99  H12 UNL A   1      29.239  36.499  44.823  1.00  0.00    +0.000 H 
ATOM    100  H13 UNL A   1      29.382  38.068  43.966  1.00  0.00    +0.000 H 
BRANCH    9    8
ATOM     97  H10 UNL A   1      29.178  36.406  42.343  1.00  0.00    +0.000 H 
ATOM     98  H11 UNL A   1      30.877  36.980  42.403  1.00  0.00    +0.000 H 
ATOM      8  C6  UNL A   1      30.100  36.426  42.887  1.00  0.00    +0.000 C 
BRANCH    8    7
ATOM     95  H8  UNL A   1      31.373  34.850  42.246  1.00  0.00    +0.000 H 
ATOM      7  C5  UNL A   1      30.616  34.986  42.990  1.00  0.00    +0.000 C 
ATOM     96  H9  UNL A   1      30.978  34.869  43.990  1.00  0.00    +0.000 H 
BRANCH    7    6
ATOM     94  H7  UNL A   1      30.052  33.007  42.484  1.00  0.00    +0.000 H 
ATOM     93  H6  UNL A   1      28.860  34.235  42.047  1.00  0.00    +0.000 H 
ATOM      6  C4  UNL A   1      29.555  33.903  42.789  1.00  0.00    +0.000 C 
BRANCH    6    5
ATOM     92  H5  UNL A   1      29.283  32.984  44.618  1.00  0.00    +0.000 H 
ATOM      5  N1  UNL A   1      28.828  33.619  44.017  1.00  0.00    +0.000 N 
BRANCH    5    3
ATOM      3  C3  UNL A   1      27.629  34.071  44.489  1.00  0.00    +0.000 C 
ATOM      4  O1  UNL A   1      27.063  34.950  43.832  1.00  0.00    +0.000 O 
BRANCH    3    2
ATOM      2  C2  UNL A   1      26.988  33.529  45.780  1.00  0.00    +0.000 C 
ATOM     91  H4  UNL A   1      25.934  33.712  45.764  1.00  0.00    +0.000 H 
BRANCH    2    1
ATOM      1  C1  UNL A   1      27.222  32.011  45.826  1.00  0.00    +0.000 C 
ATOM     90  H3  UNL A   1      26.385  31.536  46.294  1.00  0.00    +0.000 H 
ATOM     89  H2  UNL A   1      27.334  31.637  44.830  1.00  0.00    +0.000 H 
ATOM     88  H1  UNL A   1      28.109  31.804  46.388  1.00  0.00    +0.000 H 
ENDBRANCH    2    1
BRANCH    2   78
ATOM     78  C55 UNL A   1      27.440  34.270  47.037  1.00  0.00    +0.000 C 
ATOM     79  C56 UNL A   1      28.401  35.297  46.985  1.00  0.00    +0.000 C 
ATOM     80  C57 UNL A   1      28.486  36.235  48.013  1.00  0.00    +0.000 C 
ATOM     81  C58 UNL A   1      27.576  36.155  49.058  1.00  0.00    +0.000 C 
ATOM     82  C59 UNL A   1      26.758  35.037  49.209  1.00  0.00    +0.000 C 
ATOM     83  C60 UNL A   1      26.768  34.041  48.247  1.00  0.00    +0.000 C 
ATOM     84  O3  UNL A   1      25.788  34.935  50.169  1.00  0.00    +0.000 O 
ATOM     85  C61 UNL A   1      25.402  36.199  50.722  1.00  0.00    +0.000 C 
ATOM     86  C62 UNL A   1      25.956  37.404  49.969  1.00  0.00    +0.000 C 
ATOM     87  O4  UNL A   1      27.377  37.276  49.827  1.00  0.00    +0.000 O 
ATOM    120  H33 UNL A   1      29.046  35.357  46.180  1.00  0.00    +0.000 H 
ATOM    121  H34 UNL A   1      29.210  36.971  47.998  1.00  0.00    +0.000 H 
ATOM    122  H35 UNL A   1      26.290  33.142  48.418  1.00  0.00    +0.000 H 
ATOM    123  H36 UNL A   1      25.752  36.244  51.733  1.00  0.00    +0.000 H 
ATOM    124  H37 UNL A   1      24.335  36.255  50.651  1.00  0.00    +0.000 H 
ATOM    125  H38 UNL A   1      25.732  38.298  50.515  1.00  0.00    +0.000 H 
ATOM    126  H39 UNL A   1      25.506  37.453  49.000  1.00  0.00    +0.000 H 
ENDBRANCH    2   78
ENDBRANCH    3    2
ENDBRANCH    5    3
ENDBRANCH    6    5
ENDBRANCH    7    6
ENDBRANCH    8    7
ENDBRANCH    9    8
ENDBRANCH   10    9
ENDBRANCH   11   10
ENDBRANCH   12   11
ENDBRANCH   13   12
ENDBRANCH   15   13
ENDBRANCH   19   18
BRANCH   23   24
ATOM     33  C24 UNL A   1      23.284  33.284  46.942  1.00  0.00    +0.000 C 
ATOM     34  F5  UNL A   1      23.724  33.587  48.172  1.00  0.00    +0.000 F 
ATOM     24  C19 UNL A   1      22.547  34.221  46.202  1.00  0.00    +0.000 C 
ATOM     25  C20 UNL A   1      22.119  33.850  44.918  1.00  0.00    +0.000 C 
ATOM     26  F1  UNL A   1      21.402  34.705  44.172  1.00  0.00    +0.000 F 
ATOM     27  C21 UNL A   1      22.396  32.586  44.405  1.00  0.00    +0.000 C 
ATOM     28  F2  UNL A   1      21.937  32.240  43.194  1.00  0.00    +0.000 F 
ATOM     29  C22 UNL A   1      23.137  31.681  45.150  1.00  0.00    +0.000 C 
ATOM     30  F3  UNL A   1      23.413  30.468  44.650  1.00  0.00    +0.000 F 
ATOM     31  C23 UNL A   1      23.586  32.031  46.413  1.00  0.00    +0.000 C 
ATOM     32  F4  UNL A   1      24.314  31.162  47.128  1.00  0.00    +0.000 F 
ENDBRANCH   23   24
BRANCH   40   41
ATOM     41  C30 UNL A   1      17.229  37.706  49.617  1.00  0.00    +0.000 C 
ATOM     42  C31 UNL A   1      16.134  37.506  48.761  1.00  0.00    +0.000 C 
ATOM     43  F6  UNL A   1      16.289  37.605  47.432  1.00  0.00    +0.000 F 
ATOM     44  C32 UNL A   1      14.864  37.253  49.271  1.00  0.00    +0.000 C 
ATOM     45  F7  UNL A   1      13.823  37.126  48.436  1.00  0.00    +0.000 F 
ATOM     46  C33 UNL A   1      14.670  37.154  50.641  1.00  0.00    +0.000 C 
ATOM     47  F8  UNL A   1      13.446  36.910  51.129  1.00  0.00    +0.000 F 
ATOM     48  C34 UNL A   1      15.742  37.320  51.504  1.00  0.00    +0.000 C 
ATOM     49  F9  UNL A   1      15.559  37.210  52.827  1.00  0.00    +0.000 F 
ATOM     50  C35 UNL A   1      17.008  37.606  50.998  1.00  0.00    +0.000 C 
ATOM     51  F10 UNL A   1      18.020  37.781  51.861  1.00  0.00    +0.000 F 
ENDBRANCH   40   41
BRANCH   55   56
ATOM     65  C44 UNL A   1      21.479  43.852  50.982  1.00  0.00    +0.000 C 
ATOM     66  F15 UNL A   1      22.000  42.953  51.829  1.00  0.00    +0.000 F 
ATOM     56  C39 UNL A   1      21.136  43.472  49.677  1.00  0.00    +0.000 C 
ATOM     57  C40 UNL A   1      20.587  44.451  48.837  1.00  0.00    +0.000 C 
ATOM     58  F11 UNL A   1      20.261  44.142  47.573  1.00  0.00    +0.000 F 
ATOM     59  C41 UNL A   1      20.422  45.764  49.273  1.00  0.00    +0.000 C 
ATOM     60  F12 UNL A   1      19.952  46.694  48.429  1.00  0.00    +0.000 F 
ATOM     61  C42 UNL A   1      20.765  46.115  50.570  1.00  0.00    +0.000 C 
ATOM     62  F13 UNL A   1      20.607  47.378  50.989  1.00  0.00    +0.000 F 
ATOM     63  C43 UNL A   1      21.281  45.157  51.428  1.00  0.00    +0.000 C 
ATOM     64  F14 UNL A   1      21.598  45.487  52.688  1.00  0.00    +0.000 F 
ENDBRANCH   55   56
TORSDOF 17
ENDMDL
MODEL 7
REMARK VINA RESULT:      -9.8     43.400     46.554
ROOT
ATOM     19  C15 UNL A   1      14.002  54.037   4.766  1.00  0.00    +0.000 C 
ATOM     20  C16 UNL A   1      14.951  54.456   3.677  1.00  0.00    +0.000 C 
ATOM     21  N3  UNL A   1      15.446  53.748   2.692  1.00  0.00    +0.000 N 
ATOM     22  C17 UNL A   1      16.251  54.617   1.966  1.00  0.00    +0.000 C 
ATOM     23  C18 UNL A   1      17.049  54.346   0.904  1.00  0.00    +0.000 C 
ATOM     35  C25 UNL A   1      17.180  53.047   0.295  1.00  0.00    +0.000 C 
ATOM     36  C26 UNL A   1      17.981  52.669  -0.768  1.00  0.00    +0.000 C 
ATOM     37  C27 UNL A   1      17.745  51.316  -1.038  1.00  0.00    +0.000 C 
ATOM     38  C28 UNL A   1      16.837  50.837  -0.107  1.00  0.00    +0.000 C 
ATOM     39  N4  UNL A   1      16.490  51.913   0.697  1.00  0.00    +0.000 N 
ATOM     40  C29 UNL A   1      16.326  49.500   0.041  1.00  0.00    +0.000 C 
ATOM     52  C36 UNL A   1      15.429  49.114   0.983  1.00  0.00    +0.000 C 
ATOM     53  N5  UNL A   1      14.820  49.872   1.973  1.00  0.00    +0.000 N 
ATOM     54  C37 UNL A   1      14.016  49.056   2.609  1.00  0.00    +0.000 C 
ATOM     55  C38 UNL A   1      13.130  49.326   3.796  1.00  0.00    +0.000 C 
ATOM     67  C45 UNL A   1      13.129  50.553   4.349  1.00  0.00    +0.000 C 
ATOM     68  C46 UNL A   1      12.348  50.953   5.516  1.00  0.00    +0.000 C 
ATOM     69  C47 UNL A   1      12.570  52.253   5.767  1.00  0.00    +0.000 C 
ATOM     70  C48 UNL A   1      13.536  52.772   4.799  1.00  0.00    +0.000 C 
ATOM     71  N6  UNL A   1      13.809  51.693   3.994  1.00  0.00    +0.000 N 
ATOM     72  C49 UNL A   1      14.005  47.688   2.073  1.00  0.00    +0.000 C 
ATOM     73  C50 UNL A   1      14.921  47.766   1.118  1.00  0.00    +0.000 C 
ATOM     74  C51 UNL A   1      16.123  55.921   2.580  1.00  0.00    +0.000 C 
ATOM     75  C52 UNL A   1      15.383  55.862   3.678  1.00  0.00    +0.000 C 
ATOM    108  H21 UNL A   1      18.640  53.279  -1.276  1.00  0.00    +0.000 H 
ATOM    109  H22 UNL A   1      18.174  50.769  -1.800  1.00  0.00    +0.000 H 
ATOM    110  H23 UNL A   1      15.848  51.877   1.442  1.00  0.00    +0.000 H 
ATOM    111  H24 UNL A   1      11.726  50.335   6.060  1.00  0.00    +0.000 H 
ATOM    112  H25 UNL A   1      12.129  52.799   6.524  1.00  0.00    +0.000 H 
ATOM    113  H26 UNL A   1      14.434  51.732   3.235  1.00  0.00    +0.000 H 
ATOM    114  H27 UNL A   1      13.434  46.880   2.363  1.00  0.00    +0.000 H 
ATOM    115  H28 UNL A   1      15.231  46.966   0.544  1.00  0.00    +0.000 H 
ATOM    116  H29 UNL A   1      16.553  56.783   2.211  1.00  0.00    +0.000 H 
ATOM    117  H30 UNL A   1      15.166  56.609   4.356  1.00  0.00    +0.000 H 
ENDROOT
BRANCH   19   18
ATOM    106  H19 UNL A   1      14.301  56.132   8.872  1.00  0.00    +0.000 H 
ATOM    107  H20 UNL A   1      15.150  54.678   7.127  1.00  0.00    +0.000 H 
ATOM     76  C53 UNL A   1      12.375  55.762   5.590  1.00  0.00    +0.000 C 
ATOM     77  C54 UNL A   1      11.938  56.668   6.558  1.00  0.00    +0.000 C 
ATOM     15  C11 UNL A   1      12.602  56.757   7.784  1.00  0.00    +0.000 C 
ATOM     16  C12 UNL A   1      13.782  56.035   7.985  1.00  0.00    +0.000 C 
ATOM     17  C13 UNL A   1      14.261  55.184   6.987  1.00  0.00    +0.000 C 
ATOM     18  C14 UNL A   1      13.542  55.011   5.793  1.00  0.00    +0.000 C 
ATOM    118  H31 UNL A   1      11.836  55.644   4.717  1.00  0.00    +0.000 H 
ATOM    119  H32 UNL A   1      11.124  57.272   6.366  1.00  0.00    +0.000 H 
BRANCH   15   13
ATOM     13  C10 UNL A   1      12.111  57.626   8.879  1.00  0.00    +0.000 C 
ATOM     14  O2  UNL A   1      12.298  58.840   8.815  1.00  0.00    +0.000 O 
BRANCH   13   12
ATOM    105  H18 UNL A   1      11.594  57.604  10.808  1.00  0.00    +0.000 H 
ATOM     12  N2  UNL A   1      11.477  57.095   9.974  1.00  0.00    +0.000 N 
BRANCH   12   11
ATOM     11  C9  UNL A   1      10.661  55.898  10.096  1.00  0.00    +0.000 C 
ATOM    103  H16 UNL A   1       9.840  56.110  10.749  1.00  0.00    +0.000 H 
ATOM    104  H17 UNL A   1      10.331  55.633   9.114  1.00  0.00    +0.000 H 
BRANCH   11   10
ATOM     10  C8  UNL A   1      11.434  54.705  10.655  1.00  0.00    +0.000 C 
ATOM    101  H14 UNL A   1      12.394  55.055  10.974  1.00  0.00    +0.000 H 
ATOM    102  H15 UNL A   1      10.831  54.311  11.446  1.00  0.00    +0.000 H 
BRANCH   10    9
ATOM      9  C7  UNL A   1      11.655  53.546   9.681  1.00  0.00    +0.000 C 
ATOM     99  H12 UNL A   1      11.095  53.752   8.792  1.00  0.00    +0.000 H 
ATOM    100  H13 UNL A   1      12.711  53.492   9.526  1.00  0.00    +0.000 H 
BRANCH    9    8
ATOM     97  H10 UNL A   1      10.177  52.075  10.069  1.00  0.00    +0.000 H 
ATOM     98  H11 UNL A   1      11.798  51.459   9.610  1.00  0.00    +0.000 H 
ATOM      8  C6  UNL A   1      11.237  52.163  10.188  1.00  0.00    +0.000 C 
BRANCH    8    7
ATOM     95  H8  UNL A   1      12.591  52.141  11.826  1.00  0.00    +0.000 H 
ATOM      7  C5  UNL A   1      11.573  51.861  11.653  1.00  0.00    +0.000 C 
ATOM     96  H9  UNL A   1      10.874  52.417  12.241  1.00  0.00    +0.000 H 
BRANCH    7    6
ATOM     94  H7  UNL A   1      10.754  50.365  12.910  1.00  0.00    +0.000 H 
ATOM     93  H6  UNL A   1      12.370  49.995  12.303  1.00  0.00    +0.000 H 
ATOM      6  C4  UNL A   1      11.408  50.397  12.065  1.00  0.00    +0.000 C 
BRANCH    6    5
ATOM     92  H5  UNL A   1      10.040  50.017  10.566  1.00  0.00    +0.000 H 
ATOM      5  N1  UNL A   1      10.815  49.596  11.005  1.00  0.00    +0.000 N 
BRANCH    5    3
ATOM      3  C3  UNL A   1      11.137  48.365  10.508  1.00  0.00    +0.000 C 
ATOM      4  O1  UNL A   1      10.908  47.390  11.231  1.00  0.00    +0.000 O 
BRANCH    3    2
ATOM      2  C2  UNL A   1      11.760  48.172   9.113  1.00  0.00    +0.000 C 
ATOM     91  H4  UNL A   1      11.696  47.142   8.829  1.00  0.00    +0.000 H 
BRANCH    2    1
ATOM      1  C1  UNL A   1      10.949  49.007   8.110  1.00  0.00    +0.000 C 
ATOM     90  H3  UNL A   1      10.005  48.535   7.934  1.00  0.00    +0.000 H 
ATOM     89  H2  UNL A   1      10.788  49.987   8.509  1.00  0.00    +0.000 H 
ATOM     88  H1  UNL A   1      11.488  49.080   7.188  1.00  0.00    +0.000 H 
ENDBRANCH    2    1
BRANCH    2   78
ATOM     78  C55 UNL A   1      13.263  48.440   9.080  1.00  0.00    +0.000 C 
ATOM     79  C56 UNL A   1      14.202  47.392   9.105  1.00  0.00    +0.000 C 
ATOM     80  C57 UNL A   1      15.503  47.601   8.647  1.00  0.00    +0.000 C 
ATOM     81  C58 UNL A   1      15.829  48.846   8.129  1.00  0.00    +0.000 C 
ATOM     82  C59 UNL A   1      14.968  49.932   8.280  1.00  0.00    +0.000 C 
ATOM     83  C60 UNL A   1      13.721  49.747   8.854  1.00  0.00    +0.000 C 
ATOM     84  O3  UNL A   1      15.197  51.161   7.724  1.00  0.00    +0.000 O 
ATOM     85  C61 UNL A   1      16.149  51.131   6.653  1.00  0.00    +0.000 C 
ATOM     86  C62 UNL A   1      16.521  49.726   6.189  1.00  0.00    +0.000 C 
ATOM     87  O4  UNL A   1      16.931  48.936   7.314  1.00  0.00    +0.000 O 
ATOM    120  H33 UNL A   1      13.927  46.464   9.464  1.00  0.00    +0.000 H 
ATOM    121  H34 UNL A   1      16.206  46.847   8.694  1.00  0.00    +0.000 H 
ATOM    122  H35 UNL A   1      13.138  50.558   9.113  1.00  0.00    +0.000 H 
ATOM    123  H36 UNL A   1      17.041  51.623   6.982  1.00  0.00    +0.000 H 
ATOM    124  H37 UNL A   1      15.691  51.620   5.819  1.00  0.00    +0.000 H 
ATOM    125  H38 UNL A   1      17.324  49.786   5.484  1.00  0.00    +0.000 H 
ATOM    126  H39 UNL A   1      15.670  49.269   5.728  1.00  0.00    +0.000 H 
ENDBRANCH    2   78
ENDBRANCH    3    2
ENDBRANCH    5    3
ENDBRANCH    6    5
ENDBRANCH    7    6
ENDBRANCH    8    7
ENDBRANCH    9    8
ENDBRANCH   10    9
ENDBRANCH   11   10
ENDBRANCH   12   11
ENDBRANCH   13   12
ENDBRANCH   15   13
ENDBRANCH   19   18
BRANCH   23   24
ATOM     33  C24 UNL A   1      17.425  56.179  -0.795  1.00  0.00    +0.000 C 
ATOM     34  F5  UNL A   1      16.252  55.875  -1.370  1.00  0.00    +0.000 F 
ATOM     24  C19 UNL A   1      17.860  55.477   0.340  1.00  0.00    +0.000 C 
ATOM     25  C20 UNL A   1      19.100  55.835   0.894  1.00  0.00    +0.000 C 
ATOM     26  F1  UNL A   1      19.558  55.202   1.986  1.00  0.00    +0.000 F 
ATOM     27  C21 UNL A   1      19.859  56.866   0.351  1.00  0.00    +0.000 C 
ATOM     28  F2  UNL A   1      21.018  57.218   0.926  1.00  0.00    +0.000 F 
ATOM     29  C22 UNL A   1      19.415  57.537  -0.778  1.00  0.00    +0.000 C 
ATOM     30  F3  UNL A   1      20.153  58.523  -1.307  1.00  0.00    +0.000 F 
ATOM     31  C23 UNL A   1      18.203  57.190  -1.354  1.00  0.00    +0.000 C 
ATOM     32  F4  UNL A   1      17.779  57.828  -2.454  1.00  0.00    +0.000 F 
ENDBRANCH   23   24
BRANCH   40   41
ATOM     41  C30 UNL A   1      16.836  48.441  -0.894  1.00  0.00    +0.000 C 
ATOM     42  C31 UNL A   1      16.115  48.052  -2.034  1.00  0.00    +0.000 C 
ATOM     43  F6  UNL A   1      14.922  48.607  -2.300  1.00  0.00    +0.000 F 
ATOM     44  C32 UNL A   1      16.593  47.054  -2.878  1.00  0.00    +0.000 C 
ATOM     45  F7  UNL A   1      15.858  46.657  -3.926  1.00  0.00    +0.000 F 
ATOM     46  C33 UNL A   1      17.818  46.454  -2.624  1.00  0.00    +0.000 C 
ATOM     47  F8  UNL A   1      18.276  45.494  -3.439  1.00  0.00    +0.000 F 
ATOM     48  C34 UNL A   1      18.562  46.842  -1.520  1.00  0.00    +0.000 C 
ATOM     49  F9  UNL A   1      19.751  46.275  -1.282  1.00  0.00    +0.000 F 
ATOM     50  C35 UNL A   1      18.070  47.817  -0.656  1.00  0.00    +0.000 C 
ATOM     51  F10 UNL A   1      18.804  48.156   0.414  1.00  0.00    +0.000 F 
ENDBRANCH   40   41
BRANCH   55   56
ATOM     65  C44 UNL A   1      10.955  48.063   3.919  1.00  0.00    +0.000 C 
ATOM     66  F15 UNL A   1      10.436  48.880   2.991  1.00  0.00    +0.000 F 
ATOM     56  C39 UNL A   1      12.272  48.251   4.363  1.00  0.00    +0.000 C 
ATOM     57  C40 UNL A   1      12.760  47.372   5.341  1.00  0.00    +0.000 C 
ATOM     58  F11 UNL A   1      14.021  47.498   5.784  1.00  0.00    +0.000 F 
ATOM     59  C41 UNL A   1      11.977  46.329   5.828  1.00  0.00    +0.000 C 
ATOM     60  F12 UNL A   1      12.490  45.468   6.717  1.00  0.00    +0.000 F 
ATOM     61  C42 UNL A   1      10.675  46.167   5.378  1.00  0.00    +0.000 C 
ATOM     62  F13 UNL A   1       9.922  45.162   5.846  1.00  0.00    +0.000 F 
ATOM     63  C43 UNL A   1      10.160  47.040   4.433  1.00  0.00    +0.000 C 
ATOM     64  F14 UNL A   1       8.898  46.898   4.007  1.00  0.00    +0.000 F 
ENDBRANCH   55   56
TORSDOF 17
ENDMDL
MODEL 8
REMARK VINA RESULT:      -9.7     22.383     27.599
ROOT
ATOM     19  C15 UNL A   1      40.653  27.900  28.568  1.00  0.00    +0.000 C 
ATOM     20  C16 UNL A   1      42.090  28.124  28.951  1.00  0.00    +0.000 C 
ATOM     21  N3  UNL A   1      42.648  29.179  29.493  1.00  0.00    +0.000 N 
ATOM     22  C17 UNL A   1      43.989  28.857  29.655  1.00  0.00    +0.000 C 
ATOM     23  C18 UNL A   1      45.003  29.643  30.097  1.00  0.00    +0.000 C 
ATOM     35  C25 UNL A   1      44.845  31.010  30.524  1.00  0.00    +0.000 C 
ATOM     36  C26 UNL A   1      45.815  31.894  30.964  1.00  0.00    +0.000 C 
ATOM     37  C27 UNL A   1      45.188  33.096  31.312  1.00  0.00    +0.000 C 
ATOM     38  C28 UNL A   1      43.835  32.979  31.038  1.00  0.00    +0.000 C 
ATOM     39  N4  UNL A   1      43.637  31.690  30.566  1.00  0.00    +0.000 N 
ATOM     40  C29 UNL A   1      42.800  33.968  31.191  1.00  0.00    +0.000 C 
ATOM     52  C36 UNL A   1      41.490  33.769  30.901  1.00  0.00    +0.000 C 
ATOM     53  N5  UNL A   1      40.865  32.627  30.418  1.00  0.00    +0.000 N 
ATOM     54  C37 UNL A   1      39.592  32.923  30.330  1.00  0.00    +0.000 C 
ATOM     55  C38 UNL A   1      38.450  32.076  29.834  1.00  0.00    +0.000 C 
ATOM     67  C45 UNL A   1      38.703  30.834  29.380  1.00  0.00    +0.000 C 
ATOM     68  C46 UNL A   1      37.706  29.912  28.844  1.00  0.00    +0.000 C 
ATOM     69  C47 UNL A   1      38.308  28.757  28.518  1.00  0.00    +0.000 C 
ATOM     70  C48 UNL A   1      39.741  28.868  28.792  1.00  0.00    +0.000 C 
ATOM     71  N6  UNL A   1      39.883  30.134  29.305  1.00  0.00    +0.000 N 
ATOM     72  C49 UNL A   1      39.261  34.284  30.776  1.00  0.00    +0.000 C 
ATOM     73  C50 UNL A   1      40.459  34.771  31.063  1.00  0.00    +0.000 C 
ATOM     74  C51 UNL A   1      44.150  27.486  29.222  1.00  0.00    +0.000 C 
ATOM     75  C52 UNL A   1      43.021  27.009  28.718  1.00  0.00    +0.000 C 
ATOM    108  H21 UNL A   1      46.826  31.701  31.025  1.00  0.00    +0.000 H 
ATOM    109  H22 UNL A   1      45.654  33.928  31.706  1.00  0.00    +0.000 H 
ATOM    110  H23 UNL A   1      42.767  31.313  30.301  1.00  0.00    +0.000 H 
ATOM    111  H24 UNL A   1      36.701  30.116  28.732  1.00  0.00    +0.000 H 
ATOM    112  H25 UNL A   1      37.835  27.924  28.135  1.00  0.00    +0.000 H 
ATOM    113  H26 UNL A   1      40.748  30.505  29.591  1.00  0.00    +0.000 H 
ATOM    114  H27 UNL A   1      38.338  34.739  30.846  1.00  0.00    +0.000 H 
ATOM    115  H28 UNL A   1      40.634  35.742  31.366  1.00  0.00    +0.000 H 
ATOM    116  H29 UNL A   1      45.028  26.950  29.295  1.00  0.00    +0.000 H 
ATOM    117  H30 UNL A   1      42.841  26.094  28.277  1.00  0.00    +0.000 H 
ENDROOT
BRANCH   19   18
ATOM    106  H19 UNL A   1      38.690  23.724  28.790  1.00  0.00    +0.000 H 
ATOM    107  H20 UNL A   1      39.244  25.897  29.712  1.00  0.00    +0.000 H 
ATOM     76  C53 UNL A   1      40.507  26.306  26.634  1.00  0.00    +0.000 C 
ATOM     77  C54 UNL A   1      40.106  25.090  26.078  1.00  0.00    +0.000 C 
ATOM     15  C11 UNL A   1      39.501  24.119  26.880  1.00  0.00    +0.000 C 
ATOM     16  C12 UNL A   1      39.177  24.422  28.207  1.00  0.00    +0.000 C 
ATOM     17  C13 UNL A   1      39.513  25.667  28.742  1.00  0.00    +0.000 C 
ATOM     18  C14 UNL A   1      40.215  26.609  27.972  1.00  0.00    +0.000 C 
ATOM    118  H31 UNL A   1      41.024  26.988  26.056  1.00  0.00    +0.000 H 
ATOM    119  H32 UNL A   1      40.257  24.909  25.074  1.00  0.00    +0.000 H 
BRANCH   15   13
ATOM     13  C10 UNL A   1      39.154  22.777  26.359  1.00  0.00    +0.000 C 
ATOM     14  O2  UNL A   1      39.945  21.848  26.512  1.00  0.00    +0.000 O 
BRANCH   13   12
ATOM    105  H18 UNL A   1      37.866  21.651  25.329  1.00  0.00    +0.000 H 
ATOM     12  N2  UNL A   1      37.979  22.562  25.683  1.00  0.00    +0.000 N 
BRANCH   12   11
ATOM     11  C9  UNL A   1      36.876  23.467  25.409  1.00  0.00    +0.000 C 
ATOM    103  H16 UNL A   1      36.047  23.193  26.028  1.00  0.00    +0.000 H 
ATOM    104  H17 UNL A   1      37.216  24.460  25.618  1.00  0.00    +0.000 H 
BRANCH   11   10
ATOM     10  C8  UNL A   1      36.427  23.435  23.950  1.00  0.00    +0.000 C 
ATOM    101  H14 UNL A   1      37.055  24.104  23.398  1.00  0.00    +0.000 H 
ATOM    102  H15 UNL A   1      36.505  22.414  23.642  1.00  0.00    +0.000 H 
BRANCH   10    9
ATOM      9  C7  UNL A   1      34.973  23.839  23.696  1.00  0.00    +0.000 C 
ATOM     99  H12 UNL A   1      34.579  24.238  24.608  1.00  0.00    +0.000 H 
ATOM    100  H13 UNL A   1      35.001  24.543  22.892  1.00  0.00    +0.000 H 
BRANCH    9    8
ATOM     97  H10 UNL A   1      33.133  23.161  22.889  1.00  0.00    +0.000 H 
ATOM     98  H11 UNL A   1      34.580  22.184  22.476  1.00  0.00    +0.000 H 
ATOM      8  C6  UNL A   1      34.042  22.714  23.234  1.00  0.00    +0.000 C 
BRANCH    8    7
ATOM     95  H8  UNL A   1      34.328  20.829  24.171  1.00  0.00    +0.000 H 
ATOM      7  C5  UNL A   1      33.680  21.671  24.297  1.00  0.00    +0.000 C 
ATOM     96  H9  UNL A   1      33.793  22.156  25.244  1.00  0.00    +0.000 H 
BRANCH    7    6
ATOM     94  H7  UNL A   1      32.200  20.216  24.726  1.00  0.00    +0.000 H 
ATOM     93  H6  UNL A   1      31.932  21.099  23.221  1.00  0.00    +0.000 H 
ATOM      6  C4  UNL A   1      32.236  21.170  24.244  1.00  0.00    +0.000 C 
BRANCH    6    5
ATOM     92  H5  UNL A   1      30.843  21.640  25.693  1.00  0.00    +0.000 H 
ATOM      5  N1  UNL A   1      31.323  22.061  24.943  1.00  0.00    +0.000 N 
BRANCH    5    3
ATOM      3  C3  UNL A   1      31.011  23.377  24.748  1.00  0.00    +0.000 C 
ATOM      4  O1  UNL A   1      30.630  23.702  23.619  1.00  0.00    +0.000 O 
BRANCH    3    2
ATOM      2  C2  UNL A   1      31.120  24.429  25.867  1.00  0.00    +0.000 C 
ATOM     91  H4  UNL A   1      30.145  24.655  26.246  1.00  0.00    +0.000 H 
BRANCH    2    1
ATOM      1  C1  UNL A   1      31.960  23.829  27.005  1.00  0.00    +0.000 C 
ATOM     90  H3  UNL A   1      32.990  24.083  26.860  1.00  0.00    +0.000 H 
ATOM     89  H2  UNL A   1      31.625  24.220  27.942  1.00  0.00    +0.000 H 
ATOM     88  H1  UNL A   1      31.852  22.763  27.004  1.00  0.00    +0.000 H 
ENDBRANCH    2    1
BRANCH    2   78
ATOM     78  C55 UNL A   1      31.614  25.787  25.374  1.00  0.00    +0.000 C 
ATOM     79  C56 UNL A   1      30.756  26.698  24.731  1.00  0.00    +0.000 C 
ATOM     80  C57 UNL A   1      31.078  28.054  24.680  1.00  0.00    +0.000 C 
ATOM     81  C58 UNL A   1      32.236  28.483  25.314  1.00  0.00    +0.000 C 
ATOM     82  C59 UNL A   1      33.178  27.566  25.779  1.00  0.00    +0.000 C 
ATOM     83  C60 UNL A   1      32.909  26.209  25.712  1.00  0.00    +0.000 C 
ATOM     84  O3  UNL A   1      34.296  27.923  26.481  1.00  0.00    +0.000 O 
ATOM     85  C61 UNL A   1      34.213  29.235  27.052  1.00  0.00    +0.000 C 
ATOM     86  C62 UNL A   1      32.824  29.860  26.979  1.00  0.00    +0.000 C 
ATOM     87  O4  UNL A   1      32.343  29.816  25.629  1.00  0.00    +0.000 O 
ATOM    120  H33 UNL A   1      29.882  26.361  24.295  1.00  0.00    +0.000 H 
ATOM    121  H34 UNL A   1      30.471  28.723  24.181  1.00  0.00    +0.000 H 
ATOM    122  H35 UNL A   1      33.651  25.518  25.906  1.00  0.00    +0.000 H 
ATOM    123  H36 UNL A   1      34.897  29.873  26.530  1.00  0.00    +0.000 H 
ATOM    124  H37 UNL A   1      34.452  29.135  28.091  1.00  0.00    +0.000 H 
ATOM    125  H38 UNL A   1      32.875  30.878  27.305  1.00  0.00    +0.000 H 
ATOM    126  H39 UNL A   1      32.156  29.312  27.611  1.00  0.00    +0.000 H 
ENDBRANCH    2   78
ENDBRANCH    3    2
ENDBRANCH    5    3
ENDBRANCH    6    5
ENDBRANCH    7    6
ENDBRANCH    8    7
ENDBRANCH    9    8
ENDBRANCH   10    9
ENDBRANCH   11   10
ENDBRANCH   12   11
ENDBRANCH   13   12
ENDBRANCH   15   13
ENDBRANCH   19   18
BRANCH   23   24
ATOM     33  C24 UNL A   1      47.209  29.102  28.991  1.00  0.00    +0.000 C 
ATOM     34  F5  UNL A   1      46.793  29.724  27.877  1.00  0.00    +0.000 F 
ATOM     24  C19 UNL A   1      46.382  29.048  30.122  1.00  0.00    +0.000 C 
ATOM     25  C20 UNL A   1      46.867  28.377  31.256  1.00  0.00    +0.000 C 
ATOM     26  F1  UNL A   1      46.120  28.306  32.369  1.00  0.00    +0.000 F 
ATOM     27  C21 UNL A   1      48.136  27.806  31.265  1.00  0.00    +0.000 C 
ATOM     28  F2  UNL A   1      48.594  27.210  32.375  1.00  0.00    +0.000 F 
ATOM     29  C22 UNL A   1      48.931  27.860  30.130  1.00  0.00    +0.000 C 
ATOM     30  F3  UNL A   1      50.148  27.299  30.136  1.00  0.00    +0.000 F 
ATOM     31  C23 UNL A   1      48.466  28.501  28.992  1.00  0.00    +0.000 C 
ATOM     32  F4  UNL A   1      49.227  28.542  27.890  1.00  0.00    +0.000 F 
ENDBRANCH   23   24
BRANCH   40   41
ATOM     41  C30 UNL A   1      43.194  35.333  31.681  1.00  0.00    +0.000 C 
ATOM     42  C31 UNL A   1      43.674  36.321  30.808  1.00  0.00    +0.000 C 
ATOM     43  F6  UNL A   1      43.820  36.053  29.501  1.00  0.00    +0.000 F 
ATOM     44  C32 UNL A   1      44.055  37.573  31.283  1.00  0.00    +0.000 C 
ATOM     45  F7  UNL A   1      44.568  38.479  30.439  1.00  0.00    +0.000 F 
ATOM     46  C33 UNL A   1      43.925  37.876  32.630  1.00  0.00    +0.000 C 
ATOM     47  F8  UNL A   1      44.291  39.082  33.084  1.00  0.00    +0.000 F 
ATOM     48  C34 UNL A   1      43.425  36.925  33.507  1.00  0.00    +0.000 C 
ATOM     49  F9  UNL A   1      43.285  37.222  34.805  1.00  0.00    +0.000 F 
ATOM     50  C35 UNL A   1      43.075  35.661  33.040  1.00  0.00    +0.000 C 
ATOM     51  F10 UNL A   1      42.615  34.757  33.917  1.00  0.00    +0.000 F 
ENDBRANCH   40   41
BRANCH   55   56
ATOM     65  C44 UNL A   1      36.203  32.398  30.924  1.00  0.00    +0.000 C 
ATOM     66  F15 UNL A   1      36.621  31.689  31.982  1.00  0.00    +0.000 F 
ATOM     56  C39 UNL A   1      37.059  32.603  29.833  1.00  0.00    +0.000 C 
ATOM     57  C40 UNL A   1      36.566  33.345  28.749  1.00  0.00    +0.000 C 
ATOM     58  F11 UNL A   1      37.352  33.586  27.689  1.00  0.00    +0.000 F 
ATOM     59  C41 UNL A   1      35.283  33.889  28.773  1.00  0.00    +0.000 C 
ATOM     60  F12 UNL A   1      34.860  34.646  27.751  1.00  0.00    +0.000 F 
ATOM     61  C42 UNL A   1      34.454  33.669  29.862  1.00  0.00    +0.000 C 
ATOM     62  F13 UNL A   1      33.221  34.193  29.885  1.00  0.00    +0.000 F 
ATOM     63  C43 UNL A   1      34.908  32.913  30.931  1.00  0.00    +0.000 C 
ATOM     64  F14 UNL A   1      34.105  32.683  31.979  1.00  0.00    +0.000 F 
ENDBRANCH   55   56
TORSDOF 17
ENDMDL
MODEL 9
REMARK VINA RESULT:      -9.7     23.214     29.216
ROOT
ATOM     19  C15 UNL A   1      41.411  26.495  27.793  1.00  0.00    +0.000 C 
ATOM     20  C16 UNL A   1      42.837  26.790  27.417  1.00  0.00    +0.000 C 
ATOM     21  N3  UNL A   1      43.549  27.866  27.647  1.00  0.00    +0.000 N 
ATOM     22  C17 UNL A   1      44.803  27.615  27.108  1.00  0.00    +0.000 C 
ATOM     23  C18 UNL A   1      45.869  28.448  27.014  1.00  0.00    +0.000 C 
ATOM     35  C25 UNL A   1      45.892  29.799  27.514  1.00  0.00    +0.000 C 
ATOM     36  C26 UNL A   1      46.915  30.728  27.444  1.00  0.00    +0.000 C 
ATOM     37  C27 UNL A   1      46.499  31.891  28.103  1.00  0.00    +0.000 C 
ATOM     38  C28 UNL A   1      45.196  31.705  28.536  1.00  0.00    +0.000 C 
ATOM     39  N4  UNL A   1      44.840  30.414  28.178  1.00  0.00    +0.000 N 
ATOM     40  C29 UNL A   1      44.338  32.636  29.221  1.00  0.00    +0.000 C 
ATOM     52  C36 UNL A   1      43.068  32.371  29.616  1.00  0.00    +0.000 C 
ATOM     53  N5  UNL A   1      42.331  31.203  29.466  1.00  0.00    +0.000 N 
ATOM     54  C37 UNL A   1      41.173  31.433  30.036  1.00  0.00    +0.000 C 
ATOM     55  C38 UNL A   1      39.971  30.532  30.144  1.00  0.00    +0.000 C 
ATOM     67  C45 UNL A   1      40.013  29.311  29.579  1.00  0.00    +0.000 C 
ATOM     68  C46 UNL A   1      38.919  28.344  29.577  1.00  0.00    +0.000 C 
ATOM     69  C47 UNL A   1      39.323  27.227  28.952  1.00  0.00    +0.000 C 
ATOM     70  C48 UNL A   1      40.695  27.410  28.478  1.00  0.00    +0.000 C 
ATOM     71  N6  UNL A   1      41.024  28.676  28.899  1.00  0.00    +0.000 N 
ATOM     72  C49 UNL A   1      41.056  32.768  30.638  1.00  0.00    +0.000 C 
ATOM     73  C50 UNL A   1      42.216  33.315  30.308  1.00  0.00    +0.000 C 
ATOM     74  C51 UNL A   1      44.780  26.260  26.601  1.00  0.00    +0.000 C 
ATOM     75  C52 UNL A   1      43.570  25.730  26.710  1.00  0.00    +0.000 C 
ATOM    108  H21 UNL A   1      47.829  30.589  26.985  1.00  0.00    +0.000 H 
ATOM    109  H22 UNL A   1      47.066  32.741  28.243  1.00  0.00    +0.000 H 
ATOM    110  H23 UNL A   1      43.970  29.994  28.368  1.00  0.00    +0.000 H 
ATOM    111  H24 UNL A   1      37.985  28.496  29.989  1.00  0.00    +0.000 H 
ATOM    112  H25 UNL A   1      38.755  26.374  28.825  1.00  0.00    +0.000 H 
ATOM    113  H26 UNL A   1      41.901  29.089  28.729  1.00  0.00    +0.000 H 
ATOM    114  H27 UNL A   1      40.274  33.173  31.176  1.00  0.00    +0.000 H 
ATOM    115  H28 UNL A   1      42.480  34.290  30.519  1.00  0.00    +0.000 H 
ATOM    116  H29 UNL A   1      45.598  25.771  26.207  1.00  0.00    +0.000 H 
ATOM    117  H30 UNL A   1      43.231  24.811  26.383  1.00  0.00    +0.000 H 
ENDROOT
BRANCH   19   18
ATOM    106  H19 UNL A   1      41.162  21.884  27.949  1.00  0.00    +0.000 H 
ATOM    107  H20 UNL A   1      42.071  24.019  28.654  1.00  0.00    +0.000 H 
ATOM     76  C53 UNL A   1      39.685  25.135  26.581  1.00  0.00    +0.000 C 
ATOM     77  C54 UNL A   1      39.104  23.910  26.248  1.00  0.00    +0.000 C 
ATOM     15  C11 UNL A   1      39.682  22.718  26.693  1.00  0.00    +0.000 C 
ATOM     16  C12 UNL A   1      40.761  22.762  27.582  1.00  0.00    +0.000 C 
ATOM     17  C13 UNL A   1      41.295  23.991  27.973  1.00  0.00    +0.000 C 
ATOM     18  C14 UNL A   1      40.786  25.190  27.448  1.00  0.00    +0.000 C 
ATOM    118  H31 UNL A   1      39.300  26.008  26.186  1.00  0.00    +0.000 H 
ATOM    119  H32 UNL A   1      38.248  23.885  25.673  1.00  0.00    +0.000 H 
BRANCH   15   13
ATOM     13  C10 UNL A   1      39.163  21.394  26.278  1.00  0.00    +0.000 C 
ATOM     14  O2  UNL A   1      39.916  20.421  26.287  1.00  0.00    +0.000 O 
BRANCH   13   12
ATOM    105  H18 UNL A   1      37.217  21.059  26.576  1.00  0.00    +0.000 H 
ATOM     12  N2  UNL A   1      37.865  21.242  25.859  1.00  0.00    +0.000 N 
BRANCH   12   11
ATOM     11  C9  UNL A   1      37.298  21.306  24.523  1.00  0.00    +0.000 C 
ATOM    103  H16 UNL A   1      38.061  21.626  23.843  1.00  0.00    +0.000 H 
ATOM    104  H17 UNL A   1      36.934  20.329  24.281  1.00  0.00    +0.000 H 
BRANCH   11   10
ATOM     10  C8  UNL A   1      36.119  22.271  24.422  1.00  0.00    +0.000 C 
ATOM    101  H14 UNL A   1      36.168  22.940  25.256  1.00  0.00    +0.000 H 
ATOM    102  H15 UNL A   1      36.217  22.755  23.473  1.00  0.00    +0.000 H 
BRANCH   10    9
ATOM      9  C7  UNL A   1      34.732  21.623  24.420  1.00  0.00    +0.000 C 
ATOM     99  H12 UNL A   1      34.824  20.653  23.977  1.00  0.00    +0.000 H 
ATOM    100  H13 UNL A   1      34.416  21.606  25.441  1.00  0.00    +0.000 H 
BRANCH    9    8
ATOM     97  H10 UNL A   1      33.179  21.703  22.979  1.00  0.00    +0.000 H 
ATOM     98  H11 UNL A   1      32.982  22.771  24.407  1.00  0.00    +0.000 H 
ATOM      8  C6  UNL A   1      33.644  22.386  23.659  1.00  0.00    +0.000 C 
BRANCH    8    7
ATOM     95  H8  UNL A   1      34.457  24.345  23.546  1.00  0.00    +0.000 H 
ATOM      7  C5  UNL A   1      34.119  23.602  22.856  1.00  0.00    +0.000 C 
ATOM     96  H9  UNL A   1      34.889  23.247  22.203  1.00  0.00    +0.000 H 
BRANCH    7    6
ATOM     94  H7  UNL A   1      32.206  23.591  21.946  1.00  0.00    +0.000 H 
ATOM     93  H6  UNL A   1      33.464  24.360  20.976  1.00  0.00    +0.000 H 
ATOM      6  C4  UNL A   1      33.057  24.237  21.957  1.00  0.00    +0.000 C 
BRANCH    6    5
ATOM     92  H5  UNL A   1      31.670  25.590  22.668  1.00  0.00    +0.000 H 
ATOM      5  N1  UNL A   1      32.629  25.536  22.453  1.00  0.00    +0.000 N 
BRANCH    5    3
ATOM      3  C3  UNL A   1      33.317  26.696  22.675  1.00  0.00    +0.000 C 
ATOM      4  O1  UNL A   1      33.755  27.287  21.683  1.00  0.00    +0.000 O 
BRANCH    3    2
ATOM      2  C2  UNL A   1      33.552  27.262  24.088  1.00  0.00    +0.000 C 
ATOM     91  H4  UNL A   1      34.539  27.012  24.417  1.00  0.00    +0.000 H 
BRANCH    2    1
ATOM      1  C1  UNL A   1      33.433  28.792  24.012  1.00  0.00    +0.000 C 
ATOM     90  H3  UNL A   1      34.413  29.224  23.976  1.00  0.00    +0.000 H 
ATOM     89  H2  UNL A   1      32.891  29.066  23.132  1.00  0.00    +0.000 H 
ATOM     88  H1  UNL A   1      32.916  29.153  24.877  1.00  0.00    +0.000 H 
ENDBRANCH    2    1
BRANCH    2   78
ATOM     78  C55 UNL A   1      32.668  26.617  25.152  1.00  0.00    +0.000 C 
ATOM     79  C56 UNL A   1      31.296  26.915  25.255  1.00  0.00    +0.000 C 
ATOM     80  C57 UNL A   1      30.431  26.037  25.907  1.00  0.00    +0.000 C 
ATOM     81  C58 UNL A   1      30.948  24.849  26.407  1.00  0.00    +0.000 C 
ATOM     82  C59 UNL A   1      32.324  24.643  26.478  1.00  0.00    +0.000 C 
ATOM     83  C60 UNL A   1      33.190  25.581  25.942  1.00  0.00    +0.000 C 
ATOM     84  O3  UNL A   1      32.891  23.466  26.885  1.00  0.00    +0.000 O 
ATOM     85  C61 UNL A   1      31.990  22.353  26.831  1.00  0.00    +0.000 C 
ATOM     86  C62 UNL A   1      30.680  22.647  26.107  1.00  0.00    +0.000 C 
ATOM     87  O4  UNL A   1      30.072  23.822  26.660  1.00  0.00    +0.000 O 
ATOM    120  H33 UNL A   1      30.928  27.789  24.846  1.00  0.00    +0.000 H 
ATOM    121  H34 UNL A   1      29.431  26.265  26.016  1.00  0.00    +0.000 H 
ATOM    122  H35 UNL A   1      34.205  25.520  26.121  1.00  0.00    +0.000 H 
ATOM    123  H36 UNL A   1      31.760  22.058  27.834  1.00  0.00    +0.000 H 
ATOM    124  H37 UNL A   1      32.483  21.582  26.276  1.00  0.00    +0.000 H 
ATOM    125  H38 UNL A   1      30.016  21.815  26.222  1.00  0.00    +0.000 H 
ATOM    126  H39 UNL A   1      30.879  22.807  25.068  1.00  0.00    +0.000 H 
ENDBRANCH    2   78
ENDBRANCH    3    2
ENDBRANCH    5    3
ENDBRANCH    6    5
ENDBRANCH    7    6
ENDBRANCH    8    7
ENDBRANCH    9    8
ENDBRANCH   10    9
ENDBRANCH   11   10
ENDBRANCH   12   11
ENDBRANCH   13   12
ENDBRANCH   15   13
ENDBRANCH   19   18
BRANCH   23   24
ATOM     33  C24 UNL A   1      47.185  27.905  24.926  1.00  0.00    +0.000 C 
ATOM     34  F5  UNL A   1      46.182  28.388  24.179  1.00  0.00    +0.000 F 
ATOM     24  C19 UNL A   1      47.099  27.927  26.326  1.00  0.00    +0.000 C 
ATOM     25  C20 UNL A   1      48.177  27.401  27.057  1.00  0.00    +0.000 C 
ATOM     26  F1  UNL A   1      48.149  27.407  28.399  1.00  0.00    +0.000 F 
ATOM     27  C21 UNL A   1      49.302  26.896  26.413  1.00  0.00    +0.000 C 
ATOM     28  F2  UNL A   1      50.337  26.440  27.133  1.00  0.00    +0.000 F 
ATOM     29  C22 UNL A   1      49.359  26.872  25.028  1.00  0.00    +0.000 C 
ATOM     30  F3  UNL A   1      50.439  26.375  24.409  1.00  0.00    +0.000 F 
ATOM     31  C23 UNL A   1      48.300  27.369  24.285  1.00  0.00    +0.000 C 
ATOM     32  F4  UNL A   1      48.347  27.334  22.947  1.00  0.00    +0.000 F 
ENDBRANCH   23   24
BRANCH   40   41
ATOM     41  C30 UNL A   1      44.869  34.013  29.500  1.00  0.00    +0.000 C 
ATOM     42  C31 UNL A   1      44.702  35.068  28.590  1.00  0.00    +0.000 C 
ATOM     43  F6  UNL A   1      44.078  34.857  27.420  1.00  0.00    +0.000 F 
ATOM     44  C32 UNL A   1      45.219  36.333  28.855  1.00  0.00    +0.000 C 
ATOM     45  F7  UNL A   1      45.100  37.307  27.943  1.00  0.00    +0.000 F 
ATOM     46  C33 UNL A   1      45.877  36.579  30.051  1.00  0.00    +0.000 C 
ATOM     47  F8  UNL A   1      46.374  37.797  30.304  1.00  0.00    +0.000 F 
ATOM     48  C34 UNL A   1      46.029  35.560  30.979  1.00  0.00    +0.000 C 
ATOM     49  F9  UNL A   1      46.651  35.800  32.141  1.00  0.00    +0.000 F 
ATOM     50  C35 UNL A   1      45.541  34.285  30.701  1.00  0.00    +0.000 C 
ATOM     51  F10 UNL A   1      45.722  33.316  31.610  1.00  0.00    +0.000 F 
ENDBRANCH   40   41
BRANCH   55   56
ATOM     65  C44 UNL A   1      38.629  30.866  32.248  1.00  0.00    +0.000 C 
ATOM     66  F15 UNL A   1      39.618  30.309  32.961  1.00  0.00    +0.000 F 
ATOM     56  C39 UNL A   1      38.746  30.984  30.856  1.00  0.00    +0.000 C 
ATOM     57  C40 UNL A   1      37.677  31.568  30.160  1.00  0.00    +0.000 C 
ATOM     58  F11 UNL A   1      37.748  31.721  28.829  1.00  0.00    +0.000 F 
ATOM     59  C41 UNL A   1      36.555  32.046  30.834  1.00  0.00    +0.000 C 
ATOM     60  F12 UNL A   1      35.575  32.654  30.150  1.00  0.00    +0.000 F 
ATOM     61  C42 UNL A   1      36.460  31.913  32.211  1.00  0.00    +0.000 C 
ATOM     62  F13 UNL A   1      35.381  32.374  32.858  1.00  0.00    +0.000 F 
ATOM     63  C43 UNL A   1      37.491  31.313  32.916  1.00  0.00    +0.000 C 
ATOM     64  F14 UNL A   1      37.397  31.167  34.245  1.00  0.00    +0.000 F 
ENDBRANCH   55   56
TORSDOF 17
ENDMDL
MODEL 10
REMARK VINA RESULT:      -9.6      4.497      7.643
ROOT
ATOM     19  C15 UNL A   1      25.627  35.374  45.459  1.00  0.00    +0.000 C 
ATOM     20  C16 UNL A   1      25.352  36.557  46.346  1.00  0.00    +0.000 C 
ATOM     21  N3  UNL A   1      26.135  37.561  46.653  1.00  0.00    +0.000 N 
ATOM     22  C17 UNL A   1      25.389  38.383  47.489  1.00  0.00    +0.000 C 
ATOM     23  C18 UNL A   1      25.778  39.505  48.142  1.00  0.00    +0.000 C 
ATOM     35  C25 UNL A   1      27.093  40.086  48.051  1.00  0.00    +0.000 C 
ATOM     36  C26 UNL A   1      27.589  41.206  48.694  1.00  0.00    +0.000 C 
ATOM     37  C27 UNL A   1      28.905  41.414  48.264  1.00  0.00    +0.000 C 
ATOM     38  C28 UNL A   1      29.247  40.390  47.395  1.00  0.00    +0.000 C 
ATOM     39  N4  UNL A   1      28.123  39.590  47.264  1.00  0.00    +0.000 N 
ATOM     40  C29 UNL A   1      30.506  40.157  46.736  1.00  0.00    +0.000 C 
ATOM     52  C36 UNL A   1      30.757  39.126  45.891  1.00  0.00    +0.000 C 
ATOM     53  N5  UNL A   1      29.910  38.107  45.479  1.00  0.00    +0.000 N 
ATOM     54  C37 UNL A   1      30.605  37.377  44.642  1.00  0.00    +0.000 C 
ATOM     55  C38 UNL A   1      30.203  36.122  43.912  1.00  0.00    +0.000 C 
ATOM     67  C45 UNL A   1      28.977  35.607  44.119  1.00  0.00    +0.000 C 
ATOM     68  C46 UNL A   1      28.460  34.386  43.508  1.00  0.00    +0.000 C 
ATOM     69  C47 UNL A   1      27.195  34.194  43.914  1.00  0.00    +0.000 C 
ATOM     70  C48 UNL A   1      26.821  35.262  44.842  1.00  0.00    +0.000 C 
ATOM     71  N6  UNL A   1      27.940  36.056  44.900  1.00  0.00    +0.000 N 
ATOM     72  C49 UNL A   1      31.969  37.869  44.407  1.00  0.00    +0.000 C 
ATOM     73  C50 UNL A   1      32.027  38.905  45.232  1.00  0.00    +0.000 C 
ATOM     74  C51 UNL A   1      24.069  37.798  47.585  1.00  0.00    +0.000 C 
ATOM     75  C52 UNL A   1      24.013  36.636  46.950  1.00  0.00    +0.000 C 
ATOM    108  H21 UNL A   1      27.077  41.790  49.373  1.00  0.00    +0.000 H 
ATOM    109  H22 UNL A   1      29.516  42.195  48.547  1.00  0.00    +0.000 H 
ATOM    110  H23 UNL A   1      28.063  38.787  46.696  1.00  0.00    +0.000 H 
ATOM    111  H24 UNL A   1      28.984  33.769  42.867  1.00  0.00    +0.000 H 
ATOM    112  H25 UNL A   1      26.584  33.416  43.619  1.00  0.00    +0.000 H 
ATOM    113  H26 UNL A   1      27.994  36.870  45.451  1.00  0.00    +0.000 H 
ATOM    114  H27 UNL A   1      32.693  37.504  43.769  1.00  0.00    +0.000 H 
ATOM    115  H28 UNL A   1      32.869  39.482  45.383  1.00  0.00    +0.000 H 
ATOM    116  H29 UNL A   1      23.275  38.230  48.083  1.00  0.00    +0.000 H 
ATOM    117  H30 UNL A   1      23.233  35.963  46.894  1.00  0.00    +0.000 H 
ENDROOT
BRANCH   19   18
ATOM    106  H19 UNL A   1      21.777  33.792  43.454  1.00  0.00    +0.000 H 
ATOM    107  H20 UNL A   1      23.571  35.404  43.704  1.00  0.00    +0.000 H 
ATOM     76  C53 UNL A   1      24.599  33.137  45.950  1.00  0.00    +0.000 C 
ATOM     77  C54 UNL A   1      23.615  32.170  45.738  1.00  0.00    +0.000 C 
ATOM     15  C11 UNL A   1      22.547  32.433  44.876  1.00  0.00    +0.000 C 
ATOM     16  C12 UNL A   1      22.540  33.613  44.125  1.00  0.00    +0.000 C 
ATOM     17  C13 UNL A   1      23.564  34.549  44.283  1.00  0.00    +0.000 C 
ATOM     18  C14 UNL A   1      24.585  34.338  45.224  1.00  0.00    +0.000 C 
ATOM    118  H31 UNL A   1      25.342  32.968  46.646  1.00  0.00    +0.000 H 
ATOM    119  H32 UNL A   1      23.677  31.259  46.219  1.00  0.00    +0.000 H 
BRANCH   15   13
ATOM     13  C10 UNL A   1      21.428  31.480  44.702  1.00  0.00    +0.000 C 
ATOM     14  O2  UNL A   1      21.659  30.272  44.692  1.00  0.00    +0.000 O 
BRANCH   13   12
ATOM    105  H18 UNL A   1      19.816  32.541  45.217  1.00  0.00    +0.000 H 
ATOM     12  N2  UNL A   1      20.141  31.924  44.523  1.00  0.00    +0.000 N 
BRANCH   12   11
ATOM     11  C9  UNL A   1      19.183  31.625  43.472  1.00  0.00    +0.000 C 
ATOM    103  H16 UNL A   1      18.754  32.543  43.130  1.00  0.00    +0.000 H 
ATOM    104  H17 UNL A   1      19.711  31.117  42.692  1.00  0.00    +0.000 H 
BRANCH   11   10
ATOM     10  C8  UNL A   1      18.057  30.703  43.937  1.00  0.00    +0.000 C 
ATOM    101  H14 UNL A   1      17.694  31.074  44.873  1.00  0.00    +0.000 H 
ATOM    102  H15 UNL A   1      17.329  30.714  43.154  1.00  0.00    +0.000 H 
BRANCH   10    9
ATOM      9  C7  UNL A   1      18.442  29.234  44.130  1.00  0.00    +0.000 C 
ATOM     99  H12 UNL A   1      19.412  29.090  43.701  1.00  0.00    +0.000 H 
ATOM    100  H13 UNL A   1      18.403  29.058  45.184  1.00  0.00    +0.000 H 
BRANCH    9    8
ATOM     97  H10 UNL A   1      17.765  28.099  42.472  1.00  0.00    +0.000 H 
ATOM     98  H11 UNL A   1      17.605  27.317  44.078  1.00  0.00    +0.000 H 
ATOM      8  C6  UNL A   1      17.493  28.211  43.501  1.00  0.00    +0.000 C 
BRANCH    8    7
ATOM     95  H8  UNL A   1      15.866  29.318  44.302  1.00  0.00    +0.000 H 
ATOM      7  C5  UNL A   1      16.002  28.561  43.558  1.00  0.00    +0.000 C 
ATOM     96  H9  UNL A   1      15.731  28.880  42.573  1.00  0.00    +0.000 H 
BRANCH    7    6
ATOM     94  H7  UNL A   1      14.068  27.740  43.834  1.00  0.00    +0.000 H 
ATOM     93  H6  UNL A   1      15.306  27.044  44.882  1.00  0.00    +0.000 H 
ATOM      6  C4  UNL A   1      15.076  27.391  43.897  1.00  0.00    +0.000 C 
BRANCH    6    5
ATOM     92  H5  UNL A   1      16.098  25.825  43.022  1.00  0.00    +0.000 H 
ATOM      5  N1  UNL A   1      15.230  26.287  42.962  1.00  0.00    +0.000 N 
BRANCH    5    3
ATOM      3  C3  UNL A   1      14.388  25.773  42.017  1.00  0.00    +0.000 C 
ATOM      4  O1  UNL A   1      14.272  26.408  40.964  1.00  0.00    +0.000 O 
BRANCH    3    2
ATOM      2  C2  UNL A   1      13.606  24.463  42.227  1.00  0.00    +0.000 C 
ATOM     91  H4  UNL A   1      13.965  23.966  43.104  1.00  0.00    +0.000 H 
BRANCH    2    1
ATOM      1  C1  UNL A   1      12.127  24.821  42.437  1.00  0.00    +0.000 C 
ATOM     90  H3  UNL A   1      12.056  25.745  42.974  1.00  0.00    +0.000 H 
ATOM     89  H2  UNL A   1      11.646  24.923  41.487  1.00  0.00    +0.000 H 
ATOM     88  H1  UNL A   1      11.648  24.045  42.999  1.00  0.00    +0.000 H 
ENDBRANCH    2    1
BRANCH    2   78
ATOM     78  C55 UNL A   1      13.851  23.430  41.129  1.00  0.00    +0.000 C 
ATOM     79  C56 UNL A   1      12.811  22.631  40.620  1.00  0.00    +0.000 C 
ATOM     80  C57 UNL A   1      12.933  22.029  39.368  1.00  0.00    +0.000 C 
ATOM     81  C58 UNL A   1      14.079  22.276  38.625  1.00  0.00    +0.000 C 
ATOM     82  C59 UNL A   1      15.183  22.902  39.201  1.00  0.00    +0.000 C 
ATOM     83  C60 UNL A   1      15.102  23.388  40.495  1.00  0.00    +0.000 C 
ATOM     84  O3  UNL A   1      16.308  23.244  38.501  1.00  0.00    +0.000 O 
ATOM     85  C61 UNL A   1      16.102  23.290  37.083  1.00  0.00    +0.000 C 
ATOM     86  C62 UNL A   1      14.639  23.198  36.663  1.00  0.00    +0.000 C 
ATOM     87  O4  UNL A   1      14.030  22.051  37.271  1.00  0.00    +0.000 O 
ATOM    120  H33 UNL A   1      11.952  22.489  41.177  1.00  0.00    +0.000 H 
ATOM    121  H34 UNL A   1      12.189  21.414  39.003  1.00  0.00    +0.000 H 
ATOM    122  H35 UNL A   1      15.949  23.712  40.988  1.00  0.00    +0.000 H 
ATOM    123  H36 UNL A   1      16.631  22.472  36.640  1.00  0.00    +0.000 H 
ATOM    124  H37 UNL A   1      16.460  24.242  36.750  1.00  0.00    +0.000 H 
ATOM    125  H38 UNL A   1      14.580  23.110  35.598  1.00  0.00    +0.000 H 
ATOM    126  H39 UNL A   1      14.124  24.081  36.979  1.00  0.00    +0.000 H 
ENDBRANCH    2   78
ENDBRANCH    3    2
ENDBRANCH    5    3
ENDBRANCH    6    5
ENDBRANCH    7    6
ENDBRANCH    8    7
ENDBRANCH    9    8
ENDBRANCH   10    9
ENDBRANCH   11   10
ENDBRANCH   12   11
ENDBRANCH   13   12
ENDBRANCH   15   13
ENDBRANCH   19   18
BRANCH   23   24
ATOM     33  C24 UNL A   1      23.952  41.205  48.547  1.00  0.00    +0.000 C 
ATOM     34  F5  UNL A   1      24.030  41.582  47.262  1.00  0.00    +0.000 F 
ATOM     24  C19 UNL A   1      24.770  40.174  49.033  1.00  0.00    +0.000 C 
ATOM     25  C20 UNL A   1      24.649  39.827  50.388  1.00  0.00    +0.000 C 
ATOM     26  F1  UNL A   1      25.401  38.841  50.902  1.00  0.00    +0.000 F 
ATOM     27  C21 UNL A   1      23.732  40.469  51.215  1.00  0.00    +0.000 C 
ATOM     28  F2  UNL A   1      23.604  40.089  52.494  1.00  0.00    +0.000 F 
ATOM     29  C22 UNL A   1      22.943  41.493  50.715  1.00  0.00    +0.000 C 
ATOM     30  F3  UNL A   1      22.068  42.118  51.516  1.00  0.00    +0.000 F 
ATOM     31  C23 UNL A   1      23.057  41.866  49.385  1.00  0.00    +0.000 C 
ATOM     32  F4  UNL A   1      22.305  42.865  48.904  1.00  0.00    +0.000 F 
ENDBRANCH   23   24
BRANCH   40   41
ATOM     41  C30 UNL A   1      31.638  41.103  47.019  1.00  0.00    +0.000 C 
ATOM     42  C31 UNL A   1      32.721  40.737  47.831  1.00  0.00    +0.000 C 
ATOM     43  F6  UNL A   1      32.755  39.524  48.405  1.00  0.00    +0.000 F 
ATOM     44  C32 UNL A   1      33.751  41.634  48.100  1.00  0.00    +0.000 C 
ATOM     45  F7  UNL A   1      34.744  41.282  48.928  1.00  0.00    +0.000 F 
ATOM     46  C33 UNL A   1      33.739  42.899  47.530  1.00  0.00    +0.000 C 
ATOM     47  F8  UNL A   1      34.732  43.760  47.790  1.00  0.00    +0.000 F 
ATOM     48  C34 UNL A   1      32.693  43.273  46.701  1.00  0.00    +0.000 C 
ATOM     49  F9  UNL A   1      32.689  44.488  46.138  1.00  0.00    +0.000 F 
ATOM     50  C35 UNL A   1      31.645  42.389  46.457  1.00  0.00    +0.000 C 
ATOM     51  F10 UNL A   1      30.639  42.789  45.667  1.00  0.00    +0.000 F 
ENDBRANCH   40   41
BRANCH   55   56
ATOM     65  C44 UNL A   1      31.893  34.331  43.387  1.00  0.00    +0.000 C 
ATOM     66  F15 UNL A   1      31.785  33.870  44.642  1.00  0.00    +0.000 F 
ATOM     56  C39 UNL A   1      31.149  35.448  42.983  1.00  0.00    +0.000 C 
ATOM     57  C40 UNL A   1      31.308  35.892  41.662  1.00  0.00    +0.000 C 
ATOM     58  F11 UNL A   1      30.604  36.945  41.220  1.00  0.00    +0.000 F 
ATOM     59  C41 UNL A   1      32.149  35.225  40.774  1.00  0.00    +0.000 C 
ATOM     60  F12 UNL A   1      32.235  35.634  39.501  1.00  0.00    +0.000 F 
ATOM     61  C42 UNL A   1      32.879  34.125  41.199  1.00  0.00    +0.000 C 
ATOM     62  F13 UNL A   1      33.686  33.482  40.344  1.00  0.00    +0.000 F 
ATOM     63  C43 UNL A   1      32.760  33.685  42.508  1.00  0.00    +0.000 C 
ATOM     64  F14 UNL A   1      33.476  32.633  42.929  1.00  0.00    +0.000 F 
ENDBRANCH   55   56
TORSDOF 17
ENDMDL
