MODEL 1
REMARK VINA RESULT:     -11.2      0.000      0.000
ROOT
ATOM     28  C20 UNL A   1      22.423  18.588   5.152  1.00  0.00    +0.000 C 
ATOM     29  C21 UNL A   1      21.973  17.248   4.704  1.00  0.00    +0.000 C 
ATOM     30  N6  UNL A   1      21.525  16.285   5.437  1.00  0.00    +0.000 N 
ATOM     31  C22 UNL A   1      21.275  15.227   4.569  1.00  0.00    +0.000 C 
ATOM     32  C23 UNL A   1      21.276  13.940   5.017  1.00  0.00    +0.000 C 
ATOM     44  C30 UNL A   1      21.192  13.899   6.456  1.00  0.00    +0.000 C 
ATOM     45  C31 UNL A   1      20.246  14.298   7.380  1.00  0.00    +0.000 C 
ATOM     46  C32 UNL A   1      20.996  14.853   8.458  1.00  0.00    +0.000 C 
ATOM     47  C33 UNL A   1      22.352  14.688   8.171  1.00  0.00    +0.000 C 
ATOM     48  N7  UNL A   1      22.363  13.759   7.161  1.00  0.00    +0.000 N 
ATOM     49  C34 UNL A   1      23.543  15.331   8.678  1.00  0.00    +0.000 C 
ATOM     61  C41 UNL A   1      24.749  15.356   8.038  1.00  0.00    +0.000 C 
ATOM     62  N8  UNL A   1      25.718  16.295   8.366  1.00  0.00    +0.000 N 
ATOM     63  C42 UNL A   1      26.427  16.436   7.276  1.00  0.00    +0.000 C 
ATOM     64  C43 UNL A   1      26.900  17.758   6.785  1.00  0.00    +0.000 C 
ATOM     76  C50 UNL A   1      25.790  18.462   6.454  1.00  0.00    +0.000 C 
ATOM     77  C51 UNL A   1      25.598  19.882   6.278  1.00  0.00    +0.000 C 
ATOM     78  C52 UNL A   1      24.303  20.095   5.972  1.00  0.00    +0.000 C 
ATOM     79  C53 UNL A   1      23.621  18.812   5.745  1.00  0.00    +0.000 C 
ATOM     80  N9  UNL A   1      24.536  17.880   6.164  1.00  0.00    +0.000 N 
ATOM     81  C54 UNL A   1      26.293  15.370   6.295  1.00  0.00    +0.000 C 
ATOM     82  C55 UNL A   1      25.183  14.791   6.762  1.00  0.00    +0.000 C 
ATOM     83  C56 UNL A   1      21.328  15.776   3.240  1.00  0.00    +0.000 C 
ATOM     84  C57 UNL A   1      21.871  16.995   3.259  1.00  0.00    +0.000 C 
ATOM    112  H22 UNL A   1      19.220  14.213   7.305  1.00  0.00    +0.000 H 
ATOM    113  H23 UNL A   1      20.605  15.300   9.303  1.00  0.00    +0.000 H 
ATOM    114  H24 UNL A   1      23.080  13.111   6.975  1.00  0.00    +0.000 H 
ATOM    115  H25 UNL A   1      26.327  20.607   6.368  1.00  0.00    +0.000 H 
ATOM    116  H26 UNL A   1      23.855  21.023   5.908  1.00  0.00    +0.000 H 
ATOM    117  H27 UNL A   1      24.342  16.919   6.252  1.00  0.00    +0.000 H 
ATOM    118  H28 UNL A   1      26.882  15.132   5.482  1.00  0.00    +0.000 H 
ATOM    119  H29 UNL A   1      24.686  14.029   6.273  1.00  0.00    +0.000 H 
ATOM    120  H30 UNL A   1      20.993  15.294   2.390  1.00  0.00    +0.000 H 
ATOM    121  H31 UNL A   1      22.146  17.599   2.468  1.00  0.00    +0.000 H 
ENDROOT
BRANCH   28   27
ATOM    122  H32 UNL A   1      20.002  19.097   5.875  1.00  0.00    +0.000 H 
ATOM     27  C19 UNL A   1      21.619  19.693   4.660  1.00  0.00    +0.000 C 
ATOM    110  H20 UNL A   1      21.616  22.539   2.897  1.00  0.00    +0.000 H 
ATOM    111  H21 UNL A   1      23.098  20.682   3.500  1.00  0.00    +0.000 H 
ATOM     85  C58 UNL A   1      20.307  19.707   5.100  1.00  0.00    +0.000 C 
ATOM     86  C59 UNL A   1      19.431  20.545   4.487  1.00  0.00    +0.000 C 
ATOM     24  C16 UNL A   1      19.916  21.650   3.801  1.00  0.00    +0.000 C 
ATOM     25  C17 UNL A   1      21.263  21.734   3.437  1.00  0.00    +0.000 C 
ATOM     26  C18 UNL A   1      22.118  20.703   3.823  1.00  0.00    +0.000 C 
ATOM    123  H33 UNL A   1      18.416  20.363   4.530  1.00  0.00    +0.000 H 
BRANCH   24   22
ATOM     22  C15 UNL A   1      18.944  22.727   3.546  1.00  0.00    +0.000 C 
ATOM     23  O3  UNL A   1      18.270  23.184   4.448  1.00  0.00    +0.000 O 
BRANCH   22   21
ATOM    109  H19 UNL A   1      18.548  22.563   1.565  1.00  0.00    +0.000 H 
ATOM     21  N5  UNL A   1      18.847  23.207   2.246  1.00  0.00    +0.000 N 
BRANCH   21   20
ATOM    108  H18 UNL A   1      18.638  25.254   2.420  1.00  0.00    +0.000 H 
ATOM    107  H17 UNL A   1      18.795  24.660   0.762  1.00  0.00    +0.000 H 
ATOM     20  C14 UNL A   1      19.138  24.566   1.771  1.00  0.00    +0.000 C 
BRANCH   20   19
ATOM    105  H15 UNL A   1      20.936  24.910   2.835  1.00  0.00    +0.000 H 
ATOM    106  H16 UNL A   1      21.129  24.121   1.261  1.00  0.00    +0.000 H 
ATOM     19  C13 UNL A   1      20.621  24.883   1.812  1.00  0.00    +0.000 C 
BRANCH   19   18
ATOM     18  C12 UNL A   1      20.964  26.230   1.159  1.00  0.00    +0.000 C 
ATOM    103  H13 UNL A   1      20.336  26.347   0.301  1.00  0.00    +0.000 H 
ATOM    104  H14 UNL A   1      20.810  26.967   1.920  1.00  0.00    +0.000 H 
BRANCH   18   17
ATOM     17  C11 UNL A   1      22.423  26.410   0.702  1.00  0.00    +0.000 C 
ATOM    101  H11 UNL A   1      23.044  25.815   1.338  1.00  0.00    +0.000 H 
ATOM    102  H12 UNL A   1      22.450  26.115  -0.326  1.00  0.00    +0.000 H 
BRANCH   17   16
ATOM     99  H9  UNL A   1      22.123  28.521   0.629  1.00  0.00    +0.000 H 
ATOM    100  H10 UNL A   1      23.448  27.985   1.679  1.00  0.00    +0.000 H 
ATOM     16  C10 UNL A   1      22.951  27.852   0.741  1.00  0.00    +0.000 C 
BRANCH   16   15
ATOM     97  H7  UNL A   1      24.880  28.495   0.080  1.00  0.00    +0.000 H 
ATOM     98  H8  UNL A   1      24.154  27.253  -0.920  1.00  0.00    +0.000 H 
ATOM     15  C9  UNL A   1      23.970  28.148  -0.362  1.00  0.00    +0.000 C 
BRANCH   15   14
ATOM     14  N4  UNL A   1      23.452  29.168  -1.256  1.00  0.00    +0.000 N 
ATOM     96  H6  UNL A   1      24.007  29.981  -1.286  1.00  0.00    +0.000 H 
BRANCH   14   12
ATOM     12  C8  UNL A   1      22.349  29.231  -2.068  1.00  0.00    +0.000 C 
ATOM     13  O2  UNL A   1      22.500  28.959  -3.259  1.00  0.00    +0.000 O 
BRANCH   12   11
ATOM      8  C4  UNL A   1      18.736  30.743  -0.375  1.00  0.00    +0.000 C 
ATOM      9  C5  UNL A   1      19.672  31.625  -0.911  1.00  0.00    +0.000 C 
ATOM     10  C6  UNL A   1      20.830  31.096  -1.490  1.00  0.00    +0.000 C 
ATOM     11  C7  UNL A   1      21.017  29.705  -1.596  1.00  0.00    +0.000 C 
ATOM     87  C60 UNL A   1      19.971  28.857  -1.229  1.00  0.00    +0.000 C 
ATOM     88  C61 UNL A   1      18.859  29.364  -0.561  1.00  0.00    +0.000 C 
ATOM    124  H34 UNL A   1      20.021  27.851  -1.454  1.00  0.00    +0.000 H 
ATOM    125  H35 UNL A   1      18.130  28.725  -0.205  1.00  0.00    +0.000 H 
ATOM     94  H4  UNL A   1      19.515  32.644  -0.883  1.00  0.00    +0.000 H 
ATOM     95  H5  UNL A   1      21.558  31.735  -1.844  1.00  0.00    +0.000 H 
BRANCH    8    7
ATOM      4  C3  UNL A   1      15.789  32.102   1.043  1.00  0.00    +0.000 C 
ATOM      5  N1  UNL A   1      16.770  32.422   1.954  1.00  0.00    +0.000 N 
ATOM      6  N2  UNL A   1      17.886  31.792   1.610  1.00  0.00    +0.000 N 
ATOM      7  N3  UNL A   1      17.677  31.230   0.409  1.00  0.00    +0.000 N 
ATOM     89  C62 UNL A   1      16.334  31.273   0.074  1.00  0.00    +0.000 C 
BRANCH    4    2
ATOM      2  C2  UNL A   1      14.430  32.607   1.196  1.00  0.00    +0.000 C 
ATOM      3  O1  UNL A   1      13.982  33.478   0.451  1.00  0.00    +0.000 O 
BRANCH    2    1
ATOM      1  C1  UNL A   1      13.563  32.041   2.290  1.00  0.00    +0.000 C 
ATOM     91  H1  UNL A   1      12.539  32.284   2.096  1.00  0.00    +0.000 H 
ATOM     92  H2  UNL A   1      13.855  32.460   3.230  1.00  0.00    +0.000 H 
ATOM     93  H3  UNL A   1      13.677  30.978   2.322  1.00  0.00    +0.000 H 
ENDBRANCH    2    1
ENDBRANCH    4    2
BRANCH   89   90
ATOM     90  C63 UNL A   1      15.779  30.518  -1.076  1.00  0.00    +0.000 C 
ATOM    126  H36 UNL A   1      14.855  30.060  -0.790  1.00  0.00    +0.000 H 
ATOM    127  H37 UNL A   1      16.475  29.761  -1.374  1.00  0.00    +0.000 H 
ATOM    128  H38 UNL A   1      15.607  31.188  -1.892  1.00  0.00    +0.000 H 
ENDBRANCH   89   90
ENDBRANCH    8    7
ENDBRANCH   12   11
ENDBRANCH   14   12
ENDBRANCH   15   14
ENDBRANCH   16   15
ENDBRANCH   17   16
ENDBRANCH   18   17
ENDBRANCH   19   18
ENDBRANCH   20   19
ENDBRANCH   21   20
ENDBRANCH   22   21
ENDBRANCH   24   22
ENDBRANCH   28   27
BRANCH   32   33
ATOM     33  C24 UNL A   1      21.703  12.742   4.207  1.00  0.00    +0.000 C 
ATOM     34  C25 UNL A   1      20.818  11.652   4.082  1.00  0.00    +0.000 C 
ATOM     35  F1  UNL A   1      19.530  11.772   4.442  1.00  0.00    +0.000 F 
ATOM     36  C26 UNL A   1      21.252  10.391   3.666  1.00  0.00    +0.000 C 
ATOM     37  F2  UNL A   1      20.400   9.355   3.684  1.00  0.00    +0.000 F 
ATOM     38  C27 UNL A   1      22.569  10.186   3.302  1.00  0.00    +0.000 C 
ATOM     39  F3  UNL A   1      23.001   8.966   2.964  1.00  0.00    +0.000 F 
ATOM     40  C28 UNL A   1      23.449  11.247   3.336  1.00  0.00    +0.000 C 
ATOM     41  F4  UNL A   1      24.734  11.067   3.000  1.00  0.00    +0.000 F 
ATOM     42  C29 UNL A   1      23.031  12.493   3.801  1.00  0.00    +0.000 C 
ATOM     43  F5  UNL A   1      24.003  13.402   3.936  1.00  0.00    +0.000 F 
ENDBRANCH   32   33
BRANCH   49   50
ATOM     50  C35 UNL A   1      23.371  16.215   9.887  1.00  0.00    +0.000 C 
ATOM     51  C36 UNL A   1      22.837  17.515   9.842  1.00  0.00    +0.000 C 
ATOM     52  F6  UNL A   1      22.498  18.076   8.675  1.00  0.00    +0.000 F 
ATOM     53  C37 UNL A   1      22.585  18.242  11.006  1.00  0.00    +0.000 C 
ATOM     54  F7  UNL A   1      22.081  19.482  10.929  1.00  0.00    +0.000 F 
ATOM     55  C38 UNL A   1      22.819  17.668  12.243  1.00  0.00    +0.000 C 
ATOM     56  F8  UNL A   1      22.539  18.346  13.364  1.00  0.00    +0.000 F 
ATOM     57  C39 UNL A   1      23.320  16.378  12.317  1.00  0.00    +0.000 C 
ATOM     58  F9  UNL A   1      23.501  15.799  13.511  1.00  0.00    +0.000 F 
ATOM     59  C40 UNL A   1      23.603  15.665  11.154  1.00  0.00    +0.000 C 
ATOM     60  F10 UNL A   1      24.059  14.408  11.265  1.00  0.00    +0.000 F 
ENDBRANCH   49   50
BRANCH   64   65
ATOM     65  C44 UNL A   1      28.300  18.016   6.379  1.00  0.00    +0.000 C 
ATOM     66  C45 UNL A   1      29.323  18.165   7.330  1.00  0.00    +0.000 C 
ATOM     67  F11 UNL A   1      29.018  18.294   8.629  1.00  0.00    +0.000 F 
ATOM     68  C46 UNL A   1      30.674  18.114   6.967  1.00  0.00    +0.000 C 
ATOM     69  F12 UNL A   1      31.623  18.206   7.909  1.00  0.00    +0.000 F 
ATOM     70  C47 UNL A   1      31.038  17.914   5.646  1.00  0.00    +0.000 C 
ATOM     71  F13 UNL A   1      32.331  17.802   5.307  1.00  0.00    +0.000 F 
ATOM     72  C48 UNL A   1      30.055  17.786   4.682  1.00  0.00    +0.000 C 
ATOM     73  F14 UNL A   1      30.393  17.550   3.406  1.00  0.00    +0.000 F 
ATOM     74  C49 UNL A   1      28.708  17.836   5.043  1.00  0.00    +0.000 C 
ATOM     75  F15 UNL A   1      27.805  17.610   4.076  1.00  0.00    +0.000 F 
ENDBRANCH   64   65
TORSDOF 19
ENDMDL
MODEL 2
REMARK VINA RESULT:     -11.2      4.670      8.029
ROOT
ATOM     28  C20 UNL A   1      22.020  18.387   5.251  1.00  0.00    +0.000 C 
ATOM     29  C21 UNL A   1      21.575  17.026   4.871  1.00  0.00    +0.000 C 
ATOM     30  N6  UNL A   1      21.168  16.085   5.655  1.00  0.00    +0.000 N 
ATOM     31  C22 UNL A   1      20.903  14.991   4.838  1.00  0.00    +0.000 C 
ATOM     32  C23 UNL A   1      20.939  13.723   5.334  1.00  0.00    +0.000 C 
ATOM     44  C30 UNL A   1      20.907  13.736   6.776  1.00  0.00    +0.000 C 
ATOM     45  C31 UNL A   1      19.988  14.157   7.717  1.00  0.00    +0.000 C 
ATOM     46  C32 UNL A   1      20.767  14.764   8.746  1.00  0.00    +0.000 C 
ATOM     47  C33 UNL A   1      22.115  14.606   8.417  1.00  0.00    +0.000 C 
ATOM     48  N7  UNL A   1      22.104  13.639   7.443  1.00  0.00    +0.000 N 
ATOM     49  C34 UNL A   1      23.312  15.285   8.857  1.00  0.00    +0.000 C 
ATOM     61  C41 UNL A   1      24.494  15.301   8.173  1.00  0.00    +0.000 C 
ATOM     62  N8  UNL A   1      25.460  16.266   8.430  1.00  0.00    +0.000 N 
ATOM     63  C42 UNL A   1      26.128  16.374   7.311  1.00  0.00    +0.000 C 
ATOM     64  C43 UNL A   1      26.564  17.683   6.754  1.00  0.00    +0.000 C 
ATOM     76  C50 UNL A   1      25.432  18.359   6.435  1.00  0.00    +0.000 C 
ATOM     77  C51 UNL A   1      25.213  19.768   6.213  1.00  0.00    +0.000 C 
ATOM     78  C52 UNL A   1      23.904  19.951   5.946  1.00  0.00    +0.000 C 
ATOM     79  C53 UNL A   1      23.234  18.651   5.792  1.00  0.00    +0.000 C 
ATOM     80  N9  UNL A   1      24.177  17.749   6.213  1.00  0.00    +0.000 N 
ATOM     81  C54 UNL A   1      25.976  15.270   6.377  1.00  0.00    +0.000 C 
ATOM     82  C55 UNL A   1      24.891  14.694   6.904  1.00  0.00    +0.000 C 
ATOM     83  C56 UNL A   1      20.900  15.489   3.488  1.00  0.00    +0.000 C 
ATOM     84  C57 UNL A   1      21.426  16.715   3.441  1.00  0.00    +0.000 C 
ATOM    112  H22 UNL A   1      18.961  14.055   7.682  1.00  0.00    +0.000 H 
ATOM    113  H23 UNL A   1      20.399  15.237   9.586  1.00  0.00    +0.000 H 
ATOM    114  H24 UNL A   1      22.824  12.994   7.257  1.00  0.00    +0.000 H 
ATOM    115  H25 UNL A   1      25.934  20.506   6.250  1.00  0.00    +0.000 H 
ATOM    116  H26 UNL A   1      23.440  20.870   5.863  1.00  0.00    +0.000 H 
ATOM    117  H27 UNL A   1      24.001  16.789   6.345  1.00  0.00    +0.000 H 
ATOM    118  H28 UNL A   1      26.540  15.009   5.552  1.00  0.00    +0.000 H 
ATOM    119  H29 UNL A   1      24.390  13.907   6.463  1.00  0.00    +0.000 H 
ATOM    120  H30 UNL A   1      20.543  14.970   2.670  1.00  0.00    +0.000 H 
ATOM    121  H31 UNL A   1      21.663  17.292   2.619  1.00  0.00    +0.000 H 
ENDROOT
BRANCH   28   27
ATOM    122  H32 UNL A   1      19.720  19.048   6.208  1.00  0.00    +0.000 H 
ATOM     27  C19 UNL A   1      21.183  19.462   4.747  1.00  0.00    +0.000 C 
ATOM    110  H20 UNL A   1      21.014  22.109   2.704  1.00  0.00    +0.000 H 
ATOM    111  H21 UNL A   1      22.523  20.276   3.315  1.00  0.00    +0.000 H 
ATOM     85  C58 UNL A   1      19.937  19.565   5.341  1.00  0.00    +0.000 C 
ATOM     86  C59 UNL A   1      19.007  20.363   4.754  1.00  0.00    +0.000 C 
ATOM     24  C16 UNL A   1      19.424  21.374   3.900  1.00  0.00    +0.000 C 
ATOM     25  C17 UNL A   1      20.716  21.375   3.367  1.00  0.00    +0.000 C 
ATOM     26  C18 UNL A   1      21.592  20.362   3.752  1.00  0.00    +0.000 C 
ATOM    123  H33 UNL A   1      18.003  20.220   4.942  1.00  0.00    +0.000 H 
BRANCH   24   22
ATOM     22  C15 UNL A   1      18.449  22.451   3.653  1.00  0.00    +0.000 C 
ATOM     23  O3  UNL A   1      18.799  23.614   3.626  1.00  0.00    +0.000 O 
BRANCH   22   21
ATOM    109  H19 UNL A   1      16.978  21.380   2.760  1.00  0.00    +0.000 H 
ATOM     21  N5  UNL A   1      17.127  22.080   3.435  1.00  0.00    +0.000 N 
BRANCH   21   20
ATOM    108  H18 UNL A   1      15.308  23.052   3.346  1.00  0.00    +0.000 H 
ATOM    107  H17 UNL A   1      16.229  23.331   4.828  1.00  0.00    +0.000 H 
ATOM     20  C14 UNL A   1      15.929  22.610   4.097  1.00  0.00    +0.000 C 
BRANCH   20   19
ATOM    105  H15 UNL A   1      14.155  21.914   5.020  1.00  0.00    +0.000 H 
ATOM    106  H16 UNL A   1      15.065  20.693   4.115  1.00  0.00    +0.000 H 
ATOM     19  C13 UNL A   1      15.124  21.524   4.786  1.00  0.00    +0.000 C 
BRANCH   19   18
ATOM     18  C12 UNL A   1      15.778  21.024   6.082  1.00  0.00    +0.000 C 
ATOM    103  H13 UNL A   1      15.551  19.983   6.183  1.00  0.00    +0.000 H 
ATOM    104  H14 UNL A   1      16.821  21.238   5.979  1.00  0.00    +0.000 H 
BRANCH   18   17
ATOM     17  C11 UNL A   1      15.340  21.729   7.378  1.00  0.00    +0.000 C 
ATOM    101  H11 UNL A   1      14.992  22.707   7.120  1.00  0.00    +0.000 H 
ATOM    102  H12 UNL A   1      14.588  21.106   7.815  1.00  0.00    +0.000 H 
BRANCH   17   16
ATOM     99  H9  UNL A   1      17.261  21.259   8.176  1.00  0.00    +0.000 H 
ATOM    100  H10 UNL A   1      16.706  22.917   8.477  1.00  0.00    +0.000 H 
ATOM     16  C10 UNL A   1      16.434  21.882   8.445  1.00  0.00    +0.000 C 
BRANCH   16   15
ATOM     97  H7  UNL A   1      16.171  22.289  10.528  1.00  0.00    +0.000 H 
ATOM     98  H8  UNL A   1      14.911  21.296   9.824  1.00  0.00    +0.000 H 
ATOM     15  C9  UNL A   1      15.963  21.490   9.848  1.00  0.00    +0.000 C 
BRANCH   15   14
ATOM     14  N4  UNL A   1      16.656  20.293  10.288  1.00  0.00    +0.000 N 
ATOM     96  H6  UNL A   1      17.434  20.480  10.863  1.00  0.00    +0.000 H 
BRANCH   14   12
ATOM     12  C8  UNL A   1      16.451  18.955  10.067  1.00  0.00    +0.000 C 
ATOM     13  O2  UNL A   1      16.109  18.264  11.027  1.00  0.00    +0.000 O 
BRANCH   12   11
ATOM      8  C4  UNL A   1      17.048  16.715   6.485  1.00  0.00    +0.000 C 
ATOM      9  C5  UNL A   1      15.761  17.099   6.855  1.00  0.00    +0.000 C 
ATOM     10  C6  UNL A   1      15.602  17.863   8.017  1.00  0.00    +0.000 C 
ATOM     11  C7  UNL A   1      16.718  18.296   8.758  1.00  0.00    +0.000 C 
ATOM     87  C60 UNL A   1      17.995  18.060   8.248  1.00  0.00    +0.000 C 
ATOM     88  C61 UNL A   1      18.168  17.218   7.152  1.00  0.00    +0.000 C 
ATOM    124  H34 UNL A   1      18.815  18.512   8.683  1.00  0.00    +0.000 H 
ATOM    125  H35 UNL A   1      19.118  16.968   6.833  1.00  0.00    +0.000 H 
ATOM     94  H4  UNL A   1      14.944  16.828   6.286  1.00  0.00    +0.000 H 
ATOM     95  H5  UNL A   1      14.653  18.112   8.335  1.00  0.00    +0.000 H 
BRANCH    8    7
ATOM      4  C3  UNL A   1      17.211  14.749   3.544  1.00  0.00    +0.000 C 
ATOM      5  N1  UNL A   1      17.135  13.820   4.557  1.00  0.00    +0.000 N 
ATOM      6  N2  UNL A   1      17.261  14.450   5.717  1.00  0.00    +0.000 N 
ATOM      7  N3  UNL A   1      17.234  15.768   5.465  1.00  0.00    +0.000 N 
ATOM     89  C62 UNL A   1      17.350  16.010   4.106  1.00  0.00    +0.000 C 
BRANCH    4    2
ATOM      2  C2  UNL A   1      17.160  14.341   2.145  1.00  0.00    +0.000 C 
ATOM      3  O1  UNL A   1      16.395  14.882   1.348  1.00  0.00    +0.000 O 
BRANCH    2    1
ATOM      1  C1  UNL A   1      18.068  13.235   1.676  1.00  0.00    +0.000 C 
ATOM     91  H1  UNL A   1      18.740  12.966   2.464  1.00  0.00    +0.000 H 
ATOM     92  H2  UNL A   1      18.629  13.569   0.828  1.00  0.00    +0.000 H 
ATOM     93  H3  UNL A   1      17.481  12.383   1.402  1.00  0.00    +0.000 H 
ENDBRANCH    2    1
ENDBRANCH    4    2
BRANCH   89   90
ATOM     90  C63 UNL A   1      17.592  17.367   3.560  1.00  0.00    +0.000 C 
ATOM    126  H36 UNL A   1      16.683  17.930   3.585  1.00  0.00    +0.000 H 
ATOM    127  H37 UNL A   1      17.936  17.289   2.549  1.00  0.00    +0.000 H 
ATOM    128  H38 UNL A   1      18.334  17.862   4.152  1.00  0.00    +0.000 H 
ENDBRANCH   89   90
ENDBRANCH    8    7
ENDBRANCH   12   11
ENDBRANCH   14   12
ENDBRANCH   15   14
ENDBRANCH   16   15
ENDBRANCH   17   16
ENDBRANCH   18   17
ENDBRANCH   19   18
ENDBRANCH   20   19
ENDBRANCH   21   20
ENDBRANCH   22   21
ENDBRANCH   24   22
ENDBRANCH   28   27
BRANCH   32   33
ATOM     33  C24 UNL A   1      21.355  12.500   4.556  1.00  0.00    +0.000 C 
ATOM     34  C25 UNL A   1      20.480  11.397   4.498  1.00  0.00    +0.000 C 
ATOM     35  F1  UNL A   1      19.203  11.516   4.894  1.00  0.00    +0.000 F 
ATOM     36  C26 UNL A   1      20.916  10.126   4.115  1.00  0.00    +0.000 C 
ATOM     37  F2  UNL A   1      20.078   9.082   4.198  1.00  0.00    +0.000 F 
ATOM     38  C27 UNL A   1      22.224   9.923   3.718  1.00  0.00    +0.000 C 
ATOM     39  F3  UNL A   1      22.660   8.695   3.412  1.00  0.00    +0.000 F 
ATOM     40  C28 UNL A   1      23.092  10.993   3.686  1.00  0.00    +0.000 C 
ATOM     41  F4  UNL A   1      24.368  10.815   3.316  1.00  0.00    +0.000 F 
ATOM     42  C29 UNL A   1      22.674  12.251   4.117  1.00  0.00    +0.000 C 
ATOM     43  F5  UNL A   1      23.638  13.175   4.189  1.00  0.00    +0.000 F 
ENDBRANCH   32   33
BRANCH   49   50
ATOM     50  C35 UNL A   1      23.170  16.212  10.036  1.00  0.00    +0.000 C 
ATOM     51  C36 UNL A   1      22.585  17.489   9.967  1.00  0.00    +0.000 C 
ATOM     52  F6  UNL A   1      22.164  17.987   8.799  1.00  0.00    +0.000 F 
ATOM     53  C37 UNL A   1      22.366  18.254  11.113  1.00  0.00    +0.000 C 
ATOM     54  F7  UNL A   1      21.811  19.471  11.013  1.00  0.00    +0.000 F 
ATOM     55  C38 UNL A   1      22.686  17.742  12.358  1.00  0.00    +0.000 C 
ATOM     56  F8  UNL A   1      22.438  18.456  13.465  1.00  0.00    +0.000 F 
ATOM     57  C39 UNL A   1      23.239  16.475  12.457  1.00  0.00    +0.000 C 
ATOM     58  F9  UNL A   1      23.504  15.954  13.662  1.00  0.00    +0.000 F 
ATOM     59  C40 UNL A   1      23.489  15.725  11.310  1.00  0.00    +0.000 C 
ATOM     60  F10 UNL A   1      23.997  14.491  11.447  1.00  0.00    +0.000 F 
ENDBRANCH   49   50
BRANCH   64   65
ATOM     65  C44 UNL A   1      27.944  17.944   6.288  1.00  0.00    +0.000 C 
ATOM     66  C45 UNL A   1      29.013  18.059   7.192  1.00  0.00    +0.000 C 
ATOM     67  F11 UNL A   1      28.772  18.152   8.508  1.00  0.00    +0.000 F 
ATOM     68  C46 UNL A   1      30.344  18.011   6.764  1.00  0.00    +0.000 C 
ATOM     69  F12 UNL A   1      31.338  18.069   7.661  1.00  0.00    +0.000 F 
ATOM     70  C47 UNL A   1      30.643  17.847   5.421  1.00  0.00    +0.000 C 
ATOM     71  F13 UNL A   1      31.917  17.738   5.018  1.00  0.00    +0.000 F 
ATOM     72  C48 UNL A   1      29.615  17.753   4.503  1.00  0.00    +0.000 C 
ATOM     73  F14 UNL A   1      29.889  17.553   3.206  1.00  0.00    +0.000 F 
ATOM     74  C49 UNL A   1      28.286  17.801   4.929  1.00  0.00    +0.000 C 
ATOM     75  F15 UNL A   1      27.337  17.609   4.001  1.00  0.00    +0.000 F 
ENDBRANCH   64   65
TORSDOF 19
ENDMDL
MODEL 3
REMARK VINA RESULT:     -11.2     29.626     34.210
ROOT
ATOM     28  C20 UNL A   1      40.208  28.935  29.178  1.00  0.00    +0.000 C 
ATOM     29  C21 UNL A   1      40.430  28.681  30.621  1.00  0.00    +0.000 C 
ATOM     30  N6  UNL A   1      41.364  29.165  31.369  1.00  0.00    +0.000 N 
ATOM     31  C22 UNL A   1      41.178  28.603  32.627  1.00  0.00    +0.000 C 
ATOM     32  C23 UNL A   1      42.216  28.487  33.502  1.00  0.00    +0.000 C 
ATOM     44  C30 UNL A   1      43.323  29.318  33.096  1.00  0.00    +0.000 C 
ATOM     45  C31 UNL A   1      43.504  30.679  32.946  1.00  0.00    +0.000 C 
ATOM     46  C32 UNL A   1      44.292  30.818  31.765  1.00  0.00    +0.000 C 
ATOM     47  C33 UNL A   1      44.615  29.538  31.310  1.00  0.00    +0.000 C 
ATOM     48  N7  UNL A   1      44.337  28.728  32.382  1.00  0.00    +0.000 N 
ATOM     49  C34 UNL A   1      45.062  29.042  30.028  1.00  0.00    +0.000 C 
ATOM     61  C41 UNL A   1      44.960  27.745  29.615  1.00  0.00    +0.000 C 
ATOM     62  N8  UNL A   1      45.034  27.411  28.269  1.00  0.00    +0.000 N 
ATOM     63  C42 UNL A   1      44.355  26.299  28.164  1.00  0.00    +0.000 C 
ATOM     64  C43 UNL A   1      43.424  26.024  27.036  1.00  0.00    +0.000 C 
ATOM     76  C50 UNL A   1      42.415  26.924  27.146  1.00  0.00    +0.000 C 
ATOM     77  C51 UNL A   1      41.452  27.375  26.170  1.00  0.00    +0.000 C 
ATOM     78  C52 UNL A   1      40.665  28.300  26.755  1.00  0.00    +0.000 C 
ATOM     79  C53 UNL A   1      40.949  28.365  28.197  1.00  0.00    +0.000 C 
ATOM     80  N9  UNL A   1      42.082  27.604  28.338  1.00  0.00    +0.000 N 
ATOM     81  C54 UNL A   1      44.124  25.581  29.407  1.00  0.00    +0.000 C 
ATOM     82  C55 UNL A   1      44.422  26.555  30.273  1.00  0.00    +0.000 C 
ATOM     83  C56 UNL A   1      39.872  27.997  32.608  1.00  0.00    +0.000 C 
ATOM     84  C57 UNL A   1      39.415  27.913  31.357  1.00  0.00    +0.000 C 
ATOM    112  H22 UNL A   1      43.147  31.431  33.556  1.00  0.00    +0.000 H 
ATOM    113  H23 UNL A   1      44.573  31.707  31.325  1.00  0.00    +0.000 H 
ATOM    114  H24 UNL A   1      44.783  27.877  32.599  1.00  0.00    +0.000 H 
ATOM    115  H25 UNL A   1      41.377  27.045  25.195  1.00  0.00    +0.000 H 
ATOM    116  H26 UNL A   1      39.966  28.879  26.263  1.00  0.00    +0.000 H 
ATOM    117  H27 UNL A   1      42.602  27.539  29.172  1.00  0.00    +0.000 H 
ATOM    118  H28 UNL A   1      43.821  24.608  29.572  1.00  0.00    +0.000 H 
ATOM    119  H29 UNL A   1      44.287  26.476  31.293  1.00  0.00    +0.000 H 
ATOM    120  H30 UNL A   1      39.362  27.672  33.445  1.00  0.00    +0.000 H 
ATOM    121  H31 UNL A   1      38.572  27.436  31.002  1.00  0.00    +0.000 H 
ENDROOT
BRANCH   28   27
ATOM    122  H32 UNL A   1      39.920  31.490  28.999  1.00  0.00    +0.000 H 
ATOM     27  C19 UNL A   1      38.963  29.616  28.866  1.00  0.00    +0.000 C 
ATOM    110  H20 UNL A   1      35.803  29.259  27.820  1.00  0.00    +0.000 H 
ATOM    111  H21 UNL A   1      37.759  27.919  28.444  1.00  0.00    +0.000 H 
ATOM     85  C58 UNL A   1      39.016  30.997  28.936  1.00  0.00    +0.000 C 
ATOM     86  C59 UNL A   1      37.846  31.688  28.918  1.00  0.00    +0.000 C 
ATOM     24  C16 UNL A   1      36.713  31.090  28.384  1.00  0.00    +0.000 C 
ATOM     25  C17 UNL A   1      36.659  29.707  28.185  1.00  0.00    +0.000 C 
ATOM     26  C18 UNL A   1      37.787  28.950  28.492  1.00  0.00    +0.000 C 
ATOM    123  H33 UNL A   1      37.800  32.647  29.297  1.00  0.00    +0.000 H 
BRANCH   24   22
ATOM     22  C15 UNL A   1      35.626  32.004  27.994  1.00  0.00    +0.000 C 
ATOM     23  O3  UNL A   1      34.587  31.575  27.532  1.00  0.00    +0.000 O 
BRANCH   22   21
ATOM    109  H19 UNL A   1      36.669  33.735  27.839  1.00  0.00    +0.000 H 
ATOM     21  N5  UNL A   1      35.830  33.364  28.195  1.00  0.00    +0.000 N 
BRANCH   21   20
ATOM    108  H18 UNL A   1      34.042  34.391  28.297  1.00  0.00    +0.000 H 
ATOM    107  H17 UNL A   1      35.435  35.255  28.958  1.00  0.00    +0.000 H 
ATOM     20  C14 UNL A   1      34.938  34.311  28.876  1.00  0.00    +0.000 C 
BRANCH   20   19
ATOM    105  H15 UNL A   1      33.688  34.383  30.583  1.00  0.00    +0.000 H 
ATOM    106  H16 UNL A   1      34.363  32.788  30.207  1.00  0.00    +0.000 H 
ATOM     19  C13 UNL A   1      34.553  33.839  30.266  1.00  0.00    +0.000 C 
BRANCH   19   18
ATOM     18  C12 UNL A   1      35.669  34.048  31.300  1.00  0.00    +0.000 C 
ATOM    103  H13 UNL A   1      36.602  34.065  30.777  1.00  0.00    +0.000 H 
ATOM    104  H14 UNL A   1      35.430  34.963  31.801  1.00  0.00    +0.000 H 
BRANCH   18   17
ATOM     17  C11 UNL A   1      35.772  32.987  32.410  1.00  0.00    +0.000 C 
ATOM    101  H11 UNL A   1      36.694  33.140  32.930  1.00  0.00    +0.000 H 
ATOM    102  H12 UNL A   1      34.905  33.116  33.024  1.00  0.00    +0.000 H 
BRANCH   17   16
ATOM     99  H9  UNL A   1      34.826  31.080  32.271  1.00  0.00    +0.000 H 
ATOM    100  H10 UNL A   1      35.800  31.543  30.862  1.00  0.00    +0.000 H 
ATOM     16  C10 UNL A   1      35.736  31.529  31.931  1.00  0.00    +0.000 C 
BRANCH   16   15
ATOM     97  H7  UNL A   1      36.639  29.663  32.455  1.00  0.00    +0.000 H 
ATOM     98  H8  UNL A   1      37.756  30.846  31.806  1.00  0.00    +0.000 H 
ATOM     15  C9  UNL A   1      36.912  30.697  32.448  1.00  0.00    +0.000 C 
BRANCH   15   14
ATOM     14  N4  UNL A   1      37.260  31.111  33.794  1.00  0.00    +0.000 N 
ATOM     96  H6  UNL A   1      36.649  30.759  34.482  1.00  0.00    +0.000 H 
BRANCH   14   12
ATOM     12  C8  UNL A   1      38.264  31.892  34.306  1.00  0.00    +0.000 C 
ATOM     13  O2  UNL A   1      38.248  32.124  35.515  1.00  0.00    +0.000 O 
BRANCH   12   11
ATOM      8  C4  UNL A   1      40.918  33.996  31.710  1.00  0.00    +0.000 C 
ATOM      9  C5  UNL A   1      40.373  34.644  32.817  1.00  0.00    +0.000 C 
ATOM     10  C6  UNL A   1      39.534  33.916  33.667  1.00  0.00    +0.000 C 
ATOM     11  C7  UNL A   1      39.300  32.545  33.457  1.00  0.00    +0.000 C 
ATOM     87  C60 UNL A   1      40.020  31.887  32.458  1.00  0.00    +0.000 C 
ATOM     88  C61 UNL A   1      40.777  32.616  31.543  1.00  0.00    +0.000 C 
ATOM    124  H34 UNL A   1      39.992  30.857  32.396  1.00  0.00    +0.000 H 
ATOM    125  H35 UNL A   1      41.232  32.140  30.748  1.00  0.00    +0.000 H 
ATOM     94  H4  UNL A   1      40.583  35.636  33.005  1.00  0.00    +0.000 H 
ATOM     95  H5  UNL A   1      39.079  34.393  34.461  1.00  0.00    +0.000 H 
BRANCH    8    7
ATOM      4  C3  UNL A   1      42.223  35.521  28.793  1.00  0.00    +0.000 C 
ATOM      5  N1  UNL A   1      43.278  35.544  29.676  1.00  0.00    +0.000 N 
ATOM      6  N2  UNL A   1      42.838  35.167  30.869  1.00  0.00    +0.000 N 
ATOM      7  N3  UNL A   1      41.576  34.736  30.714  1.00  0.00    +0.000 N 
ATOM     89  C62 UNL A   1      41.093  35.071  29.460  1.00  0.00    +0.000 C 
BRANCH    4    2
ATOM      2  C2  UNL A   1      42.394  35.943  27.407  1.00  0.00    +0.000 C 
ATOM      3  O1  UNL A   1      42.735  35.148  26.532  1.00  0.00    +0.000 O 
BRANCH    2    1
ATOM      1  C1  UNL A   1      42.142  37.384  27.050  1.00  0.00    +0.000 C 
ATOM     91  H1  UNL A   1      42.915  37.996  27.466  1.00  0.00    +0.000 H 
ATOM     92  H2  UNL A   1      41.196  37.690  27.444  1.00  0.00    +0.000 H 
ATOM     93  H3  UNL A   1      42.137  37.492  25.985  1.00  0.00    +0.000 H 
ENDBRANCH    2    1
ENDBRANCH    4    2
BRANCH   89   90
ATOM     90  C63 UNL A   1      39.661  34.938  29.100  1.00  0.00    +0.000 C 
ATOM    126  H36 UNL A   1      39.541  34.139  28.399  1.00  0.00    +0.000 H 
ATOM    127  H37 UNL A   1      39.317  35.852  28.660  1.00  0.00    +0.000 H 
ATOM    128  H38 UNL A   1      39.090  34.729  29.981  1.00  0.00    +0.000 H 
ENDBRANCH   89   90
ENDBRANCH    8    7
ENDBRANCH   12   11
ENDBRANCH   14   12
ENDBRANCH   15   14
ENDBRANCH   16   15
ENDBRANCH   17   16
ENDBRANCH   18   17
ENDBRANCH   19   18
ENDBRANCH   20   19
ENDBRANCH   21   20
ENDBRANCH   22   21
ENDBRANCH   24   22
ENDBRANCH   28   27
BRANCH   32   33
ATOM     33  C24 UNL A   1      42.377  27.379  34.512  1.00  0.00    +0.000 C 
ATOM     34  C25 UNL A   1      42.901  26.141  34.089  1.00  0.00    +0.000 C 
ATOM     35  F1  UNL A   1      43.490  26.022  32.889  1.00  0.00    +0.000 F 
ATOM     36  C26 UNL A   1      42.757  24.978  34.849  1.00  0.00    +0.000 C 
ATOM     37  F2  UNL A   1      43.159  23.801  34.348  1.00  0.00    +0.000 F 
ATOM     38  C27 UNL A   1      42.139  25.019  36.085  1.00  0.00    +0.000 C 
ATOM     39  F3  UNL A   1      41.943  23.897  36.787  1.00  0.00    +0.000 F 
ATOM     40  C28 UNL A   1      41.682  26.227  36.569  1.00  0.00    +0.000 C 
ATOM     41  F4  UNL A   1      41.069  26.286  37.759  1.00  0.00    +0.000 F 
ATOM     42  C29 UNL A   1      41.778  27.378  35.790  1.00  0.00    +0.000 C 
ATOM     43  F5  UNL A   1      41.165  28.456  36.294  1.00  0.00    +0.000 F 
ENDBRANCH   32   33
BRANCH   49   50
ATOM     50  C35 UNL A   1      45.464  30.075  29.007  1.00  0.00    +0.000 C 
ATOM     51  C36 UNL A   1      46.792  30.318  28.613  1.00  0.00    +0.000 C 
ATOM     52  F6  UNL A   1      47.807  29.662  29.187  1.00  0.00    +0.000 F 
ATOM     53  C37 UNL A   1      47.097  31.198  27.575  1.00  0.00    +0.000 C 
ATOM     54  F7  UNL A   1      48.374  31.412  27.226  1.00  0.00    +0.000 F 
ATOM     55  C38 UNL A   1      46.078  31.823  26.877  1.00  0.00    +0.000 C 
ATOM     56  F8  UNL A   1      46.364  32.637  25.851  1.00  0.00    +0.000 F 
ATOM     57  C39 UNL A   1      44.759  31.581  27.227  1.00  0.00    +0.000 C 
ATOM     58  F9  UNL A   1      43.767  32.144  26.524  1.00  0.00    +0.000 F 
ATOM     59  C40 UNL A   1      44.457  30.728  28.286  1.00  0.00    +0.000 C 
ATOM     60  F10 UNL A   1      43.168  30.496  28.577  1.00  0.00    +0.000 F 
ENDBRANCH   49   50
BRANCH   64   65
ATOM     65  C44 UNL A   1      43.442  24.763  26.261  1.00  0.00    +0.000 C 
ATOM     66  C45 UNL A   1      44.357  24.560  25.215  1.00  0.00    +0.000 C 
ATOM     67  F11 UNL A   1      45.087  25.585  24.753  1.00  0.00    +0.000 F 
ATOM     68  C46 UNL A   1      44.583  23.288  24.676  1.00  0.00    +0.000 C 
ATOM     69  F12 UNL A   1      45.504  23.123  23.716  1.00  0.00    +0.000 F 
ATOM     70  C47 UNL A   1      43.903  22.186  25.169  1.00  0.00    +0.000 C 
ATOM     71  F13 UNL A   1      44.165  20.959  24.697  1.00  0.00    +0.000 F 
ATOM     72  C48 UNL A   1      42.979  22.356  26.183  1.00  0.00    +0.000 C 
ATOM     73  F14 UNL A   1      42.344  21.293  26.697  1.00  0.00    +0.000 F 
ATOM     74  C49 UNL A   1      42.753  23.624  26.721  1.00  0.00    +0.000 C 
ATOM     75  F15 UNL A   1      41.915  23.707  27.766  1.00  0.00    +0.000 F 
ENDBRANCH   64   65
TORSDOF 19
ENDMDL
MODEL 4
REMARK VINA RESULT:     -10.5     26.086     32.491
ROOT
ATOM     28  C20 UNL A   1      40.509  29.131  29.146  1.00  0.00    +0.000 C 
ATOM     29  C21 UNL A   1      40.737  28.872  30.587  1.00  0.00    +0.000 C 
ATOM     30  N6  UNL A   1      41.620  29.419  31.353  1.00  0.00    +0.000 N 
ATOM     31  C22 UNL A   1      41.468  28.822  32.601  1.00  0.00    +0.000 C 
ATOM     32  C23 UNL A   1      42.504  28.778  33.485  1.00  0.00    +0.000 C 
ATOM     44  C30 UNL A   1      43.542  29.705  33.105  1.00  0.00    +0.000 C 
ATOM     45  C31 UNL A   1      43.611  31.078  32.979  1.00  0.00    +0.000 C 
ATOM     46  C32 UNL A   1      44.396  31.301  31.810  1.00  0.00    +0.000 C 
ATOM     47  C33 UNL A   1      44.830  30.061  31.337  1.00  0.00    +0.000 C 
ATOM     48  N7  UNL A   1      44.609  29.212  32.393  1.00  0.00    +0.000 N 
ATOM     49  C34 UNL A   1      45.329  29.625  30.053  1.00  0.00    +0.000 C 
ATOM     61  C41 UNL A   1      45.338  28.331  29.618  1.00  0.00    +0.000 C 
ATOM     62  N8  UNL A   1      45.454  28.027  28.268  1.00  0.00    +0.000 N 
ATOM     63  C42 UNL A   1      44.870  26.864  28.137  1.00  0.00    +0.000 C 
ATOM     64  C43 UNL A   1      43.977  26.533  26.995  1.00  0.00    +0.000 C 
ATOM     76  C50 UNL A   1      42.896  27.344  27.107  1.00  0.00    +0.000 C 
ATOM     77  C51 UNL A   1      41.908  27.730  26.128  1.00  0.00    +0.000 C 
ATOM     78  C52 UNL A   1      41.041  28.577  26.719  1.00  0.00    +0.000 C 
ATOM     79  C53 UNL A   1      41.305  28.640  28.165  1.00  0.00    +0.000 C 
ATOM     80  N9  UNL A   1      42.496  27.974  28.306  1.00  0.00    +0.000 N 
ATOM     81  C54 UNL A   1      44.688  26.110  29.366  1.00  0.00    +0.000 C 
ATOM     82  C55 UNL A   1      44.895  27.090  30.251  1.00  0.00    +0.000 C 
ATOM     83  C56 UNL A   1      40.218  28.111  32.557  1.00  0.00    +0.000 C 
ATOM     84  C57 UNL A   1      39.782  28.010  31.300  1.00  0.00    +0.000 C 
ATOM    112  H22 UNL A   1      43.186  31.787  33.597  1.00  0.00    +0.000 H 
ATOM    113  H23 UNL A   1      44.607  32.219  31.386  1.00  0.00    +0.000 H 
ATOM    114  H24 UNL A   1      45.122  28.398  32.601  1.00  0.00    +0.000 H 
ATOM    115  H25 UNL A   1      41.871  27.411  25.147  1.00  0.00    +0.000 H 
ATOM    116  H26 UNL A   1      40.302  29.104  26.228  1.00  0.00    +0.000 H 
ATOM    117  H27 UNL A   1      43.010  27.938  29.145  1.00  0.00    +0.000 H 
ATOM    118  H28 UNL A   1      44.465  25.112  29.512  1.00  0.00    +0.000 H 
ATOM    119  H29 UNL A   1      44.757  26.983  31.268  1.00  0.00    +0.000 H 
ATOM    120  H30 UNL A   1      39.728  27.731  33.382  1.00  0.00    +0.000 H 
ATOM    121  H31 UNL A   1      38.985  27.470  30.927  1.00  0.00    +0.000 H 
ENDROOT
BRANCH   28   27
ATOM    122  H32 UNL A   1      38.527  27.857  28.100  1.00  0.00    +0.000 H 
ATOM     27  C19 UNL A   1      39.216  29.711  28.831  1.00  0.00    +0.000 C 
ATOM    110  H20 UNL A   1      37.224  32.380  29.180  1.00  0.00    +0.000 H 
ATOM    111  H21 UNL A   1      39.506  31.637  29.678  1.00  0.00    +0.000 H 
ATOM     85  C58 UNL A   1      38.339  28.869  28.169  1.00  0.00    +0.000 C 
ATOM     86  C59 UNL A   1      37.223  29.410  27.613  1.00  0.00    +0.000 C 
ATOM     24  C16 UNL A   1      36.751  30.626  28.085  1.00  0.00    +0.000 C 
ATOM     25  C17 UNL A   1      37.564  31.459  28.859  1.00  0.00    +0.000 C 
ATOM     26  C18 UNL A   1      38.844  31.017  29.185  1.00  0.00    +0.000 C 
ATOM    123  H33 UNL A   1      36.732  28.921  26.848  1.00  0.00    +0.000 H 
BRANCH   24   22
ATOM     22  C15 UNL A   1      35.345  30.937  27.770  1.00  0.00    +0.000 C 
ATOM     23  O3  UNL A   1      35.002  32.072  27.508  1.00  0.00    +0.000 O 
BRANCH   22   21
ATOM    109  H19 UNL A   1      34.477  29.275  28.542  1.00  0.00    +0.000 H 
ATOM     21  N5  UNL A   1      34.442  29.880  27.766  1.00  0.00    +0.000 N 
BRANCH   21   20
ATOM    108  H18 UNL A   1      33.828  29.885  25.795  1.00  0.00    +0.000 H 
ATOM    107  H17 UNL A   1      32.529  30.069  26.980  1.00  0.00    +0.000 H 
ATOM     20  C14 UNL A   1      33.441  29.564  26.740  1.00  0.00    +0.000 C 
BRANCH   20   19
ATOM    105  H15 UNL A   1      33.657  27.690  25.778  1.00  0.00    +0.000 H 
ATOM    106  H16 UNL A   1      33.530  27.623  27.544  1.00  0.00    +0.000 H 
ATOM     19  C13 UNL A   1      33.164  28.075  26.647  1.00  0.00    +0.000 C 
BRANCH   19   18
ATOM     18  C12 UNL A   1      31.666  27.750  26.545  1.00  0.00    +0.000 C 
ATOM    103  H13 UNL A   1      31.554  26.691  26.646  1.00  0.00    +0.000 H 
ATOM    104  H14 UNL A   1      31.196  28.317  27.320  1.00  0.00    +0.000 H 
BRANCH   18   17
ATOM     17  C11 UNL A   1      30.967  28.175  25.241  1.00  0.00    +0.000 C 
ATOM    101  H11 UNL A   1      29.974  27.778  25.254  1.00  0.00    +0.000 H 
ATOM    102  H12 UNL A   1      31.003  29.245  25.222  1.00  0.00    +0.000 H 
BRANCH   17   16
ATOM     99  H9  UNL A   1      31.863  28.564  23.345  1.00  0.00    +0.000 H 
ATOM    100  H10 UNL A   1      32.537  27.181  24.227  1.00  0.00    +0.000 H 
ATOM     16  C10 UNL A   1      31.648  27.706  23.947  1.00  0.00    +0.000 C 
BRANCH   16   15
ATOM     97  H7  UNL A   1      29.953  26.422  23.722  1.00  0.00    +0.000 H 
ATOM     98  H8  UNL A   1      30.435  27.241  22.251  1.00  0.00    +0.000 H 
ATOM     15  C9  UNL A   1      30.785  26.741  23.131  1.00  0.00    +0.000 C 
BRANCH   15   14
ATOM     14  N4  UNL A   1      31.567  25.583  22.740  1.00  0.00    +0.000 N 
ATOM     96  H6  UNL A   1      32.295  25.797  22.112  1.00  0.00    +0.000 H 
BRANCH   14   12
ATOM     12  C8  UNL A   1      31.501  24.253  23.065  1.00  0.00    +0.000 C 
ATOM     13  O2  UNL A   1      30.384  23.746  23.174  1.00  0.00    +0.000 O 
BRANCH   12   11
ATOM      8  C4  UNL A   1      34.979  22.136  24.343  1.00  0.00    +0.000 C 
ATOM      9  C5  UNL A   1      33.766  21.936  24.999  1.00  0.00    +0.000 C 
ATOM     10  C6  UNL A   1      32.637  22.619  24.534  1.00  0.00    +0.000 C 
ATOM     11  C7  UNL A   1      32.703  23.433  23.388  1.00  0.00    +0.000 C 
ATOM     87  C60 UNL A   1      33.883  23.450  22.644  1.00  0.00    +0.000 C 
ATOM     88  C61 UNL A   1      35.039  22.860  23.149  1.00  0.00    +0.000 C 
ATOM    124  H34 UNL A   1      33.901  23.903  21.716  1.00  0.00    +0.000 H 
ATOM    125  H35 UNL A   1      35.935  22.955  22.645  1.00  0.00    +0.000 H 
ATOM     94  H4  UNL A   1      33.702  21.299  25.808  1.00  0.00    +0.000 H 
ATOM     95  H5  UNL A   1      31.743  22.524  25.039  1.00  0.00    +0.000 H 
BRANCH    8    7
ATOM      4  C3  UNL A   1      38.213  21.505  25.639  1.00  0.00    +0.000 C 
ATOM      5  N1  UNL A   1      37.815  20.286  25.141  1.00  0.00    +0.000 N 
ATOM      6  N2  UNL A   1      36.535  20.366  24.801  1.00  0.00    +0.000 N 
ATOM      7  N3  UNL A   1      36.172  21.655  24.906  1.00  0.00    +0.000 N 
ATOM     89  C62 UNL A   1      37.146  22.387  25.566  1.00  0.00    +0.000 C 
BRANCH    4    2
ATOM      2  C2  UNL A   1      39.566  21.702  26.148  1.00  0.00    +0.000 C 
ATOM      3  O1  UNL A   1      40.045  22.829  26.272  1.00  0.00    +0.000 O 
BRANCH    2    1
ATOM      1  C1  UNL A   1      40.382  20.497  26.532  1.00  0.00    +0.000 C 
ATOM     91  H1  UNL A   1      41.402  20.787  26.676  1.00  0.00    +0.000 H 
ATOM     92  H2  UNL A   1      40.328  19.766  25.752  1.00  0.00    +0.000 H 
ATOM     93  H3  UNL A   1      39.998  20.079  27.440  1.00  0.00    +0.000 H 
ENDBRANCH    2    1
ENDBRANCH    4    2
BRANCH   89   90
ATOM     90  C63 UNL A   1      36.911  23.774  26.036  1.00  0.00    +0.000 C 
ATOM    126  H36 UNL A   1      37.198  24.463  25.270  1.00  0.00    +0.000 H 
ATOM    127  H37 UNL A   1      37.494  23.955  26.915  1.00  0.00    +0.000 H 
ATOM    128  H38 UNL A   1      35.873  23.903  26.262  1.00  0.00    +0.000 H 
ENDBRANCH   89   90
ENDBRANCH    8    7
ENDBRANCH   12   11
ENDBRANCH   14   12
ENDBRANCH   15   14
ENDBRANCH   16   15
ENDBRANCH   17   16
ENDBRANCH   18   17
ENDBRANCH   19   18
ENDBRANCH   20   19
ENDBRANCH   21   20
ENDBRANCH   22   21
ENDBRANCH   24   22
ENDBRANCH   28   27
BRANCH   32   33
ATOM     33  C24 UNL A   1      42.747  27.670  34.479  1.00  0.00    +0.000 C 
ATOM     34  C25 UNL A   1      43.294  26.454  34.025  1.00  0.00    +0.000 C 
ATOM     35  F1  UNL A   1      43.834  26.362  32.800  1.00  0.00    +0.000 F 
ATOM     36  C26 UNL A   1      43.222  25.282  34.782  1.00  0.00    +0.000 C 
ATOM     37  F2  UNL A   1      43.643  24.123  34.255  1.00  0.00    +0.000 F 
ATOM     38  C27 UNL A   1      42.657  25.294  36.043  1.00  0.00    +0.000 C 
ATOM     39  F3  UNL A   1      42.530  24.162  36.745  1.00  0.00    +0.000 F 
ATOM     40  C28 UNL A   1      42.180  26.482  36.556  1.00  0.00    +0.000 C 
ATOM     41  F4  UNL A   1      41.617  26.513  37.771  1.00  0.00    +0.000 F 
ATOM     42  C29 UNL A   1      42.203  27.641  35.782  1.00  0.00    +0.000 C 
ATOM     43  F5  UNL A   1      41.576  28.694  36.319  1.00  0.00    +0.000 F 
ENDBRANCH   32   33
BRANCH   49   50
ATOM     50  C35 UNL A   1      45.654  30.705  29.053  1.00  0.00    +0.000 C 
ATOM     51  C36 UNL A   1      44.690  31.385  28.287  1.00  0.00    +0.000 C 
ATOM     52  F6  UNL A   1      43.395  31.055  28.367  1.00  0.00    +0.000 F 
ATOM     53  C37 UNL A   1      45.034  32.460  27.468  1.00  0.00    +0.000 C 
ATOM     54  F7  UNL A   1      44.091  33.084  26.746  1.00  0.00    +0.000 F 
ATOM     55  C38 UNL A   1      46.342  32.910  27.430  1.00  0.00    +0.000 C 
ATOM     56  F8  UNL A   1      46.669  33.969  26.678  1.00  0.00    +0.000 F 
ATOM     57  C39 UNL A   1      47.307  32.275  28.196  1.00  0.00    +0.000 C 
ATOM     58  F9  UNL A   1      48.564  32.737  28.202  1.00  0.00    +0.000 F 
ATOM     59  C40 UNL A   1      46.970  31.180  28.987  1.00  0.00    +0.000 C 
ATOM     60  F10 UNL A   1      47.925  30.610  29.737  1.00  0.00    +0.000 F 
ENDBRANCH   49   50
BRANCH   64   65
ATOM     65  C44 UNL A   1      44.107  25.291  26.200  1.00  0.00    +0.000 C 
ATOM     66  C45 UNL A   1      45.094  25.156  25.209  1.00  0.00    +0.000 C 
ATOM     67  F11 UNL A   1      45.797  26.226  24.812  1.00  0.00    +0.000 F 
ATOM     68  C46 UNL A   1      45.418  23.909  24.663  1.00  0.00    +0.000 C 
ATOM     69  F12 UNL A   1      46.403  23.810  23.759  1.00  0.00    +0.000 F 
ATOM     70  C47 UNL A   1      44.766  22.764  25.092  1.00  0.00    +0.000 C 
ATOM     71  F13 UNL A   1      45.120  21.562  24.616  1.00  0.00    +0.000 F 
ATOM     72  C48 UNL A   1      43.775  22.866  26.050  1.00  0.00    +0.000 C 
ATOM     73  F14 UNL A   1      43.164  21.762  26.504  1.00  0.00    +0.000 F 
ATOM     74  C49 UNL A   1      43.451  24.109  26.595  1.00  0.00    +0.000 C 
ATOM     75  F15 UNL A   1      42.548  24.128  27.587  1.00  0.00    +0.000 F 
ENDBRANCH   64   65
TORSDOF 19
ENDMDL
MODEL 5
REMARK VINA RESULT:     -10.5     14.137     20.872
ROOT
ATOM     28  C20 UNL A   1       8.343  30.045   0.856  1.00  0.00    +0.000 C 
ATOM     29  C21 UNL A   1       7.637  30.918  -0.111  1.00  0.00    +0.000 C 
ATOM     30  N6  UNL A   1       7.594  30.794  -1.395  1.00  0.00    +0.000 N 
ATOM     31  C22 UNL A   1       6.847  31.871  -1.860  1.00  0.00    +0.000 C 
ATOM     32  C23 UNL A   1       7.005  32.335  -3.131  1.00  0.00    +0.000 C 
ATOM     44  C30 UNL A   1       7.709  31.373  -3.943  1.00  0.00    +0.000 C 
ATOM     45  C31 UNL A   1       7.440  30.087  -4.368  1.00  0.00    +0.000 C 
ATOM     46  C32 UNL A   1       8.688  29.402  -4.281  1.00  0.00    +0.000 C 
ATOM     47  C33 UNL A   1       9.661  30.325  -3.890  1.00  0.00    +0.000 C 
ATOM     48  N7  UNL A   1       9.063  31.542  -4.104  1.00  0.00    +0.000 N 
ATOM     49  C34 UNL A   1      10.975  30.170  -3.310  1.00  0.00    +0.000 C 
ATOM     61  C41 UNL A   1      11.643  31.142  -2.621  1.00  0.00    +0.000 C 
ATOM     62  N8  UNL A   1      12.694  30.828  -1.771  1.00  0.00    +0.000 N 
ATOM     63  C42 UNL A   1      12.710  31.794  -0.890  1.00  0.00    +0.000 C 
ATOM     64  C43 UNL A   1      12.929  31.559   0.563  1.00  0.00    +0.000 C 
ATOM     76  C50 UNL A   1      11.863  30.841   0.999  1.00  0.00    +0.000 C 
ATOM     77  C51 UNL A   1      11.701  30.030   2.182  1.00  0.00    +0.000 C 
ATOM     78  C52 UNL A   1      10.462  29.498   2.157  1.00  0.00    +0.000 C 
ATOM     79  C53 UNL A   1       9.683  30.084   1.055  1.00  0.00    +0.000 C 
ATOM     80  N9  UNL A   1      10.617  30.786   0.337  1.00  0.00    +0.000 N 
ATOM     81  C54 UNL A   1      11.999  33.004  -1.269  1.00  0.00    +0.000 C 
ATOM     82  C55 UNL A   1      11.281  32.518  -2.286  1.00  0.00    +0.000 C 
ATOM     83  C56 UNL A   1       6.209  32.446  -0.705  1.00  0.00    +0.000 C 
ATOM     84  C57 UNL A   1       6.754  31.970   0.416  1.00  0.00    +0.000 C 
ATOM    112  H22 UNL A   1       6.533  29.706  -4.680  1.00  0.00    +0.000 H 
ATOM    113  H23 UNL A   1       8.845  28.400  -4.473  1.00  0.00    +0.000 H 
ATOM    114  H24 UNL A   1       9.523  32.382  -4.330  1.00  0.00    +0.000 H 
ATOM    115  H25 UNL A   1      12.408  29.885   2.918  1.00  0.00    +0.000 H 
ATOM    116  H26 UNL A   1      10.112  28.782   2.814  1.00  0.00    +0.000 H 
ATOM    117  H27 UNL A   1      10.439  31.204  -0.537  1.00  0.00    +0.000 H 
ATOM    118  H28 UNL A   1      12.038  33.956  -0.871  1.00  0.00    +0.000 H 
ATOM    119  H29 UNL A   1      10.551  33.056  -2.780  1.00  0.00    +0.000 H 
ATOM    120  H30 UNL A   1       5.438  33.132  -0.740  1.00  0.00    +0.000 H 
ATOM    121  H31 UNL A   1       6.598  32.263   1.393  1.00  0.00    +0.000 H 
ENDROOT
BRANCH   28   27
ATOM    122  H32 UNL A   1       7.477  27.638   0.537  1.00  0.00    +0.000 H 
ATOM     27  C19 UNL A   1       7.476  29.339   1.783  1.00  0.00    +0.000 C 
ATOM    110  H20 UNL A   1       6.079  29.362   4.825  1.00  0.00    +0.000 H 
ATOM    111  H21 UNL A   1       7.437  30.772   3.349  1.00  0.00    +0.000 H 
ATOM     85  C58 UNL A   1       7.043  28.097   1.353  1.00  0.00    +0.000 C 
ATOM     86  C59 UNL A   1       6.033  27.495   2.034  1.00  0.00    +0.000 C 
ATOM     24  C16 UNL A   1       5.780  27.872   3.346  1.00  0.00    +0.000 C 
ATOM     25  C17 UNL A   1       6.296  29.065   3.861  1.00  0.00    +0.000 C 
ATOM     26  C18 UNL A   1       7.109  29.843   3.040  1.00  0.00    +0.000 C 
ATOM    123  H33 UNL A   1       5.459  26.766   1.582  1.00  0.00    +0.000 H 
BRANCH   24   22
ATOM     22  C15 UNL A   1       5.001  26.916   4.152  1.00  0.00    +0.000 C 
ATOM     23  O3  UNL A   1       4.028  26.357   3.686  1.00  0.00    +0.000 O 
BRANCH   22   21
ATOM    109  H19 UNL A   1       5.110  27.285   6.141  1.00  0.00    +0.000 H 
ATOM     21  N5  UNL A   1       5.437  26.668   5.448  1.00  0.00    +0.000 N 
BRANCH   21   20
ATOM    108  H18 UNL A   1       5.748  24.694   5.964  1.00  0.00    +0.000 H 
ATOM    107  H17 UNL A   1       6.735  25.860   6.853  1.00  0.00    +0.000 H 
ATOM     20  C14 UNL A   1       6.326  25.592   5.902  1.00  0.00    +0.000 C 
BRANCH   20   19
ATOM    105  H15 UNL A   1       7.864  24.366   5.116  1.00  0.00    +0.000 H 
ATOM    106  H16 UNL A   1       7.074  25.433   3.943  1.00  0.00    +0.000 H 
ATOM     19  C13 UNL A   1       7.468  25.343   4.933  1.00  0.00    +0.000 C 
BRANCH   19   18
ATOM     18  C12 UNL A   1       8.605  26.367   5.071  1.00  0.00    +0.000 C 
ATOM    103  H13 UNL A   1       8.163  27.337   5.159  1.00  0.00    +0.000 H 
ATOM    104  H14 UNL A   1       9.165  26.060   5.930  1.00  0.00    +0.000 H 
BRANCH   18   17
ATOM     17  C11 UNL A   1       9.619  26.413   3.914  1.00  0.00    +0.000 C 
ATOM    101  H11 UNL A   1       9.155  25.984   3.051  1.00  0.00    +0.000 H 
ATOM    102  H12 UNL A   1       9.883  27.443   3.793  1.00  0.00    +0.000 H 
BRANCH   17   16
ATOM     99  H9  UNL A   1      11.630  25.930   3.393  1.00  0.00    +0.000 H 
ATOM    100  H10 UNL A   1      11.287  25.954   5.134  1.00  0.00    +0.000 H 
ATOM     16  C10 UNL A   1      10.936  25.666   4.165  1.00  0.00    +0.000 C 
BRANCH   16   15
ATOM     97  H7  UNL A   1       9.733  23.899   4.102  1.00  0.00    +0.000 H 
ATOM     98  H8  UNL A   1      11.300  23.731   3.337  1.00  0.00    +0.000 H 
ATOM     15  C9  UNL A   1      10.772  24.144   4.172  1.00  0.00    +0.000 C 
BRANCH   15   14
ATOM     14  N4  UNL A   1      11.314  23.591   5.399  1.00  0.00    +0.000 N 
ATOM     96  H6  UNL A   1      11.625  22.662   5.306  1.00  0.00    +0.000 H 
BRANCH   14   12
ATOM     12  C8  UNL A   1      11.483  24.098   6.662  1.00  0.00    +0.000 C 
ATOM     13  O2  UNL A   1      12.631  24.175   7.098  1.00  0.00    +0.000 O 
BRANCH   12   11
ATOM      8  C4  UNL A   1       8.494  25.103   9.537  1.00  0.00    +0.000 C 
ATOM      9  C5  UNL A   1       9.485  26.028   9.216  1.00  0.00    +0.000 C 
ATOM     10  C6  UNL A   1      10.430  25.681   8.244  1.00  0.00    +0.000 C 
ATOM     11  C7  UNL A   1      10.344  24.459   7.553  1.00  0.00    +0.000 C 
ATOM     87  C60 UNL A   1       9.227  23.648   7.760  1.00  0.00    +0.000 C 
ATOM     88  C61 UNL A   1       8.336  23.931   8.792  1.00  0.00    +0.000 C 
ATOM    124  H34 UNL A   1       9.059  22.836   7.145  1.00  0.00    +0.000 H 
ATOM    125  H35 UNL A   1       7.564  23.280   9.007  1.00  0.00    +0.000 H 
ATOM     94  H4  UNL A   1       9.521  26.948   9.683  1.00  0.00    +0.000 H 
ATOM     95  H5  UNL A   1      11.201  26.332   8.031  1.00  0.00    +0.000 H 
BRANCH    8    7
ATOM      4  C3  UNL A   1       6.239  26.167  12.051  1.00  0.00    +0.000 C 
ATOM      5  N1  UNL A   1       7.217  25.498  12.749  1.00  0.00    +0.000 N 
ATOM      6  N2  UNL A   1       8.016  24.892  11.880  1.00  0.00    +0.000 N 
ATOM      7  N3  UNL A   1       7.669  25.314  10.653  1.00  0.00    +0.000 N 
ATOM     89  C62 UNL A   1       6.467  26.002  10.693  1.00  0.00    +0.000 C 
BRANCH    4    2
ATOM      2  C2  UNL A   1       5.176  26.884  12.747  1.00  0.00    +0.000 C 
ATOM      3  O1  UNL A   1       5.259  28.091  12.973  1.00  0.00    +0.000 O 
BRANCH    2    1
ATOM      1  C1  UNL A   1       3.956  26.123  13.192  1.00  0.00    +0.000 C 
ATOM     91  H1  UNL A   1       3.723  26.380  14.205  1.00  0.00    +0.000 H 
ATOM     92  H2  UNL A   1       4.146  25.072  13.127  1.00  0.00    +0.000 H 
ATOM     93  H3  UNL A   1       3.128  26.375  12.562  1.00  0.00    +0.000 H 
ENDBRANCH    2    1
ENDBRANCH    4    2
BRANCH   89   90
ATOM     90  C63 UNL A   1       5.724  26.370   9.464  1.00  0.00    +0.000 C 
ATOM    126  H36 UNL A   1       5.641  27.434   9.402  1.00  0.00    +0.000 H 
ATOM    127  H37 UNL A   1       4.745  25.937   9.496  1.00  0.00    +0.000 H 
ATOM    128  H38 UNL A   1       6.249  26.003   8.606  1.00  0.00    +0.000 H 
ENDBRANCH   89   90
ENDBRANCH    8    7
ENDBRANCH   12   11
ENDBRANCH   14   12
ENDBRANCH   15   14
ENDBRANCH   16   15
ENDBRANCH   17   16
ENDBRANCH   18   17
ENDBRANCH   19   18
ENDBRANCH   20   19
ENDBRANCH   21   20
ENDBRANCH   22   21
ENDBRANCH   24   22
ENDBRANCH   28   27
BRANCH   32   33
ATOM     33  C24 UNL A   1       6.848  33.774  -3.553  1.00  0.00    +0.000 C 
ATOM     34  C25 UNL A   1       5.800  34.118  -4.431  1.00  0.00    +0.000 C 
ATOM     35  F1  UNL A   1       4.807  33.252  -4.682  1.00  0.00    +0.000 F 
ATOM     36  C26 UNL A   1       5.794  35.323  -5.139  1.00  0.00    +0.000 C 
ATOM     37  F2  UNL A   1       4.843  35.549  -6.056  1.00  0.00    +0.000 F 
ATOM     38  C27 UNL A   1       6.798  36.253  -4.950  1.00  0.00    +0.000 C 
ATOM     39  F3  UNL A   1       6.827  37.380  -5.672  1.00  0.00    +0.000 F 
ATOM     40  C28 UNL A   1       7.800  35.988  -4.041  1.00  0.00    +0.000 C 
ATOM     41  F4  UNL A   1       8.790  36.871  -3.853  1.00  0.00    +0.000 F 
ATOM     42  C29 UNL A   1       7.837  34.765  -3.373  1.00  0.00    +0.000 C 
ATOM     43  F5  UNL A   1       8.934  34.556  -2.636  1.00  0.00    +0.000 F 
ENDBRANCH   32   33
BRANCH   49   50
ATOM     50  C35 UNL A   1      11.541  28.774  -3.281  1.00  0.00    +0.000 C 
ATOM     51  C36 UNL A   1      11.237  27.822  -2.292  1.00  0.00    +0.000 C 
ATOM     52  F6  UNL A   1      10.449  28.137  -1.257  1.00  0.00    +0.000 F 
ATOM     53  C37 UNL A   1      11.691  26.506  -2.381  1.00  0.00    +0.000 C 
ATOM     54  F7  UNL A   1      11.388  25.622  -1.418  1.00  0.00    +0.000 F 
ATOM     55  C38 UNL A   1      12.422  26.100  -3.483  1.00  0.00    +0.000 C 
ATOM     56  F8  UNL A   1      12.823  24.826  -3.594  1.00  0.00    +0.000 F 
ATOM     57  C39 UNL A   1      12.713  27.011  -4.486  1.00  0.00    +0.000 C 
ATOM     58  F9  UNL A   1      13.376  26.612  -5.579  1.00  0.00    +0.000 F 
ATOM     59  C40 UNL A   1      12.289  28.334  -4.380  1.00  0.00    +0.000 C 
ATOM     60  F10 UNL A   1      12.564  29.180  -5.385  1.00  0.00    +0.000 F 
ENDBRANCH   49   50
BRANCH   64   65
ATOM     65  C44 UNL A   1      13.901  32.330   1.370  1.00  0.00    +0.000 C 
ATOM     66  C45 UNL A   1      15.285  32.142   1.226  1.00  0.00    +0.000 C 
ATOM     67  F11 UNL A   1      15.751  31.106   0.514  1.00  0.00    +0.000 F 
ATOM     68  C46 UNL A   1      16.208  33.052   1.754  1.00  0.00    +0.000 C 
ATOM     69  F12 UNL A   1      17.520  32.869   1.550  1.00  0.00    +0.000 F 
ATOM     70  C47 UNL A   1      15.772  34.175   2.439  1.00  0.00    +0.000 C 
ATOM     71  F13 UNL A   1      16.653  35.079   2.890  1.00  0.00    +0.000 F 
ATOM     72  C48 UNL A   1      14.416  34.378   2.617  1.00  0.00    +0.000 C 
ATOM     73  F14 UNL A   1      13.979  35.480   3.242  1.00  0.00    +0.000 F 
ATOM     74  C49 UNL A   1      13.495  33.470   2.091  1.00  0.00    +0.000 C 
ATOM     75  F15 UNL A   1      12.195  33.774   2.216  1.00  0.00    +0.000 F 
ENDBRANCH   64   65
TORSDOF 19
ENDMDL
MODEL 6
REMARK VINA RESULT:     -10.4     29.726     34.392
ROOT
ATOM     28  C20 UNL A   1      40.167  29.139  29.443  1.00  0.00    +0.000 C 
ATOM     29  C21 UNL A   1      40.588  28.899  30.843  1.00  0.00    +0.000 C 
ATOM     30  N6  UNL A   1      41.595  29.419  31.461  1.00  0.00    +0.000 N 
ATOM     31  C22 UNL A   1      41.597  28.857  32.733  1.00  0.00    +0.000 C 
ATOM     32  C23 UNL A   1      42.746  28.782  33.462  1.00  0.00    +0.000 C 
ATOM     44  C30 UNL A   1      43.759  29.650  32.913  1.00  0.00    +0.000 C 
ATOM     45  C31 UNL A   1      43.869  31.016  32.741  1.00  0.00    +0.000 C 
ATOM     46  C32 UNL A   1      44.488  31.177  31.466  1.00  0.00    +0.000 C 
ATOM     47  C33 UNL A   1      44.794  29.908  30.971  1.00  0.00    +0.000 C 
ATOM     48  N7  UNL A   1      44.690  29.093  32.070  1.00  0.00    +0.000 N 
ATOM     49  C34 UNL A   1      45.084  29.422  29.641  1.00  0.00    +0.000 C 
ATOM     61  C41 UNL A   1      44.974  28.120  29.245  1.00  0.00    +0.000 C 
ATOM     62  N8  UNL A   1      44.882  27.783  27.901  1.00  0.00    +0.000 N 
ATOM     63  C42 UNL A   1      44.235  26.647  27.886  1.00  0.00    +0.000 C 
ATOM     64  C43 UNL A   1      43.172  26.334  26.892  1.00  0.00    +0.000 C 
ATOM     76  C50 UNL A   1      42.156  27.199  27.135  1.00  0.00    +0.000 C 
ATOM     77  C51 UNL A   1      41.056  27.610  26.296  1.00  0.00    +0.000 C 
ATOM     78  C52 UNL A   1      40.321  28.510  26.981  1.00  0.00    +0.000 C 
ATOM     79  C53 UNL A   1      40.792  28.591  28.372  1.00  0.00    +0.000 C 
ATOM     80  N9  UNL A   1      41.960  27.872  28.361  1.00  0.00    +0.000 N 
ATOM     81  C54 UNL A   1      44.197  25.927  29.149  1.00  0.00    +0.000 C 
ATOM     82  C55 UNL A   1      44.572  26.915  29.968  1.00  0.00    +0.000 C 
ATOM     83  C56 UNL A   1      40.323  28.205  32.887  1.00  0.00    +0.000 C 
ATOM     84  C57 UNL A   1      39.707  28.099  31.708  1.00  0.00    +0.000 C 
ATOM    112  H22 UNL A   1      43.569  31.757  33.393  1.00  0.00    +0.000 H 
ATOM    113  H23 UNL A   1      44.677  32.074  30.992  1.00  0.00    +0.000 H 
ATOM    114  H24 UNL A   1      45.191  28.260  32.226  1.00  0.00    +0.000 H 
ATOM    115  H25 UNL A   1      40.864  27.274  25.339  1.00  0.00    +0.000 H 
ATOM    116  H26 UNL A   1      39.543  29.061  26.586  1.00  0.00    +0.000 H 
ATOM    117  H27 UNL A   1      42.587  27.829  29.119  1.00  0.00    +0.000 H 
ATOM    118  H28 UNL A   1      43.953  24.945  29.353  1.00  0.00    +0.000 H 
ATOM    119  H29 UNL A   1      44.576  26.836  30.997  1.00  0.00    +0.000 H 
ATOM    120  H30 UNL A   1      39.941  27.866  33.784  1.00  0.00    +0.000 H 
ATOM    121  H31 UNL A   1      38.842  27.590  31.468  1.00  0.00    +0.000 H 
ENDROOT
BRANCH   28   27
ATOM    122  H32 UNL A   1      39.769  31.681  29.282  1.00  0.00    +0.000 H 
ATOM     27  C19 UNL A   1      38.869  29.774  29.300  1.00  0.00    +0.000 C 
ATOM    110  H20 UNL A   1      35.609  29.298  28.703  1.00  0.00    +0.000 H 
ATOM    111  H21 UNL A   1      37.678  28.032  29.063  1.00  0.00    +0.000 H 
ATOM     85  C58 UNL A   1      38.882  31.157  29.348  1.00  0.00    +0.000 C 
ATOM     86  C59 UNL A   1      37.697  31.808  29.485  1.00  0.00    +0.000 C 
ATOM     24  C16 UNL A   1      36.524  31.166  29.118  1.00  0.00    +0.000 C 
ATOM     25  C17 UNL A   1      36.490  29.779  28.942  1.00  0.00    +0.000 C 
ATOM     26  C18 UNL A   1      37.676  29.064  29.097  1.00  0.00    +0.000 C 
ATOM    123  H33 UNL A   1      37.670  32.770  29.859  1.00  0.00    +0.000 H 
BRANCH   24   22
ATOM     22  C15 UNL A   1      35.362  32.038  28.873  1.00  0.00    +0.000 C 
ATOM     23  O3  UNL A   1      34.447  31.672  28.162  1.00  0.00    +0.000 O 
BRANCH   22   21
ATOM    109  H19 UNL A   1      35.975  33.950  29.151  1.00  0.00    +0.000 H 
ATOM     21  N5  UNL A   1      35.348  33.277  29.502  1.00  0.00    +0.000 N 
BRANCH   21   20
ATOM    108  H18 UNL A   1      33.486  33.653  30.311  1.00  0.00    +0.000 H 
ATOM    107  H17 UNL A   1      34.783  34.691  30.914  1.00  0.00    +0.000 H 
ATOM     20  C14 UNL A   1      34.507  33.698  30.629  1.00  0.00    +0.000 C 
BRANCH   20   19
ATOM    105  H15 UNL A   1      33.959  31.981  31.740  1.00  0.00    +0.000 H 
ATOM    106  H16 UNL A   1      35.669  32.435  31.844  1.00  0.00    +0.000 H 
ATOM     19  C13 UNL A   1      34.658  32.786  31.832  1.00  0.00    +0.000 C 
BRANCH   19   18
ATOM     18  C12 UNL A   1      34.405  33.505  33.165  1.00  0.00    +0.000 C 
ATOM    103  H13 UNL A   1      33.605  34.200  33.016  1.00  0.00    +0.000 H 
ATOM    104  H14 UNL A   1      34.187  32.731  33.872  1.00  0.00    +0.000 H 
BRANCH   18   17
ATOM     17  C11 UNL A   1      35.597  34.278  33.756  1.00  0.00    +0.000 C 
ATOM    101  H11 UNL A   1      35.540  35.288  33.408  1.00  0.00    +0.000 H 
ATOM    102  H12 UNL A   1      35.515  34.183  34.818  1.00  0.00    +0.000 H 
BRANCH   17   16
ATOM     99  H9  UNL A   1      37.554  33.617  34.287  1.00  0.00    +0.000 H 
ATOM    100  H10 UNL A   1      36.834  32.794  32.890  1.00  0.00    +0.000 H 
ATOM     16  C10 UNL A   1      36.983  33.729  33.389  1.00  0.00    +0.000 C 
BRANCH   16   15
ATOM     97  H7  UNL A   1      37.484  34.406  31.423  1.00  0.00    +0.000 H 
ATOM     98  H8  UNL A   1      37.514  35.661  32.646  1.00  0.00    +0.000 H 
ATOM     15  C9  UNL A   1      37.756  34.640  32.431  1.00  0.00    +0.000 C 
BRANCH   15   14
ATOM     14  N4  UNL A   1      39.183  34.443  32.601  1.00  0.00    +0.000 N 
ATOM     96  H6  UNL A   1      39.565  34.967  33.342  1.00  0.00    +0.000 H 
BRANCH   14   12
ATOM     12  C8  UNL A   1      40.110  33.678  31.940  1.00  0.00    +0.000 C 
ATOM     13  O2  UNL A   1      40.272  32.519  32.323  1.00  0.00    +0.000 O 
BRANCH   12   11
ATOM      8  C4  UNL A   1      42.720  35.526  29.115  1.00  0.00    +0.000 C 
ATOM      9  C5  UNL A   1      43.252  34.870  30.223  1.00  0.00    +0.000 C 
ATOM     10  C6  UNL A   1      42.371  34.244  31.112  1.00  0.00    +0.000 C 
ATOM     11  C7  UNL A   1      40.987  34.213  30.860  1.00  0.00    +0.000 C 
ATOM     87  C60 UNL A   1      40.515  34.707  29.643  1.00  0.00    +0.000 C 
ATOM     88  C61 UNL A   1      41.363  35.419  28.799  1.00  0.00    +0.000 C 
ATOM    124  H34 UNL A   1      39.534  34.542  29.366  1.00  0.00    +0.000 H 
ATOM    125  H35 UNL A   1      40.992  35.866  27.945  1.00  0.00    +0.000 H 
ATOM     94  H4  UNL A   1      44.270  34.845  30.384  1.00  0.00    +0.000 H 
ATOM     95  H5  UNL A   1      42.742  33.799  31.965  1.00  0.00    +0.000 H 
BRANCH    8    7
ATOM      4  C3  UNL A   1      44.288  38.010  27.137  1.00  0.00    +0.000 C 
ATOM      5  N1  UNL A   1      44.813  36.830  26.661  1.00  0.00    +0.000 N 
ATOM      6  N2  UNL A   1      44.434  35.845  27.464  1.00  0.00    +0.000 N 
ATOM      7  N3  UNL A   1      43.538  36.351  28.326  1.00  0.00    +0.000 N 
ATOM     89  C62 UNL A   1      43.518  37.735  28.257  1.00  0.00    +0.000 C 
BRANCH    4    2
ATOM      2  C2  UNL A   1      44.584  39.281  26.485  1.00  0.00    +0.000 C 
ATOM      3  O1  UNL A   1      43.694  40.093  26.232  1.00  0.00    +0.000 O 
BRANCH    2    1
ATOM      1  C1  UNL A   1      46.010  39.597  26.123  1.00  0.00    +0.000 C 
ATOM     91  H1  UNL A   1      46.034  40.446  25.472  1.00  0.00    +0.000 H 
ATOM     92  H2  UNL A   1      46.448  38.757  25.626  1.00  0.00    +0.000 H 
ATOM     93  H3  UNL A   1      46.565  39.814  27.012  1.00  0.00    +0.000 H 
ENDBRANCH    2    1
ENDBRANCH    4    2
BRANCH   89   90
ATOM     90  C63 UNL A   1      42.807  38.568  29.257  1.00  0.00    +0.000 C 
ATOM    126  H36 UNL A   1      41.802  38.738  28.929  1.00  0.00    +0.000 H 
ATOM    127  H37 UNL A   1      43.311  39.506  29.363  1.00  0.00    +0.000 H 
ATOM    128  H38 UNL A   1      42.793  38.060  30.199  1.00  0.00    +0.000 H 
ENDBRANCH   89   90
ENDBRANCH    8    7
ENDBRANCH   12   11
ENDBRANCH   14   12
ENDBRANCH   15   14
ENDBRANCH   16   15
ENDBRANCH   17   16
ENDBRANCH   18   17
ENDBRANCH   19   18
ENDBRANCH   20   19
ENDBRANCH   21   20
ENDBRANCH   22   21
ENDBRANCH   24   22
ENDBRANCH   28   27
BRANCH   32   33
ATOM     33  C24 UNL A   1      43.080  27.685  34.442  1.00  0.00    +0.000 C 
ATOM     34  C25 UNL A   1      43.402  26.405  33.948  1.00  0.00    +0.000 C 
ATOM     35  F1  UNL A   1      43.667  26.221  32.646  1.00  0.00    +0.000 F 
ATOM     36  C26 UNL A   1      43.374  25.270  34.763  1.00  0.00    +0.000 C 
ATOM     37  F2  UNL A   1      43.564  24.058  34.221  1.00  0.00    +0.000 F 
ATOM     38  C27 UNL A   1      43.084  25.379  36.109  1.00  0.00    +0.000 C 
ATOM     39  F3  UNL A   1      42.995  24.287  36.878  1.00  0.00    +0.000 F 
ATOM     40  C28 UNL A   1      42.840  26.625  36.647  1.00  0.00    +0.000 C 
ATOM     41  F4  UNL A   1      42.544  26.751  37.948  1.00  0.00    +0.000 F 
ATOM     42  C29 UNL A   1      42.815  27.752  35.827  1.00  0.00    +0.000 C 
ATOM     43  F5  UNL A   1      42.417  28.880  36.426  1.00  0.00    +0.000 F 
ENDBRANCH   32   33
BRANCH   49   50
ATOM     50  C35 UNL A   1      45.310  30.465  28.576  1.00  0.00    +0.000 C 
ATOM     51  C36 UNL A   1      44.280  31.205  27.969  1.00  0.00    +0.000 C 
ATOM     52  F6  UNL A   1      42.998  30.973  28.274  1.00  0.00    +0.000 F 
ATOM     53  C37 UNL A   1      44.555  32.244  27.079  1.00  0.00    +0.000 C 
ATOM     54  F7  UNL A   1      43.550  32.928  26.513  1.00  0.00    +0.000 F 
ATOM     55  C38 UNL A   1      45.866  32.594  26.809  1.00  0.00    +0.000 C 
ATOM     56  F8  UNL A   1      46.134  33.619  25.988  1.00  0.00    +0.000 F 
ATOM     57  C39 UNL A   1      46.900  31.899  27.415  1.00  0.00    +0.000 C 
ATOM     58  F9  UNL A   1      48.170  32.265  27.197  1.00  0.00    +0.000 F 
ATOM     59  C40 UNL A   1      46.625  30.839  28.277  1.00  0.00    +0.000 C 
ATOM     60  F10 UNL A   1      47.652  30.208  28.867  1.00  0.00    +0.000 F 
ENDBRANCH   49   50
BRANCH   64   65
ATOM     65  C44 UNL A   1      43.133  25.072  26.121  1.00  0.00    +0.000 C 
ATOM     66  C45 UNL A   1      44.100  24.779  25.146  1.00  0.00    +0.000 C 
ATOM     67  F11 UNL A   1      44.952  25.730  24.738  1.00  0.00    +0.000 F 
ATOM     68  C46 UNL A   1      44.249  23.488  24.626  1.00  0.00    +0.000 C 
ATOM     69  F12 UNL A   1      45.218  23.233  23.736  1.00  0.00    +0.000 F 
ATOM     70  C47 UNL A   1      43.436  22.456  25.067  1.00  0.00    +0.000 C 
ATOM     71  F13 UNL A   1      43.620  21.207  24.616  1.00  0.00    +0.000 F 
ATOM     72  C48 UNL A   1      42.460  22.716  26.010  1.00  0.00    +0.000 C 
ATOM     73  F14 UNL A   1      41.695  21.719  26.476  1.00  0.00    +0.000 F 
ATOM     74  C49 UNL A   1      42.311  24.003  26.529  1.00  0.00    +0.000 C 
ATOM     75  F15 UNL A   1      41.410  24.169  27.510  1.00  0.00    +0.000 F 
ENDBRANCH   64   65
TORSDOF 19
ENDMDL
MODEL 7
REMARK VINA RESULT:     -10.3     38.249     43.315
ROOT
ATOM     28  C20 UNL A   1       2.177  11.340  41.876  1.00  0.00    +0.000 C 
ATOM     29  C21 UNL A   1       1.228  12.352  41.355  1.00  0.00    +0.000 C 
ATOM     30  N6  UNL A   1       1.460  13.266  40.475  1.00  0.00    +0.000 N 
ATOM     31  C22 UNL A   1       0.278  13.988  40.351  1.00  0.00    +0.000 C 
ATOM     32  C23 UNL A   1       0.289  15.279  39.914  1.00  0.00    +0.000 C 
ATOM     44  C30 UNL A   1       1.551  15.598  39.293  1.00  0.00    +0.000 C 
ATOM     45  C31 UNL A   1       2.221  15.137  38.177  1.00  0.00    +0.000 C 
ATOM     46  C32 UNL A   1       3.592  15.078  38.569  1.00  0.00    +0.000 C 
ATOM     47  C33 UNL A   1       3.691  15.583  39.867  1.00  0.00    +0.000 C 
ATOM     48  N7  UNL A   1       2.498  16.234  40.059  1.00  0.00    +0.000 N 
ATOM     49  C34 UNL A   1       4.705  15.455  40.889  1.00  0.00    +0.000 C 
ATOM     61  C41 UNL A   1       4.498  15.661  42.223  1.00  0.00    +0.000 C 
ATOM     62  N8  UNL A   1       5.373  15.153  43.174  1.00  0.00    +0.000 N 
ATOM     63  C42 UNL A   1       4.646  15.006  44.250  1.00  0.00    +0.000 C 
ATOM     64  C43 UNL A   1       4.750  13.817  45.139  1.00  0.00    +0.000 C 
ATOM     76  C50 UNL A   1       4.331  12.755  44.407  1.00  0.00    +0.000 C 
ATOM     77  C51 UNL A   1       4.548  11.341  44.598  1.00  0.00    +0.000 C 
ATOM     78  C52 UNL A   1       3.946  10.685  43.586  1.00  0.00    +0.000 C 
ATOM     79  C53 UNL A   1       3.143  11.621  42.784  1.00  0.00    +0.000 C 
ATOM     80  N9  UNL A   1       3.513  12.853  43.259  1.00  0.00    +0.000 N 
ATOM     81  C54 UNL A   1       3.394  15.746  44.272  1.00  0.00    +0.000 C 
ATOM     82  C55 UNL A   1       3.303  16.046  42.973  1.00  0.00    +0.000 C 
ATOM     83  C56 UNL A   1      -0.739  13.211  41.009  1.00  0.00    +0.000 C 
ATOM     84  C57 UNL A   1      -0.186  12.248  41.749  1.00  0.00    +0.000 C 
ATOM    112  H22 UNL A   1       1.818  14.888  37.260  1.00  0.00    +0.000 H 
ATOM    113  H23 UNL A   1       4.373  14.725  37.994  1.00  0.00    +0.000 H 
ATOM    114  H24 UNL A   1       2.348  17.014  40.640  1.00  0.00    +0.000 H 
ATOM    115  H25 UNL A   1       5.071  10.908  45.375  1.00  0.00    +0.000 H 
ATOM    116  H26 UNL A   1       4.037   9.673  43.399  1.00  0.00    +0.000 H 
ATOM    117  H27 UNL A   1       3.240  13.706  42.850  1.00  0.00    +0.000 H 
ATOM    118  H28 UNL A   1       2.765  15.973  45.058  1.00  0.00    +0.000 H 
ATOM    119  H29 UNL A   1       2.480  16.499  42.546  1.00  0.00    +0.000 H 
ATOM    120  H30 UNL A   1      -1.755  13.377  40.922  1.00  0.00    +0.000 H 
ATOM    121  H31 UNL A   1      -0.632  11.603  42.419  1.00  0.00    +0.000 H 
ENDROOT
BRANCH   28   27
ATOM    122  H32 UNL A   1       3.343   9.880  40.100  1.00  0.00    +0.000 H 
ATOM     27  C19 UNL A   1       1.829   9.964  41.565  1.00  0.00    +0.000 C 
ATOM    110  H20 UNL A   1       0.047   7.286  42.492  1.00  0.00    +0.000 H 
ATOM    111  H21 UNL A   1       0.388   9.639  43.090  1.00  0.00    +0.000 H 
ATOM     85  C58 UNL A   1       2.513   9.412  40.497  1.00  0.00    +0.000 C 
ATOM     86  C59 UNL A   1       2.064   8.237  39.982  1.00  0.00    +0.000 C 
ATOM     24  C16 UNL A   1       1.277   7.409  40.770  1.00  0.00    +0.000 C 
ATOM     25  C17 UNL A   1       0.660   7.894  41.926  1.00  0.00    +0.000 C 
ATOM     26  C18 UNL A   1       0.893   9.217  42.295  1.00  0.00    +0.000 C 
ATOM    123  H33 UNL A   1       2.306   7.963  39.017  1.00  0.00    +0.000 H 
BRANCH   24   22
ATOM     22  C15 UNL A   1       1.194   6.001  40.341  1.00  0.00    +0.000 C 
ATOM     23  O3  UNL A   1       0.161   5.374  40.461  1.00  0.00    +0.000 O 
BRANCH   22   21
ATOM    109  H19 UNL A   1       3.156   5.492  40.315  1.00  0.00    +0.000 H 
ATOM     21  N5  UNL A   1       2.333   5.436  39.779  1.00  0.00    +0.000 N 
BRANCH   21   20
ATOM    108  H18 UNL A   1       1.561   4.183  38.331  1.00  0.00    +0.000 H 
ATOM    107  H17 UNL A   1       3.322   4.146  38.486  1.00  0.00    +0.000 H 
ATOM     20  C14 UNL A   1       2.448   4.763  38.479  1.00  0.00    +0.000 C 
BRANCH   20   19
ATOM    105  H15 UNL A   1       1.581   5.891  36.911  1.00  0.00    +0.000 H 
ATOM    106  H16 UNL A   1       2.956   6.659  37.723  1.00  0.00    +0.000 H 
ATOM     19  C13 UNL A   1       2.555   5.748  37.330  1.00  0.00    +0.000 C 
BRANCH   19   18
ATOM     18  C12 UNL A   1       3.501   5.271  36.218  1.00  0.00    +0.000 C 
ATOM    103  H13 UNL A   1       3.150   4.321  35.875  1.00  0.00    +0.000 H 
ATOM    104  H14 UNL A   1       3.482   6.041  35.475  1.00  0.00    +0.000 H 
BRANCH   18   17
ATOM     17  C11 UNL A   1       4.982   5.113  36.609  1.00  0.00    +0.000 C 
ATOM    101  H11 UNL A   1       5.113   5.535  37.583  1.00  0.00    +0.000 H 
ATOM    102  H12 UNL A   1       5.190   4.065  36.562  1.00  0.00    +0.000 H 
BRANCH   17   16
ATOM     99  H9  UNL A   1       6.887   5.983  36.206  1.00  0.00    +0.000 H 
ATOM    100  H10 UNL A   1       6.152   5.117  34.844  1.00  0.00    +0.000 H 
ATOM     16  C10 UNL A   1       5.987   5.786  35.663  1.00  0.00    +0.000 C 
BRANCH   16   15
ATOM     97  H7  UNL A   1       6.000   7.321  34.174  1.00  0.00    +0.000 H 
ATOM     98  H8  UNL A   1       4.425   7.013  34.876  1.00  0.00    +0.000 H 
ATOM     15  C9  UNL A   1       5.472   7.104  35.079  1.00  0.00    +0.000 C 
BRANCH   15   14
ATOM     14  N4  UNL A   1       5.680   8.183  36.027  1.00  0.00    +0.000 N 
ATOM     96  H6  UNL A   1       6.516   8.681  35.875  1.00  0.00    +0.000 H 
BRANCH   14   12
ATOM     12  C8  UNL A   1       4.952   8.650  37.091  1.00  0.00    +0.000 C 
ATOM     13  O2  UNL A   1       5.274   8.266  38.216  1.00  0.00    +0.000 O 
BRANCH   12   11
ATOM      8  C4  UNL A   1       1.453  11.092  37.071  1.00  0.00    +0.000 C 
ATOM      9  C5  UNL A   1       2.659  11.614  37.535  1.00  0.00    +0.000 C 
ATOM     10  C6  UNL A   1       3.796  10.799  37.496  1.00  0.00    +0.000 C 
ATOM     11  C7  UNL A   1       3.744   9.508  36.936  1.00  0.00    +0.000 C 
ATOM     87  C60 UNL A   1       2.570   9.098  36.303  1.00  0.00    +0.000 C 
ATOM     88  C61 UNL A   1       1.407   9.855  36.423  1.00  0.00    +0.000 C 
ATOM    124  H34 UNL A   1       2.563   8.231  35.743  1.00  0.00    +0.000 H 
ATOM    125  H35 UNL A   1       0.516   9.505  36.037  1.00  0.00    +0.000 H 
ATOM     94  H4  UNL A   1       2.714  12.578  37.898  1.00  0.00    +0.000 H 
ATOM     95  H5  UNL A   1       4.685  11.149  37.883  1.00  0.00    +0.000 H 
BRANCH    8    7
ATOM      4  C3  UNL A   1      -1.839  12.261  37.651  1.00  0.00    +0.000 C 
ATOM      5  N1  UNL A   1      -1.263  13.260  36.901  1.00  0.00    +0.000 N 
ATOM      6  N2  UNL A   1       0.035  13.009  36.789  1.00  0.00    +0.000 N 
ATOM      7  N3  UNL A   1       0.253  11.785  37.297  1.00  0.00    +0.000 N 
ATOM     89  C62 UNL A   1      -0.862  11.333  37.982  1.00  0.00    +0.000 C 
BRANCH    4    2
ATOM      2  C2  UNL A   1      -3.256  12.298  37.991  1.00  0.00    +0.000 C 
ATOM      3  O1  UNL A   1      -3.658  11.953  39.102  1.00  0.00    +0.000 O 
BRANCH    2    1
ATOM      1  C1  UNL A   1      -4.240  12.775  36.955  1.00  0.00    +0.000 C 
ATOM     91  H1  UNL A   1      -3.724  13.333  36.202  1.00  0.00    +0.000 H 
ATOM     92  H2  UNL A   1      -4.974  13.400  37.420  1.00  0.00    +0.000 H 
ATOM     93  H3  UNL A   1      -4.723  11.931  36.507  1.00  0.00    +0.000 H 
ENDBRANCH    2    1
ENDBRANCH    4    2
BRANCH   89   90
ATOM     90  C63 UNL A   1      -0.827  10.127  38.846  1.00  0.00    +0.000 C 
ATOM    126  H36 UNL A   1      -1.083  10.399  39.848  1.00  0.00    +0.000 H 
ATOM    127  H37 UNL A   1       0.157   9.707  38.830  1.00  0.00    +0.000 H 
ATOM    128  H38 UNL A   1      -1.529   9.407  38.481  1.00  0.00    +0.000 H 
ENDBRANCH   89   90
ENDBRANCH    8    7
ENDBRANCH   12   11
ENDBRANCH   14   12
ENDBRANCH   15   14
ENDBRANCH   16   15
ENDBRANCH   17   16
ENDBRANCH   18   17
ENDBRANCH   19   18
ENDBRANCH   20   19
ENDBRANCH   21   20
ENDBRANCH   22   21
ENDBRANCH   24   22
ENDBRANCH   28   27
BRANCH   32   33
ATOM     33  C24 UNL A   1      -0.680  16.349  40.350  1.00  0.00    +0.000 C 
ATOM     34  C25 UNL A   1      -1.744  16.697  39.494  1.00  0.00    +0.000 C 
ATOM     35  F1  UNL A   1      -2.054  15.925  38.440  1.00  0.00    +0.000 F 
ATOM     36  C26 UNL A   1      -2.458  17.888  39.648  1.00  0.00    +0.000 C 
ATOM     37  F2  UNL A   1      -3.376  18.235  38.734  1.00  0.00    +0.000 F 
ATOM     38  C27 UNL A   1      -2.178  18.744  40.695  1.00  0.00    +0.000 C 
ATOM     39  F3  UNL A   1      -2.817  19.914  40.809  1.00  0.00    +0.000 F 
ATOM     40  C28 UNL A   1      -1.196  18.401  41.601  1.00  0.00    +0.000 C 
ATOM     41  F4  UNL A   1      -0.900  19.224  42.616  1.00  0.00    +0.000 F 
ATOM     42  C29 UNL A   1      -0.447  17.240  41.420  1.00  0.00    +0.000 C 
ATOM     43  F5  UNL A   1       0.577  17.089  42.267  1.00  0.00    +0.000 F 
ENDBRANCH   32   33
BRANCH   49   50
ATOM     50  C35 UNL A   1       6.014  14.839  40.468  1.00  0.00    +0.000 C 
ATOM     51  C36 UNL A   1       6.208  13.461  40.267  1.00  0.00    +0.000 C 
ATOM     52  F6  UNL A   1       5.220  12.589  40.503  1.00  0.00    +0.000 F 
ATOM     53  C37 UNL A   1       7.405  12.959  39.758  1.00  0.00    +0.000 C 
ATOM     54  F7  UNL A   1       7.560  11.638  39.582  1.00  0.00    +0.000 F 
ATOM     55  C38 UNL A   1       8.421  13.826  39.397  1.00  0.00    +0.000 C 
ATOM     56  F8  UNL A   1       9.557  13.351  38.868  1.00  0.00    +0.000 F 
ATOM     57  C39 UNL A   1       8.247  15.191  39.560  1.00  0.00    +0.000 C 
ATOM     58  F9  UNL A   1       9.207  16.039  39.167  1.00  0.00    +0.000 F 
ATOM     59  C40 UNL A   1       7.064  15.690  40.100  1.00  0.00    +0.000 C 
ATOM     60  F10 UNL A   1       6.920  17.019  40.216  1.00  0.00    +0.000 F 
ENDBRANCH   49   50
BRANCH   64   65
ATOM     65  C44 UNL A   1       4.884  13.916  46.610  1.00  0.00    +0.000 C 
ATOM     66  C45 UNL A   1       3.930  13.351  47.472  1.00  0.00    +0.000 C 
ATOM     67  F11 UNL A   1       2.766  12.901  46.983  1.00  0.00    +0.000 F 
ATOM     68  C46 UNL A   1       4.187  13.179  48.837  1.00  0.00    +0.000 C 
ATOM     69  F12 UNL A   1       3.274  12.587  49.620  1.00  0.00    +0.000 F 
ATOM     70  C47 UNL A   1       5.403  13.567  49.376  1.00  0.00    +0.000 C 
ATOM     71  F13 UNL A   1       5.673  13.345  50.671  1.00  0.00    +0.000 F 
ATOM     72  C48 UNL A   1       6.355  14.146  48.559  1.00  0.00    +0.000 C 
ATOM     73  F14 UNL A   1       7.550  14.488  49.059  1.00  0.00    +0.000 F 
ATOM     74  C49 UNL A   1       6.100  14.318  47.197  1.00  0.00    +0.000 C 
ATOM     75  F15 UNL A   1       7.099  14.798  46.442  1.00  0.00    +0.000 F 
ENDBRANCH   64   65
TORSDOF 19
ENDMDL
MODEL 8
REMARK VINA RESULT:     -10.2     15.837     21.425
ROOT
ATOM     28  C20 UNL A   1       8.375  30.168   0.325  1.00  0.00    +0.000 C 
ATOM     29  C21 UNL A   1       7.656  30.986  -0.680  1.00  0.00    +0.000 C 
ATOM     30  N6  UNL A   1       7.524  30.745  -1.941  1.00  0.00    +0.000 N 
ATOM     31  C22 UNL A   1       6.808  31.816  -2.464  1.00  0.00    +0.000 C 
ATOM     32  C23 UNL A   1       6.909  32.149  -3.782  1.00  0.00    +0.000 C 
ATOM     44  C30 UNL A   1       7.508  31.075  -4.536  1.00  0.00    +0.000 C 
ATOM     45  C31 UNL A   1       7.143  29.773  -4.816  1.00  0.00    +0.000 C 
ATOM     46  C32 UNL A   1       8.355  29.025  -4.736  1.00  0.00    +0.000 C 
ATOM     47  C33 UNL A   1       9.399  29.921  -4.495  1.00  0.00    +0.000 C 
ATOM     48  N7  UNL A   1       8.855  31.146  -4.791  1.00  0.00    +0.000 N 
ATOM     49  C34 UNL A   1      10.738  29.744  -3.981  1.00  0.00    +0.000 C 
ATOM     61  C41 UNL A   1      11.500  30.734  -3.430  1.00  0.00    +0.000 C 
ATOM     62  N8  UNL A   1      12.585  30.439  -2.616  1.00  0.00    +0.000 N 
ATOM     63  C42 UNL A   1      12.709  31.481  -1.836  1.00  0.00    +0.000 C 
ATOM     64  C43 UNL A   1      13.007  31.371  -0.382  1.00  0.00    +0.000 C 
ATOM     76  C50 UNL A   1      11.935  30.762   0.183  1.00  0.00    +0.000 C 
ATOM     77  C51 UNL A   1      11.805  30.077   1.446  1.00  0.00    +0.000 C 
ATOM     78  C52 UNL A   1      10.540  29.620   1.546  1.00  0.00    +0.000 C 
ATOM     79  C53 UNL A   1       9.725  30.145   0.440  1.00  0.00    +0.000 C 
ATOM     80  N9  UNL A   1      10.647  30.720  -0.397  1.00  0.00    +0.000 N 
ATOM     81  C54 UNL A   1      12.041  32.691  -2.289  1.00  0.00    +0.000 C 
ATOM     82  C55 UNL A   1      11.234  32.155  -3.211  1.00  0.00    +0.000 C 
ATOM     83  C56 UNL A   1       6.277  32.535  -1.335  1.00  0.00    +0.000 C 
ATOM     84  C57 UNL A   1       6.867  32.134  -0.207  1.00  0.00    +0.000 C 
ATOM    112  H22 UNL A   1       6.199  29.418  -5.036  1.00  0.00    +0.000 H 
ATOM    113  H23 UNL A   1       8.445  28.002  -4.838  1.00  0.00    +0.000 H 
ATOM    114  H24 UNL A   1       9.344  31.933  -5.125  1.00  0.00    +0.000 H 
ATOM    115  H25 UNL A   1      12.549  29.960   2.151  1.00  0.00    +0.000 H 
ATOM    116  H26 UNL A   1      10.195  28.992   2.289  1.00  0.00    +0.000 H 
ATOM    117  H27 UNL A   1      10.437  31.064  -1.295  1.00  0.00    +0.000 H 
ATOM    118  H28 UNL A   1      12.157  33.672  -1.989  1.00  0.00    +0.000 H 
ATOM    119  H29 UNL A   1      10.504  32.686  -3.710  1.00  0.00    +0.000 H 
ATOM    120  H30 UNL A   1       5.543  33.259  -1.392  1.00  0.00    +0.000 H 
ATOM    121  H31 UNL A   1       6.789  32.526   0.744  1.00  0.00    +0.000 H 
ENDROOT
BRANCH   28   27
ATOM    122  H32 UNL A   1       7.601  27.712   0.440  1.00  0.00    +0.000 H 
ATOM     27  C19 UNL A   1       7.532  29.606   1.365  1.00  0.00    +0.000 C 
ATOM    110  H20 UNL A   1       6.127  30.114   4.361  1.00  0.00    +0.000 H 
ATOM    111  H21 UNL A   1       7.435  31.290   2.653  1.00  0.00    +0.000 H 
ATOM     85  C58 UNL A   1       7.148  28.291   1.164  1.00  0.00    +0.000 C 
ATOM     86  C59 UNL A   1       6.158  27.783   1.945  1.00  0.00    +0.000 C 
ATOM     24  C16 UNL A   1       5.888  28.376   3.169  1.00  0.00    +0.000 C 
ATOM     25  C17 UNL A   1       6.357  29.660   3.463  1.00  0.00    +0.000 C 
ATOM     26  C18 UNL A   1       7.143  30.310   2.514  1.00  0.00    +0.000 C 
ATOM    123  H33 UNL A   1       5.614  26.964   1.630  1.00  0.00    +0.000 H 
BRANCH   24   22
ATOM     22  C15 UNL A   1       5.143  27.549   4.135  1.00  0.00    +0.000 C 
ATOM     23  O3  UNL A   1       5.729  26.862   4.948  1.00  0.00    +0.000 O 
BRANCH   22   21
ATOM    109  H19 UNL A   1       3.345  28.450   4.381  1.00  0.00    +0.000 H 
ATOM     21  N5  UNL A   1       3.756  27.606   4.089  1.00  0.00    +0.000 N 
BRANCH   21   20
ATOM    108  H18 UNL A   1       2.608  25.939   4.502  1.00  0.00    +0.000 H 
ATOM    107  H17 UNL A   1       3.300  25.983   2.875  1.00  0.00    +0.000 H 
ATOM     20  C14 UNL A   1       2.833  26.550   3.652  1.00  0.00    +0.000 C 
BRANCH   20   19
ATOM    105  H15 UNL A   1       1.283  26.614   2.211  1.00  0.00    +0.000 H 
ATOM    106  H16 UNL A   1       0.780  26.948   3.877  1.00  0.00    +0.000 H 
ATOM     19  C13 UNL A   1       1.525  27.112   3.127  1.00  0.00    +0.000 C 
BRANCH   19   18
ATOM     18  C12 UNL A   1       1.585  28.624   2.861  1.00  0.00    +0.000 C 
ATOM    103  H13 UNL A   1       1.583  29.123   3.808  1.00  0.00    +0.000 H 
ATOM    104  H14 UNL A   1       2.473  28.779   2.285  1.00  0.00    +0.000 H 
BRANCH   18   17
ATOM     17  C11 UNL A   1       0.439  29.210   2.017  1.00  0.00    +0.000 C 
ATOM    101  H11 UNL A   1       0.745  29.199   0.993  1.00  0.00    +0.000 H 
ATOM    102  H12 UNL A   1      -0.418  28.602   2.219  1.00  0.00    +0.000 H 
BRANCH   17   16
ATOM     99  H9  UNL A   1      -0.768  30.607   3.085  1.00  0.00    +0.000 H 
ATOM    100  H10 UNL A   1       0.895  31.136   2.768  1.00  0.00    +0.000 H 
ATOM     16  C10 UNL A   1       0.030  30.647   2.373  1.00  0.00    +0.000 C 
BRANCH   16   15
ATOM     97  H7  UNL A   1      -0.352  30.856   0.279  1.00  0.00    +0.000 H 
ATOM     98  H8  UNL A   1      -1.460  31.744   1.305  1.00  0.00    +0.000 H 
ATOM     15  C9  UNL A   1      -0.439  31.455   1.161  1.00  0.00    +0.000 C 
BRANCH   15   14
ATOM     14  N4  UNL A   1       0.376  32.647   1.013  1.00  0.00    +0.000 N 
ATOM     96  H6  UNL A   1      -0.009  33.441   1.450  1.00  0.00    +0.000 H 
BRANCH   14   12
ATOM     12  C8  UNL A   1       1.571  32.894   0.388  1.00  0.00    +0.000 C 
ATOM     13  O2  UNL A   1       1.845  34.065   0.122  1.00  0.00    +0.000 O 
BRANCH   12   11
ATOM      8  C4  UNL A   1       3.862  29.564  -0.979  1.00  0.00    +0.000 C 
ATOM      9  C5  UNL A   1       3.122  30.316  -1.889  1.00  0.00    +0.000 C 
ATOM     10  C6  UNL A   1       2.410  31.423  -1.414  1.00  0.00    +0.000 C 
ATOM     11  C7  UNL A   1       2.492  31.814  -0.065  1.00  0.00    +0.000 C 
ATOM     87  C60 UNL A   1       3.397  31.157   0.770  1.00  0.00    +0.000 C 
ATOM     88  C61 UNL A   1       4.033  29.995   0.340  1.00  0.00    +0.000 C 
ATOM    124  H34 UNL A   1       3.596  31.533   1.711  1.00  0.00    +0.000 H 
ATOM    125  H35 UNL A   1       4.628  29.457   0.989  1.00  0.00    +0.000 H 
ATOM     94  H4  UNL A   1       3.101  30.064  -2.889  1.00  0.00    +0.000 H 
ATOM     95  H5  UNL A   1       1.815  31.960  -2.064  1.00  0.00    +0.000 H 
BRANCH    8    7
ATOM      4  C3  UNL A   1       4.991  26.234  -1.397  1.00  0.00    +0.000 C 
ATOM      5  N1  UNL A   1       5.949  26.988  -2.034  1.00  0.00    +0.000 N 
ATOM      6  N2  UNL A   1       5.523  28.243  -2.101  1.00  0.00    +0.000 N 
ATOM      7  N3  UNL A   1       4.404  28.327  -1.363  1.00  0.00    +0.000 N 
ATOM     89  C62 UNL A   1       3.948  27.065  -1.019  1.00  0.00    +0.000 C 
BRANCH    4    2
ATOM      2  C2  UNL A   1       5.159  24.795  -1.227  1.00  0.00    +0.000 C 
ATOM      3  O1  UNL A   1       4.852  24.235  -0.174  1.00  0.00    +0.000 O 
BRANCH    2    1
ATOM      1  C1  UNL A   1       5.717  23.987  -2.368  1.00  0.00    +0.000 C 
ATOM     91  H1  UNL A   1       5.319  22.994  -2.331  1.00  0.00    +0.000 H 
ATOM     92  H2  UNL A   1       6.783  23.947  -2.290  1.00  0.00    +0.000 H 
ATOM     93  H3  UNL A   1       5.444  24.446  -3.297  1.00  0.00    +0.000 H 
ENDBRANCH    2    1
ENDBRANCH    4    2
BRANCH   89   90
ATOM     90  C63 UNL A   1       2.610  26.844  -0.417  1.00  0.00    +0.000 C 
ATOM    126  H36 UNL A   1       2.244  27.764  -0.013  1.00  0.00    +0.000 H 
ATOM    127  H37 UNL A   1       2.687  26.116   0.364  1.00  0.00    +0.000 H 
ATOM    128  H38 UNL A   1       1.935  26.491  -1.169  1.00  0.00    +0.000 H 
ENDBRANCH   89   90
ENDBRANCH    8    7
ENDBRANCH   12   11
ENDBRANCH   14   12
ENDBRANCH   15   14
ENDBRANCH   16   15
ENDBRANCH   17   16
ENDBRANCH   18   17
ENDBRANCH   19   18
ENDBRANCH   20   19
ENDBRANCH   21   20
ENDBRANCH   22   21
ENDBRANCH   24   22
ENDBRANCH   28   27
BRANCH   32   33
ATOM     33  C24 UNL A   1       6.803  33.549  -4.332  1.00  0.00    +0.000 C 
ATOM     34  C25 UNL A   1       7.780  34.499  -3.972  1.00  0.00    +0.000 C 
ATOM     35  F1  UNL A   1       8.919  34.116  -3.375  1.00  0.00    +0.000 F 
ATOM     36  C26 UNL A   1       7.573  35.871  -4.137  1.00  0.00    +0.000 C 
ATOM     37  F2  UNL A   1       8.477  36.741  -3.665  1.00  0.00    +0.000 F 
ATOM     38  C27 UNL A   1       6.412  36.340  -4.722  1.00  0.00    +0.000 C 
ATOM     39  F3  UNL A   1       6.184  37.655  -4.824  1.00  0.00    +0.000 F 
ATOM     40  C28 UNL A   1       5.466  35.438  -5.159  1.00  0.00    +0.000 C 
ATOM     41  F4  UNL A   1       4.328  35.874  -5.717  1.00  0.00    +0.000 F 
ATOM     42  C29 UNL A   1       5.646  34.073  -4.948  1.00  0.00    +0.000 C 
ATOM     43  F5  UNL A   1       4.598  33.306  -5.271  1.00  0.00    +0.000 F 
ENDBRANCH   32   33
BRANCH   49   50
ATOM     50  C35 UNL A   1      11.228  28.325  -3.849  1.00  0.00    +0.000 C 
ATOM     51  C36 UNL A   1      12.228  27.759  -4.660  1.00  0.00    +0.000 C 
ATOM     52  F6  UNL A   1      12.773  28.458  -5.663  1.00  0.00    +0.000 F 
ATOM     53  C37 UNL A   1      12.731  26.481  -4.414  1.00  0.00    +0.000 C 
ATOM     54  F7  UNL A   1      13.682  25.968  -5.209  1.00  0.00    +0.000 F 
ATOM     55  C38 UNL A   1      12.278  25.758  -3.326  1.00  0.00    +0.000 C 
ATOM     56  F8  UNL A   1      12.789  24.547  -3.061  1.00  0.00    +0.000 F 
ATOM     57  C39 UNL A   1      11.312  26.302  -2.494  1.00  0.00    +0.000 C 
ATOM     58  F9  UNL A   1      10.906  25.627  -1.411  1.00  0.00    +0.000 F 
ATOM     59  C40 UNL A   1      10.786  27.564  -2.760  1.00  0.00    +0.000 C 
ATOM     60  F10 UNL A   1       9.874  28.071  -1.916  1.00  0.00    +0.000 F 
ENDBRANCH   49   50
BRANCH   64   65
ATOM     65  C44 UNL A   1      14.069  32.156   0.287  1.00  0.00    +0.000 C 
ATOM     66  C45 UNL A   1      13.761  33.243   1.121  1.00  0.00    +0.000 C 
ATOM     67  F11 UNL A   1      12.512  33.729   1.157  1.00  0.00    +0.000 F 
ATOM     68  C46 UNL A   1      14.714  33.800   1.981  1.00  0.00    +0.000 C 
ATOM     69  F12 UNL A   1      14.370  34.802   2.803  1.00  0.00    +0.000 F 
ATOM     70  C47 UNL A   1      16.000  33.287   2.029  1.00  0.00    +0.000 C 
ATOM     71  F13 UNL A   1      16.896  33.779   2.898  1.00  0.00    +0.000 F 
ATOM     72  C48 UNL A   1      16.342  32.231   1.205  1.00  0.00    +0.000 C 
ATOM     73  F14 UNL A   1      17.570  31.698   1.271  1.00  0.00    +0.000 F 
ATOM     74  C49 UNL A   1      15.391  31.675   0.347  1.00  0.00    +0.000 C 
ATOM     75  F15 UNL A   1      15.759  30.593  -0.357  1.00  0.00    +0.000 F 
ENDBRANCH   64   65
TORSDOF 19
ENDMDL
MODEL 9
REMARK VINA RESULT:     -10.2     28.380     33.218
ROOT
ATOM     28  C20 UNL A   1       9.893   0.861  22.118  1.00  0.00    +0.000 C 
ATOM     29  C21 UNL A   1      11.188   0.695  22.819  1.00  0.00    +0.000 C 
ATOM     30  N6  UNL A   1      11.465  -0.129  23.773  1.00  0.00    +0.000 N 
ATOM     31  C22 UNL A   1      12.788   0.120  24.124  1.00  0.00    +0.000 C 
ATOM     32  C23 UNL A   1      13.251  -0.186  25.368  1.00  0.00    +0.000 C 
ATOM     44  C30 UNL A   1      12.343  -1.078  26.047  1.00  0.00    +0.000 C 
ATOM     45  C31 UNL A   1      11.900  -2.365  25.815  1.00  0.00    +0.000 C 
ATOM     46  C32 UNL A   1      10.514  -2.343  26.151  1.00  0.00    +0.000 C 
ATOM     47  C33 UNL A   1      10.209  -1.073  26.645  1.00  0.00    +0.000 C 
ATOM     48  N7  UNL A   1      11.437  -0.525  26.920  1.00  0.00    +0.000 N 
ATOM     49  C34 UNL A   1       8.962  -0.361  26.802  1.00  0.00    +0.000 C 
ATOM     61  C41 UNL A   1       8.848   0.995  26.922  1.00  0.00    +0.000 C 
ATOM     62  N8  UNL A   1       7.644   1.640  26.677  1.00  0.00    +0.000 N 
ATOM     63  C42 UNL A   1       7.981   2.849  26.310  1.00  0.00    +0.000 C 
ATOM     64  C43 UNL A   1       7.318   3.569  25.191  1.00  0.00    +0.000 C 
ATOM     76  C50 UNL A   1       7.610   2.875  24.063  1.00  0.00    +0.000 C 
ATOM     77  C51 UNL A   1       6.969   2.875  22.770  1.00  0.00    +0.000 C 
ATOM     78  C52 UNL A   1       7.618   1.995  21.981  1.00  0.00    +0.000 C 
ATOM     79  C53 UNL A   1       8.833   1.514  22.655  1.00  0.00    +0.000 C 
ATOM     80  N9  UNL A   1       8.703   1.989  23.935  1.00  0.00    +0.000 N 
ATOM     81  C54 UNL A   1       9.334   3.257  26.656  1.00  0.00    +0.000 C 
ATOM     82  C55 UNL A   1       9.853   2.057  26.934  1.00  0.00    +0.000 C 
ATOM     83  C56 UNL A   1      13.333   0.943  23.076  1.00  0.00    +0.000 C 
ATOM     84  C57 UNL A   1      12.357   1.426  22.305  1.00  0.00    +0.000 C 
ATOM    112  H22 UNL A   1      12.452  -3.167  25.473  1.00  0.00    +0.000 H 
ATOM    113  H23 UNL A   1       9.852  -3.128  26.046  1.00  0.00    +0.000 H 
ATOM    114  H24 UNL A   1      11.632   0.144  27.615  1.00  0.00    +0.000 H 
ATOM    115  H25 UNL A   1       6.156   3.449  22.497  1.00  0.00    +0.000 H 
ATOM    116  H26 UNL A   1       7.306   1.700  21.042  1.00  0.00    +0.000 H 
ATOM    117  H27 UNL A   1       9.300   1.742  24.678  1.00  0.00    +0.000 H 
ATOM    118  H28 UNL A   1       9.764   4.195  26.679  1.00  0.00    +0.000 H 
ATOM    119  H29 UNL A   1      10.853   1.898  27.135  1.00  0.00    +0.000 H 
ATOM    120  H30 UNL A   1      14.339   1.134  22.942  1.00  0.00    +0.000 H 
ATOM    121  H31 UNL A   1      12.409   2.126  21.549  1.00  0.00    +0.000 H 
ENDROOT
BRANCH   28   27
ATOM    122  H32 UNL A   1      10.037  -1.529  21.164  1.00  0.00    +0.000 H 
ATOM     27  C19 UNL A   1       9.920   0.526  20.705  1.00  0.00    +0.000 C 
ATOM    110  H20 UNL A   1       9.529   1.672  17.584  1.00  0.00    +0.000 H 
ATOM    111  H21 UNL A   1       9.590   2.464  19.903  1.00  0.00    +0.000 H 
ATOM     85  C58 UNL A   1      10.116  -0.815  20.423  1.00  0.00    +0.000 C 
ATOM     86  C59 UNL A   1      10.413  -1.167  19.145  1.00  0.00    +0.000 C 
ATOM     24  C16 UNL A   1      10.071  -0.311  18.108  1.00  0.00    +0.000 C 
ATOM     25  C17 UNL A   1       9.749   1.027  18.359  1.00  0.00    +0.000 C 
ATOM     26  C18 UNL A   1       9.735   1.467  19.681  1.00  0.00    +0.000 C 
ATOM    123  H33 UNL A   1      10.888  -2.061  18.947  1.00  0.00    +0.000 H 
BRANCH   24   22
ATOM     22  C15 UNL A   1      10.012  -0.916  16.766  1.00  0.00    +0.000 C 
ATOM     23  O3  UNL A   1      10.709  -0.498  15.863  1.00  0.00    +0.000 O 
BRANCH   22   21
ATOM    109  H19 UNL A   1       9.567  -2.861  16.411  1.00  0.00    +0.000 H 
ATOM     21  N5  UNL A   1       9.147  -1.989  16.586  1.00  0.00    +0.000 N 
BRANCH   21   20
ATOM    108  H18 UNL A   1       7.322  -2.685  15.916  1.00  0.00    +0.000 H 
ATOM    107  H17 UNL A   1       7.340  -0.983  16.393  1.00  0.00    +0.000 H 
ATOM     20  C14 UNL A   1       7.679  -1.970  16.627  1.00  0.00    +0.000 C 
BRANCH   20   19
ATOM    105  H15 UNL A   1       6.354  -3.077  17.853  1.00  0.00    +0.000 H 
ATOM    106  H16 UNL A   1       7.951  -2.766  18.555  1.00  0.00    +0.000 H 
ATOM     19  C13 UNL A   1       7.138  -2.361  17.990  1.00  0.00    +0.000 C 
BRANCH   19   18
ATOM     18  C12 UNL A   1       6.579  -1.167  18.778  1.00  0.00    +0.000 C 
ATOM    103  H13 UNL A   1       7.162  -0.307  18.525  1.00  0.00    +0.000 H 
ATOM    104  H14 UNL A   1       5.548  -1.097  18.500  1.00  0.00    +0.000 H 
BRANCH   18   17
ATOM     17  C11 UNL A   1       6.584  -1.305  20.311  1.00  0.00    +0.000 C 
ATOM    101  H11 UNL A   1       7.098  -2.210  20.560  1.00  0.00    +0.000 H 
ATOM    102  H12 UNL A   1       7.059  -0.423  20.686  1.00  0.00    +0.000 H 
BRANCH   17   16
ATOM     99  H9  UNL A   1       4.519  -1.839  20.303  1.00  0.00    +0.000 H 
ATOM    100  H10 UNL A   1       5.302  -1.884  21.894  1.00  0.00    +0.000 H 
ATOM     16  C10 UNL A   1       5.198  -1.352  20.971  1.00  0.00    +0.000 C 
BRANCH   16   15
ATOM     97  H7  UNL A   1       5.326   0.782  20.955  1.00  0.00    +0.000 H 
ATOM     98  H8  UNL A   1       3.694   0.158  20.824  1.00  0.00    +0.000 H 
ATOM     15  C9  UNL A   1       4.644   0.036  21.303  1.00  0.00    +0.000 C 
BRANCH   15   14
ATOM     14  N4  UNL A   1       4.474   0.173  22.738  1.00  0.00    +0.000 N 
ATOM     96  H6  UNL A   1       5.325   0.187  23.233  1.00  0.00    +0.000 H 
BRANCH   14   12
ATOM     12  C8  UNL A   1       3.371   0.285  23.545  1.00  0.00    +0.000 C 
ATOM     13  O2  UNL A   1       2.322   0.672  23.029  1.00  0.00    +0.000 O 
BRANCH   12   11
ATOM      8  C4  UNL A   1       3.103  -0.193  27.777  1.00  0.00    +0.000 C 
ATOM      9  C5  UNL A   1       2.364  -1.025  26.937  1.00  0.00    +0.000 C 
ATOM     10  C6  UNL A   1       2.501  -0.865  25.554  1.00  0.00    +0.000 C 
ATOM     11  C7  UNL A   1       3.414   0.061  25.018  1.00  0.00    +0.000 C 
ATOM     87  C60 UNL A   1       4.277   0.732  25.885  1.00  0.00    +0.000 C 
ATOM     88  C61 UNL A   1       4.083   0.659  27.263  1.00  0.00    +0.000 C 
ATOM    124  H34 UNL A   1       5.062   1.285  25.506  1.00  0.00    +0.000 H 
ATOM    125  H35 UNL A   1       4.661   1.231  27.900  1.00  0.00    +0.000 H 
ATOM     94  H4  UNL A   1       1.732  -1.742  27.326  1.00  0.00    +0.000 H 
ATOM     95  H5  UNL A   1       1.923  -1.436  24.918  1.00  0.00    +0.000 H 
BRANCH    8    7
ATOM      4  C3  UNL A   1       2.260   0.491  31.147  1.00  0.00    +0.000 C 
ATOM      5  N1  UNL A   1       3.264  -0.444  31.243  1.00  0.00    +0.000 N 
ATOM      6  N2  UNL A   1       3.523  -0.912  30.029  1.00  0.00    +0.000 N 
ATOM      7  N3  UNL A   1       2.832  -0.163  29.154  1.00  0.00    +0.000 N 
ATOM     89  C62 UNL A   1       1.912   0.637  29.813  1.00  0.00    +0.000 C 
BRANCH    4    2
ATOM      2  C2  UNL A   1       1.722   1.140  32.337  1.00  0.00    +0.000 C 
ATOM      3  O1  UNL A   1       2.054   2.284  32.649  1.00  0.00    +0.000 O 
BRANCH    2    1
ATOM      1  C1  UNL A   1       0.737   0.389  33.194  1.00  0.00    +0.000 C 
ATOM     91  H1  UNL A   1       0.527   0.955  34.077  1.00  0.00    +0.000 H 
ATOM     92  H2  UNL A   1       1.154  -0.558  33.470  1.00  0.00    +0.000 H 
ATOM     93  H3  UNL A   1      -0.168   0.234  32.645  1.00  0.00    +0.000 H 
ENDBRANCH    2    1
ENDBRANCH    4    2
BRANCH   89   90
ATOM     90  C63 UNL A   1       0.852   1.383  29.092  1.00  0.00    +0.000 C 
ATOM    126  H36 UNL A   1       1.036   1.337  28.039  1.00  0.00    +0.000 H 
ATOM    127  H37 UNL A   1       0.856   2.404  29.411  1.00  0.00    +0.000 H 
ATOM    128  H38 UNL A   1      -0.101   0.945  29.307  1.00  0.00    +0.000 H 
ENDBRANCH   89   90
ENDBRANCH    8    7
ENDBRANCH   12   11
ENDBRANCH   14   12
ENDBRANCH   15   14
ENDBRANCH   16   15
ENDBRANCH   17   16
ENDBRANCH   18   17
ENDBRANCH   19   18
ENDBRANCH   20   19
ENDBRANCH   21   20
ENDBRANCH   22   21
ENDBRANCH   24   22
ENDBRANCH   28   27
BRANCH   32   33
ATOM     33  C24 UNL A   1      14.321   0.579  26.105  1.00  0.00    +0.000 C 
ATOM     34  C25 UNL A   1      15.625   0.047  26.161  1.00  0.00    +0.000 C 
ATOM     35  F1  UNL A   1      15.982  -0.972  25.364  1.00  0.00    +0.000 F 
ATOM     36  C26 UNL A   1      16.565   0.490  27.095  1.00  0.00    +0.000 C 
ATOM     37  F2  UNL A   1      17.749  -0.132  27.193  1.00  0.00    +0.000 F 
ATOM     38  C27 UNL A   1      16.259   1.519  27.965  1.00  0.00    +0.000 C 
ATOM     39  F3  UNL A   1      17.135   1.903  28.902  1.00  0.00    +0.000 F 
ATOM     40  C28 UNL A   1      15.020   2.119  27.890  1.00  0.00    +0.000 C 
ATOM     41  F4  UNL A   1      14.699   3.110  28.733  1.00  0.00    +0.000 F 
ATOM     42  C29 UNL A   1      14.063   1.644  26.995  1.00  0.00    +0.000 C 
ATOM     43  F5  UNL A   1      12.850   2.197  27.116  1.00  0.00    +0.000 F 
ENDBRANCH   32   33
BRANCH   49   50
ATOM     50  C35 UNL A   1       7.699  -1.157  26.598  1.00  0.00    +0.000 C 
ATOM     51  C36 UNL A   1       7.185  -1.508  25.337  1.00  0.00    +0.000 C 
ATOM     52  F6  UNL A   1       7.780  -1.090  24.214  1.00  0.00    +0.000 F 
ATOM     53  C37 UNL A   1       6.081  -2.351  25.208  1.00  0.00    +0.000 C 
ATOM     54  F7  UNL A   1       5.612  -2.664  23.991  1.00  0.00    +0.000 F 
ATOM     55  C38 UNL A   1       5.492  -2.896  26.335  1.00  0.00    +0.000 C 
ATOM     56  F8  UNL A   1       4.458  -3.740  26.214  1.00  0.00    +0.000 F 
ATOM     57  C39 UNL A   1       5.995  -2.588  27.589  1.00  0.00    +0.000 C 
ATOM     58  F9  UNL A   1       5.461  -3.152  28.680  1.00  0.00    +0.000 F 
ATOM     59  C40 UNL A   1       7.076  -1.719  27.719  1.00  0.00    +0.000 C 
ATOM     60  F10 UNL A   1       7.554  -1.467  28.947  1.00  0.00    +0.000 F 
ENDBRANCH   49   50
BRANCH   64   65
ATOM     65  C44 UNL A   1       6.822   4.959  25.304  1.00  0.00    +0.000 C 
ATOM     66  C45 UNL A   1       5.849   5.315  26.252  1.00  0.00    +0.000 C 
ATOM     67  F11 UNL A   1       5.190   4.362  26.927  1.00  0.00    +0.000 F 
ATOM     68  C46 UNL A   1       5.589   6.653  26.570  1.00  0.00    +0.000 C 
ATOM     69  F12 UNL A   1       4.691   6.953  27.519  1.00  0.00    +0.000 F 
ATOM     70  C47 UNL A   1       6.294   7.671  25.948  1.00  0.00    +0.000 C 
ATOM     71  F13 UNL A   1       6.090   8.949  26.297  1.00  0.00    +0.000 F 
ATOM     72  C48 UNL A   1       7.243   7.355  24.994  1.00  0.00    +0.000 C 
ATOM     73  F14 UNL A   1       7.961   8.328  24.415  1.00  0.00    +0.000 F 
ATOM     74  C49 UNL A   1       7.503   6.021  24.677  1.00  0.00    +0.000 C 
ATOM     75  F15 UNL A   1       8.501   5.779  23.814  1.00  0.00    +0.000 F 
ENDBRANCH   64   65
TORSDOF 19
ENDMDL
MODEL 10
REMARK VINA RESULT:     -10.1     15.921     21.483
ROOT
ATOM     28  C20 UNL A   1       8.254  30.321   0.351  1.00  0.00    +0.000 C 
ATOM     29  C21 UNL A   1       7.549  31.139  -0.664  1.00  0.00    +0.000 C 
ATOM     30  N6  UNL A   1       7.422  30.890  -1.924  1.00  0.00    +0.000 N 
ATOM     31  C22 UNL A   1       6.720  31.965  -2.459  1.00  0.00    +0.000 C 
ATOM     32  C23 UNL A   1       6.833  32.285  -3.778  1.00  0.00    +0.000 C 
ATOM     44  C30 UNL A   1       7.424  31.199  -4.521  1.00  0.00    +0.000 C 
ATOM     45  C31 UNL A   1       7.047  29.899  -4.794  1.00  0.00    +0.000 C 
ATOM     46  C32 UNL A   1       8.251  29.140  -4.701  1.00  0.00    +0.000 C 
ATOM     47  C33 UNL A   1       9.303  30.026  -4.460  1.00  0.00    +0.000 C 
ATOM     48  N7  UNL A   1       8.774  31.255  -4.769  1.00  0.00    +0.000 N 
ATOM     49  C34 UNL A   1      10.637  29.839  -3.937  1.00  0.00    +0.000 C 
ATOM     61  C41 UNL A   1      11.406  30.826  -3.390  1.00  0.00    +0.000 C 
ATOM     62  N8  UNL A   1      12.483  30.525  -2.567  1.00  0.00    +0.000 N 
ATOM     63  C42 UNL A   1      12.614  31.572  -1.794  1.00  0.00    +0.000 C 
ATOM     64  C43 UNL A   1      12.902  31.470  -0.338  1.00  0.00    +0.000 C 
ATOM     76  C50 UNL A   1      11.820  30.877   0.225  1.00  0.00    +0.000 C 
ATOM     77  C51 UNL A   1      11.676  30.203   1.493  1.00  0.00    +0.000 C 
ATOM     78  C52 UNL A   1      10.406  29.760   1.589  1.00  0.00    +0.000 C 
ATOM     79  C53 UNL A   1       9.603  30.285   0.475  1.00  0.00    +0.000 C 
ATOM     80  N9  UNL A   1      10.536  30.844  -0.361  1.00  0.00    +0.000 N 
ATOM     81  C54 UNL A   1      11.961  32.785  -2.261  1.00  0.00    +0.000 C 
ATOM     82  C55 UNL A   1      11.154  32.251  -3.183  1.00  0.00    +0.000 C 
ATOM     83  C56 UNL A   1       6.191  32.697  -1.339  1.00  0.00    +0.000 C 
ATOM     84  C57 UNL A   1       6.770  32.299  -0.205  1.00  0.00    +0.000 C 
ATOM    112  H22 UNL A   1       6.100  29.553  -5.016  1.00  0.00    +0.000 H 
ATOM    113  H23 UNL A   1       8.331  28.115  -4.795  1.00  0.00    +0.000 H 
ATOM    114  H24 UNL A   1       9.272  32.034  -5.106  1.00  0.00    +0.000 H 
ATOM    115  H25 UNL A   1      12.415  30.083   2.203  1.00  0.00    +0.000 H 
ATOM    116  H26 UNL A   1      10.050  29.141   2.335  1.00  0.00    +0.000 H 
ATOM    117  H27 UNL A   1      10.334  31.183  -1.264  1.00  0.00    +0.000 H 
ATOM    118  H28 UNL A   1      12.086  33.767  -1.967  1.00  0.00    +0.000 H 
ATOM    119  H29 UNL A   1      10.433  32.786  -3.691  1.00  0.00    +0.000 H 
ATOM    120  H30 UNL A   1       5.465  33.428  -1.405  1.00  0.00    +0.000 H 
ATOM    121  H31 UNL A   1       6.691  32.699   0.743  1.00  0.00    +0.000 H 
ENDROOT
BRANCH   28   27
ATOM    122  H32 UNL A   1       7.285  27.932   0.373  1.00  0.00    +0.000 H 
ATOM     27  C19 UNL A   1       7.399  29.775   1.391  1.00  0.00    +0.000 C 
ATOM    110  H20 UNL A   1       6.130  30.241   4.454  1.00  0.00    +0.000 H 
ATOM    111  H21 UNL A   1       7.480  31.394   2.762  1.00  0.00    +0.000 H 
ATOM     85  C58 UNL A   1       6.902  28.508   1.139  1.00  0.00    +0.000 C 
ATOM     86  C59 UNL A   1       5.899  28.042   1.927  1.00  0.00    +0.000 C 
ATOM     24  C16 UNL A   1       5.715  28.591   3.188  1.00  0.00    +0.000 C 
ATOM     25  C17 UNL A   1       6.296  29.816   3.528  1.00  0.00    +0.000 C 
ATOM     26  C18 UNL A   1       7.104  30.449   2.586  1.00  0.00    +0.000 C 
ATOM    123  H33 UNL A   1       5.280  27.287   1.592  1.00  0.00    +0.000 H 
BRANCH   24   22
ATOM     22  C15 UNL A   1       4.934  27.778   4.137  1.00  0.00    +0.000 C 
ATOM     23  O3  UNL A   1       4.757  28.153   5.279  1.00  0.00    +0.000 O 
BRANCH   22   21
ATOM    109  H19 UNL A   1       4.848  26.181   2.892  1.00  0.00    +0.000 H 
ATOM     21  N5  UNL A   1       4.396  26.586   3.666  1.00  0.00    +0.000 N 
BRANCH   21   20
ATOM    108  H18 UNL A   1       3.088  26.166   5.208  1.00  0.00    +0.000 H 
ATOM    107  H17 UNL A   1       3.420  24.811   4.123  1.00  0.00    +0.000 H 
ATOM     20  C14 UNL A   1       3.233  25.862   4.192  1.00  0.00    +0.000 C 
BRANCH   20   19
ATOM    105  H15 UNL A   1       1.658  25.307   2.889  1.00  0.00    +0.000 H 
ATOM    106  H16 UNL A   1       1.225  26.485   4.140  1.00  0.00    +0.000 H 
ATOM     19  C13 UNL A   1       1.962  26.181   3.427  1.00  0.00    +0.000 C 
BRANCH   19   18
ATOM     18  C12 UNL A   1       2.139  27.334   2.427  1.00  0.00    +0.000 C 
ATOM    103  H13 UNL A   1       1.409  28.082   2.657  1.00  0.00    +0.000 H 
ATOM    104  H14 UNL A   1       3.152  27.660   2.540  1.00  0.00    +0.000 H 
BRANCH   18   17
ATOM     17  C11 UNL A   1       1.987  26.970   0.939  1.00  0.00    +0.000 C 
ATOM    101  H11 UNL A   1       0.955  26.758   0.755  1.00  0.00    +0.000 H 
ATOM    102  H12 UNL A   1       2.359  27.810   0.390  1.00  0.00    +0.000 H 
BRANCH   17   16
ATOM     99  H9  UNL A   1       3.301  25.334   1.321  1.00  0.00    +0.000 H 
ATOM    100  H10 UNL A   1       2.131  25.072   0.013  1.00  0.00    +0.000 H 
ATOM     16  C10 UNL A   1       2.810  25.761   0.471  1.00  0.00    +0.000 C 
BRANCH   16   15
ATOM     97  H7  UNL A   1       4.815  26.249  -0.090  1.00  0.00    +0.000 H 
ATOM     98  H8  UNL A   1       3.931  25.337  -1.297  1.00  0.00    +0.000 H 
ATOM     15  C9  UNL A   1       3.869  26.123  -0.573  1.00  0.00    +0.000 C 
BRANCH   15   14
ATOM     14  N4  UNL A   1       3.505  27.358  -1.243  1.00  0.00    +0.000 N 
ATOM     96  H6  UNL A   1       2.570  27.375  -1.552  1.00  0.00    +0.000 H 
BRANCH   14   12
ATOM     12  C8  UNL A   1       4.196  28.506  -1.535  1.00  0.00    +0.000 C 
ATOM     13  O2  UNL A   1       5.293  28.389  -2.081  1.00  0.00    +0.000 O 
BRANCH   12   11
ATOM      8  C4  UNL A   1       2.546  32.196  -0.169  1.00  0.00    +0.000 C 
ATOM      9  C5  UNL A   1       3.232  31.373   0.721  1.00  0.00    +0.000 C 
ATOM     10  C6  UNL A   1       3.791  30.186   0.235  1.00  0.00    +0.000 C 
ATOM     11  C7  UNL A   1       3.727  29.862  -1.133  1.00  0.00    +0.000 C 
ATOM     87  C60 UNL A   1       3.208  30.804  -2.022  1.00  0.00    +0.000 C 
ATOM     88  C61 UNL A   1       2.560  31.940  -1.542  1.00  0.00    +0.000 C 
ATOM    124  H34 UNL A   1       3.305  30.660  -3.040  1.00  0.00    +0.000 H 
ATOM    125  H35 UNL A   1       2.092  32.588  -2.196  1.00  0.00    +0.000 H 
ATOM     94  H4  UNL A   1       3.327  31.632   1.716  1.00  0.00    +0.000 H 
ATOM     95  H5  UNL A   1       4.257  29.539   0.889  1.00  0.00    +0.000 H 
BRANCH    8    7
ATOM      4  C3  UNL A   1       0.170  34.690   0.653  1.00  0.00    +0.000 C 
ATOM      5  N1  UNL A   1       1.380  35.331   0.788  1.00  0.00    +0.000 N 
ATOM      6  N2  UNL A   1       2.349  34.431   0.687  1.00  0.00    +0.000 N 
ATOM      7  N3  UNL A   1       1.783  33.272   0.313  1.00  0.00    +0.000 N 
ATOM     89  C62 UNL A   1       0.403  33.343   0.418  1.00  0.00    +0.000 C 
BRANCH    4    2
ATOM      2  C2  UNL A   1      -1.086  35.422   0.776  1.00  0.00    +0.000 C 
ATOM      3  O1  UNL A   1      -1.403  36.291  -0.035  1.00  0.00    +0.000 O 
BRANCH    2    1
ATOM      1  C1  UNL A   1      -2.007  35.097   1.922  1.00  0.00    +0.000 C 
ATOM     91  H1  UNL A   1      -2.817  35.796   1.938  1.00  0.00    +0.000 H 
ATOM     92  H2  UNL A   1      -1.467  35.156   2.843  1.00  0.00    +0.000 H 
ATOM     93  H3  UNL A   1      -2.394  34.106   1.799  1.00  0.00    +0.000 H 
ENDBRANCH    2    1
ENDBRANCH    4    2
BRANCH   89   90
ATOM     90  C63 UNL A   1      -0.463  32.145   0.305  1.00  0.00    +0.000 C 
ATOM    126  H36 UNL A   1      -1.263  32.346  -0.376  1.00  0.00    +0.000 H 
ATOM    127  H37 UNL A   1      -0.866  31.905   1.267  1.00  0.00    +0.000 H 
ATOM    128  H38 UNL A   1       0.115  31.320  -0.056  1.00  0.00    +0.000 H 
ENDBRANCH   89   90
ENDBRANCH    8    7
ENDBRANCH   12   11
ENDBRANCH   14   12
ENDBRANCH   15   14
ENDBRANCH   16   15
ENDBRANCH   17   16
ENDBRANCH   18   17
ENDBRANCH   19   18
ENDBRANCH   20   19
ENDBRANCH   21   20
ENDBRANCH   22   21
ENDBRANCH   24   22
ENDBRANCH   28   27
BRANCH   32   33
ATOM     33  C24 UNL A   1       6.745  33.682  -4.340  1.00  0.00    +0.000 C 
ATOM     34  C25 UNL A   1       7.733  34.623  -3.988  1.00  0.00    +0.000 C 
ATOM     35  F1  UNL A   1       8.867  34.231  -3.387  1.00  0.00    +0.000 F 
ATOM     36  C26 UNL A   1       7.544  35.996  -4.164  1.00  0.00    +0.000 C 
ATOM     37  F2  UNL A   1       8.458  36.859  -3.698  1.00  0.00    +0.000 F 
ATOM     38  C27 UNL A   1       6.389  36.476  -4.753  1.00  0.00    +0.000 C 
ATOM     39  F3  UNL A   1       6.178  37.792  -4.865  1.00  0.00    +0.000 F 
ATOM     40  C28 UNL A   1       5.431  35.582  -5.182  1.00  0.00    +0.000 C 
ATOM     41  F4  UNL A   1       4.299  36.027  -5.744  1.00  0.00    +0.000 F 
ATOM     42  C29 UNL A   1       5.594  34.216  -4.960  1.00  0.00    +0.000 C 
ATOM     43  F5  UNL A   1       4.537  33.460  -5.278  1.00  0.00    +0.000 F 
ENDBRANCH   32   33
BRANCH   49   50
ATOM     50  C35 UNL A   1      11.111  28.416  -3.792  1.00  0.00    +0.000 C 
ATOM     51  C36 UNL A   1      12.103  27.830  -4.599  1.00  0.00    +0.000 C 
ATOM     52  F6  UNL A   1      12.652  28.512  -5.611  1.00  0.00    +0.000 F 
ATOM     53  C37 UNL A   1      12.592  26.550  -4.342  1.00  0.00    +0.000 C 
ATOM     54  F7  UNL A   1      13.534  26.017  -5.134  1.00  0.00    +0.000 F 
ATOM     55  C38 UNL A   1      12.133  25.843  -3.244  1.00  0.00    +0.000 C 
ATOM     56  F8  UNL A   1      12.631  24.629  -2.968  1.00  0.00    +0.000 F 
ATOM     57  C39 UNL A   1      11.176  26.407  -2.416  1.00  0.00    +0.000 C 
ATOM     58  F9  UNL A   1      10.765  25.748  -1.325  1.00  0.00    +0.000 F 
ATOM     59  C40 UNL A   1      10.663  27.672  -2.694  1.00  0.00    +0.000 C 
ATOM     60  F10 UNL A   1       9.759  28.198  -1.853  1.00  0.00    +0.000 F 
ENDBRANCH   49   50
BRANCH   64   65
ATOM     65  C44 UNL A   1      13.969  32.248   0.331  1.00  0.00    +0.000 C 
ATOM     66  C45 UNL A   1      13.665  33.307   1.203  1.00  0.00    +0.000 C 
ATOM     67  F11 UNL A   1      12.412  33.775   1.279  1.00  0.00    +0.000 F 
ATOM     68  C46 UNL A   1      14.630  33.851   2.058  1.00  0.00    +0.000 C 
ATOM     69  F12 UNL A   1      14.291  34.824   2.916  1.00  0.00    +0.000 F 
ATOM     70  C47 UNL A   1      15.923  33.353   2.065  1.00  0.00    +0.000 C 
ATOM     71  F13 UNL A   1      16.831  33.831   2.928  1.00  0.00    +0.000 F 
ATOM     72  C48 UNL A   1      16.259  32.327   1.203  1.00  0.00    +0.000 C 
ATOM     73  F14 UNL A   1      17.495  31.808   1.227  1.00  0.00    +0.000 F 
ATOM     74  C49 UNL A   1      15.298  31.783   0.349  1.00  0.00    +0.000 C 
ATOM     75  F15 UNL A   1      15.663  30.727  -0.393  1.00  0.00    +0.000 F 
ENDBRANCH   64   65
TORSDOF 19
ENDMDL
