MODEL 1
REMARK VINA RESULT:     -11.3      0.000      0.000
ROOT
ATOM     28  C23 UNL A   1      40.477  29.969  29.789  1.00  0.00    +0.000 C 
ATOM     29  C24 UNL A   1      41.643  30.892  29.581  1.00  0.00    +0.000 C 
ATOM     30  N4  UNL A   1      42.764  30.684  28.938  1.00  0.00    +0.000 N 
ATOM     31  C25 UNL A   1      43.464  31.882  29.002  1.00  0.00    +0.000 C 
ATOM     32  C26 UNL A   1      44.701  32.164  28.527  1.00  0.00    +0.000 C 
ATOM     44  C33 UNL A   1      45.546  31.216  27.852  1.00  0.00    +0.000 C 
ATOM     45  C34 UNL A   1      46.833  31.392  27.374  1.00  0.00    +0.000 C 
ATOM     46  C35 UNL A   1      47.242  30.200  26.766  1.00  0.00    +0.000 C 
ATOM     47  C36 UNL A   1      46.225  29.268  26.902  1.00  0.00    +0.000 C 
ATOM     48  N5  UNL A   1      45.188  29.907  27.563  1.00  0.00    +0.000 N 
ATOM     49  C37 UNL A   1      46.201  27.899  26.460  1.00  0.00    +0.000 C 
ATOM     61  C44 UNL A   1      45.160  27.047  26.622  1.00  0.00    +0.000 C 
ATOM     62  N6  UNL A   1      43.938  27.273  27.241  1.00  0.00    +0.000 N 
ATOM     63  C45 UNL A   1      43.272  26.148  27.146  1.00  0.00    +0.000 C 
ATOM     64  C46 UNL A   1      41.902  25.809  27.669  1.00  0.00    +0.000 C 
ATOM     76  C53 UNL A   1      41.214  26.733  28.367  1.00  0.00    +0.000 C 
ATOM     77  C54 UNL A   1      39.874  26.552  28.919  1.00  0.00    +0.000 C 
ATOM     78  C55 UNL A   1      39.471  27.705  29.476  1.00  0.00    +0.000 C 
ATOM     79  C56 UNL A   1      40.542  28.695  29.357  1.00  0.00    +0.000 C 
ATOM     80  N7  UNL A   1      41.549  28.019  28.711  1.00  0.00    +0.000 N 
ATOM     81  C57 UNL A   1      43.986  25.088  26.419  1.00  0.00    +0.000 C 
ATOM     82  C58 UNL A   1      45.144  25.677  26.152  1.00  0.00    +0.000 C 
ATOM     83  C59 UNL A   1      42.627  32.824  29.714  1.00  0.00    +0.000 C 
ATOM     84  C60 UNL A   1      41.519  32.243  30.151  1.00  0.00    +0.000 C 
ATOM    119  H27 UNL A   1      47.395  32.255  27.454  1.00  0.00    +0.000 H 
ATOM    120  H28 UNL A   1      48.147  30.042  26.296  1.00  0.00    +0.000 H 
ATOM    121  H29 UNL A   1      44.326  29.493  27.794  1.00  0.00    +0.000 H 
ATOM    122  H30 UNL A   1      39.325  25.679  28.886  1.00  0.00    +0.000 H 
ATOM    123  H31 UNL A   1      38.552  27.867  29.918  1.00  0.00    +0.000 H 
ATOM    124  H32 UNL A   1      42.427  28.419  28.516  1.00  0.00    +0.000 H 
ATOM    125  H33 UNL A   1      43.670  24.135  26.180  1.00  0.00    +0.000 H 
ATOM    126  H34 UNL A   1      45.933  25.218  25.671  1.00  0.00    +0.000 H 
ATOM    127  H35 UNL A   1      42.862  33.818  29.862  1.00  0.00    +0.000 H 
ATOM    128  H36 UNL A   1      40.766  32.635  30.737  1.00  0.00    +0.000 H 
ENDROOT
BRANCH   28   27
ATOM    129  H37 UNL A   1      39.838  30.123  32.378  1.00  0.00    +0.000 H 
ATOM    130  H38 UNL A   1      37.771  30.874  33.396  1.00  0.00    +0.000 H 
ATOM     27  C22 UNL A   1      39.221  30.489  30.388  1.00  0.00    +0.000 C 
ATOM    117  H25 UNL A   1      36.262  31.877  29.600  1.00  0.00    +0.000 H 
ATOM     86  C62 UNL A   1      37.901  30.949  32.375  1.00  0.00    +0.000 C 
ATOM     85  C61 UNL A   1      39.072  30.480  31.784  1.00  0.00    +0.000 C 
ATOM     24  C19 UNL A   1      36.903  31.521  31.582  1.00  0.00    +0.000 C 
ATOM     25  C20 UNL A   1      37.021  31.501  30.188  1.00  0.00    +0.000 C 
ATOM     26  C21 UNL A   1      38.170  30.972  29.593  1.00  0.00    +0.000 C 
ATOM    118  H26 UNL A   1      38.247  30.937  28.564  1.00  0.00    +0.000 H 
BRANCH   24   22
ATOM     22  C18 UNL A   1      35.703  32.148  32.184  1.00  0.00    +0.000 C 
ATOM     23  O2  UNL A   1      35.674  32.361  33.391  1.00  0.00    +0.000 O 
BRANCH   22   21
ATOM    116  H24 UNL A   1      33.951  31.733  31.305  1.00  0.00    +0.000 H 
ATOM     21  N3  UNL A   1      34.614  32.454  31.401  1.00  0.00    +0.000 N 
BRANCH   21   20
ATOM    114  H22 UNL A   1      33.238  33.810  30.696  1.00  0.00    +0.000 H 
ATOM    115  H23 UNL A   1      34.805  34.476  31.205  1.00  0.00    +0.000 H 
ATOM     20  C17 UNL A   1      34.300  33.682  30.695  1.00  0.00    +0.000 C 
BRANCH   20   19
ATOM    113  H21 UNL A   1      35.606  33.013  29.223  1.00  0.00    +0.000 H 
ATOM     19  C16 UNL A   1      34.785  33.698  29.251  1.00  0.00    +0.000 C 
ATOM    112  H20 UNL A   1      35.037  34.708  29.003  1.00  0.00    +0.000 H 
BRANCH   19   18
ATOM     18  C15 UNL A   1      33.803  33.193  28.193  1.00  0.00    +0.000 C 
ATOM    110  H18 UNL A   1      32.838  33.588  28.436  1.00  0.00    +0.000 H 
ATOM    111  H19 UNL A   1      34.209  33.525  27.261  1.00  0.00    +0.000 H 
BRANCH   18   17
ATOM     17  C14 UNL A   1      33.654  31.677  28.040  1.00  0.00    +0.000 C 
ATOM    108  H16 UNL A   1      33.489  31.273  29.017  1.00  0.00    +0.000 H 
ATOM    109  H17 UNL A   1      32.849  31.555  27.346  1.00  0.00    +0.000 H 
BRANCH   17   16
ATOM    106  H14 UNL A   1      34.755  31.022  26.355  1.00  0.00    +0.000 H 
ATOM    107  H15 UNL A   1      35.697  31.317  27.868  1.00  0.00    +0.000 H 
ATOM     16  C13 UNL A   1      34.820  30.903  27.416  1.00  0.00    +0.000 C 
BRANCH   16   15
ATOM    105  H13 UNL A   1      34.443  29.257  28.661  1.00  0.00    +0.000 H 
ATOM     15  C12 UNL A   1      34.901  29.404  27.704  1.00  0.00    +0.000 C 
ATOM    104  H12 UNL A   1      35.932  29.117  27.681  1.00  0.00    +0.000 H 
BRANCH   15   14
ATOM     14  N2  UNL A   1      34.179  28.568  26.774  1.00  0.00    +0.000 N 
ATOM    103  H11 UNL A   1      34.706  28.255  26.004  1.00  0.00    +0.000 H 
BRANCH   14   12
ATOM     12  C11 UNL A   1      32.870  28.138  26.794  1.00  0.00    +0.000 C 
ATOM     13  O1  UNL A   1      32.274  28.250  27.865  1.00  0.00    +0.000 O 
BRANCH   12   11
ATOM      3  C2  UNL A   1      31.566  26.228  23.884  1.00  0.00    +0.000 C 
ATOM      4  C3  UNL A   1      32.378  26.340  25.008  1.00  0.00    +0.000 C 
ATOM    131  H39 UNL A   1      31.460  30.443  25.039  1.00  0.00    +0.000 H 
ATOM    134  H42 UNL A   1      29.416  27.011  22.283  1.00  0.00    +0.000 H 
ATOM    133  H41 UNL A   1      28.521  29.223  22.271  1.00  0.00    +0.000 H 
ATOM    132  H40 UNL A   1      29.678  30.987  23.581  1.00  0.00    +0.000 H 
ATOM     11  C10 UNL A   1      32.195  27.651  25.585  1.00  0.00    +0.000 C 
ATOM     87  C63 UNL A   1      31.386  28.334  24.683  1.00  0.00    +0.000 C 
ATOM     88  C64 UNL A   1      30.983  29.695  24.510  1.00  0.00    +0.000 C 
ATOM     89  C65 UNL A   1      29.986  30.006  23.661  1.00  0.00    +0.000 C 
ATOM     90  C66 UNL A   1      29.337  28.989  22.858  1.00  0.00    +0.000 C 
ATOM     91  C67 UNL A   1      29.818  27.737  22.895  1.00  0.00    +0.000 C 
ATOM     92  N8  UNL A   1      30.869  27.416  23.767  1.00  0.00    +0.000 N 
BRANCH    3    2
ATOM     97  H5  UNL A   1      32.369  24.617  22.802  1.00  0.00    +0.000 H 
ATOM      2  C1  UNL A   1      31.426  25.112  22.900  1.00  0.00    +0.000 C 
ATOM     96  H4  UNL A   1      31.117  25.511  21.956  1.00  0.00    +0.000 H 
BRANCH    2    1
ATOM      1  N1  UNL A   1      30.435  24.149  23.356  1.00  0.00    +0.000 N 
ATOM     93  H1  UNL A   1      29.692  24.070  22.662  1.00  0.00    +0.000 H 
ATOM     94  H2  UNL A   1      30.040  24.462  24.242  1.00  0.00    +0.000 H 
ATOM     95  H3  UNL A   1      30.879  23.240  23.484  1.00  0.00    +0.000 H 
ENDBRANCH    2    1
ENDBRANCH    3    2
BRANCH    4    5
ATOM     98  H6  UNL A   1      34.949  25.944  24.378  1.00  0.00    +0.000 H 
ATOM     99  H7  UNL A   1      36.404  24.149  25.124  1.00  0.00    +0.000 H 
ATOM    100  H8  UNL A   1      35.559  22.441  26.625  1.00  0.00    +0.000 H 
ATOM      5  C4  UNL A   1      33.257  25.266  25.445  1.00  0.00    +0.000 C 
ATOM    102  H10 UNL A   1      31.789  24.293  26.613  1.00  0.00    +0.000 H 
ATOM      6  C5  UNL A   1      34.586  25.217  25.014  1.00  0.00    +0.000 C 
ATOM      7  C6  UNL A   1      35.424  24.184  25.444  1.00  0.00    +0.000 C 
ATOM      9  C8  UNL A   1      33.612  23.241  26.734  1.00  0.00    +0.000 C 
ATOM     10  C9  UNL A   1      32.772  24.268  26.301  1.00  0.00    +0.000 C 
ATOM    101  H9  UNL A   1      33.251  22.513  27.370  1.00  0.00    +0.000 H 
ATOM      8  C7  UNL A   1      34.937  23.199  26.305  1.00  0.00    +0.000 C 
ENDBRANCH    4    5
ENDBRANCH   12   11
ENDBRANCH   14   12
ENDBRANCH   15   14
ENDBRANCH   16   15
ENDBRANCH   17   16
ENDBRANCH   18   17
ENDBRANCH   19   18
ENDBRANCH   20   19
ENDBRANCH   21   20
ENDBRANCH   22   21
ENDBRANCH   24   22
ENDBRANCH   28   27
BRANCH   32   33
ATOM     33  C27 UNL A   1      45.212  33.562  28.718  1.00  0.00    +0.000 C 
ATOM     34  C28 UNL A   1      45.980  33.917  29.836  1.00  0.00    +0.000 C 
ATOM     35  F1  UNL A   1      46.247  33.011  30.788  1.00  0.00    +0.000 F 
ATOM     36  C29 UNL A   1      46.442  35.221  30.003  1.00  0.00    +0.000 C 
ATOM     37  F2  UNL A   1      47.130  35.549  31.105  1.00  0.00    +0.000 F 
ATOM     38  C30 UNL A   1      46.177  36.182  29.040  1.00  0.00    +0.000 C 
ATOM     39  F3  UNL A   1      46.624  37.435  29.200  1.00  0.00    +0.000 F 
ATOM     40  C31 UNL A   1      45.439  35.847  27.915  1.00  0.00    +0.000 C 
ATOM     41  F4  UNL A   1      45.191  36.772  26.977  1.00  0.00    +0.000 F 
ATOM     42  C32 UNL A   1      44.951  34.553  27.759  1.00  0.00    +0.000 C 
ATOM     43  F5  UNL A   1      44.226  34.263  26.668  1.00  0.00    +0.000 F 
ENDBRANCH   32   33
BRANCH   49   50
ATOM     50  C38 UNL A   1      47.433  27.365  25.793  1.00  0.00    +0.000 C 
ATOM     51  C39 UNL A   1      47.636  27.493  24.412  1.00  0.00    +0.000 C 
ATOM     52  F6  UNL A   1      46.686  28.040  23.638  1.00  0.00    +0.000 F 
ATOM     53  C40 UNL A   1      48.809  27.033  23.817  1.00  0.00    +0.000 C 
ATOM     54  F7  UNL A   1      48.969  27.136  22.490  1.00  0.00    +0.000 F 
ATOM     55  C41 UNL A   1      49.806  26.464  24.593  1.00  0.00    +0.000 C 
ATOM     56  F8  UNL A   1      50.939  26.033  24.020  1.00  0.00    +0.000 F 
ATOM     57  C42 UNL A   1      49.630  26.336  25.963  1.00  0.00    +0.000 C 
ATOM     58  F9  UNL A   1      50.598  25.796  26.716  1.00  0.00    +0.000 F 
ATOM     59  C43 UNL A   1      48.450  26.772  26.557  1.00  0.00    +0.000 C 
ATOM     60  F10 UNL A   1      48.303  26.631  27.883  1.00  0.00    +0.000 F 
ENDBRANCH   49   50
BRANCH   64   65
ATOM     65  C47 UNL A   1      41.318  24.462  27.448  1.00  0.00    +0.000 C 
ATOM     66  C48 UNL A   1      41.829  23.341  28.118  1.00  0.00    +0.000 C 
ATOM     67  F11 UNL A   1      42.874  23.478  28.947  1.00  0.00    +0.000 F 
ATOM     68  C49 UNL A   1      41.294  22.072  27.910  1.00  0.00    +0.000 C 
ATOM     69  F12 UNL A   1      41.826  21.013  28.533  1.00  0.00    +0.000 F 
ATOM     70  C50 UNL A   1      40.221  21.902  27.048  1.00  0.00    +0.000 C 
ATOM     71  F13 UNL A   1      39.703  20.682  26.852  1.00  0.00    +0.000 F 
ATOM     72  C51 UNL A   1      39.689  22.998  26.385  1.00  0.00    +0.000 C 
ATOM     73  F14 UNL A   1      38.644  22.841  25.561  1.00  0.00    +0.000 F 
ATOM     74  C52 UNL A   1      40.240  24.265  26.574  1.00  0.00    +0.000 C 
ATOM     75  F15 UNL A   1      39.712  25.305  25.912  1.00  0.00    +0.000 F 
ENDBRANCH   64   65
TORSDOF 18
ENDMDL
MODEL 2
REMARK VINA RESULT:     -10.9     37.306     41.736
ROOT
ATOM     28  C23 UNL A   1      14.092  54.019   5.163  1.00  0.00    +0.000 C 
ATOM     29  C24 UNL A   1      15.025  54.445   4.066  1.00  0.00    +0.000 C 
ATOM     30  N4  UNL A   1      15.494  53.752   3.059  1.00  0.00    +0.000 N 
ATOM     31  C25 UNL A   1      16.262  54.640   2.317  1.00  0.00    +0.000 C 
ATOM     32  C26 UNL A   1      16.996  54.396   1.204  1.00  0.00    +0.000 C 
ATOM     44  C33 UNL A   1      17.120  53.105   0.580  1.00  0.00    +0.000 C 
ATOM     45  C34 UNL A   1      17.876  52.747  -0.522  1.00  0.00    +0.000 C 
ATOM     46  C35 UNL A   1      17.659  51.389  -0.780  1.00  0.00    +0.000 C 
ATOM     47  C36 UNL A   1      16.800  50.892   0.188  1.00  0.00    +0.000 C 
ATOM     48  N5  UNL A   1      16.471  51.957   1.010  1.00  0.00    +0.000 N 
ATOM     49  C37 UNL A   1      16.315  49.546   0.348  1.00  0.00    +0.000 C 
ATOM     61  C44 UNL A   1      15.464  49.137   1.319  1.00  0.00    +0.000 C 
ATOM     62  N6  UNL A   1      14.903  49.873   2.354  1.00  0.00    +0.000 N 
ATOM     63  C45 UNL A   1      14.154  49.036   3.028  1.00  0.00    +0.000 C 
ATOM     64  C46 UNL A   1      13.335  49.280   4.267  1.00  0.00    +0.000 C 
ATOM     76  C53 UNL A   1      13.345  50.502   4.836  1.00  0.00    +0.000 C 
ATOM     77  C54 UNL A   1      12.592  50.888   6.024  1.00  0.00    +0.000 C 
ATOM     78  C55 UNL A   1      12.776  52.198   6.254  1.00  0.00    +0.000 C 
ATOM     79  C56 UNL A   1      13.697  52.734   5.251  1.00  0.00    +0.000 C 
ATOM     80  N7  UNL A   1      14.006  51.648   4.468  1.00  0.00    +0.000 N 
ATOM     81  C57 UNL A   1      14.127  47.675   2.473  1.00  0.00    +0.000 C 
ATOM     82  C58 UNL A   1      14.968  47.782   1.453  1.00  0.00    +0.000 C 
ATOM     83  C59 UNL A   1      16.166  55.929   2.966  1.00  0.00    +0.000 C 
ATOM     84  C60 UNL A   1      15.466  55.848   4.088  1.00  0.00    +0.000 C 
ATOM    119  H27 UNL A   1      18.494  53.375  -1.061  1.00  0.00    +0.000 H 
ATOM    120  H28 UNL A   1      18.069  50.850  -1.557  1.00  0.00    +0.000 H 
ATOM    121  H29 UNL A   1      15.867  51.907   1.786  1.00  0.00    +0.000 H 
ATOM    122  H30 UNL A   1      12.009  50.256   6.596  1.00  0.00    +0.000 H 
ATOM    123  H31 UNL A   1      12.339  52.740   7.016  1.00  0.00    +0.000 H 
ATOM    124  H32 UNL A   1      14.641  51.688   3.717  1.00  0.00    +0.000 H 
ATOM    125  H33 UNL A   1      13.594  46.851   2.792  1.00  0.00    +0.000 H 
ATOM    126  H34 UNL A   1      15.236  47.001   0.835  1.00  0.00    +0.000 H 
ATOM    127  H35 UNL A   1      16.586  56.799   2.603  1.00  0.00    +0.000 H 
ATOM    128  H36 UNL A   1      15.280  56.577   4.794  1.00  0.00    +0.000 H 
ENDROOT
BRANCH   28   27
ATOM    129  H37 UNL A   1      15.292  55.144   7.268  1.00  0.00    +0.000 H 
ATOM    130  H38 UNL A   1      14.395  56.729   8.867  1.00  0.00    +0.000 H 
ATOM     27  C22 UNL A   1      13.535  55.034   6.095  1.00  0.00    +0.000 C 
ATOM    117  H25 UNL A   1      10.797  56.891   6.694  1.00  0.00    +0.000 H 
ATOM     86  C62 UNL A   1      13.831  56.443   8.051  1.00  0.00    +0.000 C 
ATOM     85  C61 UNL A   1      14.330  55.501   7.154  1.00  0.00    +0.000 C 
ATOM     24  C19 UNL A   1      12.567  57.000   7.844  1.00  0.00    +0.000 C 
ATOM     25  C20 UNL A   1      11.751  56.516   6.816  1.00  0.00    +0.000 C 
ATOM     26  C21 UNL A   1      12.228  55.525   5.954  1.00  0.00    +0.000 C 
ATOM    118  H26 UNL A   1      11.617  55.153   5.210  1.00  0.00    +0.000 H 
BRANCH   24   22
ATOM     22  C18 UNL A   1      12.057  58.097   8.699  1.00  0.00    +0.000 C 
ATOM     23  O2  UNL A   1      12.748  59.092   8.881  1.00  0.00    +0.000 O 
BRANCH   22   21
ATOM    116  H24 UNL A   1      10.063  58.283   8.779  1.00  0.00    +0.000 H 
ATOM     21  N3  UNL A   1      10.832  57.982   9.316  1.00  0.00    +0.000 N 
BRANCH   21   20
ATOM    114  H22 UNL A   1      10.743  58.245  11.354  1.00  0.00    +0.000 H 
ATOM    115  H23 UNL A   1       9.466  57.239  10.636  1.00  0.00    +0.000 H 
ATOM     20  C17 UNL A   1      10.507  57.484  10.639  1.00  0.00    +0.000 C 
BRANCH   20   19
ATOM    113  H21 UNL A   1      11.094  56.092  12.067  1.00  0.00    +0.000 H 
ATOM     19  C16 UNL A   1      11.263  56.217  11.018  1.00  0.00    +0.000 C 
ATOM    112  H20 UNL A   1      12.288  56.355  10.744  1.00  0.00    +0.000 H 
BRANCH   19   18
ATOM     18  C15 UNL A   1      10.783  54.915  10.376  1.00  0.00    +0.000 C 
ATOM    110  H18 UNL A   1       9.781  54.743  10.711  1.00  0.00    +0.000 H 
ATOM    111  H19 UNL A   1      10.891  55.072   9.324  1.00  0.00    +0.000 H 
BRANCH   18   17
ATOM     17  C14 UNL A   1      11.590  53.648  10.669  1.00  0.00    +0.000 C 
ATOM    108  H16 UNL A   1      11.825  53.654  11.713  1.00  0.00    +0.000 H 
ATOM    109  H17 UNL A   1      10.962  52.846  10.342  1.00  0.00    +0.000 H 
BRANCH   17   16
ATOM    106  H14 UNL A   1      13.027  52.390   9.755  1.00  0.00    +0.000 H 
ATOM    107  H15 UNL A   1      12.795  54.021   9.013  1.00  0.00    +0.000 H 
ATOM     16  C13 UNL A   1      12.904  53.442   9.906  1.00  0.00    +0.000 C 
BRANCH   16   15
ATOM    105  H13 UNL A   1      14.125  55.032  10.521  1.00  0.00    +0.000 H 
ATOM     15  C12 UNL A   1      14.183  53.964  10.559  1.00  0.00    +0.000 C 
ATOM    104  H12 UNL A   1      15.017  53.567  10.019  1.00  0.00    +0.000 H 
BRANCH   15   14
ATOM     14  N2  UNL A   1      14.340  53.614  11.951  1.00  0.00    +0.000 N 
ATOM    103  H11 UNL A   1      14.042  54.303  12.587  1.00  0.00    +0.000 H 
BRANCH   14   12
ATOM     12  C11 UNL A   1      14.841  52.468  12.531  1.00  0.00    +0.000 C 
ATOM     13  O1  UNL A   1      15.806  52.612  13.281  1.00  0.00    +0.000 O 
BRANCH   12   11
ATOM      3  C2  UNL A   1      13.748  49.098  11.404  1.00  0.00    +0.000 C 
ATOM      4  C3  UNL A   1      14.529  50.241  11.263  1.00  0.00    +0.000 C 
ATOM    131  H39 UNL A   1      12.135  52.026  14.223  1.00  0.00    +0.000 H 
ATOM    134  H42 UNL A   1      12.123  47.365  12.872  1.00  0.00    +0.000 H 
ATOM    133  H41 UNL A   1      10.832  48.051  14.757  1.00  0.00    +0.000 H 
ATOM    132  H40 UNL A   1      10.748  50.464  15.334  1.00  0.00    +0.000 H 
ATOM     11  C10 UNL A   1      14.210  51.158  12.331  1.00  0.00    +0.000 C 
ATOM     87  C63 UNL A   1      13.126  50.585  12.988  1.00  0.00    +0.000 C 
ATOM     88  C64 UNL A   1      12.191  51.024  13.978  1.00  0.00    +0.000 C 
ATOM     89  C65 UNL A   1      11.385  50.138  14.591  1.00  0.00    +0.000 C 
ATOM     90  C66 UNL A   1      11.395  48.735  14.228  1.00  0.00    +0.000 C 
ATOM     91  C67 UNL A   1      12.151  48.345  13.191  1.00  0.00    +0.000 C 
ATOM     92  N8  UNL A   1      12.979  49.271  12.540  1.00  0.00    +0.000 N 
BRANCH    3    2
ATOM     97  H5  UNL A   1      13.526  47.024  11.163  1.00  0.00    +0.000 H 
ATOM      2  C1  UNL A   1      13.643  47.884  10.539  1.00  0.00    +0.000 C 
ATOM     96  H4  UNL A   1      14.531  47.796   9.948  1.00  0.00    +0.000 H 
BRANCH    2    1
ATOM      1  N1  UNL A   1      12.492  47.984   9.656  1.00  0.00    +0.000 N 
ATOM     93  H1  UNL A   1      12.119  47.052   9.476  1.00  0.00    +0.000 H 
ATOM     94  H2  UNL A   1      12.774  48.413   8.775  1.00  0.00    +0.000 H 
ATOM     95  H3  UNL A   1      11.773  48.558  10.097  1.00  0.00    +0.000 H 
ENDBRANCH    2    1
ENDBRANCH    3    2
BRANCH    4    5
ATOM     98  H6  UNL A   1      14.015  50.857   8.709  1.00  0.00    +0.000 H 
ATOM     99  H7  UNL A   1      15.607  51.142   6.899  1.00  0.00    +0.000 H 
ATOM    100  H8  UNL A   1      17.982  50.865   7.310  1.00  0.00    +0.000 H 
ATOM      5  C4  UNL A   1      15.474  50.408  10.169  1.00  0.00    +0.000 C 
ATOM    102  H10 UNL A   1      17.183  49.983  11.338  1.00  0.00    +0.000 H 
ATOM      6  C5  UNL A   1      15.024  50.736   8.886  1.00  0.00    +0.000 C 
ATOM      7  C6  UNL A   1      15.941  50.900   7.844  1.00  0.00    +0.000 C 
ATOM      9  C8  UNL A   1      17.760  50.407   9.355  1.00  0.00    +0.000 C 
ATOM     10  C9  UNL A   1      16.846  50.236  10.396  1.00  0.00    +0.000 C 
ATOM    101  H9  UNL A   1      18.770  50.287   9.530  1.00  0.00    +0.000 H 
ATOM      8  C7  UNL A   1      17.307  50.739   8.080  1.00  0.00    +0.000 C 
ENDBRANCH    4    5
ENDBRANCH   12   11
ENDBRANCH   14   12
ENDBRANCH   15   14
ENDBRANCH   16   15
ENDBRANCH   17   16
ENDBRANCH   18   17
ENDBRANCH   19   18
ENDBRANCH   20   19
ENDBRANCH   21   20
ENDBRANCH   22   21
ENDBRANCH   24   22
ENDBRANCH   28   27
BRANCH   32   33
ATOM     33  C27 UNL A   1      17.720  55.556   0.587  1.00  0.00    +0.000 C 
ATOM     34  C28 UNL A   1      19.001  55.935   1.014  1.00  0.00    +0.000 C 
ATOM     35  F1  UNL A   1      19.597  55.282   2.022  1.00  0.00    +0.000 F 
ATOM     36  C29 UNL A   1      19.658  57.019   0.435  1.00  0.00    +0.000 C 
ATOM     37  F2  UNL A   1      20.859  57.395   0.896  1.00  0.00    +0.000 F 
ATOM     38  C30 UNL A   1      19.064  57.718  -0.603  1.00  0.00    +0.000 C 
ATOM     39  F3  UNL A   1      19.699  58.759  -1.161  1.00  0.00    +0.000 F 
ATOM     40  C31 UNL A   1      17.809  57.347  -1.059  1.00  0.00    +0.000 C 
ATOM     41  F4  UNL A   1      17.238  58.015  -2.071  1.00  0.00    +0.000 F 
ATOM     42  C32 UNL A   1      17.137  56.283  -0.463  1.00  0.00    +0.000 C 
ATOM     43  F5  UNL A   1      15.915  55.957  -0.914  1.00  0.00    +0.000 F 
ENDBRANCH   32   33
BRANCH   49   50
ATOM     50  C38 UNL A   1      16.810  48.513  -0.619  1.00  0.00    +0.000 C 
ATOM     51  C39 UNL A   1      18.021  47.837  -0.417  1.00  0.00    +0.000 C 
ATOM     52  F6  UNL A   1      18.807  48.156   0.622  1.00  0.00    +0.000 F 
ATOM     53  C40 UNL A   1      18.441  46.846  -1.301  1.00  0.00    +0.000 C 
ATOM     54  F7  UNL A   1      19.618  46.234  -1.109  1.00  0.00    +0.000 F 
ATOM     55  C41 UNL A   1      17.648  46.496  -2.384  1.00  0.00    +0.000 C 
ATOM     56  F8  UNL A   1      18.049  45.533  -3.226  1.00  0.00    +0.000 F 
ATOM     57  C42 UNL A   1      16.442  47.146  -2.597  1.00  0.00    +0.000 C 
ATOM     58  F9  UNL A   1      15.669  46.802  -3.636  1.00  0.00    +0.000 F 
ATOM     59  C43 UNL A   1      16.030  48.153  -1.729  1.00  0.00    +0.000 C 
ATOM     60  F10 UNL A   1      14.862  48.769  -1.962  1.00  0.00    +0.000 F 
ENDBRANCH   49   50
BRANCH   64   65
ATOM     65  C47 UNL A   1      12.543  48.185   4.881  1.00  0.00    +0.000 C 
ATOM     66  C48 UNL A   1      11.266  47.867   4.399  1.00  0.00    +0.000 C 
ATOM     67  F11 UNL A   1      10.738  48.574   3.389  1.00  0.00    +0.000 F 
ATOM     68  C49 UNL A   1      10.512  46.847   4.975  1.00  0.00    +0.000 C 
ATOM     69  F12 UNL A   1       9.279  46.590   4.519  1.00  0.00    +0.000 F 
ATOM     70  C50 UNL A   1      11.029  46.110   6.029  1.00  0.00    +0.000 C 
ATOM     71  F13 UNL A   1      10.305  45.126   6.580  1.00  0.00    +0.000 F 
ATOM     72  C51 UNL A   1      12.296  46.397   6.515  1.00  0.00    +0.000 C 
ATOM     73  F14 UNL A   1      12.806  45.678   7.524  1.00  0.00    +0.000 F 
ATOM     74  C52 UNL A   1      13.043  47.433   5.954  1.00  0.00    +0.000 C 
ATOM     75  F15 UNL A   1      14.261  47.695   6.450  1.00  0.00    +0.000 F 
ENDBRANCH   64   65
TORSDOF 18
ENDMDL
MODEL 3
REMARK VINA RESULT:     -10.5     28.341     35.155
ROOT
ATOM     28  C23 UNL A   1      21.450  24.262   1.762  1.00  0.00    +0.000 C 
ATOM     29  C24 UNL A   1      22.381  23.239   2.345  1.00  0.00    +0.000 C 
ATOM     30  N4  UNL A   1      22.185  21.962   2.559  1.00  0.00    +0.000 N 
ATOM     31  C25 UNL A   1      23.385  21.473   3.057  1.00  0.00    +0.000 C 
ATOM     32  C26 UNL A   1      23.678  20.219   3.476  1.00  0.00    +0.000 C 
ATOM     44  C33 UNL A   1      22.740  19.128   3.488  1.00  0.00    +0.000 C 
ATOM     45  C34 UNL A   1      22.927  17.832   3.936  1.00  0.00    +0.000 C 
ATOM     46  C35 UNL A   1      21.742  17.119   3.723  1.00  0.00    +0.000 C 
ATOM     47  C36 UNL A   1      20.804  17.983   3.180  1.00  0.00    +0.000 C 
ATOM     48  N5  UNL A   1      21.432  19.209   3.034  1.00  0.00    +0.000 N 
ATOM     49  C37 UNL A   1      19.438  17.708   2.819  1.00  0.00    +0.000 C 
ATOM     61  C44 UNL A   1      18.579  18.607   2.281  1.00  0.00    +0.000 C 
ATOM     62  N6  UNL A   1      18.793  19.947   1.984  1.00  0.00    +0.000 N 
ATOM     63  C45 UNL A   1      17.666  20.390   1.485  1.00  0.00    +0.000 C 
ATOM     64  C46 UNL A   1      17.315  21.777   1.018  1.00  0.00    +0.000 C 
ATOM     76  C53 UNL A   1      18.230  22.761   1.123  1.00  0.00    +0.000 C 
ATOM     77  C54 UNL A   1      18.037  24.144   0.698  1.00  0.00    +0.000 C 
ATOM     78  C55 UNL A   1      19.183  24.820   0.876  1.00  0.00    +0.000 C 
ATOM     79  C56 UNL A   1      20.180  23.927   1.466  1.00  0.00    +0.000 C 
ATOM     80  N7  UNL A   1      19.515  22.732   1.605  1.00  0.00    +0.000 N 
ATOM     81  C57 UNL A   1      16.616  19.367   1.373  1.00  0.00    +0.000 C 
ATOM     82  C58 UNL A   1      17.213  18.309   1.904  1.00  0.00    +0.000 C 
ATOM     83  C59 UNL A   1      24.317  22.581   3.078  1.00  0.00    +0.000 C 
ATOM     84  C60 UNL A   1      23.727  23.708   2.710  1.00  0.00    +0.000 C 
ATOM    119  H27 UNL A   1      23.792  17.457   4.357  1.00  0.00    +0.000 H 
ATOM    120  H28 UNL A   1      21.593  16.121   3.934  1.00  0.00    +0.000 H 
ATOM    121  H29 UNL A   1      21.011  20.018   2.664  1.00  0.00    +0.000 H 
ATOM    122  H30 UNL A   1      17.161  24.539   0.321  1.00  0.00    +0.000 H 
ATOM    123  H31 UNL A   1      19.337  25.812   0.634  1.00  0.00    +0.000 H 
ATOM    124  H32 UNL A   1      19.921  21.934   2.012  1.00  0.00    +0.000 H 
ATOM    125  H33 UNL A   1      15.663  19.450   0.985  1.00  0.00    +0.000 H 
ATOM    126  H34 UNL A   1      16.762  17.389   2.032  1.00  0.00    +0.000 H 
ATOM    127  H35 UNL A   1      25.311  22.502   3.344  1.00  0.00    +0.000 H 
ATOM    128  H36 UNL A   1      24.110  24.666   2.686  1.00  0.00    +0.000 H 
ENDROOT
BRANCH   28   27
ATOM    129  H37 UNL A   1      22.772  25.025  -0.431  1.00  0.00    +0.000 H 
ATOM    130  H38 UNL A   1      23.700  27.197  -0.973  1.00  0.00    +0.000 H 
ATOM     27  C22 UNL A   1      21.959  25.619   1.429  1.00  0.00    +0.000 C 
ATOM    117  H25 UNL A   1      22.089  28.776   2.578  1.00  0.00    +0.000 H 
ATOM     86  C62 UNL A   1      23.139  27.075  -0.116  1.00  0.00    +0.000 C 
ATOM     85  C61 UNL A   1      22.640  25.817   0.218  1.00  0.00    +0.000 C 
ATOM     24  C19 UNL A   1      22.879  28.168   0.714  1.00  0.00    +0.000 C 
ATOM     25  C20 UNL A   1      22.236  27.977   1.941  1.00  0.00    +0.000 C 
ATOM     26  C21 UNL A   1      21.791  26.703   2.304  1.00  0.00    +0.000 C 
ATOM    118  H26 UNL A   1      21.336  26.559   3.220  1.00  0.00    +0.000 H 
BRANCH   24   22
ATOM     22  C18 UNL A   1      23.280  29.542   0.328  1.00  0.00    +0.000 C 
ATOM     23  O2  UNL A   1      23.683  30.316   1.188  1.00  0.00    +0.000 O 
BRANCH   22   21
ATOM    116  H24 UNL A   1      23.941  29.756  -1.551  1.00  0.00    +0.000 H 
ATOM     21  N3  UNL A   1      23.166  29.956  -0.978  1.00  0.00    +0.000 N 
BRANCH   21   20
ATOM    114  H22 UNL A   1      22.062  31.662  -1.302  1.00  0.00    +0.000 H 
ATOM    115  H23 UNL A   1      22.238  30.566  -2.690  1.00  0.00    +0.000 H 
ATOM     20  C17 UNL A   1      22.071  30.645  -1.636  1.00  0.00    +0.000 C 
BRANCH   20   19
ATOM    113  H21 UNL A   1      20.030  30.864  -1.303  1.00  0.00    +0.000 H 
ATOM     19  C16 UNL A   1      20.705  30.034  -1.352  1.00  0.00    +0.000 C 
ATOM    112  H20 UNL A   1      20.783  29.469  -0.447  1.00  0.00    +0.000 H 
BRANCH   19   18
ATOM     18  C15 UNL A   1      20.130  29.111  -2.427  1.00  0.00    +0.000 C 
ATOM    110  H18 UNL A   1      19.143  28.834  -2.117  1.00  0.00    +0.000 H 
ATOM    111  H19 UNL A   1      20.181  29.679  -3.332  1.00  0.00    +0.000 H 
BRANCH   18   17
ATOM     17  C14 UNL A   1      20.896  27.821  -2.729  1.00  0.00    +0.000 C 
ATOM    108  H16 UNL A   1      21.556  27.642  -1.905  1.00  0.00    +0.000 H 
ATOM    109  H17 UNL A   1      20.135  27.085  -2.880  1.00  0.00    +0.000 H 
BRANCH   17   16
ATOM    106  H14 UNL A   1      21.250  27.109  -4.690  1.00  0.00    +0.000 H 
ATOM    107  H15 UNL A   1      21.808  28.789  -4.331  1.00  0.00    +0.000 H 
ATOM     16  C13 UNL A   1      21.739  27.771  -4.008  1.00  0.00    +0.000 C 
BRANCH   16   15
ATOM    105  H13 UNL A   1      23.202  26.593  -3.075  1.00  0.00    +0.000 H 
ATOM     15  C12 UNL A   1      23.188  27.304  -3.875  1.00  0.00    +0.000 C 
ATOM    104  H12 UNL A   1      23.798  28.163  -3.688  1.00  0.00    +0.000 H 
BRANCH   15   14
ATOM     14  N2  UNL A   1      23.713  26.622  -5.035  1.00  0.00    +0.000 N 
ATOM    103  H11 UNL A   1      24.366  27.140  -5.559  1.00  0.00    +0.000 H 
BRANCH   14   12
ATOM     12  C11 UNL A   1      23.446  25.362  -5.525  1.00  0.00    +0.000 C 
ATOM     13  O1  UNL A   1      22.627  25.295  -6.442  1.00  0.00    +0.000 O 
BRANCH   12   11
ATOM      3  C2  UNL A   1      24.548  22.182  -3.948  1.00  0.00    +0.000 C 
ATOM      4  C3  UNL A   1      23.588  23.162  -4.184  1.00  0.00    +0.000 C 
ATOM    131  H39 UNL A   1      26.644  25.486  -5.898  1.00  0.00    +0.000 H 
ATOM    134  H42 UNL A   1      26.922  20.836  -4.538  1.00  0.00    +0.000 H 
ATOM    133  H41 UNL A   1      28.741  21.832  -5.717  1.00  0.00    +0.000 H 
ATOM    132  H40 UNL A   1      28.626  24.250  -6.271  1.00  0.00    +0.000 H 
ATOM     11  C10 UNL A   1      24.158  24.174  -5.041  1.00  0.00    +0.000 C 
ATOM     87  C63 UNL A   1      25.501  23.834  -5.160  1.00  0.00    +0.000 C 
ATOM     88  C64 UNL A   1      26.671  24.479  -5.672  1.00  0.00    +0.000 C 
ATOM     89  C65 UNL A   1      27.805  23.780  -5.860  1.00  0.00    +0.000 C 
ATOM     90  C66 UNL A   1      27.895  22.380  -5.496  1.00  0.00    +0.000 C 
ATOM     91  C67 UNL A   1      26.856  21.812  -4.867  1.00  0.00    +0.000 C 
ATOM     92  N8  UNL A   1      25.679  22.544  -4.654  1.00  0.00    +0.000 N 
BRANCH    3    2
ATOM     97  H5  UNL A   1      23.702  21.077  -2.376  1.00  0.00    +0.000 H 
ATOM      2  C1  UNL A   1      24.493  20.962  -3.086  1.00  0.00    +0.000 C 
ATOM     96  H4  UNL A   1      25.430  20.845  -2.582  1.00  0.00    +0.000 H 
BRANCH    2    1
ATOM      1  N1  UNL A   1      24.234  19.779  -3.891  1.00  0.00    +0.000 N 
ATOM     93  H1  UNL A   1      24.607  18.957  -3.417  1.00  0.00    +0.000 H 
ATOM     94  H2  UNL A   1      24.684  19.880  -4.800  1.00  0.00    +0.000 H 
ATOM     95  H3  UNL A   1      23.228  19.669  -4.020  1.00  0.00    +0.000 H 
ENDBRANCH    2    1
ENDBRANCH    3    2
BRANCH    4    5
ATOM     98  H6  UNL A   1      21.746  21.236  -4.437  1.00  0.00    +0.000 H 
ATOM     99  H7  UNL A   1      19.532  21.156  -3.443  1.00  0.00    +0.000 H 
ATOM    100  H8  UNL A   1      18.766  22.972  -2.028  1.00  0.00    +0.000 H 
ATOM      5  C4  UNL A   1      22.257  23.106  -3.598  1.00  0.00    +0.000 C 
ATOM    102  H10 UNL A   1      22.411  24.974  -2.621  1.00  0.00    +0.000 H 
ATOM      6  C5  UNL A   1      21.422  22.011  -3.837  1.00  0.00    +0.000 C 
ATOM      7  C6  UNL A   1      20.147  21.965  -3.265  1.00  0.00    +0.000 C 
ATOM      9  C8  UNL A   1      20.532  24.107  -2.216  1.00  0.00    +0.000 C 
ATOM     10  C9  UNL A   1      21.802  24.158  -2.791  1.00  0.00    +0.000 C 
ATOM    101  H9  UNL A   1      20.205  24.880  -1.616  1.00  0.00    +0.000 H 
ATOM      8  C7  UNL A   1      19.705  23.011  -2.453  1.00  0.00    +0.000 C 
ENDBRANCH    4    5
ENDBRANCH   12   11
ENDBRANCH   14   12
ENDBRANCH   15   14
ENDBRANCH   16   15
ENDBRANCH   17   16
ENDBRANCH   18   17
ENDBRANCH   19   18
ENDBRANCH   20   19
ENDBRANCH   21   20
ENDBRANCH   22   21
ENDBRANCH   24   22
ENDBRANCH   28   27
BRANCH   32   33
ATOM     33  C27 UNL A   1      25.077  19.958   3.952  1.00  0.00    +0.000 C 
ATOM     34  C28 UNL A   1      25.417  20.031   5.310  1.00  0.00    +0.000 C 
ATOM     35  F1  UNL A   1      24.493  20.375   6.219  1.00  0.00    +0.000 F 
ATOM     36  C29 UNL A   1      26.721  19.793   5.736  1.00  0.00    +0.000 C 
ATOM     37  F2  UNL A   1      27.034  19.919   7.033  1.00  0.00    +0.000 F 
ATOM     38  C30 UNL A   1      27.700  19.443   4.819  1.00  0.00    +0.000 C 
ATOM     39  F3  UNL A   1      28.954  19.210   5.231  1.00  0.00    +0.000 F 
ATOM     40  C31 UNL A   1      27.381  19.341   3.474  1.00  0.00    +0.000 C 
ATOM     41  F4  UNL A   1      28.324  18.991   2.587  1.00  0.00    +0.000 F 
ATOM     42  C32 UNL A   1      26.085  19.607   3.041  1.00  0.00    +0.000 C 
ATOM     43  F5  UNL A   1      25.811  19.517   1.730  1.00  0.00    +0.000 F 
ENDBRANCH   32   33
BRANCH   49   50
ATOM     50  C38 UNL A   1      18.916  16.327   3.085  1.00  0.00    +0.000 C 
ATOM     51  C39 UNL A   1      18.303  15.993   4.300  1.00  0.00    +0.000 C 
ATOM     52  F6  UNL A   1      18.233  16.895   5.291  1.00  0.00    +0.000 F 
ATOM     53  C40 UNL A   1      17.782  14.719   4.511  1.00  0.00    +0.000 C 
ATOM     54  F7  UNL A   1      17.229  14.410   5.691  1.00  0.00    +0.000 F 
ATOM     55  C41 UNL A   1      17.841  13.768   3.503  1.00  0.00    +0.000 C 
ATOM     56  F8  UNL A   1      17.328  12.545   3.703  1.00  0.00    +0.000 F 
ATOM     57  C42 UNL A   1      18.435  14.080   2.290  1.00  0.00    +0.000 C 
ATOM     58  F9  UNL A   1      18.483  13.165   1.311  1.00  0.00    +0.000 F 
ATOM     59  C43 UNL A   1      18.978  15.345   2.085  1.00  0.00    +0.000 C 
ATOM     60  F10 UNL A   1      19.551  15.618   0.904  1.00  0.00    +0.000 F 
ENDBRANCH   49   50
BRANCH   64   65
ATOM     65  C47 UNL A   1      15.967  22.076   0.473  1.00  0.00    +0.000 C 
ATOM     66  C48 UNL A   1      14.940  22.531   1.311  1.00  0.00    +0.000 C 
ATOM     67  F11 UNL A   1      15.165  22.673   2.626  1.00  0.00    +0.000 F 
ATOM     68  C49 UNL A   1      13.669  22.804   0.811  1.00  0.00    +0.000 C 
ATOM     69  F12 UNL A   1      12.696  23.201   1.641  1.00  0.00    +0.000 F 
ATOM     70  C50 UNL A   1      13.407  22.653  -0.542  1.00  0.00    +0.000 C 
ATOM     71  F13 UNL A   1      12.186  22.921  -1.025  1.00  0.00    +0.000 F 
ATOM     72  C51 UNL A   1      14.411  22.218  -1.395  1.00  0.00    +0.000 C 
ATOM     73  F14 UNL A   1      14.166  22.083  -2.705  1.00  0.00    +0.000 F 
ATOM     74  C52 UNL A   1      15.677  21.920  -0.890  1.00  0.00    +0.000 C 
ATOM     75  F15 UNL A   1      16.626  21.492  -1.736  1.00  0.00    +0.000 F 
ENDBRANCH   64   65
TORSDOF 18
ENDMDL
MODEL 4
REMARK VINA RESULT:     -10.5     25.210     33.434
ROOT
ATOM     28  C23 UNL A   1      18.586  19.895   5.058  1.00  0.00    +0.000 C 
ATOM     29  C24 UNL A   1      18.944  18.568   5.665  1.00  0.00    +0.000 C 
ATOM     30  N4  UNL A   1      18.299  17.862   6.559  1.00  0.00    +0.000 N 
ATOM     31  C25 UNL A   1      19.035  16.696   6.721  1.00  0.00    +0.000 C 
ATOM     32  C26 UNL A   1      18.808  15.664   7.569  1.00  0.00    +0.000 C 
ATOM     44  C33 UNL A   1      17.715  15.608   8.503  1.00  0.00    +0.000 C 
ATOM     45  C34 UNL A   1      17.426  14.628   9.437  1.00  0.00    +0.000 C 
ATOM     46  C35 UNL A   1      16.249  14.989  10.101  1.00  0.00    +0.000 C 
ATOM     47  C36 UNL A   1      15.828  16.215   9.610  1.00  0.00    +0.000 C 
ATOM     48  N5  UNL A   1      16.732  16.578   8.626  1.00  0.00    +0.000 N 
ATOM     49  C37 UNL A   1      14.686  16.994  10.009  1.00  0.00    +0.000 C 
ATOM     61  C44 UNL A   1      14.332  18.187   9.472  1.00  0.00    +0.000 C 
ATOM     62  N6  UNL A   1      14.966  18.917   8.476  1.00  0.00    +0.000 N 
ATOM     63  C45 UNL A   1      14.247  19.998   8.307  1.00  0.00    +0.000 C 
ATOM     64  C46 UNL A   1      14.479  21.158   7.377  1.00  0.00    +0.000 C 
ATOM     76  C53 UNL A   1      15.578  21.169   6.596  1.00  0.00    +0.000 C 
ATOM     77  C54 UNL A   1      15.925  22.214   5.638  1.00  0.00    +0.000 C 
ATOM     78  C55 UNL A   1      17.038  21.853   4.981  1.00  0.00    +0.000 C 
ATOM     79  C56 UNL A   1      17.506  20.568   5.500  1.00  0.00    +0.000 C 
ATOM     80  N7  UNL A   1      16.593  20.252   6.478  1.00  0.00    +0.000 N 
ATOM     81  C57 UNL A   1      13.047  20.059   9.156  1.00  0.00    +0.000 C 
ATOM     82  C58 UNL A   1      13.166  18.949   9.870  1.00  0.00    +0.000 C 
ATOM     83  C59 UNL A   1      20.154  16.771   5.806  1.00  0.00    +0.000 C 
ATOM     84  C60 UNL A   1      20.180  17.937   5.178  1.00  0.00    +0.000 C 
ATOM    119  H27 UNL A   1      17.984  13.776   9.613  1.00  0.00    +0.000 H 
ATOM    120  H28 UNL A   1      15.775  14.436  10.832  1.00  0.00    +0.000 H 
ATOM    121  H29 UNL A   1      16.685  17.404   8.092  1.00  0.00    +0.000 H 
ATOM    122  H30 UNL A   1      15.399  23.090   5.490  1.00  0.00    +0.000 H 
ATOM    123  H31 UNL A   1      17.492  22.395   4.228  1.00  0.00    +0.000 H 
ATOM    124  H32 UNL A   1      16.662  19.447   7.039  1.00  0.00    +0.000 H 
ATOM    125  H33 UNL A   1      12.308  20.778   9.189  1.00  0.00    +0.000 H 
ATOM    126  H34 UNL A   1      12.512  18.663  10.615  1.00  0.00    +0.000 H 
ATOM    127  H35 UNL A   1      20.841  16.015   5.661  1.00  0.00    +0.000 H 
ATOM    128  H36 UNL A   1      20.883  18.307   4.519  1.00  0.00    +0.000 H 
ENDROOT
BRANCH   28   27
ATOM    129  H37 UNL A   1      20.734  21.482   5.131  1.00  0.00    +0.000 H 
ATOM    130  H38 UNL A   1      21.988  22.435   3.289  1.00  0.00    +0.000 H 
ATOM     27  C22 UNL A   1      19.371  20.418   3.911  1.00  0.00    +0.000 C 
ATOM    117  H25 UNL A   1      19.572  20.339   0.556  1.00  0.00    +0.000 H 
ATOM     86  C62 UNL A   1      21.223  21.768   3.102  1.00  0.00    +0.000 C 
ATOM     85  C61 UNL A   1      20.474  21.251   4.158  1.00  0.00    +0.000 C 
ATOM     24  C19 UNL A   1      20.935  21.380   1.791  1.00  0.00    +0.000 C 
ATOM     25  C20 UNL A   1      19.816  20.583   1.528  1.00  0.00    +0.000 C 
ATOM     26  C21 UNL A   1      19.027  20.116   2.585  1.00  0.00    +0.000 C 
ATOM    118  H26 UNL A   1      18.189  19.547   2.388  1.00  0.00    +0.000 H 
BRANCH   24   22
ATOM     22  C18 UNL A   1      21.787  21.804   0.656  1.00  0.00    +0.000 C 
ATOM     23  O2  UNL A   1      21.413  22.716  -0.072  1.00  0.00    +0.000 O 
BRANCH   22   21
ATOM    116  H24 UNL A   1      23.565  21.603  -0.247  1.00  0.00    +0.000 H 
ATOM     21  N3  UNL A   1      22.972  21.155   0.399  1.00  0.00    +0.000 N 
BRANCH   21   20
ATOM    114  H22 UNL A   1      22.648  19.328   1.287  1.00  0.00    +0.000 H 
ATOM    115  H23 UNL A   1      24.014  19.418   0.154  1.00  0.00    +0.000 H 
ATOM     20  C17 UNL A   1      23.478  19.907   0.940  1.00  0.00    +0.000 C 
BRANCH   20   19
ATOM    113  H21 UNL A   1      24.576  21.151   2.193  1.00  0.00    +0.000 H 
ATOM     19  C16 UNL A   1      24.452  20.092   2.097  1.00  0.00    +0.000 C 
ATOM    112  H20 UNL A   1      25.347  19.557   1.858  1.00  0.00    +0.000 H 
BRANCH   19   18
ATOM     18  C15 UNL A   1      23.980  19.618   3.472  1.00  0.00    +0.000 C 
ATOM    110  H18 UNL A   1      23.042  20.094   3.672  1.00  0.00    +0.000 H 
ATOM    111  H19 UNL A   1      23.942  18.552   3.396  1.00  0.00    +0.000 H 
BRANCH   18   17
ATOM     17  C14 UNL A   1      24.900  19.895   4.664  1.00  0.00    +0.000 C 
ATOM    108  H16 UNL A   1      25.641  19.123   4.682  1.00  0.00    +0.000 H 
ATOM    109  H17 UNL A   1      25.267  20.885   4.496  1.00  0.00    +0.000 H 
BRANCH   17   16
ATOM    106  H14 UNL A   1      25.054  20.121   6.763  1.00  0.00    +0.000 H 
ATOM    107  H15 UNL A   1      23.535  20.730   5.996  1.00  0.00    +0.000 H 
ATOM     16  C13 UNL A   1      24.267  19.951   6.059  1.00  0.00    +0.000 C 
BRANCH   16   15
ATOM    105  H13 UNL A   1      22.803  18.483   5.743  1.00  0.00    +0.000 H 
ATOM     15  C12 UNL A   1      23.491  18.721   6.528  1.00  0.00    +0.000 C 
ATOM    104  H12 UNL A   1      23.009  18.965   7.452  1.00  0.00    +0.000 H 
BRANCH   15   14
ATOM     14  N2  UNL A   1      24.296  17.541   6.737  1.00  0.00    +0.000 N 
ATOM    103  H11 UNL A   1      24.646  17.128   5.915  1.00  0.00    +0.000 H 
BRANCH   14   12
ATOM     12  C11 UNL A   1      24.651  16.900   7.904  1.00  0.00    +0.000 C 
ATOM     13  O1  UNL A   1      24.683  15.670   7.864  1.00  0.00    +0.000 O 
BRANCH   12   11
ATOM      3  C2  UNL A   1      26.340  18.909  10.537  1.00  0.00    +0.000 C 
ATOM      4  C3  UNL A   1      26.325  18.295   9.288  1.00  0.00    +0.000 C 
ATOM    131  H39 UNL A   1      22.771  16.384  10.469  1.00  0.00    +0.000 H 
ATOM    134  H42 UNL A   1      25.094  19.942  12.812  1.00  0.00    +0.000 H 
ATOM    133  H41 UNL A   1      22.958  19.217  13.588  1.00  0.00    +0.000 H 
ATOM    132  H40 UNL A   1      21.863  17.299  12.452  1.00  0.00    +0.000 H 
ATOM     11  C10 UNL A   1      25.051  17.641   9.106  1.00  0.00    +0.000 C 
ATOM     87  C63 UNL A   1      24.404  17.761  10.331  1.00  0.00    +0.000 C 
ATOM     88  C64 UNL A   1      23.234  17.189  10.921  1.00  0.00    +0.000 C 
ATOM     89  C65 UNL A   1      22.732  17.694  12.063  1.00  0.00    +0.000 C 
ATOM     90  C66 UNL A   1      23.391  18.783  12.757  1.00  0.00    +0.000 C 
ATOM     91  C67 UNL A   1      24.575  19.215  12.297  1.00  0.00    +0.000 C 
ATOM     92  N8  UNL A   1      25.107  18.677  11.117  1.00  0.00    +0.000 N 
BRANCH    3    2
ATOM     97  H5  UNL A   1      28.372  19.238  10.950  1.00  0.00    +0.000 H 
ATOM      2  C1  UNL A   1      27.430  19.657  11.234  1.00  0.00    +0.000 C 
ATOM     96  H4  UNL A   1      27.291  19.576  12.292  1.00  0.00    +0.000 H 
BRANCH    2    1
ATOM      1  N1  UNL A   1      27.407  21.062  10.857  1.00  0.00    +0.000 N 
ATOM     93  H1  UNL A   1      26.959  21.162   9.947  1.00  0.00    +0.000 H 
ATOM     94  H2  UNL A   1      28.362  21.416  10.806  1.00  0.00    +0.000 H 
ATOM     95  H3  UNL A   1      26.885  21.592  11.553  1.00  0.00    +0.000 H 
ENDBRANCH    2    1
ENDBRANCH    3    2
BRANCH    4    5
ATOM     98  H6  UNL A   1      28.371  16.576   9.121  1.00  0.00    +0.000 H 
ATOM     99  H7  UNL A   1      30.262  16.658   7.601  1.00  0.00    +0.000 H 
ATOM    100  H8  UNL A   1      30.449  18.458   5.985  1.00  0.00    +0.000 H 
ATOM      5  C4  UNL A   1      27.466  18.337   8.385  1.00  0.00    +0.000 C 
ATOM    102  H10 UNL A   1      26.871  20.123   7.425  1.00  0.00    +0.000 H 
ATOM      6  C5  UNL A   1      28.449  17.344   8.436  1.00  0.00    +0.000 C 
ATOM      7  C6  UNL A   1      29.537  17.392   7.561  1.00  0.00    +0.000 C 
ATOM      9  C8  UNL A   1      28.672  19.423   6.582  1.00  0.00    +0.000 C 
ATOM     10  C9  UNL A   1      27.588  19.382   7.459  1.00  0.00    +0.000 C 
ATOM    101  H9  UNL A   1      28.753  20.191   5.896  1.00  0.00    +0.000 H 
ATOM      8  C7  UNL A   1      29.647  18.429   6.633  1.00  0.00    +0.000 C 
ENDBRANCH    4    5
ENDBRANCH   12   11
ENDBRANCH   14   12
ENDBRANCH   15   14
ENDBRANCH   16   15
ENDBRANCH   17   16
ENDBRANCH   18   17
ENDBRANCH   19   18
ENDBRANCH   20   19
ENDBRANCH   21   20
ENDBRANCH   22   21
ENDBRANCH   24   22
ENDBRANCH   28   27
BRANCH   32   33
ATOM     33  C27 UNL A   1      19.762  14.507   7.520  1.00  0.00    +0.000 C 
ATOM     34  C28 UNL A   1      19.558  13.422   6.654  1.00  0.00    +0.000 C 
ATOM     35  F1  UNL A   1      18.472  13.381   5.869  1.00  0.00    +0.000 F 
ATOM     36  C29 UNL A   1      20.449  12.353   6.624  1.00  0.00    +0.000 C 
ATOM     37  F2  UNL A   1      20.206  11.303   5.827  1.00  0.00    +0.000 F 
ATOM     38  C30 UNL A   1      21.577  12.363   7.429  1.00  0.00    +0.000 C 
ATOM     39  F3  UNL A   1      22.436  11.335   7.397  1.00  0.00    +0.000 F 
ATOM     40  C31 UNL A   1      21.812  13.436   8.276  1.00  0.00    +0.000 C 
ATOM     41  F4  UNL A   1      22.909  13.454   9.047  1.00  0.00    +0.000 F 
ATOM     42  C32 UNL A   1      20.908  14.494   8.329  1.00  0.00    +0.000 C 
ATOM     43  F5  UNL A   1      21.153  15.511   9.171  1.00  0.00    +0.000 F 
ENDBRANCH   32   33
BRANCH   49   50
ATOM     50  C38 UNL A   1      13.837  16.458  11.123  1.00  0.00    +0.000 C 
ATOM     51  C39 UNL A   1      14.055  16.826  12.457  1.00  0.00    +0.000 C 
ATOM     52  F6  UNL A   1      15.087  17.621  12.778  1.00  0.00    +0.000 F 
ATOM     53  C40 UNL A   1      13.226  16.355  13.473  1.00  0.00    +0.000 C 
ATOM     54  F7  UNL A   1      13.471  16.693  14.746  1.00  0.00    +0.000 F 
ATOM     55  C41 UNL A   1      12.152  15.532  13.169  1.00  0.00    +0.000 C 
ATOM     56  F8  UNL A   1      11.348  15.090  14.147  1.00  0.00    +0.000 F 
ATOM     57  C42 UNL A   1      11.913  15.163  11.854  1.00  0.00    +0.000 C 
ATOM     58  F9  UNL A   1      10.869  14.376  11.558  1.00  0.00    +0.000 F 
ATOM     59  C43 UNL A   1      12.753  15.612  10.840  1.00  0.00    +0.000 C 
ATOM     60  F10 UNL A   1      12.502  15.235   9.577  1.00  0.00    +0.000 F 
ENDBRANCH   49   50
BRANCH   64   65
ATOM     65  C47 UNL A   1      13.530  22.299   7.334  1.00  0.00    +0.000 C 
ATOM     66  C48 UNL A   1      13.709  23.411   8.168  1.00  0.00    +0.000 C 
ATOM     67  F11 UNL A   1      14.731  23.437   9.037  1.00  0.00    +0.000 F 
ATOM     68  C49 UNL A   1      12.818  24.482   8.142  1.00  0.00    +0.000 C 
ATOM     69  F12 UNL A   1      12.990  25.514   8.978  1.00  0.00    +0.000 F 
ATOM     70  C50 UNL A   1      11.746  24.473   7.262  1.00  0.00    +0.000 C 
ATOM     71  F13 UNL A   1      10.892  25.506   7.233  1.00  0.00    +0.000 F 
ATOM     72  C51 UNL A   1      11.557  23.390   6.417  1.00  0.00    +0.000 C 
ATOM     73  F14 UNL A   1      10.530  23.384   5.556  1.00  0.00    +0.000 F 
ATOM     74  C52 UNL A   1      12.434  22.307   6.460  1.00  0.00    +0.000 C 
ATOM     75  F15 UNL A   1      12.221  21.269   5.637  1.00  0.00    +0.000 F 
ENDBRANCH   64   65
TORSDOF 18
ENDMDL
MODEL 5
REMARK VINA RESULT:     -10.3     25.487     33.916
ROOT
ATOM     28  C23 UNL A   1      18.799  17.028   5.659  1.00  0.00    +0.000 C 
ATOM     29  C24 UNL A   1      18.583  18.116   4.647  1.00  0.00    +0.000 C 
ATOM     30  N4  UNL A   1      17.734  19.113   4.667  1.00  0.00    +0.000 N 
ATOM     31  C25 UNL A   1      17.993  19.852   3.520  1.00  0.00    +0.000 C 
ATOM     32  C26 UNL A   1      17.352  20.953   3.061  1.00  0.00    +0.000 C 
ATOM     44  C33 UNL A   1      16.226  21.567   3.714  1.00  0.00    +0.000 C 
ATOM     45  C34 UNL A   1      15.478  22.657   3.305  1.00  0.00    +0.000 C 
ATOM     46  C35 UNL A   1      14.502  22.908   4.275  1.00  0.00    +0.000 C 
ATOM     47  C36 UNL A   1      14.615  21.948   5.268  1.00  0.00    +0.000 C 
ATOM     48  N5  UNL A   1      15.681  21.137   4.915  1.00  0.00    +0.000 N 
ATOM     49  C37 UNL A   1      13.811  21.785   6.451  1.00  0.00    +0.000 C 
ATOM     61  C44 UNL A   1      13.990  20.821   7.387  1.00  0.00    +0.000 C 
ATOM     62  N6  UNL A   1      14.929  19.799   7.416  1.00  0.00    +0.000 N 
ATOM     63  C45 UNL A   1      14.698  19.128   8.517  1.00  0.00    +0.000 C 
ATOM     64  C46 UNL A   1      15.392  17.901   9.045  1.00  0.00    +0.000 C 
ATOM     76  C53 UNL A   1      16.383  17.341   8.324  1.00  0.00    +0.000 C 
ATOM     77  C54 UNL A   1      17.153  16.164   8.715  1.00  0.00    +0.000 C 
ATOM     78  C55 UNL A   1      18.109  15.941   7.799  1.00  0.00    +0.000 C 
ATOM     79  C56 UNL A   1      17.991  16.937   6.733  1.00  0.00    +0.000 C 
ATOM     80  N7  UNL A   1      16.920  17.708   7.115  1.00  0.00    +0.000 N 
ATOM     81  C57 UNL A   1      13.604  19.674   9.334  1.00  0.00    +0.000 C 
ATOM     82  C58 UNL A   1      13.185  20.684   8.583  1.00  0.00    +0.000 C 
ATOM     83  C59 UNL A   1      19.103  19.212   2.846  1.00  0.00    +0.000 C 
ATOM     84  C60 UNL A   1      19.461  18.098   3.467  1.00  0.00    +0.000 C 
ATOM    119  H27 UNL A   1      15.617  23.193   2.433  1.00  0.00    +0.000 H 
ATOM    120  H28 UNL A   1      13.815  23.677   4.254  1.00  0.00    +0.000 H 
ATOM    121  H29 UNL A   1      16.004  20.368   5.439  1.00  0.00    +0.000 H 
ATOM    122  H30 UNL A   1      16.990  15.595   9.561  1.00  0.00    +0.000 H 
ATOM    123  H31 UNL A   1      18.814  15.188   7.840  1.00  0.00    +0.000 H 
ATOM    124  H32 UNL A   1      16.571  18.451   6.572  1.00  0.00    +0.000 H 
ATOM    125  H33 UNL A   1      13.253  19.356  10.251  1.00  0.00    +0.000 H 
ATOM    126  H34 UNL A   1      12.388  21.294   8.820  1.00  0.00    +0.000 H 
ATOM    127  H35 UNL A   1      19.556  19.576   1.993  1.00  0.00    +0.000 H 
ATOM    128  H36 UNL A   1      20.170  17.399   3.195  1.00  0.00    +0.000 H 
ENDROOT
BRANCH   28   27
ATOM    129  H37 UNL A   1      18.837  14.587   4.574  1.00  0.00    +0.000 H 
ATOM    130  H38 UNL A   1      20.679  13.020   4.410  1.00  0.00    +0.000 H 
ATOM     27  C22 UNL A   1      19.959  16.110   5.520  1.00  0.00    +0.000 C 
ATOM    117  H25 UNL A   1      23.257  15.866   6.128  1.00  0.00    +0.000 H 
ATOM     86  C62 UNL A   1      20.839  13.968   4.788  1.00  0.00    +0.000 C 
ATOM     85  C61 UNL A   1      19.772  14.855   4.921  1.00  0.00    +0.000 C 
ATOM     24  C19 UNL A   1      22.124  14.363   5.166  1.00  0.00    +0.000 C 
ATOM     25  C20 UNL A   1      22.317  15.595   5.801  1.00  0.00    +0.000 C 
ATOM     26  C21 UNL A   1      21.234  16.459   5.991  1.00  0.00    +0.000 C 
ATOM    118  H26 UNL A   1      21.374  17.358   6.479  1.00  0.00    +0.000 H 
BRANCH   24   22
ATOM     22  C18 UNL A   1      23.302  13.499   4.921  1.00  0.00    +0.000 C 
ATOM     23  O2  UNL A   1      24.428  13.976   5.001  1.00  0.00    +0.000 O 
BRANCH   22   21
ATOM    116  H24 UNL A   1      22.857  12.028   3.635  1.00  0.00    +0.000 H 
ATOM     21  N3  UNL A   1      23.132  12.180   4.568  1.00  0.00    +0.000 N 
BRANCH   21   20
ATOM    114  H22 UNL A   1      23.101  10.131   4.748  1.00  0.00    +0.000 H 
ATOM    115  H23 UNL A   1      24.301  10.988   5.740  1.00  0.00    +0.000 H 
ATOM     20  C17 UNL A   1      23.298  10.981   5.368  1.00  0.00    +0.000 C 
BRANCH   20   19
ATOM    113  H21 UNL A   1      22.130   9.883   6.692  1.00  0.00    +0.000 H 
ATOM     19  C16 UNL A   1      22.373  10.919   6.577  1.00  0.00    +0.000 C 
ATOM    112  H20 UNL A   1      21.535  11.554   6.377  1.00  0.00    +0.000 H 
BRANCH   19   18
ATOM     18  C15 UNL A   1      22.969  11.344   7.919  1.00  0.00    +0.000 C 
ATOM    110  H18 UNL A   1      22.671  10.617   8.646  1.00  0.00    +0.000 H 
ATOM    111  H19 UNL A   1      24.022  11.408   7.743  1.00  0.00    +0.000 H 
BRANCH   18   17
ATOM     17  C14 UNL A   1      22.575  12.722   8.457  1.00  0.00    +0.000 C 
ATOM    108  H16 UNL A   1      21.839  13.125   7.794  1.00  0.00    +0.000 H 
ATOM    109  H17 UNL A   1      22.244  12.535   9.457  1.00  0.00    +0.000 H 
BRANCH   17   16
ATOM    106  H14 UNL A   1      24.604  13.253   8.742  1.00  0.00    +0.000 H 
ATOM    107  H15 UNL A   1      23.615  14.368   7.720  1.00  0.00    +0.000 H 
ATOM     16  C13 UNL A   1      23.679  13.774   8.608  1.00  0.00    +0.000 C 
BRANCH   16   15
ATOM    105  H13 UNL A   1      24.492  15.265   9.838  1.00  0.00    +0.000 H 
ATOM     15  C12 UNL A   1      23.546  14.772   9.758  1.00  0.00    +0.000 C 
ATOM    104  H12 UNL A   1      23.276  14.228  10.640  1.00  0.00    +0.000 H 
BRANCH   15   14
ATOM     14  N2  UNL A   1      22.562  15.808   9.550  1.00  0.00    +0.000 N 
ATOM    103  H11 UNL A   1      21.647  15.484   9.391  1.00  0.00    +0.000 H 
BRANCH   14   12
ATOM     12  C11 UNL A   1      22.701  17.179   9.538  1.00  0.00    +0.000 C 
ATOM     13  O1  UNL A   1      21.702  17.827   9.226  1.00  0.00    +0.000 O 
BRANCH   12   11
ATOM      3  C2  UNL A   1      26.011  18.848   9.808  1.00  0.00    +0.000 C 
ATOM      4  C3  UNL A   1      25.003  18.245   9.063  1.00  0.00    +0.000 C 
ATOM    131  H39 UNL A   1      23.287  17.026  12.703  1.00  0.00    +0.000 H 
ATOM    134  H42 UNL A   1      26.995  20.099  12.103  1.00  0.00    +0.000 H 
ATOM    133  H41 UNL A   1      26.064  19.783  14.277  1.00  0.00    +0.000 H 
ATOM    132  H40 UNL A   1      24.264  18.098  14.572  1.00  0.00    +0.000 H 
ATOM     11  C10 UNL A   1      23.945  17.837   9.955  1.00  0.00    +0.000 C 
ATOM     87  C63 UNL A   1      24.437  18.077  11.234  1.00  0.00    +0.000 C 
ATOM     88  C64 UNL A   1      24.027  17.732  12.561  1.00  0.00    +0.000 C 
ATOM     89  C65 UNL A   1      24.601  18.325  13.624  1.00  0.00    +0.000 C 
ATOM     90  C66 UNL A   1      25.684  19.274  13.463  1.00  0.00    +0.000 C 
ATOM     91  C67 UNL A   1      26.181  19.479  12.234  1.00  0.00    +0.000 C 
ATOM     92  N8  UNL A   1      25.595  18.850  11.127  1.00  0.00    +0.000 N 
BRANCH    3    2
ATOM     97  H5  UNL A   1      27.622  20.175  10.047  1.00  0.00    +0.000 H 
ATOM      2  C1  UNL A   1      27.340  19.384   9.384  1.00  0.00    +0.000 C 
ATOM     96  H4  UNL A   1      27.269  19.749   8.380  1.00  0.00    +0.000 H 
BRANCH    2    1
ATOM      1  N1  UNL A   1      28.353  18.342   9.440  1.00  0.00    +0.000 N 
ATOM     93  H1  UNL A   1      28.404  17.868   8.538  1.00  0.00    +0.000 H 
ATOM     94  H2  UNL A   1      28.108  17.667  10.164  1.00  0.00    +0.000 H 
ATOM     95  H3  UNL A   1      29.258  18.758   9.657  1.00  0.00    +0.000 H 
ENDBRANCH    2    1
ENDBRANCH    3    2
BRANCH    4    5
ATOM     98  H6  UNL A   1      23.960  19.787   7.139  1.00  0.00    +0.000 H 
ATOM     99  H7  UNL A   1      24.136  19.489   4.736  1.00  0.00    +0.000 H 
ATOM    100  H8  UNL A   1      25.377  17.613   3.828  1.00  0.00    +0.000 H 
ATOM      5  C4  UNL A   1      25.097  18.074   7.621  1.00  0.00    +0.000 C 
ATOM    102  H10 UNL A   1      26.244  16.301   7.724  1.00  0.00    +0.000 H 
ATOM      6  C5  UNL A   1      24.487  18.986   6.756  1.00  0.00    +0.000 C 
ATOM      7  C6  UNL A   1      24.589  18.815   5.372  1.00  0.00    +0.000 C 
ATOM      9  C8  UNL A   1      25.906  16.818   5.708  1.00  0.00    +0.000 C 
ATOM     10  C9  UNL A   1      25.801  16.984   7.090  1.00  0.00    +0.000 C 
ATOM    101  H9  UNL A   1      26.432  16.019   5.322  1.00  0.00    +0.000 H 
ATOM      8  C7  UNL A   1      25.300  17.734   4.849  1.00  0.00    +0.000 C 
ENDBRANCH    4    5
ENDBRANCH   12   11
ENDBRANCH   14   12
ENDBRANCH   15   14
ENDBRANCH   16   15
ENDBRANCH   17   16
ENDBRANCH   18   17
ENDBRANCH   19   18
ENDBRANCH   20   19
ENDBRANCH   21   20
ENDBRANCH   22   21
ENDBRANCH   24   22
ENDBRANCH   28   27
BRANCH   32   33
ATOM     33  C27 UNL A   1      17.859  21.569   1.791  1.00  0.00    +0.000 C 
ATOM     34  C28 UNL A   1      17.467  21.090   0.533  1.00  0.00    +0.000 C 
ATOM     35  F1  UNL A   1      16.647  20.033   0.440  1.00  0.00    +0.000 F 
ATOM     36  C29 UNL A   1      17.951  21.669  -0.637  1.00  0.00    +0.000 C 
ATOM     37  F2  UNL A   1      17.603  21.160  -1.827  1.00  0.00    +0.000 F 
ATOM     38  C30 UNL A   1      18.806  22.757  -0.573  1.00  0.00    +0.000 C 
ATOM     39  F3  UNL A   1      19.269  23.315  -1.700  1.00  0.00    +0.000 F 
ATOM     40  C31 UNL A   1      19.189  23.264   0.659  1.00  0.00    +0.000 C 
ATOM     41  F4  UNL A   1      20.006  24.325   0.723  1.00  0.00    +0.000 F 
ATOM     42  C32 UNL A   1      18.729  22.670   1.832  1.00  0.00    +0.000 C 
ATOM     43  F5  UNL A   1      19.130  23.171   3.010  1.00  0.00    +0.000 F 
ENDBRANCH   32   33
BRANCH   49   50
ATOM     50  C38 UNL A   1      12.671  22.738   6.650  1.00  0.00    +0.000 C 
ATOM     51  C39 UNL A   1      12.815  23.910   7.407  1.00  0.00    +0.000 C 
ATOM     52  F6  UNL A   1      13.972  24.169   8.035  1.00  0.00    +0.000 F 
ATOM     53  C40 UNL A   1      11.759  24.807   7.541  1.00  0.00    +0.000 C 
ATOM     54  F7  UNL A   1      11.907  25.905   8.295  1.00  0.00    +0.000 F 
ATOM     55  C41 UNL A   1      10.552  24.563   6.903  1.00  0.00    +0.000 C 
ATOM     56  F8  UNL A   1       9.541  25.435   7.023  1.00  0.00    +0.000 F 
ATOM     57  C42 UNL A   1      10.391  23.415   6.142  1.00  0.00    +0.000 C 
ATOM     58  F9  UNL A   1       9.230  23.183   5.515  1.00  0.00    +0.000 F 
ATOM     59  C43 UNL A   1      11.437  22.504   6.025  1.00  0.00    +0.000 C 
ATOM     60  F10 UNL A   1      11.252  21.399   5.288  1.00  0.00    +0.000 F 
ENDBRANCH   49   50
BRANCH   64   65
ATOM     65  C47 UNL A   1      14.977  17.289  10.332  1.00  0.00    +0.000 C 
ATOM     66  C48 UNL A   1      15.380  17.847  11.553  1.00  0.00    +0.000 C 
ATOM     67  F11 UNL A   1      16.172  18.929  11.565  1.00  0.00    +0.000 F 
ATOM     68  C49 UNL A   1      15.004  17.274  12.766  1.00  0.00    +0.000 C 
ATOM     69  F12 UNL A   1      15.435  17.804  13.918  1.00  0.00    +0.000 F 
ATOM     70  C50 UNL A   1      14.196  16.147  12.782  1.00  0.00    +0.000 C 
ATOM     71  F13 UNL A   1      13.830  15.598  13.949  1.00  0.00    +0.000 F 
ATOM     72  C51 UNL A   1      13.773  15.585  11.587  1.00  0.00    +0.000 C 
ATOM     73  F14 UNL A   1      12.981  14.504  11.597  1.00  0.00    +0.000 F 
ATOM     74  C52 UNL A   1      14.169  16.144  10.372  1.00  0.00    +0.000 C 
ATOM     75  F15 UNL A   1      13.752  15.574   9.231  1.00  0.00    +0.000 F 
ENDBRANCH   64   65
TORSDOF 18
ENDMDL
MODEL 6
REMARK VINA RESULT:     -10.2     25.730     33.856
ROOT
ATOM     28  C23 UNL A   1      18.784  17.036   5.656  1.00  0.00    +0.000 C 
ATOM     29  C24 UNL A   1      18.564  18.125   4.645  1.00  0.00    +0.000 C 
ATOM     30  N4  UNL A   1      17.711  19.118   4.666  1.00  0.00    +0.000 N 
ATOM     31  C25 UNL A   1      17.968  19.859   3.521  1.00  0.00    +0.000 C 
ATOM     32  C26 UNL A   1      17.322  20.959   3.063  1.00  0.00    +0.000 C 
ATOM     44  C33 UNL A   1      16.194  21.568   3.718  1.00  0.00    +0.000 C 
ATOM     45  C34 UNL A   1      15.442  22.656   3.310  1.00  0.00    +0.000 C 
ATOM     46  C35 UNL A   1      14.465  22.902   4.281  1.00  0.00    +0.000 C 
ATOM     47  C36 UNL A   1      14.582  21.941   5.273  1.00  0.00    +0.000 C 
ATOM     48  N5  UNL A   1      15.651  21.134   4.918  1.00  0.00    +0.000 N 
ATOM     49  C37 UNL A   1      13.780  21.774   6.456  1.00  0.00    +0.000 C 
ATOM     61  C44 UNL A   1      13.963  20.809   7.390  1.00  0.00    +0.000 C 
ATOM     62  N6  UNL A   1      14.905  19.790   7.417  1.00  0.00    +0.000 N 
ATOM     63  C45 UNL A   1      14.677  19.117   8.518  1.00  0.00    +0.000 C 
ATOM     64  C46 UNL A   1      15.375  17.892   9.044  1.00  0.00    +0.000 C 
ATOM     76  C53 UNL A   1      16.368  17.336   8.322  1.00  0.00    +0.000 C 
ATOM     77  C54 UNL A   1      17.142  16.162   8.711  1.00  0.00    +0.000 C 
ATOM     78  C55 UNL A   1      18.098  15.944   7.794  1.00  0.00    +0.000 C 
ATOM     79  C56 UNL A   1      17.977  16.940   6.730  1.00  0.00    +0.000 C 
ATOM     80  N7  UNL A   1      16.903  17.707   7.113  1.00  0.00    +0.000 N 
ATOM     81  C57 UNL A   1      13.582  19.659   9.336  1.00  0.00    +0.000 C 
ATOM     82  C58 UNL A   1      13.159  20.668   8.587  1.00  0.00    +0.000 C 
ATOM     83  C59 UNL A   1      19.079  19.224   2.845  1.00  0.00    +0.000 C 
ATOM     84  C60 UNL A   1      19.442  18.111   3.465  1.00  0.00    +0.000 C 
ATOM    119  H27 UNL A   1      15.579  23.193   2.439  1.00  0.00    +0.000 H 
ATOM    120  H28 UNL A   1      13.776  23.669   4.261  1.00  0.00    +0.000 H 
ATOM    121  H29 UNL A   1      15.977  20.366   5.441  1.00  0.00    +0.000 H 
ATOM    122  H30 UNL A   1      16.982  15.591   9.556  1.00  0.00    +0.000 H 
ATOM    123  H31 UNL A   1      18.806  15.193   7.834  1.00  0.00    +0.000 H 
ATOM    124  H32 UNL A   1      16.551  18.450   6.571  1.00  0.00    +0.000 H 
ATOM    125  H33 UNL A   1      13.232  19.338  10.252  1.00  0.00    +0.000 H 
ATOM    126  H34 UNL A   1      12.359  21.275   8.825  1.00  0.00    +0.000 H 
ATOM    127  H35 UNL A   1      19.531  19.591   1.993  1.00  0.00    +0.000 H 
ATOM    128  H36 UNL A   1      20.153  17.415   3.191  1.00  0.00    +0.000 H 
ENDROOT
BRANCH   28   27
ATOM    129  H37 UNL A   1      18.875  14.679   4.402  1.00  0.00    +0.000 H 
ATOM    130  H38 UNL A   1      20.719  13.115   4.228  1.00  0.00    +0.000 H 
ATOM     27  C22 UNL A   1      19.948  16.122   5.515  1.00  0.00    +0.000 C 
ATOM    117  H25 UNL A   1      23.206  15.813   6.284  1.00  0.00    +0.000 H 
ATOM     86  C62 UNL A   1      20.860  14.032   4.680  1.00  0.00    +0.000 C 
ATOM     85  C61 UNL A   1      19.790  14.914   4.818  1.00  0.00    +0.000 C 
ATOM     24  C19 UNL A   1      22.123  14.390   5.156  1.00  0.00    +0.000 C 
ATOM     25  C20 UNL A   1      22.285  15.572   5.887  1.00  0.00    +0.000 C 
ATOM     26  C21 UNL A   1      21.196  16.428   6.079  1.00  0.00    +0.000 C 
ATOM    118  H26 UNL A   1      21.311  17.289   6.637  1.00  0.00    +0.000 H 
BRANCH   24   22
ATOM     22  C18 UNL A   1      23.310  13.537   4.914  1.00  0.00    +0.000 C 
ATOM     23  O2  UNL A   1      24.431  14.029   4.983  1.00  0.00    +0.000 O 
BRANCH   22   21
ATOM    116  H24 UNL A   1      22.979  12.040   3.625  1.00  0.00    +0.000 H 
ATOM     21  N3  UNL A   1      23.155  12.213   4.578  1.00  0.00    +0.000 N 
BRANCH   21   20
ATOM    114  H22 UNL A   1      23.191  10.167   4.792  1.00  0.00    +0.000 H 
ATOM    115  H23 UNL A   1      24.113  11.098   5.992  1.00  0.00    +0.000 H 
ATOM     20  C17 UNL A   1      23.211  11.033   5.421  1.00  0.00    +0.000 C 
BRANCH   20   19
ATOM    113  H21 UNL A   1      21.758   9.907   6.392  1.00  0.00    +0.000 H 
ATOM     19  C16 UNL A   1      22.059  10.934   6.413  1.00  0.00    +0.000 C 
ATOM    112  H20 UNL A   1      21.305  11.627   6.105  1.00  0.00    +0.000 H 
BRANCH   19   18
ATOM     18  C15 UNL A   1      22.389  11.227   7.877  1.00  0.00    +0.000 C 
ATOM    110  H18 UNL A   1      21.686  10.687   8.478  1.00  0.00    +0.000 H 
ATOM    111  H19 UNL A   1      23.410  10.931   7.993  1.00  0.00    +0.000 H 
BRANCH   18   17
ATOM     17  C14 UNL A   1      22.350  12.690   8.327  1.00  0.00    +0.000 C 
ATOM    108  H16 UNL A   1      21.865  13.249   7.553  1.00  0.00    +0.000 H 
ATOM    109  H17 UNL A   1      21.842  12.668   9.268  1.00  0.00    +0.000 H 
BRANCH   17   16
ATOM    106  H14 UNL A   1      24.395  12.622   8.866  1.00  0.00    +0.000 H 
ATOM    107  H15 UNL A   1      23.902  13.948   7.742  1.00  0.00    +0.000 H 
ATOM     16  C13 UNL A   1      23.683  13.383   8.625  1.00  0.00    +0.000 C 
BRANCH   16   15
ATOM    105  H13 UNL A   1      24.694  14.814   9.778  1.00  0.00    +0.000 H 
ATOM     15  C12 UNL A   1      23.704  14.406   9.760  1.00  0.00    +0.000 C 
ATOM    104  H12 UNL A   1      23.438  13.902  10.666  1.00  0.00    +0.000 H 
BRANCH   15   14
ATOM     14  N2  UNL A   1      22.807  15.524   9.585  1.00  0.00    +0.000 N 
ATOM    103  H11 UNL A   1      21.850  15.292   9.597  1.00  0.00    +0.000 H 
BRANCH   14   12
ATOM     12  C11 UNL A   1      23.075  16.863   9.406  1.00  0.00    +0.000 C 
ATOM     13  O1  UNL A   1      22.101  17.604   9.279  1.00  0.00    +0.000 O 
BRANCH   12   11
ATOM      3  C2  UNL A   1      26.291  18.560  10.178  1.00  0.00    +0.000 C 
ATOM      4  C3  UNL A   1      24.955  18.289  10.454  1.00  0.00    +0.000 C 
ATOM    131  H39 UNL A   1      24.726  16.480   6.665  1.00  0.00    +0.000 H 
ATOM    134  H42 UNL A   1      28.731  18.018   8.934  1.00  0.00    +0.000 H 
ATOM    133  H41 UNL A   1      28.925  16.798   6.893  1.00  0.00    +0.000 H 
ATOM    132  H40 UNL A   1      26.854  16.151   5.686  1.00  0.00    +0.000 H 
ATOM     11  C10 UNL A   1      24.444  17.392   9.445  1.00  0.00    +0.000 C 
ATOM     87  C63 UNL A   1      25.465  17.284   8.507  1.00  0.00    +0.000 C 
ATOM     88  C64 UNL A   1      25.577  16.745   7.186  1.00  0.00    +0.000 C 
ATOM     89  C65 UNL A   1      26.787  16.582   6.620  1.00  0.00    +0.000 C 
ATOM     90  C66 UNL A   1      27.998  17.000   7.298  1.00  0.00    +0.000 C 
ATOM     91  C67 UNL A   1      27.888  17.652   8.465  1.00  0.00    +0.000 C 
ATOM     92  N8  UNL A   1      26.626  17.838   9.048  1.00  0.00    +0.000 N 
BRANCH    3    2
ATOM     97  H5  UNL A   1      26.791  20.421  11.013  1.00  0.00    +0.000 H 
ATOM      2  C1  UNL A   1      27.256  19.469  10.869  1.00  0.00    +0.000 C 
ATOM     96  H4  UNL A   1      28.135  19.573  10.266  1.00  0.00    +0.000 H 
BRANCH    2    1
ATOM      1  N1  UNL A   1      27.629  18.927  12.166  1.00  0.00    +0.000 N 
ATOM     93  H1  UNL A   1      27.734  17.916  12.095  1.00  0.00    +0.000 H 
ATOM     94  H2  UNL A   1      26.903  19.146  12.848  1.00  0.00    +0.000 H 
ATOM     95  H3  UNL A   1      28.512  19.340  12.466  1.00  0.00    +0.000 H 
ENDBRANCH    2    1
ENDBRANCH    3    2
BRANCH    4    5
ATOM     98  H6  UNL A   1      24.311  17.140  12.785  1.00  0.00    +0.000 H 
ATOM     99  H7  UNL A   1      23.156  18.144  14.669  1.00  0.00    +0.000 H 
ATOM    100  H8  UNL A   1      22.441  20.460  14.566  1.00  0.00    +0.000 H 
ATOM      5  C4  UNL A   1      24.258  18.878  11.588  1.00  0.00    +0.000 C 
ATOM    102  H10 UNL A   1      24.003  20.770  10.679  1.00  0.00    +0.000 H 
ATOM      6  C5  UNL A   1      24.006  18.124  12.737  1.00  0.00    +0.000 C 
ATOM      7  C6  UNL A   1      23.341  18.703  13.822  1.00  0.00    +0.000 C 
ATOM      9  C8  UNL A   1      23.171  20.789  12.616  1.00  0.00    +0.000 C 
ATOM     10  C9  UNL A   1      23.829  20.212  11.529  1.00  0.00    +0.000 C 
ATOM    101  H9  UNL A   1      22.865  21.773  12.571  1.00  0.00    +0.000 H 
ATOM      8  C7  UNL A   1      22.927  20.034  13.762  1.00  0.00    +0.000 C 
ENDBRANCH    4    5
ENDBRANCH   12   11
ENDBRANCH   14   12
ENDBRANCH   15   14
ENDBRANCH   16   15
ENDBRANCH   17   16
ENDBRANCH   18   17
ENDBRANCH   19   18
ENDBRANCH   20   19
ENDBRANCH   21   20
ENDBRANCH   22   21
ENDBRANCH   24   22
ENDBRANCH   28   27
BRANCH   32   33
ATOM     33  C27 UNL A   1      17.827  21.579   1.794  1.00  0.00    +0.000 C 
ATOM     34  C28 UNL A   1      18.757  22.628   1.807  1.00  0.00    +0.000 C 
ATOM     35  F1  UNL A   1      19.192  23.130   2.972  1.00  0.00    +0.000 F 
ATOM     36  C29 UNL A   1      19.212  23.197   0.620  1.00  0.00    +0.000 C 
ATOM     37  F2  UNL A   1      20.061  24.234   0.659  1.00  0.00    +0.000 F 
ATOM     38  C30 UNL A   1      18.775  22.705  -0.600  1.00  0.00    +0.000 C 
ATOM     39  F3  UNL A   1      19.217  23.252  -1.741  1.00  0.00    +0.000 F 
ATOM     40  C31 UNL A   1      17.874  21.652  -0.638  1.00  0.00    +0.000 C 
ATOM     41  F4  UNL A   1      17.460  21.167  -1.817  1.00  0.00    +0.000 F 
ATOM     42  C32 UNL A   1      17.395  21.101   0.547  1.00  0.00    +0.000 C 
ATOM     43  F5  UNL A   1      16.510  20.093   0.479  1.00  0.00    +0.000 F 
ENDBRANCH   32   33
BRANCH   49   50
ATOM     50  C38 UNL A   1      12.636  22.723   6.657  1.00  0.00    +0.000 C 
ATOM     51  C39 UNL A   1      12.781  23.901   7.402  1.00  0.00    +0.000 C 
ATOM     52  F6  UNL A   1      13.941  24.172   8.018  1.00  0.00    +0.000 F 
ATOM     53  C40 UNL A   1      11.721  24.795   7.538  1.00  0.00    +0.000 C 
ATOM     54  F7  UNL A   1      11.869  25.900   8.282  1.00  0.00    +0.000 F 
ATOM     55  C41 UNL A   1      10.510  24.539   6.912  1.00  0.00    +0.000 C 
ATOM     56  F8  UNL A   1       9.495  25.406   7.034  1.00  0.00    +0.000 F 
ATOM     57  C42 UNL A   1      10.349  23.383   6.162  1.00  0.00    +0.000 C 
ATOM     58  F9  UNL A   1       9.183  23.140   5.547  1.00  0.00    +0.000 F 
ATOM     59  C43 UNL A   1      11.398  22.477   6.044  1.00  0.00    +0.000 C 
ATOM     60  F10 UNL A   1      11.213  21.365   5.317  1.00  0.00    +0.000 F 
ENDBRANCH   49   50
BRANCH   64   65
ATOM     65  C47 UNL A   1      14.963  17.277  10.331  1.00  0.00    +0.000 C 
ATOM     66  C48 UNL A   1      15.367  17.833  11.552  1.00  0.00    +0.000 C 
ATOM     67  F11 UNL A   1      16.157  18.916  11.565  1.00  0.00    +0.000 F 
ATOM     68  C49 UNL A   1      14.993  17.257  12.764  1.00  0.00    +0.000 C 
ATOM     69  F12 UNL A   1      15.425  17.786  13.916  1.00  0.00    +0.000 F 
ATOM     70  C50 UNL A   1      14.187  16.129  12.779  1.00  0.00    +0.000 C 
ATOM     71  F13 UNL A   1      13.823  15.578  13.945  1.00  0.00    +0.000 F 
ATOM     72  C51 UNL A   1      13.763  15.568  11.583  1.00  0.00    +0.000 C 
ATOM     73  F14 UNL A   1      12.974  14.486  11.593  1.00  0.00    +0.000 F 
ATOM     74  C52 UNL A   1      14.157  16.130  10.369  1.00  0.00    +0.000 C 
ATOM     75  F15 UNL A   1      13.740  15.562   9.228  1.00  0.00    +0.000 F 
ENDBRANCH   64   65
TORSDOF 18
ENDMDL
MODEL 7
REMARK VINA RESULT:     -10.2     25.308     34.045
ROOT
ATOM     28  C23 UNL A   1      22.184   8.777   7.680  1.00  0.00    +0.000 C 
ATOM     29  C24 UNL A   1      23.307   8.206   6.863  1.00  0.00    +0.000 C 
ATOM     30  N4  UNL A   1      23.705   6.964   6.749  1.00  0.00    +0.000 N 
ATOM     31  C25 UNL A   1      24.740   6.982   5.824  1.00  0.00    +0.000 C 
ATOM     32  C26 UNL A   1      25.512   5.953   5.400  1.00  0.00    +0.000 C 
ATOM     44  C33 UNL A   1      25.390   4.599   5.871  1.00  0.00    +0.000 C 
ATOM     45  C34 UNL A   1      26.155   3.495   5.536  1.00  0.00    +0.000 C 
ATOM     46  C35 UNL A   1      25.648   2.387   6.223  1.00  0.00    +0.000 C 
ATOM     47  C36 UNL A   1      24.594   2.809   7.017  1.00  0.00    +0.000 C 
ATOM     48  N5  UNL A   1      24.442   4.166   6.785  1.00  0.00    +0.000 N 
ATOM     49  C37 UNL A   1      23.785   2.030   7.919  1.00  0.00    +0.000 C 
ATOM     61  C44 UNL A   1      22.758   2.515   8.659  1.00  0.00    +0.000 C 
ATOM     62  N6  UNL A   1      22.280   3.816   8.739  1.00  0.00    +0.000 N 
ATOM     63  C45 UNL A   1      21.283   3.782   9.588  1.00  0.00    +0.000 C 
ATOM     64  C46 UNL A   1      20.415   4.910  10.078  1.00  0.00    +0.000 C 
ATOM     76  C53 UNL A   1      20.656   6.164   9.649  1.00  0.00    +0.000 C 
ATOM     77  C54 UNL A   1      19.891   7.349  10.025  1.00  0.00    +0.000 C 
ATOM     78  C55 UNL A   1      20.358   8.407   9.343  1.00  0.00    +0.000 C 
ATOM     79  C56 UNL A   1      21.485   7.981   8.512  1.00  0.00    +0.000 C 
ATOM     80  N7  UNL A   1      21.609   6.640   8.782  1.00  0.00    +0.000 N 
ATOM     81  C57 UNL A   1      20.991   2.442  10.117  1.00  0.00    +0.000 C 
ATOM     82  C58 UNL A   1      21.940   1.714   9.546  1.00  0.00    +0.000 C 
ATOM     83  C59 UNL A   1      24.885   8.351   5.378  1.00  0.00    +0.000 C 
ATOM     84  C60 UNL A   1      24.068   9.158   6.038  1.00  0.00    +0.000 C 
ATOM    119  H27 UNL A   1      26.962   3.491   4.892  1.00  0.00    +0.000 H 
ATOM    120  H28 UNL A   1      26.000   1.420   6.150  1.00  0.00    +0.000 H 
ATOM    121  H29 UNL A   1      23.762   4.738   7.208  1.00  0.00    +0.000 H 
ATOM    122  H30 UNL A   1      19.114   7.370  10.704  1.00  0.00    +0.000 H 
ATOM    123  H31 UNL A   1      19.983   9.367   9.396  1.00  0.00    +0.000 H 
ATOM    124  H32 UNL A   1      22.313   6.075   8.391  1.00  0.00    +0.000 H 
ATOM    125  H33 UNL A   1      20.244   2.145  10.763  1.00  0.00    +0.000 H 
ATOM    126  H34 UNL A   1      22.079   0.705   9.711  1.00  0.00    +0.000 H 
ATOM    127  H35 UNL A   1      25.540   8.659   4.643  1.00  0.00    +0.000 H 
ATOM    128  H36 UNL A   1      23.985  10.186   5.988  1.00  0.00    +0.000 H 
ENDROOT
BRANCH   28   27
ATOM    129  H37 UNL A   1      23.132  10.916   8.970  1.00  0.00    +0.000 H 
ATOM    130  H38 UNL A   1      22.454  13.235   8.780  1.00  0.00    +0.000 H 
ATOM     27  C22 UNL A   1      21.789  10.198   7.502  1.00  0.00    +0.000 C 
ATOM    117  H25 UNL A   1      19.775  12.203   5.705  1.00  0.00    +0.000 H 
ATOM     86  C62 UNL A   1      22.047  12.525   8.151  1.00  0.00    +0.000 C 
ATOM     85  C61 UNL A   1      22.406  11.185   8.287  1.00  0.00    +0.000 C 
ATOM     24  C19 UNL A   1      21.136  12.904   7.162  1.00  0.00    +0.000 C 
ATOM     25  C20 UNL A   1      20.486  11.927   6.400  1.00  0.00    +0.000 C 
ATOM     26  C21 UNL A   1      20.800  10.577   6.581  1.00  0.00    +0.000 C 
ATOM    118  H26 UNL A   1      20.304   9.856   6.034  1.00  0.00    +0.000 H 
BRANCH   24   22
ATOM     22  C18 UNL A   1      20.829  14.329   6.901  1.00  0.00    +0.000 C 
ATOM     23  O2  UNL A   1      20.518  15.060   7.834  1.00  0.00    +0.000 O 
BRANCH   22   21
ATOM    116  H24 UNL A   1      20.021  15.244   5.311  1.00  0.00    +0.000 H 
ATOM     21  N3  UNL A   1      20.855  14.820   5.616  1.00  0.00    +0.000 N 
BRANCH   21   20
ATOM    114  H22 UNL A   1      22.168  13.785   4.416  1.00  0.00    +0.000 H 
ATOM    115  H23 UNL A   1      21.588  15.342   3.784  1.00  0.00    +0.000 H 
ATOM     20  C17 UNL A   1      21.932  14.804   4.643  1.00  0.00    +0.000 C 
BRANCH   20   19
ATOM    113  H21 UNL A   1      22.887  16.132   5.926  1.00  0.00    +0.000 H 
ATOM     19  C16 UNL A   1      23.201  15.496   5.124  1.00  0.00    +0.000 C 
ATOM    112  H20 UNL A   1      23.629  16.009   4.289  1.00  0.00    +0.000 H 
BRANCH   19   18
ATOM     18  C15 UNL A   1      24.285  14.600   5.724  1.00  0.00    +0.000 C 
ATOM    110  H18 UNL A   1      23.800  13.729   6.115  1.00  0.00    +0.000 H 
ATOM    111  H19 UNL A   1      24.967  14.419   4.920  1.00  0.00    +0.000 H 
BRANCH   18   17
ATOM     17  C14 UNL A   1      25.145  15.190   6.844  1.00  0.00    +0.000 C 
ATOM    108  H16 UNL A   1      26.158  14.905   6.652  1.00  0.00    +0.000 H 
ATOM    109  H17 UNL A   1      24.946  16.241   6.811  1.00  0.00    +0.000 H 
BRANCH   17   16
ATOM    106  H14 UNL A   1      24.214  13.903   8.243  1.00  0.00    +0.000 H 
ATOM    107  H15 UNL A   1      25.774  14.656   8.755  1.00  0.00    +0.000 H 
ATOM     16  C13 UNL A   1      24.821  14.783   8.286  1.00  0.00    +0.000 C 
BRANCH   16   15
ATOM    105  H13 UNL A   1      24.813  16.189   9.842  1.00  0.00    +0.000 H 
ATOM     15  C12 UNL A   1      24.088  15.803   9.155  1.00  0.00    +0.000 C 
ATOM    104  H12 UNL A   1      23.273  15.304   9.638  1.00  0.00    +0.000 H 
BRANCH   15   14
ATOM     14  N2  UNL A   1      23.559  16.941   8.440  1.00  0.00    +0.000 N 
ATOM    103  H11 UNL A   1      22.756  16.754   7.902  1.00  0.00    +0.000 H 
BRANCH   14   12
ATOM     12  C11 UNL A   1      23.998  18.246   8.391  1.00  0.00    +0.000 C 
ATOM     13  O1  UNL A   1      23.686  18.890   7.389  1.00  0.00    +0.000 O 
BRANCH   12   11
ATOM      3  C2  UNL A   1      26.488  19.677  10.751  1.00  0.00    +0.000 C 
ATOM      4  C3  UNL A   1      26.158  19.046   9.555  1.00  0.00    +0.000 C 
ATOM    131  H39 UNL A   1      22.283  18.532  11.103  1.00  0.00    +0.000 H 
ATOM    134  H42 UNL A   1      25.868  21.184  13.019  1.00  0.00    +0.000 H 
ATOM    133  H41 UNL A   1      23.688  21.275  13.982  1.00  0.00    +0.000 H 
ATOM    132  H40 UNL A   1      21.914  19.798  13.067  1.00  0.00    +0.000 H 
ATOM     11  C10 UNL A   1      24.728  18.861   9.505  1.00  0.00    +0.000 C 
ATOM     87  C63 UNL A   1      24.268  19.255  10.757  1.00  0.00    +0.000 C 
ATOM     88  C64 UNL A   1      23.029  19.150  11.463  1.00  0.00    +0.000 C 
ATOM     89  C65 UNL A   1      22.829  19.851  12.594  1.00  0.00    +0.000 C 
ATOM     90  C66 UNL A   1      23.875  20.679  13.161  1.00  0.00    +0.000 C 
ATOM     91  C67 UNL A   1      25.091  20.655  12.594  1.00  0.00    +0.000 C 
ATOM     92  N8  UNL A   1      25.305  19.911  11.425  1.00  0.00    +0.000 N 
BRANCH    3    2
ATOM     97  H5  UNL A   1      27.699  20.849  12.004  1.00  0.00    +0.000 H 
ATOM      2  C1  UNL A   1      27.823  20.038  11.318  1.00  0.00    +0.000 C 
ATOM     96  H4  UNL A   1      28.479  20.322  10.522  1.00  0.00    +0.000 H 
BRANCH    2    1
ATOM      1  N1  UNL A   1      28.398  18.907  12.030  1.00  0.00    +0.000 N 
ATOM     93  H1  UNL A   1      27.650  18.338  12.426  1.00  0.00    +0.000 H 
ATOM     94  H2  UNL A   1      29.000  19.247  12.779  1.00  0.00    +0.000 H 
ATOM     95  H3  UNL A   1      28.948  18.342  11.382  1.00  0.00    +0.000 H 
ENDBRANCH    2    1
ENDBRANCH    3    2
BRANCH    4    5
ATOM     98  H6  UNL A   1      27.030  20.412   7.424  1.00  0.00    +0.000 H 
ATOM     99  H7  UNL A   1      28.717  19.738   5.814  1.00  0.00    +0.000 H 
ATOM    100  H8  UNL A   1      29.829  17.594   6.039  1.00  0.00    +0.000 H 
ATOM      5  C4  UNL A   1      27.164  18.650   8.580  1.00  0.00    +0.000 C 
ATOM    102  H10 UNL A   1      27.548  16.771   9.469  1.00  0.00    +0.000 H 
ATOM      6  C5  UNL A   1      27.500  19.499   7.521  1.00  0.00    +0.000 C 
ATOM      7  C6  UNL A   1      28.471  19.111   6.594  1.00  0.00    +0.000 C 
ATOM      9  C8  UNL A   1      28.774  17.024   7.773  1.00  0.00    +0.000 C 
ATOM     10  C9  UNL A   1      27.800  17.407   8.696  1.00  0.00    +0.000 C 
ATOM    101  H9  UNL A   1      29.245  16.111   7.868  1.00  0.00    +0.000 H 
ATOM      8  C7  UNL A   1      29.109  17.876   6.722  1.00  0.00    +0.000 C 
ENDBRANCH    4    5
ENDBRANCH   12   11
ENDBRANCH   14   12
ENDBRANCH   15   14
ENDBRANCH   16   15
ENDBRANCH   17   16
ENDBRANCH   18   17
ENDBRANCH   19   18
ENDBRANCH   20   19
ENDBRANCH   21   20
ENDBRANCH   22   21
ENDBRANCH   24   22
ENDBRANCH   28   27
BRANCH   32   33
ATOM     33  C27 UNL A   1      26.557   6.254   4.366  1.00  0.00    +0.000 C 
ATOM     34  C28 UNL A   1      27.866   6.610   4.725  1.00  0.00    +0.000 C 
ATOM     35  F1  UNL A   1      28.203   6.724   6.017  1.00  0.00    +0.000 F 
ATOM     36  C29 UNL A   1      28.823   6.892   3.754  1.00  0.00    +0.000 C 
ATOM     37  F2  UNL A   1      30.052   7.280   4.121  1.00  0.00    +0.000 F 
ATOM     38  C30 UNL A   1      28.502   6.790   2.409  1.00  0.00    +0.000 C 
ATOM     39  F3  UNL A   1      29.425   7.059   1.476  1.00  0.00    +0.000 F 
ATOM     40  C31 UNL A   1      27.221   6.417   2.031  1.00  0.00    +0.000 C 
ATOM     41  F4  UNL A   1      26.912   6.307   0.731  1.00  0.00    +0.000 F 
ATOM     42  C32 UNL A   1      26.254   6.162   2.999  1.00  0.00    +0.000 C 
ATOM     43  F5  UNL A   1      25.018   5.820   2.602  1.00  0.00    +0.000 F 
ENDBRANCH   32   33
BRANCH   49   50
ATOM     50  C38 UNL A   1      24.120   0.577   8.070  1.00  0.00    +0.000 C 
ATOM     51  C39 UNL A   1      23.562  -0.398   7.232  1.00  0.00    +0.000 C 
ATOM     52  F6  UNL A   1      22.650  -0.054   6.311  1.00  0.00    +0.000 F 
ATOM     53  C40 UNL A   1      23.922  -1.738   7.357  1.00  0.00    +0.000 C 
ATOM     54  F7  UNL A   1      23.353  -2.659   6.568  1.00  0.00    +0.000 F 
ATOM     55  C41 UNL A   1      24.863  -2.121   8.302  1.00  0.00    +0.000 C 
ATOM     56  F8  UNL A   1      25.217  -3.409   8.412  1.00  0.00    +0.000 F 
ATOM     57  C42 UNL A   1      25.434  -1.171   9.135  1.00  0.00    +0.000 C 
ATOM     58  F9  UNL A   1      26.352  -1.538  10.041  1.00  0.00    +0.000 F 
ATOM     59  C43 UNL A   1      25.059   0.165   9.029  1.00  0.00    +0.000 C 
ATOM     60  F10 UNL A   1      25.623   1.062   9.851  1.00  0.00    +0.000 F 
ENDBRANCH   49   50
BRANCH   64   65
ATOM     65  C47 UNL A   1      19.320   4.658  11.049  1.00  0.00    +0.000 C 
ATOM     66  C48 UNL A   1      19.558   4.727  12.429  1.00  0.00    +0.000 C 
ATOM     67  F11 UNL A   1      20.791   4.995  12.883  1.00  0.00    +0.000 F 
ATOM     68  C49 UNL A   1      18.540   4.482  13.348  1.00  0.00    +0.000 C 
ATOM     69  F12 UNL A   1      18.803   4.516  14.661  1.00  0.00    +0.000 F 
ATOM     70  C50 UNL A   1      17.258   4.190  12.905  1.00  0.00    +0.000 C 
ATOM     71  F13 UNL A   1      16.278   3.960  13.789  1.00  0.00    +0.000 F 
ATOM     72  C51 UNL A   1      16.996   4.130  11.544  1.00  0.00    +0.000 C 
ATOM     73  F14 UNL A   1      15.757   3.861  11.112  1.00  0.00    +0.000 F 
ATOM     74  C52 UNL A   1      18.020   4.351  10.624  1.00  0.00    +0.000 C 
ATOM     75  F15 UNL A   1      17.740   4.277   9.314  1.00  0.00    +0.000 F 
ENDBRANCH   64   65
TORSDOF 18
ENDMDL
MODEL 8
REMARK VINA RESULT:     -10.1     25.522     34.060
ROOT
ATOM     28  C23 UNL A   1      22.116   8.778   7.624  1.00  0.00    +0.000 C 
ATOM     29  C24 UNL A   1      23.246   8.229   6.801  1.00  0.00    +0.000 C 
ATOM     30  N4  UNL A   1      23.662   6.993   6.679  1.00  0.00    +0.000 N 
ATOM     31  C25 UNL A   1      24.695   7.033   5.752  1.00  0.00    +0.000 C 
ATOM     32  C26 UNL A   1      25.481   6.018   5.319  1.00  0.00    +0.000 C 
ATOM     44  C33 UNL A   1      25.380   4.659   5.783  1.00  0.00    +0.000 C 
ATOM     45  C34 UNL A   1      26.160   3.569   5.440  1.00  0.00    +0.000 C 
ATOM     46  C35 UNL A   1      25.671   2.449   6.120  1.00  0.00    +0.000 C 
ATOM     47  C36 UNL A   1      24.612   2.850   6.919  1.00  0.00    +0.000 C 
ATOM     48  N5  UNL A   1      24.440   4.206   6.696  1.00  0.00    +0.000 N 
ATOM     49  C37 UNL A   1      23.817   2.054   7.817  1.00  0.00    +0.000 C 
ATOM     61  C44 UNL A   1      22.785   2.519   8.562  1.00  0.00    +0.000 C 
ATOM     62  N6  UNL A   1      22.287   3.812   8.651  1.00  0.00    +0.000 N 
ATOM     63  C45 UNL A   1      21.292   3.758   9.501  1.00  0.00    +0.000 C 
ATOM     64  C46 UNL A   1      20.409   4.870  10.000  1.00  0.00    +0.000 C 
ATOM     76  C53 UNL A   1      20.630   6.130   9.578  1.00  0.00    +0.000 C 
ATOM     77  C54 UNL A   1      19.848   7.301   9.963  1.00  0.00    +0.000 C 
ATOM     78  C55 UNL A   1      20.299   8.370   9.287  1.00  0.00    +0.000 C 
ATOM     79  C56 UNL A   1      21.430   7.967   8.452  1.00  0.00    +0.000 C 
ATOM     80  N7  UNL A   1      21.574   6.625   8.713  1.00  0.00    +0.000 N 
ATOM     81  C57 UNL A   1      21.021   2.410  10.022  1.00  0.00    +0.000 C 
ATOM     82  C58 UNL A   1      21.980   1.700   9.445  1.00  0.00    +0.000 C 
ATOM     83  C59 UNL A   1      24.819   8.407   5.315  1.00  0.00    +0.000 C 
ATOM     84  C60 UNL A   1      23.991   9.197   5.981  1.00  0.00    +0.000 C 
ATOM    119  H27 UNL A   1      26.966   3.581   4.793  1.00  0.00    +0.000 H 
ATOM    120  H28 UNL A   1      26.037   1.488   6.040  1.00  0.00    +0.000 H 
ATOM    121  H29 UNL A   1      23.752   4.766   7.123  1.00  0.00    +0.000 H 
ATOM    122  H30 UNL A   1      19.072   7.307  10.644  1.00  0.00    +0.000 H 
ATOM    123  H31 UNL A   1      19.909   9.325   9.347  1.00  0.00    +0.000 H 
ATOM    124  H32 UNL A   1      22.286   6.073   8.317  1.00  0.00    +0.000 H 
ATOM    125  H33 UNL A   1      20.279   2.098  10.668  1.00  0.00    +0.000 H 
ATOM    126  H34 UNL A   1      22.134   0.692   9.603  1.00  0.00    +0.000 H 
ATOM    127  H35 UNL A   1      25.467   8.729   4.580  1.00  0.00    +0.000 H 
ATOM    128  H36 UNL A   1      23.893  10.224   5.938  1.00  0.00    +0.000 H 
ENDROOT
BRANCH   28   27
ATOM    129  H37 UNL A   1      22.841  10.886   9.096  1.00  0.00    +0.000 H 
ATOM    130  H38 UNL A   1      22.116  13.192   8.917  1.00  0.00    +0.000 H 
ATOM     27  C22 UNL A   1      21.699  10.194   7.455  1.00  0.00    +0.000 C 
ATOM    117  H25 UNL A   1      19.844  12.217   5.514  1.00  0.00    +0.000 H 
ATOM     86  C62 UNL A   1      21.808  12.498   8.218  1.00  0.00    +0.000 C 
ATOM     85  C61 UNL A   1      22.190  11.164   8.344  1.00  0.00    +0.000 C 
ATOM     24  C19 UNL A   1      21.006  12.893   7.145  1.00  0.00    +0.000 C 
ATOM     25  C20 UNL A   1      20.478  11.932   6.276  1.00  0.00    +0.000 C 
ATOM     26  C21 UNL A   1      20.812  10.584   6.440  1.00  0.00    +0.000 C 
ATOM    118  H26 UNL A   1      20.405   9.874   5.812  1.00  0.00    +0.000 H 
BRANCH   24   22
ATOM     22  C18 UNL A   1      20.686  14.320   6.905  1.00  0.00    +0.000 C 
ATOM     23  O2  UNL A   1      20.292  15.014   7.834  1.00  0.00    +0.000 O 
BRANCH   22   21
ATOM    116  H24 UNL A   1      19.982  14.783   5.087  1.00  0.00    +0.000 H 
ATOM     21  N3  UNL A   1      20.793  14.850   5.640  1.00  0.00    +0.000 N 
BRANCH   21   20
ATOM    114  H22 UNL A   1      22.632  14.741   4.723  1.00  0.00    +0.000 H 
ATOM    115  H23 UNL A   1      21.548  16.030   4.157  1.00  0.00    +0.000 H 
ATOM     20  C17 UNL A   1      21.926  15.495   5.002  1.00  0.00    +0.000 C 
BRANCH   20   19
ATOM    113  H21 UNL A   1      22.535  16.127   6.888  1.00  0.00    +0.000 H 
ATOM     19  C16 UNL A   1      22.633  16.509   5.893  1.00  0.00    +0.000 C 
ATOM    112  H20 UNL A   1      22.171  17.461   5.733  1.00  0.00    +0.000 H 
BRANCH   19   18
ATOM     18  C15 UNL A   1      24.137  16.681   5.676  1.00  0.00    +0.000 C 
ATOM    110  H18 UNL A   1      24.306  16.724   4.619  1.00  0.00    +0.000 H 
ATOM    111  H19 UNL A   1      24.392  17.569   6.214  1.00  0.00    +0.000 H 
BRANCH   18   17
ATOM     17  C14 UNL A   1      25.057  15.598   6.245  1.00  0.00    +0.000 C 
ATOM    108  H16 UNL A   1      25.408  15.012   5.421  1.00  0.00    +0.000 H 
ATOM    109  H17 UNL A   1      25.809  16.138   6.781  1.00  0.00    +0.000 H 
BRANCH   17   16
ATOM    106  H14 UNL A   1      23.432  14.507   7.049  1.00  0.00    +0.000 H 
ATOM    107  H15 UNL A   1      25.063  13.743   7.189  1.00  0.00    +0.000 H 
ATOM     16  C13 UNL A   1      24.470  14.629   7.277  1.00  0.00    +0.000 C 
BRANCH   16   15
ATOM    105  H13 UNL A   1      25.251  15.852   8.791  1.00  0.00    +0.000 H 
ATOM     15  C12 UNL A   1      24.572  15.026   8.749  1.00  0.00    +0.000 C 
ATOM    104  H12 UNL A   1      24.909  14.173   9.300  1.00  0.00    +0.000 H 
BRANCH   15   14
ATOM     14  N2  UNL A   1      23.336  15.484   9.340  1.00  0.00    +0.000 N 
ATOM    103  H11 UNL A   1      22.663  14.781   9.489  1.00  0.00    +0.000 H 
BRANCH   14   12
ATOM     12  C11 UNL A   1      22.950  16.748   9.730  1.00  0.00    +0.000 C 
ATOM     13  O1  UNL A   1      21.746  16.997   9.659  1.00  0.00    +0.000 O 
BRANCH   12   11
ATOM      3  C2  UNL A   1      25.135  18.906  11.824  1.00  0.00    +0.000 C 
ATOM      4  C3  UNL A   1      24.157  17.926  11.684  1.00  0.00    +0.000 C 
ATOM    131  H39 UNL A   1      23.973  18.947   7.609  1.00  0.00    +0.000 H 
ATOM    134  H42 UNL A   1      27.232  20.480  10.862  1.00  0.00    +0.000 H 
ATOM    133  H41 UNL A   1      27.518  21.025   8.558  1.00  0.00    +0.000 H 
ATOM    132  H40 UNL A   1      25.759  20.347   6.942  1.00  0.00    +0.000 H 
ATOM     11  C10 UNL A   1      23.905  17.717  10.278  1.00  0.00    +0.000 C 
ATOM     87  C63 UNL A   1      24.641  18.703   9.628  1.00  0.00    +0.000 C 
ATOM     88  C64 UNL A   1      24.702  19.209   8.292  1.00  0.00    +0.000 C 
ATOM     89  C65 UNL A   1      25.705  20.026   7.920  1.00  0.00    +0.000 C 
ATOM     90  C66 UNL A   1      26.709  20.464   8.869  1.00  0.00    +0.000 C 
ATOM     91  C67 UNL A   1      26.566  20.125  10.158  1.00  0.00    +0.000 C 
ATOM     92  N8  UNL A   1      25.512  19.287  10.550  1.00  0.00    +0.000 N 
BRANCH    3    2
ATOM     97  H5  UNL A   1      24.908  19.931  13.643  1.00  0.00    +0.000 H 
ATOM      2  C1  UNL A   1      25.708  19.532  13.054  1.00  0.00    +0.000 C 
ATOM     96  H4  UNL A   1      26.384  20.312  12.771  1.00  0.00    +0.000 H 
BRANCH    2    1
ATOM      1  N1  UNL A   1      26.425  18.543  13.844  1.00  0.00    +0.000 N 
ATOM     93  H1  UNL A   1      25.782  17.804  14.128  1.00  0.00    +0.000 H 
ATOM     94  H2  UNL A   1      26.817  18.989  14.673  1.00  0.00    +0.000 H 
ATOM     95  H3  UNL A   1      27.177  18.142  13.285  1.00  0.00    +0.000 H 
ENDBRANCH    2    1
ENDBRANCH    3    2
BRANCH    4    5
ATOM     98  H6  UNL A   1      24.258  15.349  12.404  1.00  0.00    +0.000 H 
ATOM     99  H7  UNL A   1      23.206  14.300  14.324  1.00  0.00    +0.000 H 
ATOM    100  H8  UNL A   1      21.875  15.625  15.860  1.00  0.00    +0.000 H 
ATOM      5  C4  UNL A   1      23.527  17.285  12.828  1.00  0.00    +0.000 C 
ATOM    102  H10 UNL A   1      22.612  19.051  13.543  1.00  0.00    +0.000 H 
ATOM      6  C5  UNL A   1      23.690  15.915  13.054  1.00  0.00    +0.000 C 
ATOM      7  C6  UNL A   1      23.085  15.311  14.160  1.00  0.00    +0.000 C 
ATOM      9  C8  UNL A   1      22.147  17.437  14.818  1.00  0.00    +0.000 C 
ATOM     10  C9  UNL A   1      22.745  18.042  13.712  1.00  0.00    +0.000 C 
ATOM    101  H9  UNL A   1      21.578  18.001  15.470  1.00  0.00    +0.000 H 
ATOM      8  C7  UNL A   1      22.316  16.072  15.042  1.00  0.00    +0.000 C 
ENDBRANCH    4    5
ENDBRANCH   12   11
ENDBRANCH   14   12
ENDBRANCH   15   14
ENDBRANCH   16   15
ENDBRANCH   17   16
ENDBRANCH   18   17
ENDBRANCH   19   18
ENDBRANCH   20   19
ENDBRANCH   21   20
ENDBRANCH   22   21
ENDBRANCH   24   22
ENDBRANCH   28   27
BRANCH   32   33
ATOM     33  C27 UNL A   1      26.520   6.341   4.286  1.00  0.00    +0.000 C 
ATOM     34  C28 UNL A   1      26.213   6.365   2.918  1.00  0.00    +0.000 C 
ATOM     35  F1  UNL A   1      24.976   6.060   2.498  1.00  0.00    +0.000 F 
ATOM     36  C29 UNL A   1      27.189   6.662   1.970  1.00  0.00    +0.000 C 
ATOM     37  F2  UNL A   1      26.885   6.627   0.665  1.00  0.00    +0.000 F 
ATOM     38  C30 UNL A   1      28.478   6.974   2.372  1.00  0.00    +0.000 C 
ATOM     39  F3  UNL A   1      29.416   7.262   1.459  1.00  0.00    +0.000 F 
ATOM     40  C31 UNL A   1      28.798   6.980   3.721  1.00  0.00    +0.000 C 
ATOM     41  F4  UNL A   1      30.042   7.294   4.113  1.00  0.00    +0.000 F 
ATOM     42  C32 UNL A   1      27.832   6.656   4.670  1.00  0.00    +0.000 C 
ATOM     43  F5  UNL A   1      28.176   6.654   5.967  1.00  0.00    +0.000 F 
ENDBRANCH   32   33
BRANCH   49   50
ATOM     50  C38 UNL A   1      24.174   0.605   7.958  1.00  0.00    +0.000 C 
ATOM     51  C39 UNL A   1      23.621  -0.374   7.122  1.00  0.00    +0.000 C 
ATOM     52  F6  UNL A   1      22.695  -0.039   6.211  1.00  0.00    +0.000 F 
ATOM     53  C40 UNL A   1      24.001  -1.709   7.237  1.00  0.00    +0.000 C 
ATOM     54  F7  UNL A   1      23.437  -2.635   6.449  1.00  0.00    +0.000 F 
ATOM     55  C41 UNL A   1      24.956  -2.083   8.170  1.00  0.00    +0.000 C 
ATOM     56  F8  UNL A   1      25.330  -3.367   8.271  1.00  0.00    +0.000 F 
ATOM     57  C42 UNL A   1      25.522  -1.129   9.002  1.00  0.00    +0.000 C 
ATOM     58  F9  UNL A   1      26.454  -1.487   9.897  1.00  0.00    +0.000 F 
ATOM     59  C43 UNL A   1      25.128   0.202   8.906  1.00  0.00    +0.000 C 
ATOM     60  F10 UNL A   1      25.687   1.104   9.726  1.00  0.00    +0.000 F 
ENDBRANCH   49   50
BRANCH   64   65
ATOM     65  C47 UNL A   1      19.320   4.596  10.972  1.00  0.00    +0.000 C 
ATOM     66  C48 UNL A   1      18.028   4.281  10.529  1.00  0.00    +0.000 C 
ATOM     67  F11 UNL A   1      17.760   4.252   9.215  1.00  0.00    +0.000 F 
ATOM     68  C49 UNL A   1      16.997   4.032  11.432  1.00  0.00    +0.000 C 
ATOM     69  F12 UNL A   1      15.763   3.771  10.982  1.00  0.00    +0.000 F 
ATOM     70  C50 UNL A   1      17.245   4.068  12.796  1.00  0.00    +0.000 C 
ATOM     71  F13 UNL A   1      16.254   3.823  13.666  1.00  0.00    +0.000 F 
ATOM     72  C51 UNL A   1      18.518   4.363  13.259  1.00  0.00    +0.000 C 
ATOM     73  F14 UNL A   1      18.765   4.386  14.575  1.00  0.00    +0.000 F 
ATOM     74  C52 UNL A   1      19.545   4.637  12.355  1.00  0.00    +0.000 C 
ATOM     75  F15 UNL A   1      20.764   4.929  12.830  1.00  0.00    +0.000 F 
ENDBRANCH   64   65
TORSDOF 18
ENDMDL
MODEL 9
REMARK VINA RESULT:     -10.1      8.489     14.934
ROOT
ATOM     28  C23 UNL A   1      43.253  28.090  33.570  1.00  0.00    +0.000 C 
ATOM     29  C24 UNL A   1      43.035  27.733  32.128  1.00  0.00    +0.000 C 
ATOM     30  N4  UNL A   1      42.146  28.190  31.283  1.00  0.00    +0.000 N 
ATOM     31  C25 UNL A   1      42.423  27.571  30.072  1.00  0.00    +0.000 C 
ATOM     32  C26 UNL A   1      41.756  27.676  28.897  1.00  0.00    +0.000 C 
ATOM     44  C33 UNL A   1      40.579  28.481  28.702  1.00  0.00    +0.000 C 
ATOM     45  C34 UNL A   1      39.805  28.618  27.563  1.00  0.00    +0.000 C 
ATOM     46  C35 UNL A   1      38.779  29.528  27.837  1.00  0.00    +0.000 C 
ATOM     47  C36 UNL A   1      38.890  29.927  29.160  1.00  0.00    +0.000 C 
ATOM     48  N5  UNL A   1      40.002  29.283  29.676  1.00  0.00    +0.000 N 
ATOM     49  C37 UNL A   1      38.044  30.829  29.897  1.00  0.00    +0.000 C 
ATOM     61  C44 UNL A   1      38.223  31.179  31.194  1.00  0.00    +0.000 C 
ATOM     62  N6  UNL A   1      39.201  30.756  32.083  1.00  0.00    +0.000 N 
ATOM     63  C45 UNL A   1      38.952  31.371  33.213  1.00  0.00    +0.000 C 
ATOM     64  C46 UNL A   1      39.673  31.267  34.530  1.00  0.00    +0.000 C 
ATOM     76  C53 UNL A   1      40.715  30.422  34.648  1.00  0.00    +0.000 C 
ATOM     77  C54 UNL A   1      41.516  30.228  35.852  1.00  0.00    +0.000 C 
ATOM     78  C55 UNL A   1      42.518  29.377  35.580  1.00  0.00    +0.000 C 
ATOM     79  C56 UNL A   1      42.405  28.932  34.191  1.00  0.00    +0.000 C 
ATOM     80  N7  UNL A   1      41.287  29.582  33.724  1.00  0.00    +0.000 N 
ATOM     81  C57 UNL A   1      37.803  32.287  33.156  1.00  0.00    +0.000 C 
ATOM     82  C58 UNL A   1      37.375  32.106  31.914  1.00  0.00    +0.000 C 
ATOM     83  C59 UNL A   1      43.585  26.734  30.280  1.00  0.00    +0.000 C 
ATOM     84  C60 UNL A   1      43.963  26.748  31.550  1.00  0.00    +0.000 C 
ATOM    119  H27 UNL A   1      39.958  28.131  26.665  1.00  0.00    +0.000 H 
ATOM    120  H28 UNL A   1      38.062  29.849  27.168  1.00  0.00    +0.000 H 
ATOM    121  H29 UNL A   1      40.334  29.379  30.598  1.00  0.00    +0.000 H 
ATOM    122  H30 UNL A   1      41.342  30.675  36.767  1.00  0.00    +0.000 H 
ATOM    123  H31 UNL A   1      43.252  29.083  36.245  1.00  0.00    +0.000 H 
ATOM    124  H32 UNL A   1      40.931  29.455  32.815  1.00  0.00    +0.000 H 
ATOM    125  H33 UNL A   1      37.427  32.907  33.890  1.00  0.00    +0.000 H 
ATOM    126  H34 UNL A   1      36.544  32.566  31.512  1.00  0.00    +0.000 H 
ATOM    127  H35 UNL A   1      44.059  26.198  29.537  1.00  0.00    +0.000 H 
ATOM    128  H36 UNL A   1      44.711  26.208  32.013  1.00  0.00    +0.000 H 
ENDROOT
BRANCH   28   27
ATOM    129  H37 UNL A   1      43.497  25.831  34.975  1.00  0.00    +0.000 H 
ATOM    130  H38 UNL A   1      45.403  25.014  36.230  1.00  0.00    +0.000 H 
ATOM     27  C22 UNL A   1      44.455  27.585  34.283  1.00  0.00    +0.000 C 
ATOM    117  H25 UNL A   1      47.677  28.302  34.921  1.00  0.00    +0.000 H 
ATOM     86  C62 UNL A   1      45.486  25.873  35.665  1.00  0.00    +0.000 C 
ATOM     85  C61 UNL A   1      44.379  26.367  34.977  1.00  0.00    +0.000 C 
ATOM     24  C19 UNL A   1      46.709  26.545  35.588  1.00  0.00    +0.000 C 
ATOM     25  C20 UNL A   1      46.788  27.779  34.934  1.00  0.00    +0.000 C 
ATOM     26  C21 UNL A   1      45.660  28.305  34.297  1.00  0.00    +0.000 C 
ATOM    118  H26 UNL A   1      45.713  29.226  33.833  1.00  0.00    +0.000 H 
BRANCH   24   22
ATOM     22  C18 UNL A   1      47.938  25.985  36.197  1.00  0.00    +0.000 C 
ATOM     23  O2  UNL A   1      48.910  25.751  35.489  1.00  0.00    +0.000 O 
BRANCH   22   21
ATOM    116  H24 UNL A   1      48.371  24.821  37.770  1.00  0.00    +0.000 H 
ATOM     21  N3  UNL A   1      47.974  25.693  37.541  1.00  0.00    +0.000 N 
BRANCH   21   20
ATOM    114  H22 UNL A   1      48.317  27.106  38.996  1.00  0.00    +0.000 H 
ATOM    115  H23 UNL A   1      46.668  27.044  38.336  1.00  0.00    +0.000 H 
ATOM     20  C17 UNL A   1      47.513  26.480  38.670  1.00  0.00    +0.000 C 
BRANCH   20   19
ATOM    113  H21 UNL A   1      47.219  26.248  40.715  1.00  0.00    +0.000 H 
ATOM     19  C16 UNL A   1      47.049  25.638  39.852  1.00  0.00    +0.000 C 
ATOM    112  H20 UNL A   1      47.602  24.722  39.837  1.00  0.00    +0.000 H 
BRANCH   19   18
ATOM     18  C15 UNL A   1      45.562  25.283  39.899  1.00  0.00    +0.000 C 
ATOM    110  H18 UNL A   1      45.349  24.925  40.885  1.00  0.00    +0.000 H 
ATOM    111  H19 UNL A   1      45.056  26.183  39.621  1.00  0.00    +0.000 H 
BRANCH   18   17
ATOM     17  C14 UNL A   1      45.061  24.228  38.909  1.00  0.00    +0.000 C 
ATOM    108  H16 UNL A   1      44.073  23.950  39.212  1.00  0.00    +0.000 H 
ATOM    109  H17 UNL A   1      45.136  24.700  37.952  1.00  0.00    +0.000 H 
BRANCH   17   16
ATOM    106  H14 UNL A   1      46.789  23.071  39.304  1.00  0.00    +0.000 H 
ATOM    107  H15 UNL A   1      45.234  22.166  39.141  1.00  0.00    +0.000 H 
ATOM     16  C13 UNL A   1      45.875  22.937  38.766  1.00  0.00    +0.000 C 
BRANCH   16   15
ATOM    105  H13 UNL A   1      47.300  22.350  37.343  1.00  0.00    +0.000 H 
ATOM     15  C12 UNL A   1      46.238  22.490  37.350  1.00  0.00    +0.000 C 
ATOM    104  H12 UNL A   1      45.908  23.246  36.668  1.00  0.00    +0.000 H 
BRANCH   15   14
ATOM     14  N2  UNL A   1      45.658  21.232  36.944  1.00  0.00    +0.000 N 
ATOM    103  H11 UNL A   1      44.735  21.291  36.608  1.00  0.00    +0.000 H 
BRANCH   14   12
ATOM     12  C11 UNL A   1      46.192  19.961  36.951  1.00  0.00    +0.000 C 
ATOM     13  O1  UNL A   1      45.562  19.101  36.336  1.00  0.00    +0.000 O 
BRANCH   12   11
ATOM      3  C2  UNL A   1      49.000  18.954  39.169  1.00  0.00    +0.000 C 
ATOM      4  C3  UNL A   1      47.642  19.119  38.913  1.00  0.00    +0.000 C 
ATOM    131  H39 UNL A   1      48.734  21.281  35.477  1.00  0.00    +0.000 H 
ATOM    134  H42 UNL A   1      51.667  18.723  38.376  1.00  0.00    +0.000 H 
ATOM    133  H41 UNL A   1      52.522  19.645  36.348  1.00  0.00    +0.000 H 
ATOM    132  H40 UNL A   1      51.033  21.068  34.961  1.00  0.00    +0.000 H 
ATOM     11  C10 UNL A   1      47.480  19.664  37.587  1.00  0.00    +0.000 C 
ATOM     87  C63 UNL A   1      48.771  19.952  37.154  1.00  0.00    +0.000 C 
ATOM     88  C64 UNL A   1      49.336  20.676  36.058  1.00  0.00    +0.000 C 
ATOM     89  C65 UNL A   1      50.649  20.574  35.781  1.00  0.00    +0.000 C 
ATOM     90  C66 UNL A   1      51.534  19.783  36.613  1.00  0.00    +0.000 C 
ATOM     91  C67 UNL A   1      51.042  19.234  37.733  1.00  0.00    +0.000 C 
ATOM     92  N8  UNL A   1      49.678  19.354  38.032  1.00  0.00    +0.000 N 
BRANCH    3    2
ATOM     97  H5  UNL A   1      50.644  18.065  40.125  1.00  0.00    +0.000 H 
ATOM      2  C1  UNL A   1      49.703  18.490  40.403  1.00  0.00    +0.000 C 
ATOM     96  H4  UNL A   1      49.098  17.759  40.899  1.00  0.00    +0.000 H 
BRANCH    2    1
ATOM      1  N1  UNL A   1      49.939  19.605  41.307  1.00  0.00    +0.000 N 
ATOM     93  H1  UNL A   1      50.905  19.579  41.633  1.00  0.00    +0.000 H 
ATOM     94  H2  UNL A   1      49.309  19.535  42.105  1.00  0.00    +0.000 H 
ATOM     95  H3  UNL A   1      49.770  20.482  40.816  1.00  0.00    +0.000 H 
ENDBRANCH    2    1
ENDBRANCH    3    2
BRANCH    4    5
ATOM     98  H6  UNL A   1      46.658  20.666  40.864  1.00  0.00    +0.000 H 
ATOM     99  H7  UNL A   1      44.944  20.102  42.487  1.00  0.00    +0.000 H 
ATOM    100  H8  UNL A   1      43.910  17.908  42.455  1.00  0.00    +0.000 H 
ATOM      5  C4  UNL A   1      46.619  18.790  39.895  1.00  0.00    +0.000 C 
ATOM    102  H10 UNL A   1      46.325  16.817  39.196  1.00  0.00    +0.000 H 
ATOM      6  C5  UNL A   1      46.222  19.731  40.849  1.00  0.00    +0.000 C 
ATOM      7  C6  UNL A   1      45.234  19.406  41.784  1.00  0.00    +0.000 C 
ATOM      9  C8  UNL A   1      45.038  17.199  40.821  1.00  0.00    +0.000 C 
ATOM     10  C9  UNL A   1      46.028  17.519  39.891  1.00  0.00    +0.000 C 
ATOM    101  H9  UNL A   1      44.600  16.265  40.809  1.00  0.00    +0.000 H 
ATOM      8  C7  UNL A   1      44.641  18.143  41.767  1.00  0.00    +0.000 C 
ENDBRANCH    4    5
ENDBRANCH   12   11
ENDBRANCH   14   12
ENDBRANCH   15   14
ENDBRANCH   16   15
ENDBRANCH   17   16
ENDBRANCH   18   17
ENDBRANCH   19   18
ENDBRANCH   20   19
ENDBRANCH   21   20
ENDBRANCH   22   21
ENDBRANCH   24   22
ENDBRANCH   28   27
BRANCH   32   33
ATOM     33  C27 UNL A   1      42.291  26.904  27.728  1.00  0.00    +0.000 C 
ATOM     34  C28 UNL A   1      41.869  25.594  27.457  1.00  0.00    +0.000 C 
ATOM     35  F1  UNL A   1      40.995  24.985  28.270  1.00  0.00    +0.000 F 
ATOM     36  C29 UNL A   1      42.380  24.887  26.371  1.00  0.00    +0.000 C 
ATOM     37  F2  UNL A   1      42.001  23.619  26.162  1.00  0.00    +0.000 F 
ATOM     38  C30 UNL A   1      43.291  25.487  25.516  1.00  0.00    +0.000 C 
ATOM     39  F3  UNL A   1      43.779  24.807  24.469  1.00  0.00    +0.000 F 
ATOM     40  C31 UNL A   1      43.704  26.790  25.750  1.00  0.00    +0.000 C 
ATOM     41  F4  UNL A   1      44.577  27.376  24.918  1.00  0.00    +0.000 F 
ATOM     42  C32 UNL A   1      43.218  27.489  26.852  1.00  0.00    +0.000 C 
ATOM     43  F5  UNL A   1      43.649  28.743  27.062  1.00  0.00    +0.000 F 
ENDBRANCH   32   33
BRANCH   49   50
ATOM     50  C38 UNL A   1      36.858  31.406  29.182  1.00  0.00    +0.000 C 
ATOM     51  C39 UNL A   1      35.726  30.632  28.892  1.00  0.00    +0.000 C 
ATOM     52  F6  UNL A   1      35.709  29.323  29.189  1.00  0.00    +0.000 F 
ATOM     53  C40 UNL A   1      34.615  31.196  28.271  1.00  0.00    +0.000 C 
ATOM     54  F7  UNL A   1      33.556  30.432  27.973  1.00  0.00    +0.000 F 
ATOM     55  C41 UNL A   1      34.607  32.546  27.953  1.00  0.00    +0.000 C 
ATOM     56  F8  UNL A   1      33.531  33.091  27.365  1.00  0.00    +0.000 F 
ATOM     57  C42 UNL A   1      35.713  33.332  28.239  1.00  0.00    +0.000 C 
ATOM     58  F9  UNL A   1      35.702  34.639  27.943  1.00  0.00    +0.000 F 
ATOM     59  C43 UNL A   1      36.834  32.766  28.839  1.00  0.00    +0.000 C 
ATOM     60  F10 UNL A   1      37.892  33.548  29.099  1.00  0.00    +0.000 F 
ENDBRANCH   49   50
BRANCH   64   65
ATOM     65  C47 UNL A   1      39.229  32.062  35.703  1.00  0.00    +0.000 C 
ATOM     66  C48 UNL A   1      38.350  31.514  36.648  1.00  0.00    +0.000 C 
ATOM     67  F11 UNL A   1      37.880  30.269  36.480  1.00  0.00    +0.000 F 
ATOM     68  C49 UNL A   1      37.920  32.255  37.746  1.00  0.00    +0.000 C 
ATOM     69  F12 UNL A   1      37.050  31.721  38.613  1.00  0.00    +0.000 F 
ATOM     70  C50 UNL A   1      38.381  33.550  37.935  1.00  0.00    +0.000 C 
ATOM     71  F13 UNL A   1      37.972  34.261  38.995  1.00  0.00    +0.000 F 
ATOM     72  C51 UNL A   1      39.263  34.108  37.022  1.00  0.00    +0.000 C 
ATOM     73  F14 UNL A   1      39.721  35.353  37.207  1.00  0.00    +0.000 F 
ATOM     74  C52 UNL A   1      39.674  33.375  35.909  1.00  0.00    +0.000 C 
ATOM     75  F15 UNL A   1      40.520  33.944  35.036  1.00  0.00    +0.000 F 
ENDBRANCH   64   65
TORSDOF 18
ENDMDL
MODEL 10
REMARK VINA RESULT:     -10.1     22.113     26.880
ROOT
ATOM     28  C23 UNL A   1      42.816  16.723  49.831  1.00  0.00    +0.000 C 
ATOM     29  C24 UNL A   1      42.852  15.795  48.651  1.00  0.00    +0.000 C 
ATOM     30  N4  UNL A   1      43.520  15.900  47.530  1.00  0.00    +0.000 N 
ATOM     31  C25 UNL A   1      43.242  14.744  46.814  1.00  0.00    +0.000 C 
ATOM     32  C26 UNL A   1      43.656  14.398  45.571  1.00  0.00    +0.000 C 
ATOM     44  C33 UNL A   1      44.488  15.223  44.736  1.00  0.00    +0.000 C 
ATOM     45  C34 UNL A   1      44.924  14.982  43.445  1.00  0.00    +0.000 C 
ATOM     46  C35 UNL A   1      45.735  16.052  43.049  1.00  0.00    +0.000 C 
ATOM     47  C36 UNL A   1      45.769  16.979  44.079  1.00  0.00    +0.000 C 
ATOM     48  N5  UNL A   1      45.007  16.454  45.110  1.00  0.00    +0.000 N 
ATOM     49  C37 UNL A   1      46.449  18.247  44.120  1.00  0.00    +0.000 C 
ATOM     61  C44 UNL A   1      46.443  19.099  45.174  1.00  0.00    +0.000 C 
ATOM     62  N6  UNL A   1      45.796  18.971  46.395  1.00  0.00    +0.000 N 
ATOM     63  C45 UNL A   1      46.092  20.050  47.075  1.00  0.00    +0.000 C 
ATOM     64  C46 UNL A   1      45.641  20.458  48.452  1.00  0.00    +0.000 C 
ATOM     76  C53 UNL A   1      44.791  19.664  49.131  1.00  0.00    +0.000 C 
ATOM     77  C54 UNL A   1      44.282  19.921  50.475  1.00  0.00    +0.000 C 
ATOM     78  C55 UNL A   1      43.529  18.881  50.866  1.00  0.00    +0.000 C 
ATOM     79  C56 UNL A   1      43.468  17.901  49.781  1.00  0.00    +0.000 C 
ATOM     80  N7  UNL A   1      44.222  18.465  48.780  1.00  0.00    +0.000 N 
ATOM     81  C57 UNL A   1      46.996  20.973  46.373  1.00  0.00    +0.000 C 
ATOM     82  C58 UNL A   1      47.151  20.363  45.206  1.00  0.00    +0.000 C 
ATOM     83  C59 UNL A   1      42.375  13.932  47.642  1.00  0.00    +0.000 C 
ATOM     84  C60 UNL A   1      42.051  14.565  48.759  1.00  0.00    +0.000 C 
ATOM    119  H27 UNL A   1      44.691  14.156  42.872  1.00  0.00    +0.000 H 
ATOM    120  H28 UNL A   1      46.223  16.136  42.145  1.00  0.00    +0.000 H 
ATOM    121  H29 UNL A   1      44.855  16.890  45.979  1.00  0.00    +0.000 H 
ATOM    122  H30 UNL A   1      44.473  20.767  51.036  1.00  0.00    +0.000 H 
ATOM    123  H31 UNL A   1      43.067  18.787  51.784  1.00  0.00    +0.000 H 
ATOM    124  H32 UNL A   1      44.341  18.048  47.896  1.00  0.00    +0.000 H 
ATOM    125  H33 UNL A   1      47.402  21.864  46.700  1.00  0.00    +0.000 H 
ATOM    126  H34 UNL A   1      47.704  20.740  44.421  1.00  0.00    +0.000 H 
ATOM    127  H35 UNL A   1      42.051  12.984  47.394  1.00  0.00    +0.000 H 
ATOM    128  H36 UNL A   1      41.406  14.274  49.510  1.00  0.00    +0.000 H 
ENDROOT
BRANCH   28   27
ATOM    129  H37 UNL A   1      40.210  16.862  50.407  1.00  0.00    +0.000 H 
ATOM    130  H38 UNL A   1      39.071  16.275  52.464  1.00  0.00    +0.000 H 
ATOM     27  C22 UNL A   1      42.135  16.301  51.082  1.00  0.00    +0.000 C 
ATOM    117  H25 UNL A   1      42.703  14.909  54.090  1.00  0.00    +0.000 H 
ATOM     86  C62 UNL A   1      40.081  16.088  52.361  1.00  0.00    +0.000 C 
ATOM     85  C61 UNL A   1      40.745  16.463  51.195  1.00  0.00    +0.000 C 
ATOM     24  C19 UNL A   1      40.785  15.459  53.391  1.00  0.00    +0.000 C 
ATOM     25  C20 UNL A   1      42.176  15.327  53.307  1.00  0.00    +0.000 C 
ATOM     26  C21 UNL A   1      42.850  15.761  52.162  1.00  0.00    +0.000 C 
ATOM    118  H26 UNL A   1      43.878  15.684  52.111  1.00  0.00    +0.000 H 
BRANCH   24   22
ATOM     22  C18 UNL A   1      40.092  14.929  54.589  1.00  0.00    +0.000 C 
ATOM     23  O2  UNL A   1      40.066  15.598  55.615  1.00  0.00    +0.000 O 
BRANCH   22   21
ATOM    116  H24 UNL A   1      38.654  13.606  55.029  1.00  0.00    +0.000 H 
ATOM     21  N3  UNL A   1      39.517  13.680  54.561  1.00  0.00    +0.000 N 
BRANCH   21   20
ATOM    114  H22 UNL A   1      41.063  12.488  53.912  1.00  0.00    +0.000 H 
ATOM    115  H23 UNL A   1      39.628  11.643  54.534  1.00  0.00    +0.000 H 
ATOM     20  C17 UNL A   1      39.993  12.457  53.943  1.00  0.00    +0.000 C 
BRANCH   20   19
ATOM    113  H21 UNL A   1      38.867  13.102  52.319  1.00  0.00    +0.000 H 
ATOM     19  C16 UNL A   1      39.477  12.247  52.525  1.00  0.00    +0.000 C 
ATOM    112  H20 UNL A   1      38.958  11.312  52.503  1.00  0.00    +0.000 H 
BRANCH   19   18
ATOM     18  C15 UNL A   1      40.525  12.223  51.411  1.00  0.00    +0.000 C 
ATOM    110  H18 UNL A   1      40.300  11.389  50.778  1.00  0.00    +0.000 H 
ATOM    111  H19 UNL A   1      40.451  13.182  50.945  1.00  0.00    +0.000 H 
BRANCH   18   17
ATOM     17  C14 UNL A   1      41.992  12.101  51.829  1.00  0.00    +0.000 C 
ATOM    108  H16 UNL A   1      42.526  12.899  51.358  1.00  0.00    +0.000 H 
ATOM    109  H17 UNL A   1      41.970  12.127  52.898  1.00  0.00    +0.000 H 
BRANCH   17   16
ATOM    106  H14 UNL A   1      42.535  10.106  52.283  1.00  0.00    +0.000 H 
ATOM    107  H15 UNL A   1      42.348  10.511  50.532  1.00  0.00    +0.000 H 
ATOM     16  C13 UNL A   1      42.727  10.799  51.491  1.00  0.00    +0.000 C 
BRANCH   16   15
ATOM    105  H13 UNL A   1      44.640   9.971  51.719  1.00  0.00    +0.000 H 
ATOM     15  C12 UNL A   1      44.242  10.875  51.307  1.00  0.00    +0.000 C 
ATOM    104  H12 UNL A   1      44.592  11.756  51.804  1.00  0.00    +0.000 H 
BRANCH   15   14
ATOM     14  N2  UNL A   1      44.684  10.927  49.933  1.00  0.00    +0.000 N 
ATOM    103  H11 UNL A   1      44.266  11.634  49.391  1.00  0.00    +0.000 H 
BRANCH   14   12
ATOM     12  C11 UNL A   1      45.598  10.144  49.261  1.00  0.00    +0.000 C 
ATOM     13  O1  UNL A   1      45.157   9.462  48.337  1.00  0.00    +0.000 O 
BRANCH   12   11
ATOM      3  C2  UNL A   1      49.185  10.982  49.754  1.00  0.00    +0.000 C 
ATOM      4  C3  UNL A   1      47.906  11.298  49.307  1.00  0.00    +0.000 C 
ATOM    131  H39 UNL A   1      46.883   7.270  49.945  1.00  0.00    +0.000 H 
ATOM    134  H42 UNL A   1      50.987   9.491  51.280  1.00  0.00    +0.000 H 
ATOM    133  H41 UNL A   1      50.568   7.254  51.996  1.00  0.00    +0.000 H 
ATOM    132  H40 UNL A   1      48.528   6.099  51.178  1.00  0.00    +0.000 H 
ATOM     11  C10 UNL A   1      47.031  10.182  49.574  1.00  0.00    +0.000 C 
ATOM     87  C63 UNL A   1      47.865   9.170  50.036  1.00  0.00    +0.000 C 
ATOM     88  C64 UNL A   1      47.720   7.769  50.287  1.00  0.00    +0.000 C 
ATOM     89  C65 UNL A   1      48.669   7.099  50.967  1.00  0.00    +0.000 C 
ATOM     90  C66 UNL A   1      49.884   7.754  51.407  1.00  0.00    +0.000 C 
ATOM     91  C67 UNL A   1      50.100   9.025  51.035  1.00  0.00    +0.000 C 
ATOM     92  N8  UNL A   1      49.119   9.719  50.312  1.00  0.00    +0.000 N 
BRANCH    3    2
ATOM     97  H5  UNL A   1      51.074  11.513  50.504  1.00  0.00    +0.000 H 
ATOM      2  C1  UNL A   1      50.461  11.756  49.662  1.00  0.00    +0.000 C 
ATOM     96  H4  UNL A   1      50.238  12.803  49.655  1.00  0.00    +0.000 H 
BRANCH    2    1
ATOM      1  N1  UNL A   1      51.179  11.414  48.444  1.00  0.00    +0.000 N 
ATOM     93  H1  UNL A   1      50.649  10.717  47.921  1.00  0.00    +0.000 H 
ATOM     94  H2  UNL A   1      52.094  11.034  48.684  1.00  0.00    +0.000 H 
ATOM     95  H3  UNL A   1      51.297  12.250  47.872  1.00  0.00    +0.000 H 
ENDBRANCH    2    1
ENDBRANCH    3    2
BRANCH    4    5
ATOM     98  H6  UNL A   1      48.117  11.936  46.716  1.00  0.00    +0.000 H 
ATOM     99  H7  UNL A   1      47.586  14.055  45.658  1.00  0.00    +0.000 H 
ATOM    100  H8  UNL A   1      46.755  15.906  46.987  1.00  0.00    +0.000 H 
ATOM      5  C4  UNL A   1      47.597  12.566  48.663  1.00  0.00    +0.000 C 
ATOM    102  H10 UNL A   1      47.013  13.538  50.447  1.00  0.00    +0.000 H 
ATOM      6  C5  UNL A   1      47.766  12.722  47.284  1.00  0.00    +0.000 C 
ATOM      7  C6  UNL A   1      47.460  13.942  46.675  1.00  0.00    +0.000 C 
ATOM      9  C8  UNL A   1      46.819  14.860  48.816  1.00  0.00    +0.000 C 
ATOM     10  C9  UNL A   1      47.129  13.644  49.427  1.00  0.00    +0.000 C 
ATOM    101  H9  UNL A   1      46.467  15.647  49.382  1.00  0.00    +0.000 H 
ATOM      8  C7  UNL A   1      46.984  15.009  47.440  1.00  0.00    +0.000 C 
ENDBRANCH    4    5
ENDBRANCH   12   11
ENDBRANCH   14   12
ENDBRANCH   15   14
ENDBRANCH   16   15
ENDBRANCH   17   16
ENDBRANCH   18   17
ENDBRANCH   19   18
ENDBRANCH   20   19
ENDBRANCH   21   20
ENDBRANCH   22   21
ENDBRANCH   24   22
ENDBRANCH   28   27
BRANCH   32   33
ATOM     33  C27 UNL A   1      43.217  13.065  45.043  1.00  0.00    +0.000 C 
ATOM     34  C28 UNL A   1      42.189  12.951  44.096  1.00  0.00    +0.000 C 
ATOM     35  F1  UNL A   1      41.544  14.045  43.666  1.00  0.00    +0.000 F 
ATOM     36  C29 UNL A   1      41.789  11.705  43.619  1.00  0.00    +0.000 C 
ATOM     37  F2  UNL A   1      40.769  11.618  42.754  1.00  0.00    +0.000 F 
ATOM     38  C30 UNL A   1      42.431  10.556  44.050  1.00  0.00    +0.000 C 
ATOM     39  F3  UNL A   1      42.047   9.358  43.588  1.00  0.00    +0.000 F 
ATOM     40  C31 UNL A   1      43.467  10.645  44.968  1.00  0.00    +0.000 C 
ATOM     41  F4  UNL A   1      44.097   9.535  45.378  1.00  0.00    +0.000 F 
ATOM     42  C32 UNL A   1      43.850  11.887  45.469  1.00  0.00    +0.000 C 
ATOM     43  F5  UNL A   1      44.844  11.941  46.369  1.00  0.00    +0.000 F 
ENDBRANCH   32   33
BRANCH   49   50
ATOM     50  C38 UNL A   1      47.198  18.671  42.892  1.00  0.00    +0.000 C 
ATOM     51  C39 UNL A   1      48.590  18.532  42.795  1.00  0.00    +0.000 C 
ATOM     52  F6  UNL A   1      49.297  18.078  43.840  1.00  0.00    +0.000 F 
ATOM     53  C40 UNL A   1      49.263  18.886  41.629  1.00  0.00    +0.000 C 
ATOM     54  F7  UNL A   1      50.597  18.777  41.567  1.00  0.00    +0.000 F 
ATOM     55  C41 UNL A   1      48.556  19.359  40.533  1.00  0.00    +0.000 C 
ATOM     56  F8  UNL A   1      49.204  19.689  39.407  1.00  0.00    +0.000 F 
ATOM     57  C42 UNL A   1      47.178  19.496  40.605  1.00  0.00    +0.000 C 
ATOM     58  F9  UNL A   1      46.492  19.942  39.543  1.00  0.00    +0.000 F 
ATOM     59  C43 UNL A   1      46.504  19.165  41.777  1.00  0.00    +0.000 C 
ATOM     60  F10 UNL A   1      45.172  19.311  41.820  1.00  0.00    +0.000 F 
ENDBRANCH   49   50
BRANCH   64   65
ATOM     65  C47 UNL A   1      46.100  21.736  49.054  1.00  0.00    +0.000 C 
ATOM     66  C48 UNL A   1      45.395  22.926  48.830  1.00  0.00    +0.000 C 
ATOM     67  F11 UNL A   1      44.309  22.922  48.043  1.00  0.00    +0.000 F 
ATOM     68  C49 UNL A   1      45.823  24.131  49.382  1.00  0.00    +0.000 C 
ATOM     69  F12 UNL A   1      45.152  25.261  49.121  1.00  0.00    +0.000 F 
ATOM     70  C50 UNL A   1      46.950  24.165  50.189  1.00  0.00    +0.000 C 
ATOM     71  F13 UNL A   1      47.359  25.324  50.725  1.00  0.00    +0.000 F 
ATOM     72  C51 UNL A   1      47.657  22.998  50.436  1.00  0.00    +0.000 C 
ATOM     73  F14 UNL A   1      48.739  23.024  51.226  1.00  0.00    +0.000 F 
ATOM     74  C52 UNL A   1      47.243  21.795  49.864  1.00  0.00    +0.000 C 
ATOM     75  F15 UNL A   1      47.951  20.683  50.112  1.00  0.00    +0.000 F 
ENDBRANCH   64   65
TORSDOF 18
ENDMDL
