MODEL 1
REMARK VINA RESULT:     -10.4      0.000      0.000
ROOT
ATOM     28  C20 UNL A   1      41.371  26.152  27.482  1.00  0.00    +0.000 C 
ATOM     29  C21 UNL A   1      40.706  27.212  28.320  1.00  0.00    +0.000 C 
ATOM     30  N4  UNL A   1      41.150  28.398  28.658  1.00  0.00    +0.000 N 
ATOM     31  C22 UNL A   1      40.143  28.978  29.420  1.00  0.00    +0.000 C 
ATOM     32  C23 UNL A   1      40.134  30.187  30.030  1.00  0.00    +0.000 C 
ATOM     44  C30 UNL A   1      41.228  31.124  30.002  1.00  0.00    +0.000 C 
ATOM     45  C31 UNL A   1      41.314  32.367  30.606  1.00  0.00    +0.000 C 
ATOM     46  C32 UNL A   1      42.556  32.924  30.284  1.00  0.00    +0.000 C 
ATOM     47  C33 UNL A   1      43.256  32.013  29.510  1.00  0.00    +0.000 C 
ATOM     48  N5  UNL A   1      42.428  30.915  29.341  1.00  0.00    +0.000 N 
ATOM     49  C34 UNL A   1      44.580  32.135  28.958  1.00  0.00    +0.000 C 
ATOM     61  C41 UNL A   1      45.218  31.173  28.248  1.00  0.00    +0.000 C 
ATOM     62  N6  UNL A   1      44.763  29.914  27.886  1.00  0.00    +0.000 N 
ATOM     63  C42 UNL A   1      45.726  29.373  27.182  1.00  0.00    +0.000 C 
ATOM     64  C43 UNL A   1      45.779  28.020  26.532  1.00  0.00    +0.000 C 
ATOM     76  C50 UNL A   1      44.700  27.216  26.586  1.00  0.00    +0.000 C 
ATOM     77  C51 UNL A   1      44.605  25.887  25.989  1.00  0.00    +0.000 C 
ATOM     78  C52 UNL A   1      43.378  25.393  26.212  1.00  0.00    +0.000 C 
ATOM     79  C53 UNL A   1      42.616  26.352  27.014  1.00  0.00    +0.000 C 
ATOM     80  N7  UNL A   1      43.472  27.415  27.166  1.00  0.00    +0.000 N 
ATOM     81  C54 UNL A   1      46.907  30.232  27.017  1.00  0.00    +0.000 C 
ATOM     82  C55 UNL A   1      46.556  31.308  27.709  1.00  0.00    +0.000 C 
ATOM     83  C56 UNL A   1      39.054  28.028  29.476  1.00  0.00    +0.000 C 
ATOM     84  C57 UNL A   1      39.368  26.903  28.848  1.00  0.00    +0.000 C 
ATOM    109  H23 UNL A   1      40.588  32.807  31.192  1.00  0.00    +0.000 H 
ATOM    110  H24 UNL A   1      42.894  33.854  30.575  1.00  0.00    +0.000 H 
ATOM    111  H25 UNL A   1      42.658  30.106  28.829  1.00  0.00    +0.000 H 
ATOM    112  H26 UNL A   1      45.361  25.404  25.479  1.00  0.00    +0.000 H 
ATOM    113  H27 UNL A   1      43.027  24.484  25.874  1.00  0.00    +0.000 H 
ATOM    114  H28 UNL A   1      43.227  28.239  27.645  1.00  0.00    +0.000 H 
ATOM    115  H29 UNL A   1      47.780  30.047  26.499  1.00  0.00    +0.000 H 
ATOM    116  H30 UNL A   1      47.158  32.134  27.845  1.00  0.00    +0.000 H 
ATOM    117  H31 UNL A   1      38.150  28.203  29.943  1.00  0.00    +0.000 H 
ATOM    118  H32 UNL A   1      38.817  26.035  28.755  1.00  0.00    +0.000 H 
ENDROOT
BRANCH   28   27
ATOM     27  C19 UNL A   1      40.689  24.855  27.231  1.00  0.00    +0.000 C 
ATOM    107  H21 UNL A   1      38.072  23.588  25.543  1.00  0.00    +0.000 H 
ATOM    108  H22 UNL A   1      39.143  25.701  26.059  1.00  0.00    +0.000 H 
ATOM     85  C58 UNL A   1      41.195  23.654  27.751  1.00  0.00    +0.000 C 
ATOM     86  C59 UNL A   1      40.642  22.431  27.361  1.00  0.00    +0.000 C 
ATOM    120  H34 UNL A   1      41.035  21.546  27.719  1.00  0.00    +0.000 H 
ATOM     24  C16 UNL A   1      39.554  22.411  26.484  1.00  0.00    +0.000 C 
ATOM     25  C17 UNL A   1      38.952  23.605  26.083  1.00  0.00    +0.000 C 
ATOM     26  C18 UNL A   1      39.546  24.820  26.415  1.00  0.00    +0.000 C 
ATOM    119  H33 UNL A   1      41.978  23.674  28.423  1.00  0.00    +0.000 H 
BRANCH   24   22
ATOM     22  C15 UNL A   1      39.098  21.115  25.937  1.00  0.00    +0.000 C 
ATOM     23  O3  UNL A   1      39.668  20.079  26.262  1.00  0.00    +0.000 O 
BRANCH   22   21
ATOM    106  H20 UNL A   1      38.329  21.210  24.083  1.00  0.00    +0.000 H 
ATOM     21  N3  UNL A   1      38.068  21.093  25.024  1.00  0.00    +0.000 N 
BRANCH   21   20
ATOM    105  H19 UNL A   1      36.498  20.939  26.324  1.00  0.00    +0.000 H 
ATOM     20  C14 UNL A   1      36.642  20.920  25.265  1.00  0.00    +0.000 C 
ATOM    104  H18 UNL A   1      36.335  19.992  24.829  1.00  0.00    +0.000 H 
BRANCH   20   19
ATOM     19  C13 UNL A   1      35.786  22.036  24.676  1.00  0.00    +0.000 C 
ATOM    102  H16 UNL A   1      36.423  22.667  24.092  1.00  0.00    +0.000 H 
ATOM    103  H17 UNL A   1      35.021  21.550  24.108  1.00  0.00    +0.000 H 
BRANCH   19   18
ATOM     18  C12 UNL A   1      35.057  22.915  25.693  1.00  0.00    +0.000 C 
ATOM    100  H14 UNL A   1      34.012  22.887  25.463  1.00  0.00    +0.000 H 
ATOM    101  H15 UNL A   1      35.301  22.513  26.654  1.00  0.00    +0.000 H 
BRANCH   18   17
ATOM     17  C11 UNL A   1      35.490  24.383  25.733  1.00  0.00    +0.000 C 
ATOM     98  H12 UNL A   1      35.685  24.640  26.754  1.00  0.00    +0.000 H 
ATOM     99  H13 UNL A   1      36.345  24.449  25.094  1.00  0.00    +0.000 H 
BRANCH   17   16
ATOM     97  H11 UNL A   1      34.885  25.744  24.252  1.00  0.00    +0.000 H 
ATOM     96  H10 UNL A   1      34.357  26.172  25.908  1.00  0.00    +0.000 H 
ATOM     16  C10 UNL A   1      34.480  25.398  25.180  1.00  0.00    +0.000 C 
BRANCH   16   15
ATOM     95  H9  UNL A   1      32.364  25.524  25.207  1.00  0.00    +0.000 H 
ATOM     94  H8  UNL A   1      32.993  23.880  25.332  1.00  0.00    +0.000 H 
ATOM     15  C9  UNL A   1      33.100  24.832  24.854  1.00  0.00    +0.000 C 
BRANCH   15   14
ATOM     93  H7  UNL A   1      32.879  25.466  22.858  1.00  0.00    +0.000 H 
ATOM     14  N2  UNL A   1      32.913  24.664  23.427  1.00  0.00    +0.000 N 
BRANCH   14    2
ATOM      1  O1  UNL A   1      33.476  23.035  21.901  1.00  0.00    +0.000 O 
ATOM      2  C1  UNL A   1      32.781  23.425  22.834  1.00  0.00    +0.000 C 
BRANCH    2    3
ATOM      3  C2  UNL A   1      31.657  22.574  23.424  1.00  0.00    +0.000 C 
ATOM     87  H1  UNL A   1      30.841  22.572  22.732  1.00  0.00    +0.000 H 
ATOM     88  H2  UNL A   1      31.401  23.012  24.366  1.00  0.00    +0.000 H 
BRANCH    3    4
ATOM      4  C3  UNL A   1      32.048  21.140  23.701  1.00  0.00    +0.000 C 
ATOM      5  C4  UNL A   1      32.425  20.817  25.064  1.00  0.00    +0.000 C 
ATOM      6  C5  UNL A   1      32.840  19.584  25.379  1.00  0.00    +0.000 C 
ATOM      7  N1  UNL A   1      32.912  18.587  24.424  1.00  0.00    +0.000 N 
ATOM     11  C7  UNL A   1      32.560  18.797  23.101  1.00  0.00    +0.000 C 
ATOM     12  O2  UNL A   1      32.629  17.969  22.200  1.00  0.00    +0.000 O 
ATOM     13  C8  UNL A   1      32.084  20.170  22.771  1.00  0.00    +0.000 C 
ATOM     89  H3  UNL A   1      32.374  21.543  25.796  1.00  0.00    +0.000 H 
ATOM     90  H4  UNL A   1      33.112  19.373  26.353  1.00  0.00    +0.000 H 
ATOM     92  H6  UNL A   1      31.775  20.380  21.809  1.00  0.00    +0.000 H 
BRANCH    7    8
ATOM      9  F1  UNL A   1      34.765  17.281  24.863  1.00  0.00    +0.000 F 
ATOM     10  F2  UNL A   1      32.906  16.866  25.951  1.00  0.00    +0.000 F 
ATOM     91  H5  UNL A   1      33.113  16.618  23.980  1.00  0.00    +0.000 H 
ATOM      8  C6  UNL A   1      33.414  17.281  24.764  1.00  0.00    +0.000 C 
ENDBRANCH    7    8
ENDBRANCH    3    4
ENDBRANCH    2    3
ENDBRANCH   14    2
ENDBRANCH   15   14
ENDBRANCH   16   15
ENDBRANCH   17   16
ENDBRANCH   18   17
ENDBRANCH   19   18
ENDBRANCH   20   19
ENDBRANCH   21   20
ENDBRANCH   22   21
ENDBRANCH   24   22
ENDBRANCH   28   27
BRANCH   32   33
ATOM     33  C24 UNL A   1      38.898  30.580  30.783  1.00  0.00    +0.000 C 
ATOM     34  C25 UNL A   1      38.797  30.398  32.169  1.00  0.00    +0.000 C 
ATOM     35  F3  UNL A   1      39.786  29.793  32.844  1.00  0.00    +0.000 F 
ATOM     36  C26 UNL A   1      37.666  30.818  32.865  1.00  0.00    +0.000 C 
ATOM     37  F4  UNL A   1      37.579  30.610  34.187  1.00  0.00    +0.000 F 
ATOM     38  C27 UNL A   1      36.628  31.447  32.193  1.00  0.00    +0.000 C 
ATOM     39  F5  UNL A   1      35.547  31.862  32.867  1.00  0.00    +0.000 F 
ATOM     40  C28 UNL A   1      36.711  31.644  30.823  1.00  0.00    +0.000 C 
ATOM     41  F6  UNL A   1      35.713  32.261  30.175  1.00  0.00    +0.000 F 
ATOM     42  C29 UNL A   1      37.832  31.206  30.121  1.00  0.00    +0.000 C 
ATOM     43  F7  UNL A   1      37.882  31.409  28.797  1.00  0.00    +0.000 F 
ENDBRANCH   32   33
BRANCH   49   50
ATOM     50  C35 UNL A   1      45.316  33.420  29.189  1.00  0.00    +0.000 C 
ATOM     51  C36 UNL A   1      45.175  34.505  28.313  1.00  0.00    +0.000 C 
ATOM     52  F8  UNL A   1      44.423  34.387  27.209  1.00  0.00    +0.000 F 
ATOM     53  C37 UNL A   1      45.832  35.709  28.555  1.00  0.00    +0.000 C 
ATOM     54  F9  UNL A   1      45.710  36.722  27.688  1.00  0.00    +0.000 F 
ATOM     55  C38 UNL A   1      46.619  35.856  29.688  1.00  0.00    +0.000 C 
ATOM     56  F10 UNL A   1      47.244  37.018  29.924  1.00  0.00    +0.000 F 
ATOM     57  C39 UNL A   1      46.763  34.798  30.574  1.00  0.00    +0.000 C 
ATOM     58  F11 UNL A   1      47.516  34.943  31.672  1.00  0.00    +0.000 F 
ATOM     59  C40 UNL A   1      46.126  33.586  30.323  1.00  0.00    +0.000 C 
ATOM     60  F12 UNL A   1      46.287  32.578  31.192  1.00  0.00    +0.000 F 
ENDBRANCH   49   50
BRANCH   64   65
ATOM     65  C44 UNL A   1      47.002  27.556  25.832  1.00  0.00    +0.000 C 
ATOM     66  C45 UNL A   1      48.035  26.923  26.534  1.00  0.00    +0.000 C 
ATOM     67  F13 UNL A   1      47.945  26.770  27.863  1.00  0.00    +0.000 F 
ATOM     68  C46 UNL A   1      49.176  26.467  25.876  1.00  0.00    +0.000 C 
ATOM     69  F14 UNL A   1      50.163  25.888  26.573  1.00  0.00    +0.000 F 
ATOM     70  C47 UNL A   1      49.292  26.617  24.502  1.00  0.00    +0.000 C 
ATOM     71  F15 UNL A   1      50.384  26.167  23.868  1.00  0.00    +0.000 F 
ATOM     72  C48 UNL A   1      48.280  27.237  23.786  1.00  0.00    +0.000 C 
ATOM     73  F16 UNL A   1      48.384  27.373  22.457  1.00  0.00    +0.000 F 
ATOM     74  C49 UNL A   1      47.151  27.715  24.446  1.00  0.00    +0.000 C 
ATOM     75  F17 UNL A   1      46.188  28.315  23.732  1.00  0.00    +0.000 F 
ENDBRANCH   64   65
TORSDOF 17
ENDMDL
MODEL 2
REMARK VINA RESULT:     -10.3     38.504     43.305
ROOT
ATOM     28  C20 UNL A   1      13.765  53.495   6.087  1.00  0.00    +0.000 C 
ATOM     29  C21 UNL A   1      13.293  52.071   5.959  1.00  0.00    +0.000 C 
ATOM     30  N4  UNL A   1      13.605  51.173   5.057  1.00  0.00    +0.000 N 
ATOM     31  C22 UNL A   1      12.909  50.023   5.407  1.00  0.00    +0.000 C 
ATOM     32  C23 UNL A   1      12.873  48.829   4.769  1.00  0.00    +0.000 C 
ATOM     44  C30 UNL A   1      13.576  48.535   3.547  1.00  0.00    +0.000 C 
ATOM     45  C31 UNL A   1      13.585  47.357   2.820  1.00  0.00    +0.000 C 
ATOM     46  C32 UNL A   1      14.428  47.530   1.717  1.00  0.00    +0.000 C 
ATOM     47  C33 UNL A   1      14.916  48.826   1.739  1.00  0.00    +0.000 C 
ATOM     48  N5  UNL A   1      14.389  49.430   2.870  1.00  0.00    +0.000 N 
ATOM     49  C34 UNL A   1      15.804  49.468   0.804  1.00  0.00    +0.000 C 
ATOM     61  C41 UNL A   1      16.197  50.762   0.869  1.00  0.00    +0.000 C 
ATOM     62  N6  UNL A   1      15.872  51.723   1.815  1.00  0.00    +0.000 N 
ATOM     63  C42 UNL A   1      16.522  52.806   1.465  1.00  0.00    +0.000 C 
ATOM     64  C43 UNL A   1      16.546  54.153   2.130  1.00  0.00    +0.000 C 
ATOM     76  C50 UNL A   1      15.879  54.333   3.285  1.00  0.00    +0.000 C 
ATOM     77  C51 UNL A   1      15.826  55.579   4.044  1.00  0.00    +0.000 C 
ATOM     78  C52 UNL A   1      15.098  55.385   5.155  1.00  0.00    +0.000 C 
ATOM     79  C53 UNL A   1      14.590  54.012   5.158  1.00  0.00    +0.000 C 
ATOM     80  N7  UNL A   1      15.124  53.455   4.023  1.00  0.00    +0.000 N 
ATOM     81  C54 UNL A   1      17.337  52.653   0.251  1.00  0.00    +0.000 C 
ATOM     82  C55 UNL A   1      17.082  51.396  -0.087  1.00  0.00    +0.000 C 
ATOM     83  C56 UNL A   1      12.177  50.323   6.618  1.00  0.00    +0.000 C 
ATOM     84  C57 UNL A   1      12.345  51.589   6.977  1.00  0.00    +0.000 C 
ATOM    109  H23 UNL A   1      13.061  46.499   3.050  1.00  0.00    +0.000 H 
ATOM    110  H24 UNL A   1      14.649  46.814   1.007  1.00  0.00    +0.000 H 
ATOM    111  H25 UNL A   1      14.564  50.358   3.149  1.00  0.00    +0.000 H 
ATOM    112  H26 UNL A   1      16.275  56.467   3.771  1.00  0.00    +0.000 H 
ATOM    113  H27 UNL A   1      14.925  56.089   5.888  1.00  0.00    +0.000 H 
ATOM    114  H28 UNL A   1      14.981  52.516   3.764  1.00  0.00    +0.000 H 
ATOM    115  H29 UNL A   1      17.946  53.342  -0.216  1.00  0.00    +0.000 H 
ATOM    116  H30 UNL A   1      17.465  50.929  -0.923  1.00  0.00    +0.000 H 
ATOM    117  H31 UNL A   1      11.599  49.641   7.134  1.00  0.00    +0.000 H 
ATOM    118  H32 UNL A   1      11.921  52.102   7.765  1.00  0.00    +0.000 H 
ENDROOT
BRANCH   28   27
ATOM     27  C19 UNL A   1      13.266  54.356   7.191  1.00  0.00    +0.000 C 
ATOM    107  H21 UNL A   1      10.768  56.498   7.879  1.00  0.00    +0.000 H 
ATOM    108  H22 UNL A   1      11.670  55.167   6.064  1.00  0.00    +0.000 H 
ATOM     85  C58 UNL A   1      13.892  54.366   8.447  1.00  0.00    +0.000 C 
ATOM     86  C59 UNL A   1      13.307  55.046   9.518  1.00  0.00    +0.000 C 
ATOM    120  H34 UNL A   1      13.752  55.025  10.450  1.00  0.00    +0.000 H 
ATOM     24  C16 UNL A   1      12.117  55.752   9.324  1.00  0.00    +0.000 C 
ATOM     25  C17 UNL A   1      11.571  55.871   8.044  1.00  0.00    +0.000 C 
ATOM     26  C18 UNL A   1      12.115  55.136   6.994  1.00  0.00    +0.000 C 
ATOM    119  H33 UNL A   1      14.788  53.869   8.579  1.00  0.00    +0.000 H 
BRANCH   24   22
ATOM     22  C15 UNL A   1      11.414  56.310  10.499  1.00  0.00    +0.000 C 
ATOM     23  O3  UNL A   1      11.041  57.478  10.491  1.00  0.00    +0.000 O 
BRANCH   22   21
ATOM    106  H20 UNL A   1      11.122  54.560  11.443  1.00  0.00    +0.000 H 
ATOM     21  N3  UNL A   1      11.233  55.522  11.614  1.00  0.00    +0.000 N 
BRANCH   21   20
ATOM    105  H19 UNL A   1      10.188  55.745  13.357  1.00  0.00    +0.000 H 
ATOM     20  C14 UNL A   1      11.186  55.923  13.013  1.00  0.00    +0.000 C 
ATOM    104  H18 UNL A   1      11.461  56.954  13.080  1.00  0.00    +0.000 H 
BRANCH   20   19
ATOM     19  C13 UNL A   1      12.118  55.115  13.909  1.00  0.00    +0.000 C 
ATOM    102  H16 UNL A   1      12.506  55.772  14.659  1.00  0.00    +0.000 H 
ATOM    103  H17 UNL A   1      11.528  54.313  14.300  1.00  0.00    +0.000 H 
BRANCH   19   18
ATOM     18  C12 UNL A   1      13.304  54.456  13.204  1.00  0.00    +0.000 C 
ATOM    100  H14 UNL A   1      13.288  54.763  12.178  1.00  0.00    +0.000 H 
ATOM    101  H15 UNL A   1      14.174  54.773  13.738  1.00  0.00    +0.000 H 
BRANCH   18   17
ATOM     17  C11 UNL A   1      13.329  52.925  13.236  1.00  0.00    +0.000 C 
ATOM     98  H12 UNL A   1      13.751  52.585  12.312  1.00  0.00    +0.000 H 
ATOM     99  H13 UNL A   1      13.901  52.665  14.100  1.00  0.00    +0.000 H 
BRANCH   17   16
ATOM     97  H11 UNL A   1      11.355  52.923  13.953  1.00  0.00    +0.000 H 
ATOM     96  H10 UNL A   1      12.135  51.311  13.930  1.00  0.00    +0.000 H 
ATOM     16  C10 UNL A   1      11.971  52.233  13.413  1.00  0.00    +0.000 C 
BRANCH   16   15
ATOM     95  H9  UNL A   1      11.845  52.211  11.298  1.00  0.00    +0.000 H 
ATOM     94  H8  UNL A   1      10.301  52.467  12.112  1.00  0.00    +0.000 H 
ATOM     15  C9  UNL A   1      11.223  51.923  12.119  1.00  0.00    +0.000 C 
BRANCH   15   14
ATOM     93  H7  UNL A   1      10.247  50.114  12.576  1.00  0.00    +0.000 H 
ATOM     14  N2  UNL A   1      10.934  50.509  11.993  1.00  0.00    +0.000 N 
BRANCH   14    2
ATOM      1  O1  UNL A   1      11.108  49.352  10.010  1.00  0.00    +0.000 O 
ATOM      2  C1  UNL A   1      11.583  49.694  11.087  1.00  0.00    +0.000 C 
BRANCH    2    3
ATOM      3  C2  UNL A   1      12.957  49.217  11.560  1.00  0.00    +0.000 C 
ATOM     87  H1  UNL A   1      12.899  48.165  11.747  1.00  0.00    +0.000 H 
ATOM     88  H2  UNL A   1      13.193  49.782  12.437  1.00  0.00    +0.000 H 
BRANCH    3    4
ATOM      4  C3  UNL A   1      14.072  49.464  10.569  1.00  0.00    +0.000 C 
ATOM      5  C4  UNL A   1      14.311  50.841  10.184  1.00  0.00    +0.000 C 
ATOM      6  C5  UNL A   1      15.241  51.138   9.267  1.00  0.00    +0.000 C 
ATOM      7  N1  UNL A   1      16.001  50.148   8.672  1.00  0.00    +0.000 N 
ATOM     11  C7  UNL A   1      15.853  48.807   8.986  1.00  0.00    +0.000 C 
ATOM     12  O2  UNL A   1      16.469  47.878   8.475  1.00  0.00    +0.000 O 
ATOM     13  C8  UNL A   1      14.826  48.496  10.019  1.00  0.00    +0.000 C 
ATOM     89  H3  UNL A   1      13.761  51.598  10.619  1.00  0.00    +0.000 H 
ATOM     90  H4  UNL A   1      15.394  52.123   9.000  1.00  0.00    +0.000 H 
ATOM     92  H6  UNL A   1      14.692  47.518  10.321  1.00  0.00    +0.000 H 
BRANCH    7    8
ATOM      9  F1  UNL A   1      16.421  51.300   6.716  1.00  0.00    +0.000 F 
ATOM     10  F2  UNL A   1      18.041  51.091   8.180  1.00  0.00    +0.000 F 
ATOM     91  H5  UNL A   1      17.245  49.554   7.185  1.00  0.00    +0.000 H 
ATOM      8  C6  UNL A   1      16.957  50.475   7.647  1.00  0.00    +0.000 C 
ENDBRANCH    7    8
ENDBRANCH    3    4
ENDBRANCH    2    3
ENDBRANCH   14    2
ENDBRANCH   15   14
ENDBRANCH   16   15
ENDBRANCH   17   16
ENDBRANCH   18   17
ENDBRANCH   19   18
ENDBRANCH   20   19
ENDBRANCH   21   20
ENDBRANCH   22   21
ENDBRANCH   24   22
ENDBRANCH   28   27
BRANCH   32   33
ATOM     33  C24 UNL A   1      12.047  47.736   5.378  1.00  0.00    +0.000 C 
ATOM     34  C25 UNL A   1      10.772  47.422   4.886  1.00  0.00    +0.000 C 
ATOM     35  F3  UNL A   1      10.232  48.150   3.897  1.00  0.00    +0.000 F 
ATOM     36  C26 UNL A   1      10.038  46.368   5.425  1.00  0.00    +0.000 C 
ATOM     37  F4  UNL A   1       8.810  46.101   4.957  1.00  0.00    +0.000 F 
ATOM     38  C27 UNL A   1      10.572  45.597   6.447  1.00  0.00    +0.000 C 
ATOM     39  F5  UNL A   1       9.868  44.576   6.956  1.00  0.00    +0.000 F 
ATOM     40  C28 UNL A   1      11.834  45.887   6.944  1.00  0.00    +0.000 C 
ATOM     41  F6  UNL A   1      12.355  45.136   7.925  1.00  0.00    +0.000 F 
ATOM     42  C29 UNL A   1      12.562  46.953   6.421  1.00  0.00    +0.000 C 
ATOM     43  F7  UNL A   1      13.779  47.210   6.923  1.00  0.00    +0.000 F 
ENDBRANCH   32   33
BRANCH   49   50
ATOM     50  C35 UNL A   1      16.328  48.646  -0.334  1.00  0.00    +0.000 C 
ATOM     51  C36 UNL A   1      15.553  48.415  -1.479  1.00  0.00    +0.000 C 
ATOM     52  F8  UNL A   1      14.295  48.875  -1.546  1.00  0.00    +0.000 F 
ATOM     53  C37 UNL A   1      16.060  47.682  -2.549  1.00  0.00    +0.000 C 
ATOM     54  F9  UNL A   1      15.292  47.444  -3.620  1.00  0.00    +0.000 F 
ATOM     55  C38 UNL A   1      17.357  47.192  -2.504  1.00  0.00    +0.000 C 
ATOM     56  F10 UNL A   1      17.847  46.495  -3.538  1.00  0.00    +0.000 F 
ATOM     57  C39 UNL A   1      18.145  47.419  -1.384  1.00  0.00    +0.000 C 
ATOM     58  F11 UNL A   1      19.400  46.954  -1.344  1.00  0.00    +0.000 F 
ATOM     59  C40 UNL A   1      17.633  48.132  -0.304  1.00  0.00    +0.000 C 
ATOM     60  F12 UNL A   1      18.414  48.332   0.768  1.00  0.00    +0.000 F 
ENDBRANCH   49   50
BRANCH   64   65
ATOM     65  C44 UNL A   1      17.293  55.286   1.532  1.00  0.00    +0.000 C 
ATOM     66  C45 UNL A   1      16.689  56.130   0.593  1.00  0.00    +0.000 C 
ATOM     67  F13 UNL A   1      15.432  55.892   0.190  1.00  0.00    +0.000 F 
ATOM     68  C46 UNL A   1      17.381  57.209   0.046  1.00  0.00    +0.000 C 
ATOM     69  F14 UNL A   1      16.790  57.987  -0.871  1.00  0.00    +0.000 F 
ATOM     70  C47 UNL A   1      18.683  57.473   0.445  1.00  0.00    +0.000 C 
ATOM     71  F15 UNL A   1      19.344  58.518  -0.073  1.00  0.00    +0.000 F 
ATOM     72  C48 UNL A   1      19.301  56.653   1.376  1.00  0.00    +0.000 C 
ATOM     73  F16 UNL A   1      20.554  56.912   1.772  1.00  0.00    +0.000 F 
ATOM     74  C49 UNL A   1      18.618  55.561   1.905  1.00  0.00    +0.000 C 
ATOM     75  F17 UNL A   1      19.239  54.780   2.800  1.00  0.00    +0.000 F 
ENDBRANCH   64   65
TORSDOF 17
ENDMDL
MODEL 3
REMARK VINA RESULT:     -10.2     22.217     28.154
ROOT
ATOM     28  C20 UNL A   1      52.538  17.680   6.685  1.00  0.00    +0.000 C 
ATOM     29  C21 UNL A   1      53.310  17.145   5.508  1.00  0.00    +0.000 C 
ATOM     30  N4  UNL A   1      54.568  16.784   5.439  1.00  0.00    +0.000 N 
ATOM     31  C22 UNL A   1      54.769  16.350   4.134  1.00  0.00    +0.000 C 
ATOM     32  C23 UNL A   1      55.911  15.907   3.556  1.00  0.00    +0.000 C 
ATOM     44  C30 UNL A   1      57.183  15.818   4.225  1.00  0.00    +0.000 C 
ATOM     45  C31 UNL A   1      58.398  15.396   3.714  1.00  0.00    +0.000 C 
ATOM     46  C32 UNL A   1      59.349  15.458   4.738  1.00  0.00    +0.000 C 
ATOM     47  C33 UNL A   1      58.733  15.950   5.877  1.00  0.00    +0.000 C 
ATOM     48  N5  UNL A   1      57.403  16.162   5.550  1.00  0.00    +0.000 N 
ATOM     49  C34 UNL A   1      59.310  16.202   7.172  1.00  0.00    +0.000 C 
ATOM     61  C41 UNL A   1      58.648  16.734   8.227  1.00  0.00    +0.000 C 
ATOM     62  N6  UNL A   1      57.320  17.124   8.313  1.00  0.00    +0.000 N 
ATOM     63  C42 UNL A   1      57.148  17.545   9.542  1.00  0.00    +0.000 C 
ATOM     64  C43 UNL A   1      55.906  18.080  10.195  1.00  0.00    +0.000 C 
ATOM     76  C50 UNL A   1      54.752  18.105   9.503  1.00  0.00    +0.000 C 
ATOM     77  C51 UNL A   1      53.470  18.582  10.013  1.00  0.00    +0.000 C 
ATOM     78  C52 UNL A   1      52.535  18.431   9.062  1.00  0.00    +0.000 C 
ATOM     79  C53 UNL A   1      53.166  17.892   7.856  1.00  0.00    +0.000 C 
ATOM     80  N7  UNL A   1      54.476  17.707   8.218  1.00  0.00    +0.000 N 
ATOM     81  C54 UNL A   1      58.355  17.469  10.378  1.00  0.00    +0.000 C 
ATOM     82  C55 UNL A   1      59.247  16.994   9.521  1.00  0.00    +0.000 C 
ATOM     83  C56 UNL A   1      53.500  16.467   3.450  1.00  0.00    +0.000 C 
ATOM     84  C57 UNL A   1      52.576  16.994   4.242  1.00  0.00    +0.000 C 
ATOM    109  H23 UNL A   1      58.574  15.090   2.744  1.00  0.00    +0.000 H 
ATOM    110  H24 UNL A   1      60.340  15.183   4.659  1.00  0.00    +0.000 H 
ATOM    111  H25 UNL A   1      56.717  16.509   6.165  1.00  0.00    +0.000 H 
ATOM    112  H26 UNL A   1      53.309  18.975  10.954  1.00  0.00    +0.000 H 
ATOM    113  H27 UNL A   1      51.535  18.656   9.165  1.00  0.00    +0.000 H 
ATOM    114  H28 UNL A   1      55.154  17.324   7.614  1.00  0.00    +0.000 H 
ATOM    115  H29 UNL A   1      58.476  17.721  11.372  1.00  0.00    +0.000 H 
ATOM    116  H30 UNL A   1      60.240  16.828   9.745  1.00  0.00    +0.000 H 
ATOM    117  H31 UNL A   1      53.336  16.178   2.472  1.00  0.00    +0.000 H 
ATOM    118  H32 UNL A   1      51.596  17.236   4.026  1.00  0.00    +0.000 H 
ENDROOT
BRANCH   28   27
ATOM     27  C19 UNL A   1      51.105  18.048   6.539  1.00  0.00    +0.000 C 
ATOM    107  H21 UNL A   1      49.175  20.515   5.319  1.00  0.00    +0.000 H 
ATOM    108  H22 UNL A   1      51.503  19.935   5.669  1.00  0.00    +0.000 H 
ATOM     85  C58 UNL A   1      50.085  17.175   6.945  1.00  0.00    +0.000 C 
ATOM     86  C59 UNL A   1      48.751  17.463   6.641  1.00  0.00    +0.000 C 
ATOM    120  H34 UNL A   1      48.004  16.804   6.911  1.00  0.00    +0.000 H 
ATOM     24  C16 UNL A   1      48.434  18.646   5.968  1.00  0.00    +0.000 C 
ATOM     25  C17 UNL A   1      49.428  19.588   5.696  1.00  0.00    +0.000 C 
ATOM     26  C18 UNL A   1      50.762  19.269   5.936  1.00  0.00    +0.000 C 
ATOM    119  H33 UNL A   1      50.319  16.317   7.469  1.00  0.00    +0.000 H 
BRANCH   24   22
ATOM     22  C15 UNL A   1      47.050  18.850   5.491  1.00  0.00    +0.000 C 
ATOM     23  O3  UNL A   1      46.203  17.982   5.678  1.00  0.00    +0.000 O 
BRANCH   22   21
ATOM    106  H20 UNL A   1      47.415  20.710   4.822  1.00  0.00    +0.000 H 
ATOM     21  N3  UNL A   1      46.739  19.996   4.793  1.00  0.00    +0.000 N 
BRANCH   21   20
ATOM    105  H19 UNL A   1      45.659  21.282   3.628  1.00  0.00    +0.000 H 
ATOM     20  C14 UNL A   1      45.543  20.292   4.017  1.00  0.00    +0.000 C 
ATOM    104  H18 UNL A   1      44.692  20.204   4.658  1.00  0.00    +0.000 H 
BRANCH   20   19
ATOM     19  C13 UNL A   1      45.347  19.363   2.824  1.00  0.00    +0.000 C 
ATOM    102  H16 UNL A   1      46.120  19.571   2.113  1.00  0.00    +0.000 H 
ATOM    103  H17 UNL A   1      45.378  18.369   3.218  1.00  0.00    +0.000 H 
BRANCH   19   18
ATOM     18  C12 UNL A   1      44.003  19.486   2.105  1.00  0.00    +0.000 C 
ATOM    100  H14 UNL A   1      43.722  20.519   2.108  1.00  0.00    +0.000 H 
ATOM    101  H15 UNL A   1      44.157  19.081   1.127  1.00  0.00    +0.000 H 
BRANCH   18   17
ATOM     17  C11 UNL A   1      42.849  18.684   2.713  1.00  0.00    +0.000 C 
ATOM     98  H12 UNL A   1      42.855  17.711   2.267  1.00  0.00    +0.000 H 
ATOM     99  H13 UNL A   1      43.022  18.684   3.768  1.00  0.00    +0.000 H 
BRANCH   17   16
ATOM     97  H11 UNL A   1      41.129  18.983   1.545  1.00  0.00    +0.000 H 
ATOM     96  H10 UNL A   1      41.515  20.336   2.652  1.00  0.00    +0.000 H 
ATOM     16  C10 UNL A   1      41.445  19.276   2.524  1.00  0.00    +0.000 C 
BRANCH   16   15
ATOM     95  H9  UNL A   1      40.318  19.429   4.312  1.00  0.00    +0.000 H 
ATOM     94  H8  UNL A   1      40.661  17.772   3.813  1.00  0.00    +0.000 H 
ATOM     15  C9  UNL A   1      40.381  18.752   3.486  1.00  0.00    +0.000 C 
BRANCH   15   14
ATOM     93  H7  UNL A   1      38.992  18.204   2.002  1.00  0.00    +0.000 H 
ATOM     14  N2  UNL A   1      39.078  18.683   2.858  1.00  0.00    +0.000 N 
BRANCH   14    2
ATOM      1  O1  UNL A   1      37.046  18.625   3.938  1.00  0.00    +0.000 O 
ATOM      2  C1  UNL A   1      37.953  19.260   3.411  1.00  0.00    +0.000 C 
BRANCH    2    3
ATOM      3  C2  UNL A   1      37.912  20.783   3.281  1.00  0.00    +0.000 C 
ATOM     87  H1  UNL A   1      38.907  21.156   3.405  1.00  0.00    +0.000 H 
ATOM     88  H2  UNL A   1      37.240  21.138   4.033  1.00  0.00    +0.000 H 
BRANCH    3    4
ATOM      4  C3  UNL A   1      37.381  21.276   1.954  1.00  0.00    +0.000 C 
ATOM      5  C4  UNL A   1      35.962  21.563   1.883  1.00  0.00    +0.000 C 
ATOM      6  C5  UNL A   1      35.403  21.948   0.729  1.00  0.00    +0.000 C 
ATOM      7  N1  UNL A   1      36.160  22.089  -0.420  1.00  0.00    +0.000 N 
ATOM     11  C7  UNL A   1      37.524  21.850  -0.447  1.00  0.00    +0.000 C 
ATOM     12  O2  UNL A   1      38.246  21.926  -1.434  1.00  0.00    +0.000 O 
ATOM     13  C8  UNL A   1      38.132  21.440   0.850  1.00  0.00    +0.000 C 
ATOM     89  H3  UNL A   1      35.378  21.471   2.729  1.00  0.00    +0.000 H 
ATOM     90  H4  UNL A   1      34.390  22.142   0.695  1.00  0.00    +0.000 H 
ATOM     92  H6  UNL A   1      39.150  21.280   0.903  1.00  0.00    +0.000 H 
BRANCH    7    8
ATOM      9  F1  UNL A   1      35.260  21.352  -2.414  1.00  0.00    +0.000 F 
ATOM     10  F2  UNL A   1      34.376  23.114  -1.451  1.00  0.00    +0.000 F 
ATOM     91  H5  UNL A   1      36.230  23.072  -2.192  1.00  0.00    +0.000 H 
ATOM      8  C6  UNL A   1      35.537  22.448  -1.667  1.00  0.00    +0.000 C 
ENDBRANCH    7    8
ENDBRANCH    3    4
ENDBRANCH    2    3
ENDBRANCH   14    2
ENDBRANCH   15   14
ENDBRANCH   16   15
ENDBRANCH   17   16
ENDBRANCH   18   17
ENDBRANCH   19   18
ENDBRANCH   20   19
ENDBRANCH   21   20
ENDBRANCH   22   21
ENDBRANCH   24   22
ENDBRANCH   28   27
BRANCH   32   33
ATOM     33  C24 UNL A   1      55.846  15.478   2.121  1.00  0.00    +0.000 C 
ATOM     34  C25 UNL A   1      55.222  14.280   1.743  1.00  0.00    +0.000 C 
ATOM     35  F3  UNL A   1      54.731  13.452   2.677  1.00  0.00    +0.000 F 
ATOM     36  C26 UNL A   1      55.120  13.920   0.401  1.00  0.00    +0.000 C 
ATOM     37  F4  UNL A   1      54.542  12.758   0.064  1.00  0.00    +0.000 F 
ATOM     38  C27 UNL A   1      55.617  14.758  -0.585  1.00  0.00    +0.000 C 
ATOM     39  F5  UNL A   1      55.506  14.415  -1.876  1.00  0.00    +0.000 F 
ATOM     40  C28 UNL A   1      56.232  15.951  -0.234  1.00  0.00    +0.000 C 
ATOM     41  F6  UNL A   1      56.703  16.766  -1.187  1.00  0.00    +0.000 F 
ATOM     42  C29 UNL A   1      56.354  16.304   1.108  1.00  0.00    +0.000 C 
ATOM     43  F7  UNL A   1      56.955  17.462   1.417  1.00  0.00    +0.000 F 
ENDBRANCH   32   33
BRANCH   49   50
ATOM     50  C35 UNL A   1      60.756  15.859   7.369  1.00  0.00    +0.000 C 
ATOM     51  C36 UNL A   1      61.147  14.576   7.777  1.00  0.00    +0.000 C 
ATOM     52  F8  UNL A   1      60.222  13.647   8.061  1.00  0.00    +0.000 F 
ATOM     53  C37 UNL A   1      62.494  14.252   7.921  1.00  0.00    +0.000 C 
ATOM     54  F9  UNL A   1      62.845  13.031   8.344  1.00  0.00    +0.000 F 
ATOM     55  C38 UNL A   1      63.470  15.196   7.638  1.00  0.00    +0.000 C 
ATOM     56  F10 UNL A   1      64.765  14.880   7.769  1.00  0.00    +0.000 F 
ATOM     57  C39 UNL A   1      63.104  16.468   7.223  1.00  0.00    +0.000 C 
ATOM     58  F11 UNL A   1      64.047  17.377   6.939  1.00  0.00    +0.000 F 
ATOM     59  C40 UNL A   1      61.759  16.801   7.098  1.00  0.00    +0.000 C 
ATOM     60  F12 UNL A   1      61.432  18.040   6.701  1.00  0.00    +0.000 F 
ENDBRANCH   49   50
BRANCH   64   65
ATOM     65  C44 UNL A   1      55.932  18.580  11.591  1.00  0.00    +0.000 C 
ATOM     66  C45 UNL A   1      55.814  17.698  12.673  1.00  0.00    +0.000 C 
ATOM     67  F13 UNL A   1      55.630  16.388  12.452  1.00  0.00    +0.000 F 
ATOM     68  C46 UNL A   1      55.860  18.162  13.986  1.00  0.00    +0.000 C 
ATOM     69  F14 UNL A   1      55.719  17.302  15.004  1.00  0.00    +0.000 F 
ATOM     70  C47 UNL A   1      56.047  19.513  14.240  1.00  0.00    +0.000 C 
ATOM     71  F15 UNL A   1      56.103  19.957  15.503  1.00  0.00    +0.000 F 
ATOM     72  C48 UNL A   1      56.169  20.404  13.185  1.00  0.00    +0.000 C 
ATOM     73  F16 UNL A   1      56.362  21.707  13.426  1.00  0.00    +0.000 F 
ATOM     74  C49 UNL A   1      56.099  19.944  11.872  1.00  0.00    +0.000 C 
ATOM     75  F17 UNL A   1      56.216  20.826  10.870  1.00  0.00    +0.000 F 
ENDBRANCH   64   65
TORSDOF 17
ENDMDL
MODEL 4
REMARK VINA RESULT:     -10.1     25.384     29.613
ROOT
ATOM     28  C20 UNL A   1      23.257  35.962  46.916  1.00  0.00    +0.000 C 
ATOM     29  C21 UNL A   1      21.898  36.331  47.450  1.00  0.00    +0.000 C 
ATOM     30  N4  UNL A   1      21.451  37.501  47.835  1.00  0.00    +0.000 N 
ATOM     31  C22 UNL A   1      20.132  37.296  48.222  1.00  0.00    +0.000 C 
ATOM     32  C23 UNL A   1      19.250  38.192  48.727  1.00  0.00    +0.000 C 
ATOM     44  C30 UNL A   1      19.546  39.579  48.975  1.00  0.00    +0.000 C 
ATOM     45  C31 UNL A   1      18.719  40.556  49.500  1.00  0.00    +0.000 C 
ATOM     46  C32 UNL A   1      19.431  41.759  49.536  1.00  0.00    +0.000 C 
ATOM     47  C33 UNL A   1      20.712  41.523  49.065  1.00  0.00    +0.000 C 
ATOM     48  N5  UNL A   1      20.768  40.182  48.720  1.00  0.00    +0.000 N 
ATOM     49  C34 UNL A   1      21.805  42.451  48.931  1.00  0.00    +0.000 C 
ATOM     61  C41 UNL A   1      23.050  42.129  48.506  1.00  0.00    +0.000 C 
ATOM     62  N6  UNL A   1      23.538  40.896  48.100  1.00  0.00    +0.000 N 
ATOM     63  C42 UNL A   1      24.785  41.100  47.753  1.00  0.00    +0.000 C 
ATOM     64  C43 UNL A   1      25.796  40.119  47.231  1.00  0.00    +0.000 C 
ATOM     76  C50 UNL A   1      25.426  38.844  47.004  1.00  0.00    +0.000 C 
ATOM     77  C51 UNL A   1      26.295  37.792  46.488  1.00  0.00    +0.000 C 
ATOM     78  C52 UNL A   1      25.585  36.660  46.359  1.00  0.00    +0.000 C 
ATOM     79  C53 UNL A   1      24.221  36.897  46.835  1.00  0.00    +0.000 C 
ATOM     80  N7  UNL A   1      24.212  38.227  47.174  1.00  0.00    +0.000 N 
ATOM     81  C54 UNL A   1      25.231  42.493  47.900  1.00  0.00    +0.000 C 
ATOM     82  C55 UNL A   1      24.143  43.073  48.389  1.00  0.00    +0.000 C 
ATOM     83  C56 UNL A   1      19.840  35.897  48.003  1.00  0.00    +0.000 C 
ATOM     84  C57 UNL A   1      20.911  35.247  47.568  1.00  0.00    +0.000 C 
ATOM    109  H23 UNL A   1      17.745  40.421  49.813  1.00  0.00    +0.000 H 
ATOM    110  H24 UNL A   1      19.065  42.669  49.859  1.00  0.00    +0.000 H 
ATOM    111  H25 UNL A   1      21.558  39.725  48.351  1.00  0.00    +0.000 H 
ATOM    112  H26 UNL A   1      27.296  37.899  46.259  1.00  0.00    +0.000 H 
ATOM    113  H27 UNL A   1      25.942  35.768  45.986  1.00  0.00    +0.000 H 
ATOM    114  H28 UNL A   1      23.411  38.693  47.507  1.00  0.00    +0.000 H 
ATOM    115  H29 UNL A   1      26.149  42.910  47.682  1.00  0.00    +0.000 H 
ATOM    116  H30 UNL A   1      24.082  44.069  48.650  1.00  0.00    +0.000 H 
ATOM    117  H31 UNL A   1      18.918  35.462  48.165  1.00  0.00    +0.000 H 
ATOM    118  H32 UNL A   1      21.022  34.241  47.365  1.00  0.00    +0.000 H 
ENDROOT
BRANCH   28   27
ATOM     27  C19 UNL A   1      23.564  34.554  46.550  1.00  0.00    +0.000 C 
ATOM    107  H21 UNL A   1      24.515  31.658  47.967  1.00  0.00    +0.000 H 
ATOM    108  H22 UNL A   1      24.114  33.986  48.512  1.00  0.00    +0.000 H 
ATOM     85  C58 UNL A   1      23.411  34.095  45.233  1.00  0.00    +0.000 C 
ATOM     86  C59 UNL A   1      23.535  32.733  44.945  1.00  0.00    +0.000 C 
ATOM    120  H34 UNL A   1      23.392  32.391  43.982  1.00  0.00    +0.000 H 
ATOM     24  C16 UNL A   1      23.854  31.835  45.967  1.00  0.00    +0.000 C 
ATOM     25  C17 UNL A   1      24.154  32.304  47.248  1.00  0.00    +0.000 C 
ATOM     26  C18 UNL A   1      23.962  33.650  47.548  1.00  0.00    +0.000 C 
ATOM    119  H33 UNL A   1      23.207  34.765  44.474  1.00  0.00    +0.000 H 
BRANCH   24   22
ATOM     22  C15 UNL A   1      23.801  30.383  45.689  1.00  0.00    +0.000 C 
ATOM     23  O3  UNL A   1      24.723  29.841  45.088  1.00  0.00    +0.000 O 
BRANCH   22   21
ATOM    106  H20 UNL A   1      22.703  29.301  46.978  1.00  0.00    +0.000 H 
ATOM     21  N3  UNL A   1      22.688  29.665  46.064  1.00  0.00    +0.000 N 
BRANCH   21   20
ATOM    105  H19 UNL A   1      20.862  28.760  45.902  1.00  0.00    +0.000 H 
ATOM     20  C14 UNL A   1      21.491  29.372  45.289  1.00  0.00    +0.000 C 
ATOM    104  H18 UNL A   1      21.783  28.877  44.387  1.00  0.00    +0.000 H 
BRANCH   20   19
ATOM     19  C13 UNL A   1      20.686  30.613  44.921  1.00  0.00    +0.000 C 
ATOM    102  H16 UNL A   1      21.198  31.114  44.125  1.00  0.00    +0.000 H 
ATOM    103  H17 UNL A   1      19.711  30.262  44.654  1.00  0.00    +0.000 H 
BRANCH   19   18
ATOM     18  C12 UNL A   1      20.473  31.621  46.050  1.00  0.00    +0.000 C 
ATOM    100  H14 UNL A   1      20.555  31.095  46.980  1.00  0.00    +0.000 H 
ATOM    101  H15 UNL A   1      21.217  32.376  45.911  1.00  0.00    +0.000 H 
BRANCH   18   17
ATOM     17  C11 UNL A   1      19.127  32.353  46.043  1.00  0.00    +0.000 C 
ATOM     98  H12 UNL A   1      18.397  31.700  46.473  1.00  0.00    +0.000 H 
ATOM     99  H13 UNL A   1      19.288  33.255  46.594  1.00  0.00    +0.000 H 
BRANCH   17   16
ATOM     97  H11 UNL A   1      19.365  32.516  43.962  1.00  0.00    +0.000 H 
ATOM     96  H10 UNL A   1      18.427  33.848  44.706  1.00  0.00    +0.000 H 
ATOM     16  C10 UNL A   1      18.609  32.794  44.667  1.00  0.00    +0.000 C 
BRANCH   16   15
ATOM     95  H9  UNL A   1      16.664  32.861  43.829  1.00  0.00    +0.000 H 
ATOM     94  H8  UNL A   1      16.891  31.590  45.031  1.00  0.00    +0.000 H 
ATOM     15  C9  UNL A   1      17.326  32.109  44.203  1.00  0.00    +0.000 C 
BRANCH   15   14
ATOM     93  H7  UNL A   1      18.132  31.447  42.373  1.00  0.00    +0.000 H 
ATOM     14  N2  UNL A   1      17.581  31.162  43.137  1.00  0.00    +0.000 N 
BRANCH   14    2
ATOM      1  O1  UNL A   1      17.673  28.916  43.635  1.00  0.00    +0.000 O 
ATOM      2  C1  UNL A   1      17.082  29.875  43.150  1.00  0.00    +0.000 C 
BRANCH    2    3
ATOM      3  C2  UNL A   1      15.721  29.733  42.467  1.00  0.00    +0.000 C 
ATOM     87  H1  UNL A   1      15.777  30.206  41.509  1.00  0.00    +0.000 H 
ATOM     88  H2  UNL A   1      15.003  30.190  43.115  1.00  0.00    +0.000 H 
BRANCH    3    4
ATOM      4  C3  UNL A   1      15.277  28.302  42.266  1.00  0.00    +0.000 C 
ATOM      5  C4  UNL A   1      14.965  27.540  43.459  1.00  0.00    +0.000 C 
ATOM      6  C5  UNL A   1      14.621  26.249  43.370  1.00  0.00    +0.000 C 
ATOM      7  N1  UNL A   1      14.546  25.611  42.146  1.00  0.00    +0.000 N 
ATOM     11  C7  UNL A   1      14.813  26.260  40.951  1.00  0.00    +0.000 C 
ATOM     12  O2  UNL A   1      14.796  25.749  39.838  1.00  0.00    +0.000 O 
ATOM     13  C8  UNL A   1      15.177  27.700  41.067  1.00  0.00    +0.000 C 
ATOM     89  H3  UNL A   1      15.007  27.995  44.384  1.00  0.00    +0.000 H 
ATOM     90  H4  UNL A   1      14.408  25.720  44.231  1.00  0.00    +0.000 H 
ATOM     92  H6  UNL A   1      15.355  28.247  40.210  1.00  0.00    +0.000 H 
BRANCH    7    8
ATOM      9  F1  UNL A   1      15.334  23.468  41.807  1.00  0.00    +0.000 F 
ATOM     10  F2  UNL A   1      13.696  23.771  43.235  1.00  0.00    +0.000 F 
ATOM     91  H5  UNL A   1      13.525  24.092  41.272  1.00  0.00    +0.000 H 
ATOM      8  C6  UNL A   1      14.230  24.209  42.068  1.00  0.00    +0.000 C 
ENDBRANCH    7    8
ENDBRANCH    3    4
ENDBRANCH    2    3
ENDBRANCH   14    2
ENDBRANCH   15   14
ENDBRANCH   16   15
ENDBRANCH   17   16
ENDBRANCH   18   17
ENDBRANCH   19   18
ENDBRANCH   20   19
ENDBRANCH   21   20
ENDBRANCH   22   21
ENDBRANCH   24   22
ENDBRANCH   28   27
BRANCH   32   33
ATOM     33  C24 UNL A   1      17.869  37.705  49.047  1.00  0.00    +0.000 C 
ATOM     34  C25 UNL A   1      17.414  37.612  50.371  1.00  0.00    +0.000 C 
ATOM     35  F3  UNL A   1      18.241  37.890  51.389  1.00  0.00    +0.000 F 
ATOM     36  C26 UNL A   1      16.110  37.212  50.652  1.00  0.00    +0.000 C 
ATOM     37  F4  UNL A   1      15.704  37.105  51.925  1.00  0.00    +0.000 F 
ATOM     38  C27 UNL A   1      15.232  36.920  49.618  1.00  0.00    +0.000 C 
ATOM     39  F5  UNL A   1      13.974  36.548  49.891  1.00  0.00    +0.000 F 
ATOM     40  C28 UNL A   1      15.659  37.012  48.302  1.00  0.00    +0.000 C 
ATOM     41  F6  UNL A   1      14.809  36.740  47.302  1.00  0.00    +0.000 F 
ATOM     42  C29 UNL A   1      16.969  37.392  48.018  1.00  0.00    +0.000 C 
ATOM     43  F7  UNL A   1      17.353  37.471  46.736  1.00  0.00    +0.000 F 
ENDBRANCH   32   33
BRANCH   49   50
ATOM     50  C35 UNL A   1      21.552  43.882  49.297  1.00  0.00    +0.000 C 
ATOM     51  C36 UNL A   1      21.769  44.347  50.602  1.00  0.00    +0.000 C 
ATOM     52  F8  UNL A   1      22.147  43.495  51.567  1.00  0.00    +0.000 F 
ATOM     53  C37 UNL A   1      21.569  45.686  50.926  1.00  0.00    +0.000 C 
ATOM     54  F9  UNL A   1      21.749  46.102  52.186  1.00  0.00    +0.000 F 
ATOM     55  C38 UNL A   1      21.173  46.587  49.948  1.00  0.00    +0.000 C 
ATOM     56  F10 UNL A   1      20.990  47.877  50.259  1.00  0.00    +0.000 F 
ATOM     57  C39 UNL A   1      20.964  46.150  48.648  1.00  0.00    +0.000 C 
ATOM     58  F11 UNL A   1      20.592  47.021  47.701  1.00  0.00    +0.000 F 
ATOM     59  C40 UNL A   1      21.142  44.808  48.325  1.00  0.00    +0.000 C 
ATOM     60  F12 UNL A   1      20.928  44.411  47.063  1.00  0.00    +0.000 F 
ENDBRANCH   49   50
BRANCH   64   65
ATOM     65  C44 UNL A   1      27.194  40.534  46.961  1.00  0.00    +0.000 C 
ATOM     66  C45 UNL A   1      28.142  40.577  47.991  1.00  0.00    +0.000 C 
ATOM     67  F13 UNL A   1      27.779  40.283  49.248  1.00  0.00    +0.000 F 
ATOM     68  C46 UNL A   1      29.462  40.945  47.737  1.00  0.00    +0.000 C 
ATOM     69  F14 UNL A   1      30.344  41.004  48.744  1.00  0.00    +0.000 F 
ATOM     70  C47 UNL A   1      29.861  41.256  46.445  1.00  0.00    +0.000 C 
ATOM     71  F15 UNL A   1      31.133  41.598  46.200  1.00  0.00    +0.000 F 
ATOM     72  C48 UNL A   1      28.940  41.217  45.410  1.00  0.00    +0.000 C 
ATOM     73  F16 UNL A   1      29.324  41.504  44.159  1.00  0.00    +0.000 F 
ATOM     74  C49 UNL A   1      27.616  40.872  45.666  1.00  0.00    +0.000 C 
ATOM     75  F17 UNL A   1      26.744  40.846  44.649  1.00  0.00    +0.000 F 
ENDBRANCH   64   65
TORSDOF 17
ENDMDL
MODEL 5
REMARK VINA RESULT:     -10.0      4.224      6.480
ROOT
ATOM     28  C20 UNL A   1      38.670  30.034  29.360  1.00  0.00    +0.000 C 
ATOM     29  C21 UNL A   1      38.831  30.560  30.762  1.00  0.00    +0.000 C 
ATOM     30  N4  UNL A   1      39.859  30.463  31.568  1.00  0.00    +0.000 N 
ATOM     31  C22 UNL A   1      39.496  31.132  32.731  1.00  0.00    +0.000 C 
ATOM     32  C23 UNL A   1      40.204  31.285  33.875  1.00  0.00    +0.000 C 
ATOM     44  C30 UNL A   1      41.518  30.742  34.100  1.00  0.00    +0.000 C 
ATOM     45  C31 UNL A   1      42.306  30.833  35.235  1.00  0.00    +0.000 C 
ATOM     46  C32 UNL A   1      43.512  30.172  34.985  1.00  0.00    +0.000 C 
ATOM     47  C33 UNL A   1      43.462  29.640  33.707  1.00  0.00    +0.000 C 
ATOM     48  N5  UNL A   1      42.235  30.001  33.174  1.00  0.00    +0.000 N 
ATOM     49  C34 UNL A   1      44.461  28.866  33.017  1.00  0.00    +0.000 C 
ATOM     61  C41 UNL A   1      44.315  28.337  31.779  1.00  0.00    +0.000 C 
ATOM     62  N6  UNL A   1      43.233  28.427  30.916  1.00  0.00    +0.000 N 
ATOM     63  C42 UNL A   1      43.583  27.781  29.831  1.00  0.00    +0.000 C 
ATOM     64  C43 UNL A   1      42.802  27.560  28.567  1.00  0.00    +0.000 C 
ATOM     76  C50 UNL A   1      41.588  28.126  28.431  1.00  0.00    +0.000 C 
ATOM     77  C51 UNL A   1      40.728  28.008  27.257  1.00  0.00    +0.000 C 
ATOM     78  C52 UNL A   1      39.611  28.725  27.458  1.00  0.00    +0.000 C 
ATOM     79  C53 UNL A   1      39.656  29.311  28.799  1.00  0.00    +0.000 C 
ATOM     80  N7  UNL A   1      40.877  28.923  29.293  1.00  0.00    +0.000 N 
ATOM     81  C54 UNL A   1      44.933  27.204  29.884  1.00  0.00    +0.000 C 
ATOM     82  C55 UNL A   1      45.326  27.549  31.102  1.00  0.00    +0.000 C 
ATOM     83  C56 UNL A   1      38.163  31.653  32.520  1.00  0.00    +0.000 C 
ATOM     84  C57 UNL A   1      37.689  31.290  31.335  1.00  0.00    +0.000 C 
ATOM    109  H23 UNL A   1      42.047  31.306  36.115  1.00  0.00    +0.000 H 
ATOM    110  H24 UNL A   1      44.305  30.093  35.641  1.00  0.00    +0.000 H 
ATOM    111  H25 UNL A   1      41.918  29.765  32.272  1.00  0.00    +0.000 H 
ATOM    112  H26 UNL A   1      40.943  27.460  26.409  1.00  0.00    +0.000 H 
ATOM    113  H27 UNL A   1      38.846  28.844  26.778  1.00  0.00    +0.000 H 
ATOM    114  H28 UNL A   1      41.209  29.191  30.180  1.00  0.00    +0.000 H 
ATOM    115  H29 UNL A   1      45.442  26.670  29.162  1.00  0.00    +0.000 H 
ATOM    116  H30 UNL A   1      46.235  27.291  31.516  1.00  0.00    +0.000 H 
ATOM    117  H31 UNL A   1      37.648  32.231  33.203  1.00  0.00    +0.000 H 
ATOM    118  H32 UNL A   1      36.761  31.473  30.923  1.00  0.00    +0.000 H 
ENDROOT
BRANCH   28   27
ATOM     27  C19 UNL A   1      37.397  30.243  28.620  1.00  0.00    +0.000 C 
ATOM    107  H21 UNL A   1      34.877  28.487  27.254  1.00  0.00    +0.000 H 
ATOM    108  H22 UNL A   1      37.009  28.178  28.365  1.00  0.00    +0.000 H 
ATOM     85  C58 UNL A   1      36.907  31.533  28.364  1.00  0.00    +0.000 C 
ATOM     86  C59 UNL A   1      35.630  31.705  27.824  1.00  0.00    +0.000 C 
ATOM    120  H34 UNL A   1      35.258  32.654  27.666  1.00  0.00    +0.000 H 
ATOM     24  C16 UNL A   1      34.857  30.586  27.502  1.00  0.00    +0.000 C 
ATOM     25  C17 UNL A   1      35.397  29.302  27.614  1.00  0.00    +0.000 C 
ATOM     26  C18 UNL A   1      36.640  29.131  28.216  1.00  0.00    +0.000 C 
ATOM    119  H33 UNL A   1      37.493  32.356  28.574  1.00  0.00    +0.000 H 
BRANCH   24   22
ATOM     22  C15 UNL A   1      33.445  30.778  27.107  1.00  0.00    +0.000 C 
ATOM     23  O3  UNL A   1      32.828  31.762  27.503  1.00  0.00    +0.000 O 
BRANCH   22   21
ATOM    106  H20 UNL A   1      33.004  29.862  25.374  1.00  0.00    +0.000 H 
ATOM     21  N3  UNL A   1      32.823  29.820  26.340  1.00  0.00    +0.000 N 
BRANCH   21   20
ATOM    105  H19 UNL A   1      30.934  29.133  26.715  1.00  0.00    +0.000 H 
ATOM     20  C14 UNL A   1      31.932  28.750  26.767  1.00  0.00    +0.000 C 
ATOM    104  H18 UNL A   1      32.204  28.459  27.760  1.00  0.00    +0.000 H 
BRANCH   20   19
ATOM     19  C13 UNL A   1      31.987  27.519  25.870  1.00  0.00    +0.000 C 
ATOM    102  H16 UNL A   1      31.402  26.749  26.331  1.00  0.00    +0.000 H 
ATOM    103  H17 UNL A   1      31.614  27.832  24.917  1.00  0.00    +0.000 H 
BRANCH   19   18
ATOM     18  C12 UNL A   1      33.383  26.955  25.608  1.00  0.00    +0.000 C 
ATOM    100  H14 UNL A   1      33.571  27.019  24.556  1.00  0.00    +0.000 H 
ATOM    101  H15 UNL A   1      34.051  27.540  26.204  1.00  0.00    +0.000 H 
BRANCH   18   17
ATOM     17  C11 UNL A   1      33.605  25.501  26.037  1.00  0.00    +0.000 C 
ATOM     98  H12 UNL A   1      33.777  25.494  27.093  1.00  0.00    +0.000 H 
ATOM     99  H13 UNL A   1      32.726  24.974  25.733  1.00  0.00    +0.000 H 
BRANCH   17   16
ATOM     97  H11 UNL A   1      35.611  25.442  25.417  1.00  0.00    +0.000 H 
ATOM     96  H10 UNL A   1      34.485  24.529  24.366  1.00  0.00    +0.000 H 
ATOM     16  C10 UNL A   1      34.777  24.773  25.366  1.00  0.00    +0.000 C 
BRANCH   16   15
ATOM     95  H9  UNL A   1      35.515  23.728  27.056  1.00  0.00    +0.000 H 
ATOM     94  H8  UNL A   1      36.046  23.068  25.508  1.00  0.00    +0.000 H 
ATOM     15  C9  UNL A   1      35.226  23.486  26.055  1.00  0.00    +0.000 C 
BRANCH   15   14
ATOM     93  H7  UNL A   1      33.450  22.627  26.791  1.00  0.00    +0.000 H 
ATOM     14  N2  UNL A   1      34.157  22.510  26.116  1.00  0.00    +0.000 N 
BRANCH   14    2
ATOM      1  O1  UNL A   1      35.005  20.624  25.106  1.00  0.00    +0.000 O 
ATOM      2  C1  UNL A   1      34.090  21.424  25.267  1.00  0.00    +0.000 C 
BRANCH    2    3
ATOM      3  C2  UNL A   1      32.769  21.317  24.505  1.00  0.00    +0.000 C 
ATOM     87  H1  UNL A   1      32.001  21.055  25.202  1.00  0.00    +0.000 H 
ATOM     88  H2  UNL A   1      32.911  20.576  23.747  1.00  0.00    +0.000 H 
BRANCH    3    4
ATOM      4  C3  UNL A   1      32.358  22.589  23.800  1.00  0.00    +0.000 C 
ATOM      5  C4  UNL A   1      33.191  23.023  22.695  1.00  0.00    +0.000 C 
ATOM      6  C5  UNL A   1      32.927  24.170  22.056  1.00  0.00    +0.000 C 
ATOM      7  N1  UNL A   1      31.857  24.965  22.423  1.00  0.00    +0.000 N 
ATOM     11  C7  UNL A   1      30.998  24.625  23.456  1.00  0.00    +0.000 C 
ATOM     12  O2  UNL A   1      30.052  25.296  23.852  1.00  0.00    +0.000 O 
ATOM     13  C8  UNL A   1      31.295  23.338  24.145  1.00  0.00    +0.000 C 
ATOM     89  H3  UNL A   1      33.992  22.445  22.398  1.00  0.00    +0.000 H 
ATOM     90  H4  UNL A   1      33.535  24.468  21.276  1.00  0.00    +0.000 H 
ATOM     92  H6  UNL A   1      30.672  23.013  24.901  1.00  0.00    +0.000 H 
BRANCH    7    8
ATOM      9  F1  UNL A   1      32.543  27.147  22.119  1.00  0.00    +0.000 F 
ATOM     10  F2  UNL A   1      31.664  26.077  20.418  1.00  0.00    +0.000 F 
ATOM     91  H5  UNL A   1      30.647  26.554  22.069  1.00  0.00    +0.000 H 
ATOM      8  C6  UNL A   1      31.619  26.223  21.765  1.00  0.00    +0.000 C 
ENDBRANCH    7    8
ENDBRANCH    3    4
ENDBRANCH    2    3
ENDBRANCH   14    2
ENDBRANCH   15   14
ENDBRANCH   16   15
ENDBRANCH   17   16
ENDBRANCH   18   17
ENDBRANCH   19   18
ENDBRANCH   20   19
ENDBRANCH   21   20
ENDBRANCH   22   21
ENDBRANCH   24   22
ENDBRANCH   28   27
BRANCH   32   33
ATOM     33  C24 UNL A   1      39.577  32.077  34.983  1.00  0.00    +0.000 C 
ATOM     34  C25 UNL A   1      39.660  33.477  35.020  1.00  0.00    +0.000 C 
ATOM     35  F3  UNL A   1      40.374  34.134  34.094  1.00  0.00    +0.000 F 
ATOM     36  C26 UNL A   1      39.027  34.204  36.025  1.00  0.00    +0.000 C 
ATOM     37  F4  UNL A   1      39.141  35.539  36.055  1.00  0.00    +0.000 F 
ATOM     38  C27 UNL A   1      38.281  33.550  36.994  1.00  0.00    +0.000 C 
ATOM     39  F5  UNL A   1      37.662  34.253  37.952  1.00  0.00    +0.000 F 
ATOM     40  C28 UNL A   1      38.180  32.167  36.972  1.00  0.00    +0.000 C 
ATOM     41  F6  UNL A   1      37.451  31.535  37.903  1.00  0.00    +0.000 F 
ATOM     42  C29 UNL A   1      38.830  31.435  35.981  1.00  0.00    +0.000 C 
ATOM     43  F7  UNL A   1      38.715  30.099  35.987  1.00  0.00    +0.000 F 
ENDBRANCH   32   33
BRANCH   49   50
ATOM     50  C35 UNL A   1      45.760  28.617  33.722  1.00  0.00    +0.000 C 
ATOM     51  C36 UNL A   1      45.946  27.478  34.518  1.00  0.00    +0.000 C 
ATOM     52  F8  UNL A   1      44.935  26.619  34.714  1.00  0.00    +0.000 F 
ATOM     53  C37 UNL A   1      47.168  27.233  35.140  1.00  0.00    +0.000 C 
ATOM     54  F9  UNL A   1      47.315  26.157  35.922  1.00  0.00    +0.000 F 
ATOM     55  C38 UNL A   1      48.229  28.108  34.957  1.00  0.00    +0.000 C 
ATOM     56  F10 UNL A   1      49.406  27.867  35.549  1.00  0.00    +0.000 F 
ATOM     57  C39 UNL A   1      48.069  29.236  34.164  1.00  0.00    +0.000 C 
ATOM     58  F11 UNL A   1      49.096  30.075  33.980  1.00  0.00    +0.000 F 
ATOM     59  C40 UNL A   1      46.842  29.494  33.560  1.00  0.00    +0.000 C 
ATOM     60  F12 UNL A   1      46.713  30.594  32.803  1.00  0.00    +0.000 F 
ENDBRANCH   49   50
BRANCH   64   65
ATOM     65  C44 UNL A   1      43.349  26.728  27.468  1.00  0.00    +0.000 C 
ATOM     66  C45 UNL A   1      44.218  27.276  26.516  1.00  0.00    +0.000 C 
ATOM     67  F13 UNL A   1      44.531  28.579  26.567  1.00  0.00    +0.000 F 
ATOM     68  C46 UNL A   1      44.752  26.493  25.495  1.00  0.00    +0.000 C 
ATOM     69  F14 UNL A   1      45.561  27.046  24.581  1.00  0.00    +0.000 F 
ATOM     70  C47 UNL A   1      44.441  25.143  25.420  1.00  0.00    +0.000 C 
ATOM     71  F15 UNL A   1      44.963  24.387  24.445  1.00  0.00    +0.000 F 
ATOM     72  C48 UNL A   1      43.585  24.578  26.353  1.00  0.00    +0.000 C 
ATOM     73  F16 UNL A   1      43.291  23.272  26.291  1.00  0.00    +0.000 F 
ATOM     74  C49 UNL A   1      43.033  25.365  27.360  1.00  0.00    +0.000 C 
ATOM     75  F17 UNL A   1      42.204  24.797  28.246  1.00  0.00    +0.000 F 
ENDBRANCH   64   65
TORSDOF 17
ENDMDL
MODEL 6
REMARK VINA RESULT:      -9.9     20.335     25.202
ROOT
ATOM     28  C20 UNL A   1      25.832  36.212  45.253  1.00  0.00    +0.000 C 
ATOM     29  C21 UNL A   1      25.765  37.290  46.302  1.00  0.00    +0.000 C 
ATOM     30  N4  UNL A   1      26.701  38.115  46.702  1.00  0.00    +0.000 N 
ATOM     31  C22 UNL A   1      26.115  38.915  47.675  1.00  0.00    +0.000 C 
ATOM     32  C23 UNL A   1      26.680  39.899  48.414  1.00  0.00    +0.000 C 
ATOM     44  C30 UNL A   1      28.060  40.299  48.322  1.00  0.00    +0.000 C 
ATOM     45  C31 UNL A   1      28.724  41.276  49.044  1.00  0.00    +0.000 C 
ATOM     46  C32 UNL A   1      30.048  41.326  48.597  1.00  0.00    +0.000 C 
ATOM     47  C33 UNL A   1      30.217  40.357  47.621  1.00  0.00    +0.000 C 
ATOM     48  N5  UNL A   1      28.988  39.737  47.460  1.00  0.00    +0.000 N 
ATOM     49  C34 UNL A   1      31.408  40.023  46.884  1.00  0.00    +0.000 C 
ATOM     61  C41 UNL A   1      31.504  39.023  45.976  1.00  0.00    +0.000 C 
ATOM     62  N6  UNL A   1      30.525  38.140  45.547  1.00  0.00    +0.000 N 
ATOM     63  C42 UNL A   1      31.094  37.383  44.642  1.00  0.00    +0.000 C 
ATOM     64  C43 UNL A   1      30.503  36.259  43.839  1.00  0.00    +0.000 C 
ATOM     76  C50 UNL A   1      29.195  35.968  43.970  1.00  0.00    +0.000 C 
ATOM     77  C51 UNL A   1      28.488  34.916  43.246  1.00  0.00    +0.000 C 
ATOM     78  C52 UNL A   1      27.194  34.933  43.602  1.00  0.00    +0.000 C 
ATOM     79  C53 UNL A   1      26.993  35.966  44.620  1.00  0.00    +0.000 C 
ATOM     80  N7  UNL A   1      28.230  36.545  44.756  1.00  0.00    +0.000 N 
ATOM     81  C54 UNL A   1      32.506  37.703  44.392  1.00  0.00    +0.000 C 
ATOM     82  C55 UNL A   1      32.715  38.692  45.251  1.00  0.00    +0.000 C 
ATOM     83  C56 UNL A   1      24.735  38.495  47.792  1.00  0.00    +0.000 C 
ATOM     84  C57 UNL A   1      24.479  37.465  46.997  1.00  0.00    +0.000 C 
ATOM    109  H23 UNL A   1      28.314  41.865  49.785  1.00  0.00    +0.000 H 
ATOM    110  H24 UNL A   1      30.776  41.974  48.936  1.00  0.00    +0.000 H 
ATOM    111  H25 UNL A   1      28.802  39.006  46.828  1.00  0.00    +0.000 H 
ATOM    112  H26 UNL A   1      28.914  34.263  42.570  1.00  0.00    +0.000 H 
ATOM    113  H27 UNL A   1      26.460  34.318  43.221  1.00  0.00    +0.000 H 
ATOM    114  H28 UNL A   1      28.407  37.302  45.361  1.00  0.00    +0.000 H 
ATOM    115  H29 UNL A   1      33.164  37.270  43.725  1.00  0.00    +0.000 H 
ATOM    116  H30 UNL A   1      33.621  39.166  45.385  1.00  0.00    +0.000 H 
ATOM    117  H31 UNL A   1      24.042  38.940  48.414  1.00  0.00    +0.000 H 
ATOM    118  H32 UNL A   1      23.605  36.927  46.892  1.00  0.00    +0.000 H 
ENDROOT
BRANCH   28   27
ATOM     27  C19 UNL A   1      24.642  35.368  44.965  1.00  0.00    +0.000 C 
ATOM    107  H21 UNL A   1      23.234  32.467  45.915  1.00  0.00    +0.000 H 
ATOM    108  H22 UNL A   1      25.216  33.814  46.281  1.00  0.00    +0.000 H 
ATOM     85  C58 UNL A   1      23.652  35.788  44.064  1.00  0.00    +0.000 C 
ATOM     86  C59 UNL A   1      22.462  35.065  43.940  1.00  0.00    +0.000 C 
ATOM    120  H34 UNL A   1      21.721  35.393  43.301  1.00  0.00    +0.000 H 
ATOM     24  C16 UNL A   1      22.280  33.898  44.686  1.00  0.00    +0.000 C 
ATOM     25  C17 UNL A   1      23.321  33.394  45.470  1.00  0.00    +0.000 C 
ATOM     26  C18 UNL A   1      24.476  34.151  45.646  1.00  0.00    +0.000 C 
ATOM    119  H33 UNL A   1      23.802  36.634  43.491  1.00  0.00    +0.000 H 
BRANCH   24   22
ATOM     22  C15 UNL A   1      20.953  33.246  44.686  1.00  0.00    +0.000 C 
ATOM     23  O3  UNL A   1      20.009  33.780  44.113  1.00  0.00    +0.000 O 
BRANCH   22   21
ATOM    106  H20 UNL A   1      21.074  32.077  46.317  1.00  0.00    +0.000 H 
ATOM     21  N3  UNL A   1      20.779  32.069  45.378  1.00  0.00    +0.000 N 
BRANCH   21   20
ATOM    105  H19 UNL A   1      20.505  30.056  45.607  1.00  0.00    +0.000 H 
ATOM     20  C14 UNL A   1      20.216  30.811  44.907  1.00  0.00    +0.000 C 
ATOM    104  H18 UNL A   1      20.591  30.619  43.924  1.00  0.00    +0.000 H 
BRANCH   20   19
ATOM     19  C13 UNL A   1      18.692  30.810  44.851  1.00  0.00    +0.000 C 
ATOM    102  H16 UNL A   1      18.343  29.968  45.412  1.00  0.00    +0.000 H 
ATOM    103  H17 UNL A   1      18.383  31.754  45.249  1.00  0.00    +0.000 H 
BRANCH   19   18
ATOM     18  C12 UNL A   1      18.084  30.727  43.451  1.00  0.00    +0.000 C 
ATOM    100  H14 UNL A   1      18.175  31.692  42.995  1.00  0.00    +0.000 H 
ATOM    101  H15 UNL A   1      18.622  29.955  42.944  1.00  0.00    +0.000 H 
BRANCH   18   17
ATOM     17  C11 UNL A   1      16.609  30.316  43.391  1.00  0.00    +0.000 C 
ATOM     98  H12 UNL A   1      16.165  30.553  44.335  1.00  0.00    +0.000 H 
ATOM     99  H13 UNL A   1      16.195  30.852  42.564  1.00  0.00    +0.000 H 
BRANCH   17   16
ATOM     97  H11 UNL A   1      17.288  28.391  42.898  1.00  0.00    +0.000 H 
ATOM     96  H10 UNL A   1      15.652  28.778  42.281  1.00  0.00    +0.000 H 
ATOM     16  C10 UNL A   1      16.335  28.834  43.103  1.00  0.00    +0.000 C 
BRANCH   16   15
ATOM     95  H9  UNL A   1      15.264  28.732  44.928  1.00  0.00    +0.000 H 
ATOM     94  H8  UNL A   1      16.529  27.514  44.763  1.00  0.00    +0.000 H 
ATOM     15  C9  UNL A   1      15.742  28.042  44.266  1.00  0.00    +0.000 C 
BRANCH   15   14
ATOM     93  H7  UNL A   1      13.799  27.287  43.970  1.00  0.00    +0.000 H 
ATOM     14  N2  UNL A   1      14.750  27.089  43.814  1.00  0.00    +0.000 N 
BRANCH   14    2
ATOM      1  O1  UNL A   1      15.868  25.085  43.625  1.00  0.00    +0.000 O 
ATOM      2  C1  UNL A   1      15.084  25.913  43.172  1.00  0.00    +0.000 C 
BRANCH    2    3
ATOM      3  C2  UNL A   1      14.410  25.739  41.811  1.00  0.00    +0.000 C 
ATOM     87  H1  UNL A   1      15.087  26.081  41.057  1.00  0.00    +0.000 H 
ATOM     88  H2  UNL A   1      13.503  26.305  41.843  1.00  0.00    +0.000 H 
BRANCH    3    4
ATOM      4  C3  UNL A   1      14.023  24.313  41.492  1.00  0.00    +0.000 C 
ATOM      5  C4  UNL A   1      14.450  23.791  40.208  1.00  0.00    +0.000 C 
ATOM      6  C5  UNL A   1      14.098  22.558  39.825  1.00  0.00    +0.000 C 
ATOM      7  N1  UNL A   1      13.329  21.747  40.639  1.00  0.00    +0.000 N 
ATOM     11  C7  UNL A   1      12.886  22.154  41.887  1.00  0.00    +0.000 C 
ATOM     12  O2  UNL A   1      12.178  21.500  42.645  1.00  0.00    +0.000 O 
ATOM     13  C8  UNL A   1      13.301  23.522  42.305  1.00  0.00    +0.000 C 
ATOM     89  H3  UNL A   1      15.030  24.374  39.585  1.00  0.00    +0.000 H 
ATOM     90  H4  UNL A   1      14.405  22.205  38.904  1.00  0.00    +0.000 H 
ATOM     92  H6  UNL A   1      13.031  23.870  43.239  1.00  0.00    +0.000 H 
BRANCH    7    8
ATOM      9  F1  UNL A   1      13.136  20.282  38.867  1.00  0.00    +0.000 F 
ATOM     10  F2  UNL A   1      13.579  19.471  40.856  1.00  0.00    +0.000 F 
ATOM     91  H5  UNL A   1      11.860  20.372  40.387  1.00  0.00    +0.000 H 
ATOM      8  C6  UNL A   1      12.910  20.445  40.192  1.00  0.00    +0.000 C 
ENDBRANCH    7    8
ENDBRANCH    3    4
ENDBRANCH    2    3
ENDBRANCH   14    2
ENDBRANCH   15   14
ENDBRANCH   16   15
ENDBRANCH   17   16
ENDBRANCH   18   17
ENDBRANCH   19   18
ENDBRANCH   20   19
ENDBRANCH   21   20
ENDBRANCH   22   21
ENDBRANCH   24   22
ENDBRANCH   28   27
BRANCH   32   33
ATOM     33  C24 UNL A   1      25.807  40.625  49.394  1.00  0.00    +0.000 C 
ATOM     34  C25 UNL A   1      25.695  40.204  50.727  1.00  0.00    +0.000 C 
ATOM     35  F3  UNL A   1      26.318  39.088  51.136  1.00  0.00    +0.000 F 
ATOM     36  C26 UNL A   1      24.925  40.919  51.640  1.00  0.00    +0.000 C 
ATOM     37  F4  UNL A   1      24.812  40.484  52.904  1.00  0.00    +0.000 F 
ATOM     38  C27 UNL A   1      24.272  42.077  51.245  1.00  0.00    +0.000 C 
ATOM     39  F5  UNL A   1      23.541  42.771  52.130  1.00  0.00    +0.000 F 
ATOM     40  C28 UNL A   1      24.374  42.515  49.933  1.00  0.00    +0.000 C 
ATOM     41  F6  UNL A   1      23.751  43.639  49.553  1.00  0.00    +0.000 F 
ATOM     42  C29 UNL A   1      25.127  41.791  49.012  1.00  0.00    +0.000 C 
ATOM     43  F7  UNL A   1      25.205  42.237  47.751  1.00  0.00    +0.000 F 
ENDBRANCH   32   33
BRANCH   49   50
ATOM     50  C35 UNL A   1      32.639  40.837  47.143  1.00  0.00    +0.000 C 
ATOM     51  C36 UNL A   1      32.832  42.079  46.522  1.00  0.00    +0.000 C 
ATOM     52  F8  UNL A   1      31.940  42.532  45.628  1.00  0.00    +0.000 F 
ATOM     53  C37 UNL A   1      33.960  42.848  46.797  1.00  0.00    +0.000 C 
ATOM     54  F9  UNL A   1      34.142  44.016  46.167  1.00  0.00    +0.000 F 
ATOM     55  C38 UNL A   1      34.900  42.400  47.714  1.00  0.00    +0.000 C 
ATOM     56  F10 UNL A   1      35.980  43.145  47.984  1.00  0.00    +0.000 F 
ATOM     57  C39 UNL A   1      34.722  41.179  48.348  1.00  0.00    +0.000 C 
ATOM     58  F11 UNL A   1      35.625  40.752  49.241  1.00  0.00    +0.000 F 
ATOM     59  C40 UNL A   1      33.607  40.399  48.059  1.00  0.00    +0.000 C 
ATOM     60  F12 UNL A   1      33.463  39.220  48.682  1.00  0.00    +0.000 F 
ENDBRANCH   49   50
BRANCH   64   65
ATOM     65  C44 UNL A   1      31.339  35.466  42.906  1.00  0.00    +0.000 C 
ATOM     66  C45 UNL A   1      31.463  35.836  41.561  1.00  0.00    +0.000 C 
ATOM     67  F13 UNL A   1      30.785  36.894  41.092  1.00  0.00    +0.000 F 
ATOM     68  C46 UNL A   1      32.266  35.106  40.686  1.00  0.00    +0.000 C 
ATOM     69  F14 UNL A   1      32.347  35.464  39.398  1.00  0.00    +0.000 F 
ATOM     70  C47 UNL A   1      32.974  34.006  41.147  1.00  0.00    +0.000 C 
ATOM     71  F15 UNL A   1      33.755  33.312  40.308  1.00  0.00    +0.000 F 
ATOM     72  C48 UNL A   1      32.870  33.623  42.475  1.00  0.00    +0.000 C 
ATOM     73  F16 UNL A   1      33.562  32.569  42.927  1.00  0.00    +0.000 F 
ATOM     74  C49 UNL A   1      32.050  34.338  43.344  1.00  0.00    +0.000 C 
ATOM     75  F17 UNL A   1      31.961  33.945  44.623  1.00  0.00    +0.000 F 
ENDBRANCH   64   65
TORSDOF 17
ENDMDL
MODEL 7
REMARK VINA RESULT:      -9.9     38.064     45.976
ROOT
ATOM     28  C20 UNL A   1       0.941   9.693  36.884  1.00  0.00    +0.000 C 
ATOM     29  C21 UNL A   1       1.166  10.967  37.655  1.00  0.00    +0.000 C 
ATOM     30  N4  UNL A   1       0.323  11.935  37.917  1.00  0.00    +0.000 N 
ATOM     31  C22 UNL A   1       1.030  12.862  38.672  1.00  0.00    +0.000 C 
ATOM     32  C23 UNL A   1       0.608  14.053  39.160  1.00  0.00    +0.000 C 
ATOM     44  C30 UNL A   1      -0.710  14.597  38.961  1.00  0.00    +0.000 C 
ATOM     45  C31 UNL A   1      -1.221  15.805  39.405  1.00  0.00    +0.000 C 
ATOM     46  C32 UNL A   1      -2.553  15.895  38.990  1.00  0.00    +0.000 C 
ATOM     47  C33 UNL A   1      -2.861  14.760  38.258  1.00  0.00    +0.000 C 
ATOM     48  N5  UNL A   1      -1.723  13.970  38.252  1.00  0.00    +0.000 N 
ATOM     49  C34 UNL A   1      -4.103  14.415  37.616  1.00  0.00    +0.000 C 
ATOM     61  C41 UNL A   1      -4.310  13.302  36.873  1.00  0.00    +0.000 C 
ATOM     62  N6  UNL A   1      -3.428  12.273  36.584  1.00  0.00    +0.000 N 
ATOM     63  C42 UNL A   1      -4.102  11.413  35.860  1.00  0.00    +0.000 C 
ATOM     64  C43 UNL A   1      -3.647  10.108  35.271  1.00  0.00    +0.000 C 
ATOM     76  C50 UNL A   1      -2.404   9.662  35.529  1.00  0.00    +0.000 C 
ATOM     77  C51 UNL A   1      -1.836   8.411  35.037  1.00  0.00    +0.000 C 
ATOM     78  C52 UNL A   1      -0.590   8.276  35.518  1.00  0.00    +0.000 C 
ATOM     79  C53 UNL A   1      -0.254   9.460  36.311  1.00  0.00    +0.000 C 
ATOM     80  N7  UNL A   1      -1.399  10.216  36.283  1.00  0.00    +0.000 N 
ATOM     81  C54 UNL A   1      -5.496  11.803  35.607  1.00  0.00    +0.000 C 
ATOM     82  C55 UNL A   1      -5.564  12.975  36.223  1.00  0.00    +0.000 C 
ATOM     83  C56 UNL A   1       2.364  12.334  38.849  1.00  0.00    +0.000 C 
ATOM     84  C57 UNL A   1       2.514  11.185  38.204  1.00  0.00    +0.000 C 
ATOM    109  H23 UNL A   1      -0.707  16.516  39.948  1.00  0.00    +0.000 H 
ATOM    110  H24 UNL A   1      -3.198  16.675  39.193  1.00  0.00    +0.000 H 
ATOM    111  H25 UNL A   1      -1.644  13.095  37.808  1.00  0.00    +0.000 H 
ATOM    112  H26 UNL A   1      -2.314   7.738  34.418  1.00  0.00    +0.000 H 
ATOM    113  H27 UNL A   1       0.031   7.469  35.355  1.00  0.00    +0.000 H 
ATOM    114  H28 UNL A   1      -1.490  11.074  36.759  1.00  0.00    +0.000 H 
ATOM    115  H29 UNL A   1      -6.230  11.298  35.086  1.00  0.00    +0.000 H 
ATOM    116  H30 UNL A   1      -6.402  13.577  36.240  1.00  0.00    +0.000 H 
ATOM    117  H31 UNL A   1       3.104  12.791  39.406  1.00  0.00    +0.000 H 
ATOM    118  H32 UNL A   1       3.356  10.597  38.110  1.00  0.00    +0.000 H 
ENDROOT
BRANCH   28   27
ATOM     27  C19 UNL A   1       2.053   8.727  36.688  1.00  0.00    +0.000 C 
ATOM    107  H21 UNL A   1       4.752   8.244  34.742  1.00  0.00    +0.000 H 
ATOM    108  H22 UNL A   1       2.865   9.741  35.017  1.00  0.00    +0.000 H 
ATOM     85  C58 UNL A   1       2.214   7.619  37.535  1.00  0.00    +0.000 C 
ATOM     86  C59 UNL A   1       3.360   6.825  37.443  1.00  0.00    +0.000 C 
ATOM    120  H34 UNL A   1       3.493   6.030  38.087  1.00  0.00    +0.000 H 
ATOM     24  C16 UNL A   1       4.327   7.112  36.475  1.00  0.00    +0.000 C 
ATOM     25  C17 UNL A   1       4.101   8.118  35.533  1.00  0.00    +0.000 C 
ATOM     26  C18 UNL A   1       2.995   8.952  35.670  1.00  0.00    +0.000 C 
ATOM    119  H33 UNL A   1       1.483   7.391  38.227  1.00  0.00    +0.000 H 
BRANCH   24   22
ATOM     22  C15 UNL A   1       5.613   6.383  36.507  1.00  0.00    +0.000 C 
ATOM     23  O3  UNL A   1       5.625   5.172  36.703  1.00  0.00    +0.000 O 
BRANCH   22   21
ATOM    106  H20 UNL A   1       6.935   7.506  35.492  1.00  0.00    +0.000 H 
ATOM     21  N3  UNL A   1       6.789   7.085  36.370  1.00  0.00    +0.000 N 
BRANCH   21   20
ATOM    105  H19 UNL A   1       8.629   7.830  36.859  1.00  0.00    +0.000 H 
ATOM     20  C14 UNL A   1       7.847   7.288  37.349  1.00  0.00    +0.000 C 
ATOM    104  H18 UNL A   1       8.174   6.332  37.699  1.00  0.00    +0.000 H 
BRANCH   20   19
ATOM     19  C13 UNL A   1       7.412   8.119  38.551  1.00  0.00    +0.000 C 
ATOM    102  H16 UNL A   1       6.510   7.693  38.937  1.00  0.00    +0.000 H 
ATOM    103  H17 UNL A   1       8.232   8.093  39.238  1.00  0.00    +0.000 H 
BRANCH   19   18
ATOM     18  C12 UNL A   1       7.150   9.599  38.269  1.00  0.00    +0.000 C 
ATOM    100  H14 UNL A   1       7.930  10.165  38.734  1.00  0.00    +0.000 H 
ATOM    101  H15 UNL A   1       7.119   9.693  37.205  1.00  0.00    +0.000 H 
BRANCH   18   17
ATOM     17  C11 UNL A   1       5.810  10.144  38.775  1.00  0.00    +0.000 C 
ATOM     98  H12 UNL A   1       5.975  11.139  39.132  1.00  0.00    +0.000 H 
ATOM     99  H13 UNL A   1       5.142  10.082  37.942  1.00  0.00    +0.000 H 
BRANCH   17   16
ATOM     97  H11 UNL A   1       5.937   8.890  40.455  1.00  0.00    +0.000 H 
ATOM     96  H10 UNL A   1       4.471   8.642  39.457  1.00  0.00    +0.000 H 
ATOM     16  C10 UNL A   1       5.142   9.346  39.903  1.00  0.00    +0.000 C 
BRANCH   16   15
ATOM     95  H9  UNL A   1       3.832   9.507  41.562  1.00  0.00    +0.000 H 
ATOM     94  H8  UNL A   1       3.667  10.807  40.380  1.00  0.00    +0.000 H 
ATOM     15  C9  UNL A   1       4.352  10.178  40.911  1.00  0.00    +0.000 C 
BRANCH   15   14
ATOM     93  H7  UNL A   1       6.170  10.760  41.798  1.00  0.00    +0.000 H 
ATOM     14  N2  UNL A   1       5.221  11.008  41.719  1.00  0.00    +0.000 N 
BRANCH   14    2
ATOM      1  O1  UNL A   1       3.759  12.163  43.071  1.00  0.00    +0.000 O 
ATOM      2  C1  UNL A   1       4.773  12.133  42.381  1.00  0.00    +0.000 C 
BRANCH    2    3
ATOM      3  C2  UNL A   1       5.641  13.371  42.153  1.00  0.00    +0.000 C 
ATOM     87  H1  UNL A   1       6.423  13.370  42.883  1.00  0.00    +0.000 H 
ATOM     88  H2  UNL A   1       4.995  14.219  42.239  1.00  0.00    +0.000 H 
BRANCH    3    4
ATOM      4  C3  UNL A   1       6.271  13.440  40.781  1.00  0.00    +0.000 C 
ATOM      5  C4  UNL A   1       5.390  13.750  39.671  1.00  0.00    +0.000 C 
ATOM      6  C5  UNL A   1       5.860  13.772  38.418  1.00  0.00    +0.000 C 
ATOM      7  N1  UNL A   1       7.190  13.509  38.146  1.00  0.00    +0.000 N 
ATOM     11  C7  UNL A   1       8.108  13.216  39.141  1.00  0.00    +0.000 C 
ATOM     12  O2  UNL A   1       9.290  12.944  38.969  1.00  0.00    +0.000 O 
ATOM     13  C8  UNL A   1       7.573  13.213  40.532  1.00  0.00    +0.000 C 
ATOM     89  H3  UNL A   1       4.395  13.956  39.849  1.00  0.00    +0.000 H 
ATOM     90  H4  UNL A   1       5.217  13.989  37.639  1.00  0.00    +0.000 H 
ATOM     92  H6  UNL A   1       8.215  13.035  41.321  1.00  0.00    +0.000 H 
BRANCH    7    8
ATOM      9  F1  UNL A   1       7.883  12.211  36.368  1.00  0.00    +0.000 F 
ATOM     10  F2  UNL A   1       6.773  14.056  35.951  1.00  0.00    +0.000 F 
ATOM     91  H5  UNL A   1       8.592  14.022  36.774  1.00  0.00    +0.000 H 
ATOM      8  C6  UNL A   1       7.669  13.481  36.789  1.00  0.00    +0.000 C 
ENDBRANCH    7    8
ENDBRANCH    3    4
ENDBRANCH    2    3
ENDBRANCH   14    2
ENDBRANCH   15   14
ENDBRANCH   16   15
ENDBRANCH   17   16
ENDBRANCH   18   17
ENDBRANCH   19   18
ENDBRANCH   20   19
ENDBRANCH   21   20
ENDBRANCH   22   21
ENDBRANCH   24   22
ENDBRANCH   28   27
BRANCH   32   33
ATOM     33  C24 UNL A   1       1.581  14.860  39.968  1.00  0.00    +0.000 C 
ATOM     34  C25 UNL A   1       2.286  15.934  39.406  1.00  0.00    +0.000 C 
ATOM     35  F3  UNL A   1       2.156  16.216  38.101  1.00  0.00    +0.000 F 
ATOM     36  C26 UNL A   1       3.144  16.709  40.182  1.00  0.00    +0.000 C 
ATOM     37  F4  UNL A   1       3.828  17.715  39.617  1.00  0.00    +0.000 F 
ATOM     38  C27 UNL A   1       3.295  16.441  41.534  1.00  0.00    +0.000 C 
ATOM     39  F5  UNL A   1       4.112  17.197  42.280  1.00  0.00    +0.000 F 
ATOM     40  C28 UNL A   1       2.602  15.388  42.111  1.00  0.00    +0.000 C 
ATOM     41  F6  UNL A   1       2.741  15.135  43.420  1.00  0.00    +0.000 F 
ATOM     42  C29 UNL A   1       1.759  14.598  41.334  1.00  0.00    +0.000 C 
ATOM     43  F7  UNL A   1       1.104  13.585  41.921  1.00  0.00    +0.000 F 
ENDBRANCH   32   33
BRANCH   49   50
ATOM     50  C35 UNL A   1      -5.255  15.361  37.774  1.00  0.00    +0.000 C 
ATOM     51  C36 UNL A   1      -6.063  15.335  38.920  1.00  0.00    +0.000 C 
ATOM     52  F8  UNL A   1      -5.855  14.414  39.871  1.00  0.00    +0.000 F 
ATOM     53  C37 UNL A   1      -7.108  16.242  39.077  1.00  0.00    +0.000 C 
ATOM     54  F9  UNL A   1      -7.888  16.180  40.164  1.00  0.00    +0.000 F 
ATOM     55  C38 UNL A   1      -7.347  17.203  38.106  1.00  0.00    +0.000 C 
ATOM     56  F10 UNL A   1      -8.348  18.080  38.263  1.00  0.00    +0.000 F 
ATOM     57  C39 UNL A   1      -6.553  17.252  36.969  1.00  0.00    +0.000 C 
ATOM     58  F11 UNL A   1      -6.777  18.186  36.036  1.00  0.00    +0.000 F 
ATOM     59  C40 UNL A   1      -5.521  16.333  36.799  1.00  0.00    +0.000 C 
ATOM     60  F12 UNL A   1      -4.772  16.400  35.689  1.00  0.00    +0.000 F 
ENDBRANCH   49   50
BRANCH   64   65
ATOM     65  C44 UNL A   1      -4.548   9.305  34.409  1.00  0.00    +0.000 C 
ATOM     66  C45 UNL A   1      -5.342   8.287  34.952  1.00  0.00    +0.000 C 
ATOM     67  F13 UNL A   1      -5.260   7.999  36.259  1.00  0.00    +0.000 F 
ATOM     68  C46 UNL A   1      -6.206   7.545  34.149  1.00  0.00    +0.000 C 
ATOM     69  F14 UNL A   1      -6.936   6.558  34.687  1.00  0.00    +0.000 F 
ATOM     70  C47 UNL A   1      -6.306   7.822  32.794  1.00  0.00    +0.000 C 
ATOM     71  F15 UNL A   1      -7.146   7.116  32.024  1.00  0.00    +0.000 F 
ATOM     72  C48 UNL A   1      -5.532   8.827  32.235  1.00  0.00    +0.000 C 
ATOM     73  F16 UNL A   1      -5.634   9.106  30.929  1.00  0.00    +0.000 F 
ATOM     74  C49 UNL A   1      -4.651   9.554  33.032  1.00  0.00    +0.000 C 
ATOM     75  F17 UNL A   1      -3.910  10.517  32.468  1.00  0.00    +0.000 F 
ENDBRANCH   64   65
TORSDOF 17
ENDMDL
MODEL 8
REMARK VINA RESULT:      -9.9     20.397     25.548
ROOT
ATOM     28  C20 UNL A   1      25.705  35.920  45.281  1.00  0.00    +0.000 C 
ATOM     29  C21 UNL A   1      25.589  36.970  46.355  1.00  0.00    +0.000 C 
ATOM     30  N4  UNL A   1      26.482  37.835  46.766  1.00  0.00    +0.000 N 
ATOM     31  C22 UNL A   1      25.862  38.581  47.761  1.00  0.00    +0.000 C 
ATOM     32  C23 UNL A   1      26.379  39.578  48.518  1.00  0.00    +0.000 C 
ATOM     44  C30 UNL A   1      27.734  40.054  48.425  1.00  0.00    +0.000 C 
ATOM     45  C31 UNL A   1      28.350  41.049  49.164  1.00  0.00    +0.000 C 
ATOM     46  C32 UNL A   1      29.666  41.181  48.709  1.00  0.00    +0.000 C 
ATOM     47  C33 UNL A   1      29.879  40.244  47.711  1.00  0.00    +0.000 C 
ATOM     48  N5  UNL A   1      28.685  39.562  47.544  1.00  0.00    +0.000 N 
ATOM     49  C34 UNL A   1      31.081  39.991  46.959  1.00  0.00    +0.000 C 
ATOM     61  C41 UNL A   1      31.224  39.017  46.028  1.00  0.00    +0.000 C 
ATOM     62  N6  UNL A   1      30.290  38.092  45.587  1.00  0.00    +0.000 N 
ATOM     63  C42 UNL A   1      30.892  37.387  44.661  1.00  0.00    +0.000 C 
ATOM     64  C43 UNL A   1      30.356  36.250  43.838  1.00  0.00    +0.000 C 
ATOM     76  C50 UNL A   1      29.067  35.886  43.970  1.00  0.00    +0.000 C 
ATOM     77  C51 UNL A   1      28.411  34.813  43.229  1.00  0.00    +0.000 C 
ATOM     78  C52 UNL A   1      27.121  34.753  43.594  1.00  0.00    +0.000 C 
ATOM     79  C53 UNL A   1      26.874  35.751  44.635  1.00  0.00    +0.000 C 
ATOM     80  N7  UNL A   1      28.078  36.393  44.776  1.00  0.00    +0.000 N 
ATOM     81  C54 UNL A   1      32.283  37.788  44.409  1.00  0.00    +0.000 C 
ATOM     82  C55 UNL A   1      32.444  38.768  45.288  1.00  0.00    +0.000 C 
ATOM     83  C56 UNL A   1      24.508  38.085  47.878  1.00  0.00    +0.000 C 
ATOM     84  C57 UNL A   1      24.301  37.060  47.062  1.00  0.00    +0.000 C 
ATOM    109  H23 UNL A   1      27.915  41.599  49.921  1.00  0.00    +0.000 H 
ATOM    110  H24 UNL A   1      30.361  41.860  49.057  1.00  0.00    +0.000 H 
ATOM    111  H25 UNL A   1      28.533  38.835  46.898  1.00  0.00    +0.000 H 
ATOM    112  H26 UNL A   1      28.867  34.199  42.535  1.00  0.00    +0.000 H 
ATOM    113  H27 UNL A   1      26.418  34.107  43.204  1.00  0.00    +0.000 H 
ATOM    114  H28 UNL A   1      28.219  37.146  45.396  1.00  0.00    +0.000 H 
ATOM    115  H29 UNL A   1      32.958  37.407  43.727  1.00  0.00    +0.000 H 
ATOM    116  H30 UNL A   1      33.325  39.287  45.426  1.00  0.00    +0.000 H 
ATOM    117  H31 UNL A   1      23.796  38.477  48.515  1.00  0.00    +0.000 H 
ATOM    118  H32 UNL A   1      23.457  36.478  46.952  1.00  0.00    +0.000 H 
ENDROOT
BRANCH   28   27
ATOM     27  C19 UNL A   1      24.561  35.020  44.983  1.00  0.00    +0.000 C 
ATOM    107  H21 UNL A   1      23.485  31.900  45.625  1.00  0.00    +0.000 H 
ATOM    108  H22 UNL A   1      25.385  33.358  46.001  1.00  0.00    +0.000 H 
ATOM     85  C58 UNL A   1      23.454  35.468  44.247  1.00  0.00    +0.000 C 
ATOM     86  C59 UNL A   1      22.317  34.664  44.128  1.00  0.00    +0.000 C 
ATOM    120  H34 UNL A   1      21.490  35.008  43.613  1.00  0.00    +0.000 H 
ATOM     24  C16 UNL A   1      22.303  33.394  44.709  1.00  0.00    +0.000 C 
ATOM     25  C17 UNL A   1      23.454  32.883  45.313  1.00  0.00    +0.000 C 
ATOM     26  C18 UNL A   1      24.559  33.710  45.492  1.00  0.00    +0.000 C 
ATOM    119  H33 UNL A   1      23.479  36.394  43.792  1.00  0.00    +0.000 H 
BRANCH   24   22
ATOM     22  C15 UNL A   1      21.036  32.631  44.735  1.00  0.00    +0.000 C 
ATOM     23  O3  UNL A   1      20.925  31.607  44.069  1.00  0.00    +0.000 O 
BRANCH   22   21
ATOM    106  H20 UNL A   1      20.163  33.308  46.414  1.00  0.00    +0.000 H 
ATOM     21  N3  UNL A   1      19.974  33.110  45.469  1.00  0.00    +0.000 N 
BRANCH   21   20
ATOM    105  H19 UNL A   1      17.966  32.776  45.654  1.00  0.00    +0.000 H 
ATOM     20  C14 UNL A   1      18.609  33.365  45.033  1.00  0.00    +0.000 C 
ATOM    104  H18 UNL A   1      18.528  33.102  44.000  1.00  0.00    +0.000 H 
BRANCH   20   19
ATOM     19  C13 UNL A   1      18.180  34.819  45.196  1.00  0.00    +0.000 C 
ATOM    102  H16 UNL A   1      18.140  35.036  46.243  1.00  0.00    +0.000 H 
ATOM    103  H17 UNL A   1      18.902  35.400  44.661  1.00  0.00    +0.000 H 
BRANCH   19   18
ATOM     18  C12 UNL A   1      16.823  35.178  44.590  1.00  0.00    +0.000 C 
ATOM    100  H14 UNL A   1      16.356  35.897  45.232  1.00  0.00    +0.000 H 
ATOM    101  H15 UNL A   1      17.030  35.544  43.607  1.00  0.00    +0.000 H 
BRANCH   18   17
ATOM     17  C11 UNL A   1      15.848  34.011  44.405  1.00  0.00    +0.000 C 
ATOM     98  H12 UNL A   1      16.289  33.142  44.847  1.00  0.00    +0.000 H 
ATOM     99  H13 UNL A   1      14.936  34.322  44.867  1.00  0.00    +0.000 H 
BRANCH   17   16
ATOM     97  H11 UNL A   1      15.819  34.487  42.359  1.00  0.00    +0.000 H 
ATOM     96  H10 UNL A   1      14.424  33.509  42.911  1.00  0.00    +0.000 H 
ATOM     16  C10 UNL A   1      15.482  33.665  42.955  1.00  0.00    +0.000 C 
BRANCH   16   15
ATOM     95  H9  UNL A   1      17.182  32.421  42.725  1.00  0.00    +0.000 H 
ATOM     94  H8  UNL A   1      16.117  32.458  41.319  1.00  0.00    +0.000 H 
ATOM     15  C9  UNL A   1      16.167  32.424  42.388  1.00  0.00    +0.000 C 
BRANCH   15   14
ATOM     93  H7  UNL A   1      14.666  30.949  42.464  1.00  0.00    +0.000 H 
ATOM     14  N2  UNL A   1      15.535  31.205  42.849  1.00  0.00    +0.000 N 
BRANCH   14    2
ATOM      1  O1  UNL A   1      16.056  30.608  45.010  1.00  0.00    +0.000 O 
ATOM      2  C1  UNL A   1      16.102  30.386  43.805  1.00  0.00    +0.000 C 
BRANCH    2    3
ATOM      3  C2  UNL A   1      16.835  29.176  43.226  1.00  0.00    +0.000 C 
ATOM     87  H1  UNL A   1      17.522  28.817  43.963  1.00  0.00    +0.000 H 
ATOM     88  H2  UNL A   1      17.321  29.509  42.333  1.00  0.00    +0.000 H 
BRANCH    3    4
ATOM      4  C3  UNL A   1      15.925  28.036  42.828  1.00  0.00    +0.000 C 
ATOM      5  C4  UNL A   1      15.433  27.188  43.897  1.00  0.00    +0.000 C 
ATOM      6  C5  UNL A   1      14.670  26.123  43.621  1.00  0.00    +0.000 C 
ATOM      7  N1  UNL A   1      14.325  25.806  42.320  1.00  0.00    +0.000 N 
ATOM     11  C7  UNL A   1      14.736  26.564  41.236  1.00  0.00    +0.000 C 
ATOM     12  O2  UNL A   1      14.494  26.323  40.059  1.00  0.00    +0.000 O 
ATOM     13  C8  UNL A   1      15.570  27.755  41.561  1.00  0.00    +0.000 C 
ATOM     89  H3  UNL A   1      15.671  27.408  44.876  1.00  0.00    +0.000 H 
ATOM     90  H4  UNL A   1      14.333  25.526  44.394  1.00  0.00    +0.000 H 
ATOM     92  H6  UNL A   1      15.880  28.379  40.800  1.00  0.00    +0.000 H 
BRANCH    7    8
ATOM      9  F1  UNL A   1      13.536  23.777  43.089  1.00  0.00    +0.000 F 
ATOM     10  F2  UNL A   1      12.269  24.952  41.738  1.00  0.00    +0.000 F 
ATOM     91  H5  UNL A   1      14.014  24.147  41.196  1.00  0.00    +0.000 H 
ATOM      8  C6  UNL A   1      13.551  24.626  42.034  1.00  0.00    +0.000 C 
ENDBRANCH    7    8
ENDBRANCH    3    4
ENDBRANCH    2    3
ENDBRANCH   14    2
ENDBRANCH   15   14
ENDBRANCH   16   15
ENDBRANCH   17   16
ENDBRANCH   18   17
ENDBRANCH   19   18
ENDBRANCH   20   19
ENDBRANCH   21   20
ENDBRANCH   22   21
ENDBRANCH   24   22
ENDBRANCH   28   27
BRANCH   32   33
ATOM     33  C24 UNL A   1      25.476  40.234  49.519  1.00  0.00    +0.000 C 
ATOM     34  C25 UNL A   1      24.680  41.336  49.176  1.00  0.00    +0.000 C 
ATOM     35  F3  UNL A   1      24.768  41.876  47.951  1.00  0.00    +0.000 F 
ATOM     36  C26 UNL A   1      23.804  41.901  50.100  1.00  0.00    +0.000 C 
ATOM     37  F4  UNL A   1      23.072  42.971  49.758  1.00  0.00    +0.000 F 
ATOM     38  C27 UNL A   1      23.691  41.362  51.373  1.00  0.00    +0.000 C 
ATOM     39  F5  UNL A   1      22.839  41.901  52.256  1.00  0.00    +0.000 F 
ATOM     40  C28 UNL A   1      24.464  40.268  51.731  1.00  0.00    +0.000 C 
ATOM     41  F6  UNL A   1      24.348  39.741  52.958  1.00  0.00    +0.000 F 
ATOM     42  C29 UNL A   1      25.356  39.714  50.817  1.00  0.00    +0.000 C 
ATOM     43  F7  UNL A   1      26.091  38.657  51.193  1.00  0.00    +0.000 F 
ENDBRANCH   32   33
BRANCH   49   50
ATOM     50  C35 UNL A   1      32.268  40.865  47.228  1.00  0.00    +0.000 C 
ATOM     51  C36 UNL A   1      33.310  40.436  48.063  1.00  0.00    +0.000 C 
ATOM     52  F8  UNL A   1      33.228  39.254  48.690  1.00  0.00    +0.000 F 
ATOM     53  C37 UNL A   1      34.428  41.238  48.278  1.00  0.00    +0.000 C 
ATOM     54  F9  UNL A   1      35.396  40.824  49.106  1.00  0.00    +0.000 F 
ATOM     55  C38 UNL A   1      34.535  42.467  47.644  1.00  0.00    +0.000 C 
ATOM     56  F10 UNL A   1      35.616  43.233  47.846  1.00  0.00    +0.000 F 
ATOM     57  C39 UNL A   1      33.521  42.905  46.805  1.00  0.00    +0.000 C 
ATOM     58  F11 UNL A   1      33.629  44.087  46.185  1.00  0.00    +0.000 F 
ATOM     59  C40 UNL A   1      32.392  42.116  46.605  1.00  0.00    +0.000 C 
ATOM     60  F12 UNL A   1      31.423  42.565  45.794  1.00  0.00    +0.000 F 
ENDBRANCH   49   50
BRANCH   64   65
ATOM     65  C44 UNL A   1      31.226  35.524  42.881  1.00  0.00    +0.000 C 
ATOM     66  C45 UNL A   1      31.935  34.383  43.277  1.00  0.00    +0.000 C 
ATOM     67  F13 UNL A   1      31.865  33.959  44.547  1.00  0.00    +0.000 F 
ATOM     68  C46 UNL A   1      32.736  33.686  42.375  1.00  0.00    +0.000 C 
ATOM     69  F14 UNL A   1      33.424  32.612  42.784  1.00  0.00    +0.000 F 
ATOM     70  C47 UNL A   1      32.826  34.107  41.056  1.00  0.00    +0.000 C 
ATOM     71  F15 UNL A   1      33.587  33.429  40.186  1.00  0.00    +0.000 F 
ATOM     72  C48 UNL A   1      32.131  35.232  40.641  1.00  0.00    +0.000 C 
ATOM     73  F16 UNL A   1      32.206  35.634  39.365  1.00  0.00    +0.000 F 
ATOM     74  C49 UNL A   1      31.349  35.943  41.547  1.00  0.00    +0.000 C 
ATOM     75  F17 UNL A   1      30.691  37.030  41.122  1.00  0.00    +0.000 F 
ENDBRANCH   64   65
TORSDOF 17
ENDMDL
MODEL 9
REMARK VINA RESULT:      -9.9     20.167     25.873
ROOT
ATOM     28  C20 UNL A   1      25.885  35.728  45.349  1.00  0.00    +0.000 C 
ATOM     29  C21 UNL A   1      25.753  36.791  46.408  1.00  0.00    +0.000 C 
ATOM     30  N4  UNL A   1      26.616  37.707  46.772  1.00  0.00    +0.000 N 
ATOM     31  C22 UNL A   1      25.994  38.440  47.774  1.00  0.00    +0.000 C 
ATOM     32  C23 UNL A   1      26.486  39.476  48.495  1.00  0.00    +0.000 C 
ATOM     44  C30 UNL A   1      27.813  40.015  48.348  1.00  0.00    +0.000 C 
ATOM     45  C31 UNL A   1      28.405  41.053  49.048  1.00  0.00    +0.000 C 
ATOM     46  C32 UNL A   1      29.697  41.238  48.546  1.00  0.00    +0.000 C 
ATOM     47  C33 UNL A   1      29.922  40.293  47.558  1.00  0.00    +0.000 C 
ATOM     48  N5  UNL A   1      28.757  39.552  47.444  1.00  0.00    +0.000 N 
ATOM     49  C34 UNL A   1      31.108  40.084  46.769  1.00  0.00    +0.000 C 
ATOM     61  C41 UNL A   1      31.268  39.100  45.852  1.00  0.00    +0.000 C 
ATOM     62  N6  UNL A   1      30.365  38.123  45.459  1.00  0.00    +0.000 N 
ATOM     63  C42 UNL A   1      30.970  37.430  44.526  1.00  0.00    +0.000 C 
ATOM     64  C43 UNL A   1      30.463  36.253  43.742  1.00  0.00    +0.000 C 
ATOM     76  C50 UNL A   1      29.198  35.830  43.925  1.00  0.00    +0.000 C 
ATOM     77  C51 UNL A   1      28.571  34.713  43.225  1.00  0.00    +0.000 C 
ATOM     78  C52 UNL A   1      27.299  34.597  43.635  1.00  0.00    +0.000 C 
ATOM     79  C53 UNL A   1      27.037  35.602  44.667  1.00  0.00    +0.000 C 
ATOM     80  N7  UNL A   1      28.213  36.304  44.755  1.00  0.00    +0.000 N 
ATOM     81  C54 UNL A   1      32.331  37.892  44.219  1.00  0.00    +0.000 C 
ATOM     82  C55 UNL A   1      32.474  38.896  45.075  1.00  0.00    +0.000 C 
ATOM     83  C56 UNL A   1      24.670  37.882  47.947  1.00  0.00    +0.000 C 
ATOM     84  C57 UNL A   1      24.487  36.833  47.156  1.00  0.00    +0.000 C 
ATOM    109  H23 UNL A   1      27.969  41.596  49.809  1.00  0.00    +0.000 H 
ATOM    110  H24 UNL A   1      30.369  41.956  48.858  1.00  0.00    +0.000 H 
ATOM    111  H25 UNL A   1      28.620  38.806  46.816  1.00  0.00    +0.000 H 
ATOM    112  H26 UNL A   1      29.033  34.108  42.528  1.00  0.00    +0.000 H 
ATOM    113  H27 UNL A   1      26.615  33.912  43.281  1.00  0.00    +0.000 H 
ATOM    114  H28 UNL A   1      28.338  37.075  45.356  1.00  0.00    +0.000 H 
ATOM    115  H29 UNL A   1      33.000  37.531  43.522  1.00  0.00    +0.000 H 
ATOM    116  H30 UNL A   1      33.332  39.459  45.173  1.00  0.00    +0.000 H 
ATOM    117  H31 UNL A   1      23.962  38.253  48.600  1.00  0.00    +0.000 H 
ATOM    118  H32 UNL A   1      23.668  36.209  47.085  1.00  0.00    +0.000 H 
ENDROOT
BRANCH   28   27
ATOM     27  C19 UNL A   1      24.776  34.768  45.106  1.00  0.00    +0.000 C 
ATOM    107  H21 UNL A   1      23.795  31.671  45.973  1.00  0.00    +0.000 H 
ATOM    108  H22 UNL A   1      25.639  33.219  46.261  1.00  0.00    +0.000 H 
ATOM     85  C58 UNL A   1      23.666  35.120  44.323  1.00  0.00    +0.000 C 
ATOM     86  C59 UNL A   1      22.559  34.270  44.251  1.00  0.00    +0.000 C 
ATOM    120  H34 UNL A   1      21.730  34.544  43.701  1.00  0.00    +0.000 H 
ATOM     24  C16 UNL A   1      22.578  33.048  44.929  1.00  0.00    +0.000 C 
ATOM     25  C17 UNL A   1      23.737  32.626  45.586  1.00  0.00    +0.000 C 
ATOM     26  C18 UNL A   1      24.811  33.502  45.715  1.00  0.00    +0.000 C 
ATOM    119  H33 UNL A   1      23.668  36.008  43.798  1.00  0.00    +0.000 H 
BRANCH   24   22
ATOM     22  C15 UNL A   1      21.338  32.246  44.997  1.00  0.00    +0.000 C 
ATOM     23  O3  UNL A   1      20.850  31.785  43.970  1.00  0.00    +0.000 O 
BRANCH   22   21
ATOM    106  H20 UNL A   1      20.546  31.135  46.473  1.00  0.00    +0.000 H 
ATOM     21  N3  UNL A   1      20.715  32.069  46.211  1.00  0.00    +0.000 N 
BRANCH   21   20
ATOM    105  H19 UNL A   1      19.443  32.664  47.697  1.00  0.00    +0.000 H 
ATOM     20  C14 UNL A   1      20.272  33.078  47.163  1.00  0.00    +0.000 C 
ATOM    104  H18 UNL A   1      20.005  33.961  46.621  1.00  0.00    +0.000 H 
BRANCH   20   19
ATOM     19  C13 UNL A   1      21.331  33.447  48.195  1.00  0.00    +0.000 C 
ATOM    102  H16 UNL A   1      21.022  33.052  49.141  1.00  0.00    +0.000 H 
ATOM    103  H17 UNL A   1      22.250  33.034  47.834  1.00  0.00    +0.000 H 
BRANCH   19   18
ATOM     18  C12 UNL A   1      21.587  34.944  48.373  1.00  0.00    +0.000 C 
ATOM    100  H14 UNL A   1      21.611  35.151  49.423  1.00  0.00    +0.000 H 
ATOM    101  H15 UNL A   1      22.509  35.144  47.869  1.00  0.00    +0.000 H 
BRANCH   18   17
ATOM     17  C11 UNL A   1      20.552  35.875  47.734  1.00  0.00    +0.000 C 
ATOM     98  H12 UNL A   1      19.740  35.271  47.384  1.00  0.00    +0.000 H 
ATOM     99  H13 UNL A   1      20.282  36.572  48.498  1.00  0.00    +0.000 H 
BRANCH   17   16
ATOM     97  H11 UNL A   1      21.922  36.232  46.183  1.00  0.00    +0.000 H 
ATOM     96  H10 UNL A   1      21.232  37.713  46.916  1.00  0.00    +0.000 H 
ATOM     16  C10 UNL A   1      21.047  36.724  46.555  1.00  0.00    +0.000 C 
BRANCH   16   15
ATOM     95  H9  UNL A   1      19.839  35.831  45.060  1.00  0.00    +0.000 H 
ATOM     94  H8  UNL A   1      20.559  37.370  44.585  1.00  0.00    +0.000 H 
ATOM     15  C9  UNL A   1      20.084  36.824  45.374  1.00  0.00    +0.000 C 
BRANCH   15   14
ATOM     93  H7  UNL A   1      18.889  38.461  45.943  1.00  0.00    +0.000 H 
ATOM     14  N2  UNL A   1      18.856  37.499  45.739  1.00  0.00    +0.000 N 
BRANCH   14    2
ATOM      1  O1  UNL A   1      16.556  37.410  45.710  1.00  0.00    +0.000 O 
ATOM      2  C1  UNL A   1      17.641  36.848  45.810  1.00  0.00    +0.000 C 
BRANCH    2    3
ATOM      3  C2  UNL A   1      17.760  35.345  46.062  1.00  0.00    +0.000 C 
ATOM     87  H1  UNL A   1      17.189  35.105  46.934  1.00  0.00    +0.000 H 
ATOM     88  H2  UNL A   1      18.802  35.134  46.178  1.00  0.00    +0.000 H 
BRANCH    3    4
ATOM      4  C3  UNL A   1      17.266  34.486  44.919  1.00  0.00    +0.000 C 
ATOM      5  C4  UNL A   1      18.250  34.078  43.935  1.00  0.00    +0.000 C 
ATOM      6  C5  UNL A   1      17.882  33.366  42.863  1.00  0.00    +0.000 C 
ATOM      7  N1  UNL A   1      16.565  32.994  42.667  1.00  0.00    +0.000 N 
ATOM     11  C7  UNL A   1      15.559  33.327  43.559  1.00  0.00    +0.000 C 
ATOM     12  O2  UNL A   1      14.370  33.057  43.431  1.00  0.00    +0.000 O 
ATOM     13  C8  UNL A   1      15.987  34.104  44.755  1.00  0.00    +0.000 C 
ATOM     89  H3  UNL A   1      19.241  34.337  44.063  1.00  0.00    +0.000 H 
ATOM     90  H4  UNL A   1      18.595  33.089  42.169  1.00  0.00    +0.000 H 
ATOM     92  H6  UNL A   1      15.289  34.353  45.473  1.00  0.00    +0.000 H 
BRANCH    7    8
ATOM      9  F1  UNL A   1      16.416  33.004  40.363  1.00  0.00    +0.000 F 
ATOM     10  F2  UNL A   1      16.855  31.110  41.379  1.00  0.00    +0.000 F 
ATOM     91  H5  UNL A   1      15.124  32.088  41.564  1.00  0.00    +0.000 H 
ATOM      8  C6  UNL A   1      16.174  32.278  41.481  1.00  0.00    +0.000 C 
ENDBRANCH    7    8
ENDBRANCH    3    4
ENDBRANCH    2    3
ENDBRANCH   14    2
ENDBRANCH   15   14
ENDBRANCH   16   15
ENDBRANCH   17   16
ENDBRANCH   18   17
ENDBRANCH   19   18
ENDBRANCH   20   19
ENDBRANCH   21   20
ENDBRANCH   22   21
ENDBRANCH   24   22
ENDBRANCH   28   27
BRANCH   32   33
ATOM     33  C24 UNL A   1      25.586  40.107  49.515  1.00  0.00    +0.000 C 
ATOM     34  C25 UNL A   1      24.740  41.175  49.184  1.00  0.00    +0.000 C 
ATOM     35  F3  UNL A   1      24.775  41.706  47.952  1.00  0.00    +0.000 F 
ATOM     36  C26 UNL A   1      23.869  41.716  50.127  1.00  0.00    +0.000 C 
ATOM     37  F4  UNL A   1      23.088  42.754  49.795  1.00  0.00    +0.000 F 
ATOM     38  C27 UNL A   1      23.811  41.185  51.407  1.00  0.00    +0.000 C 
ATOM     39  F5  UNL A   1      22.963  41.700  52.308  1.00  0.00    +0.000 F 
ATOM     40  C28 UNL A   1      24.634  40.125  51.754  1.00  0.00    +0.000 C 
ATOM     41  F6  UNL A   1      24.571  39.605  52.988  1.00  0.00    +0.000 F 
ATOM     42  C29 UNL A   1      25.521  39.595  50.820  1.00  0.00    +0.000 C 
ATOM     43  F7  UNL A   1      26.306  38.571  51.185  1.00  0.00    +0.000 F 
ENDBRANCH   32   33
BRANCH   49   50
ATOM     50  C35 UNL A   1      32.260  41.019  46.982  1.00  0.00    +0.000 C 
ATOM     51  C36 UNL A   1      32.251  42.315  46.448  1.00  0.00    +0.000 C 
ATOM     52  F8  UNL A   1      31.230  42.720  45.678  1.00  0.00    +0.000 F 
ATOM     53  C37 UNL A   1      33.307  43.191  46.682  1.00  0.00    +0.000 C 
ATOM     54  F9  UNL A   1      33.294  44.414  46.135  1.00  0.00    +0.000 F 
ATOM     55  C38 UNL A   1      34.377  42.796  47.471  1.00  0.00    +0.000 C 
ATOM     56  F10 UNL A   1      35.389  43.644  47.702  1.00  0.00    +0.000 F 
ATOM     57  C39 UNL A   1      34.401  41.521  48.018  1.00  0.00    +0.000 C 
ATOM     58  F11 UNL A   1      35.429  41.143  48.788  1.00  0.00    +0.000 F 
ATOM     59  C40 UNL A   1      33.357  40.635  47.768  1.00  0.00    +0.000 C 
ATOM     60  F12 UNL A   1      33.408  39.407  48.304  1.00  0.00    +0.000 F 
ENDBRANCH   49   50
BRANCH   64   65
ATOM     65  C44 UNL A   1      31.335  35.551  42.769  1.00  0.00    +0.000 C 
ATOM     66  C45 UNL A   1      32.102  34.446  43.158  1.00  0.00    +0.000 C 
ATOM     67  F13 UNL A   1      32.087  34.037  44.435  1.00  0.00    +0.000 F 
ATOM     68  C46 UNL A   1      32.906  33.771  42.242  1.00  0.00    +0.000 C 
ATOM     69  F14 UNL A   1      33.651  32.732  42.644  1.00  0.00    +0.000 F 
ATOM     70  C47 UNL A   1      32.940  34.177  40.915  1.00  0.00    +0.000 C 
ATOM     71  F15 UNL A   1      33.704  33.520  40.032  1.00  0.00    +0.000 F 
ATOM     72  C48 UNL A   1      32.187  35.267  40.507  1.00  0.00    +0.000 C 
ATOM     73  F16 UNL A   1      32.208  35.654  39.224  1.00  0.00    +0.000 F 
ATOM     74  C49 UNL A   1      31.401  35.956  41.427  1.00  0.00    +0.000 C 
ATOM     75  F17 UNL A   1      30.686  37.009  41.008  1.00  0.00    +0.000 F 
ENDBRANCH   64   65
TORSDOF 17
ENDMDL
MODEL 10
REMARK VINA RESULT:      -9.8     36.334     41.853
ROOT
ATOM     28  C20 UNL A   1      27.538  24.170 -10.772  1.00  0.00    +0.000 C 
ATOM     29  C21 UNL A   1      26.806  22.921 -11.185  1.00  0.00    +0.000 C 
ATOM     30  N4  UNL A   1      27.285  21.810 -11.689  1.00  0.00    +0.000 N 
ATOM     31  C22 UNL A   1      26.192  20.973 -11.874  1.00  0.00    +0.000 C 
ATOM     32  C23 UNL A   1      26.161  19.724 -12.399  1.00  0.00    +0.000 C 
ATOM     44  C30 UNL A   1      27.315  19.018 -12.892  1.00  0.00    +0.000 C 
ATOM     45  C31 UNL A   1      27.376  17.755 -13.457  1.00  0.00    +0.000 C 
ATOM     46  C32 UNL A   1      28.712  17.479 -13.765  1.00  0.00    +0.000 C 
ATOM     47  C33 UNL A   1      29.477  18.582 -13.425  1.00  0.00    +0.000 C 
ATOM     48  N5  UNL A   1      28.608  19.517 -12.886  1.00  0.00    +0.000 N 
ATOM     49  C34 UNL A   1      30.897  18.770 -13.572  1.00  0.00    +0.000 C 
ATOM     61  C41 UNL A   1      31.567  19.905 -13.258  1.00  0.00    +0.000 C 
ATOM     62  N6  UNL A   1      31.073  21.088 -12.729  1.00  0.00    +0.000 N 
ATOM     63  C42 UNL A   1      32.111  21.873 -12.574  1.00  0.00    +0.000 C 
ATOM     64  C43 UNL A   1      32.166  23.274 -12.035  1.00  0.00    +0.000 C 
ATOM     76  C50 UNL A   1      31.042  23.850 -11.571  1.00  0.00    +0.000 C 
ATOM     77  C51 UNL A   1      30.952  25.195 -11.009  1.00  0.00    +0.000 C 
ATOM     78  C52 UNL A   1      29.688  25.424 -10.621  1.00  0.00    +0.000 C 
ATOM     79  C53 UNL A   1      28.868  24.258 -10.956  1.00  0.00    +0.000 C 
ATOM     80  N7  UNL A   1      29.761  23.365 -11.493  1.00  0.00    +0.000 N 
ATOM     81  C54 UNL A   1      33.387  21.273 -12.989  1.00  0.00    +0.000 C 
ATOM     82  C55 UNL A   1      32.995  20.082 -13.424  1.00  0.00    +0.000 C 
ATOM     83  C56 UNL A   1      25.026  21.690 -11.407  1.00  0.00    +0.000 C 
ATOM     84  C57 UNL A   1      25.345  22.915 -11.012  1.00  0.00    +0.000 C 
ATOM    109  H23 UNL A   1      26.575  17.127 -13.623  1.00  0.00    +0.000 H 
ATOM    110  H24 UNL A   1      29.068  16.602 -14.177  1.00  0.00    +0.000 H 
ATOM    111  H25 UNL A   1      28.869  20.406 -12.551  1.00  0.00    +0.000 H 
ATOM    112  H26 UNL A   1      31.734  25.863 -10.924  1.00  0.00    +0.000 H 
ATOM    113  H27 UNL A   1      29.349  26.282 -10.161  1.00  0.00    +0.000 H 
ATOM    114  H28 UNL A   1      29.506  22.462 -11.793  1.00  0.00    +0.000 H 
ATOM    115  H29 UNL A   1      34.337  21.673 -12.952  1.00  0.00    +0.000 H 
ATOM    116  H30 UNL A   1      33.627  19.373 -13.826  1.00  0.00    +0.000 H 
ATOM    117  H31 UNL A   1      24.071  21.299 -11.385  1.00  0.00    +0.000 H 
ATOM    118  H32 UNL A   1      24.728  23.669 -10.671  1.00  0.00    +0.000 H 
ENDROOT
BRANCH   28   27
ATOM     27  C19 UNL A   1      26.789  25.336 -10.233  1.00  0.00    +0.000 C 
ATOM    107  H21 UNL A   1      26.116  26.855  -7.311  1.00  0.00    +0.000 H 
ATOM    108  H22 UNL A   1      27.235  24.902  -8.211  1.00  0.00    +0.000 H 
ATOM     85  C58 UNL A   1      26.129  26.235 -11.085  1.00  0.00    +0.000 C 
ATOM     86  C59 UNL A   1      25.582  27.414 -10.574  1.00  0.00    +0.000 C 
ATOM    120  H34 UNL A   1      25.124  28.090 -11.206  1.00  0.00    +0.000 H 
ATOM     24  C16 UNL A   1      25.658  27.676  -9.203  1.00  0.00    +0.000 C 
ATOM     25  C17 UNL A   1      26.179  26.718  -8.332  1.00  0.00    +0.000 C 
ATOM     26  C18 UNL A   1      26.786  25.577  -8.850  1.00  0.00    +0.000 C 
ATOM    119  H33 UNL A   1      26.047  26.023 -12.092  1.00  0.00    +0.000 H 
BRANCH   24   22
ATOM     22  C15 UNL A   1      25.242  29.004  -8.703  1.00  0.00    +0.000 C 
ATOM     23  O3  UNL A   1      25.980  29.973  -8.853  1.00  0.00    +0.000 O 
BRANCH   22   21
ATOM    106  H20 UNL A   1      23.780  30.046  -7.801  1.00  0.00    +0.000 H 
ATOM     21  N3  UNL A   1      24.051  29.127  -8.024  1.00  0.00    +0.000 N 
BRANCH   21   20
ATOM    105  H19 UNL A   1      23.427  27.182  -8.099  1.00  0.00    +0.000 H 
ATOM     20  C14 UNL A   1      23.137  28.079  -7.594  1.00  0.00    +0.000 C 
ATOM    104  H18 UNL A   1      22.139  28.378  -7.837  1.00  0.00    +0.000 H 
BRANCH   20   19
ATOM     19  C13 UNL A   1      23.202  27.791  -6.098  1.00  0.00    +0.000 C 
ATOM    102  H16 UNL A   1      24.193  28.018  -5.762  1.00  0.00    +0.000 H 
ATOM    103  H17 UNL A   1      22.444  28.398  -5.649  1.00  0.00    +0.000 H 
BRANCH   19   18
ATOM     18  C12 UNL A   1      22.885  26.353  -5.688  1.00  0.00    +0.000 C 
ATOM    100  H14 UNL A   1      22.867  26.313  -4.618  1.00  0.00    +0.000 H 
ATOM    101  H15 UNL A   1      21.947  26.119  -6.147  1.00  0.00    +0.000 H 
BRANCH   18   17
ATOM     17  C11 UNL A   1      23.869  25.288  -6.182  1.00  0.00    +0.000 C 
ATOM     98  H12 UNL A   1      23.300  24.436  -6.492  1.00  0.00    +0.000 H 
ATOM     99  H13 UNL A   1      24.425  25.753  -6.967  1.00  0.00    +0.000 H 
BRANCH   17   16
ATOM     97  H11 UNL A   1      24.358  24.472  -4.310  1.00  0.00    +0.000 H 
ATOM     96  H10 UNL A   1      25.565  25.630  -4.950  1.00  0.00    +0.000 H 
ATOM     16  C10 UNL A   1      24.911  24.810  -5.162  1.00  0.00    +0.000 C 
BRANCH   16   15
ATOM     95  H9  UNL A   1      26.115  23.823  -6.600  1.00  0.00    +0.000 H 
ATOM     94  H8  UNL A   1      25.169  22.738  -5.580  1.00  0.00    +0.000 H 
ATOM     15  C9  UNL A   1      25.765  23.626  -5.609  1.00  0.00    +0.000 C 
BRANCH   15   14
ATOM     93  H7  UNL A   1      26.774  23.312  -3.787  1.00  0.00    +0.000 H 
ATOM     14  N2  UNL A   1      26.919  23.444  -4.752  1.00  0.00    +0.000 N 
BRANCH   14    2
ATOM      1  O1  UNL A   1      29.204  23.275  -4.533  1.00  0.00    +0.000 O 
ATOM      2  C1  UNL A   1      28.213  23.449  -5.233  1.00  0.00    +0.000 C 
BRANCH    2    3
ATOM      3  C2  UNL A   1      28.312  23.728  -6.733  1.00  0.00    +0.000 C 
ATOM     87  H1  UNL A   1      28.999  24.535  -6.878  1.00  0.00    +0.000 H 
ATOM     88  H2  UNL A   1      27.323  23.960  -7.069  1.00  0.00    +0.000 H 
BRANCH    3    4
ATOM      4  C3  UNL A   1      28.786  22.548  -7.551  1.00  0.00    +0.000 C 
ATOM      5  C4  UNL A   1      27.818  21.498  -7.805  1.00  0.00    +0.000 C 
ATOM      6  C5  UNL A   1      28.174  20.393  -8.471  1.00  0.00    +0.000 C 
ATOM      7  N1  UNL A   1      29.464  20.224  -8.940  1.00  0.00    +0.000 N 
ATOM     11  C7  UNL A   1      30.453  21.177  -8.756  1.00  0.00    +0.000 C 
ATOM     12  O2  UNL A   1      31.620  21.079  -9.117  1.00  0.00    +0.000 O 
ATOM     13  C8  UNL A   1      30.035  22.408  -8.029  1.00  0.00    +0.000 C 
ATOM     89  H3  UNL A   1      26.847  21.604  -7.472  1.00  0.00    +0.000 H 
ATOM     90  H4  UNL A   1      27.474  19.653  -8.638  1.00  0.00    +0.000 H 
ATOM     92  H6  UNL A   1      30.717  23.170  -7.889  1.00  0.00    +0.000 H 
BRANCH    7    8
ATOM      9  F1  UNL A   1      30.668  18.258  -8.828  1.00  0.00    +0.000 F 
ATOM     10  F2  UNL A   1      28.759  18.260  -9.909  1.00  0.00    +0.000 F 
ATOM     91  H5  UNL A   1      30.365  19.290 -10.498  1.00  0.00    +0.000 H 
ATOM      8  C6  UNL A   1      29.849  19.007  -9.605  1.00  0.00    +0.000 C 
ENDBRANCH    7    8
ENDBRANCH    3    4
ENDBRANCH    2    3
ENDBRANCH   14    2
ENDBRANCH   15   14
ENDBRANCH   16   15
ENDBRANCH   17   16
ENDBRANCH   18   17
ENDBRANCH   19   18
ENDBRANCH   20   19
ENDBRANCH   21   20
ENDBRANCH   22   21
ENDBRANCH   24   22
ENDBRANCH   28   27
BRANCH   32   33
ATOM     33  C24 UNL A   1      24.835  19.028 -12.468  1.00  0.00    +0.000 C 
ATOM     34  C25 UNL A   1      23.908  19.318 -13.479  1.00  0.00    +0.000 C 
ATOM     35  F3  UNL A   1      24.163  20.288 -14.370  1.00  0.00    +0.000 F 
ATOM     36  C26 UNL A   1      22.702  18.625 -13.564  1.00  0.00    +0.000 C 
ATOM     37  F4  UNL A   1      21.819  18.937 -14.523  1.00  0.00    +0.000 F 
ATOM     38  C27 UNL A   1      22.413  17.617 -12.656  1.00  0.00    +0.000 C 
ATOM     39  F5  UNL A   1      21.258  16.943 -12.748  1.00  0.00    +0.000 F 
ATOM     40  C28 UNL A   1      23.319  17.309 -11.653  1.00  0.00    +0.000 C 
ATOM     41  F6  UNL A   1      23.044  16.328 -10.782  1.00  0.00    +0.000 F 
ATOM     42  C29 UNL A   1      24.515  18.015 -11.552  1.00  0.00    +0.000 C 
ATOM     43  F7  UNL A   1      25.371  17.696 -10.570  1.00  0.00    +0.000 F 
ENDBRANCH   32   33
BRANCH   49   50
ATOM     50  C35 UNL A   1      31.698  17.628 -14.120  1.00  0.00    +0.000 C 
ATOM     51  C36 UNL A   1      31.979  17.532 -15.490  1.00  0.00    +0.000 C 
ATOM     52  F8  UNL A   1      31.478  18.433 -16.347  1.00  0.00    +0.000 F 
ATOM     53  C37 UNL A   1      32.756  16.489 -15.988  1.00  0.00    +0.000 C 
ATOM     54  F9  UNL A   1      32.986  16.397 -17.304  1.00  0.00    +0.000 F 
ATOM     55  C38 UNL A   1      33.284  15.541 -15.124  1.00  0.00    +0.000 C 
ATOM     56  F10 UNL A   1      34.038  14.543 -15.603  1.00  0.00    +0.000 F 
ATOM     57  C39 UNL A   1      33.026  15.624 -13.763  1.00  0.00    +0.000 C 
ATOM     58  F11 UNL A   1      33.544  14.715 -12.927  1.00  0.00    +0.000 F 
ATOM     59  C40 UNL A   1      32.232  16.653 -13.265  1.00  0.00    +0.000 C 
ATOM     60  F12 UNL A   1      31.994  16.707 -11.946  1.00  0.00    +0.000 F 
ENDBRANCH   49   50
BRANCH   64   65
ATOM     65  C44 UNL A   1      33.442  24.031 -12.007  1.00  0.00    +0.000 C 
ATOM     66  C45 UNL A   1      34.342  23.884 -10.944  1.00  0.00    +0.000 C 
ATOM     67  F13 UNL A   1      34.035  23.083  -9.913  1.00  0.00    +0.000 F 
ATOM     68  C46 UNL A   1      35.551  24.576 -10.926  1.00  0.00    +0.000 C 
ATOM     69  F14 UNL A   1      36.384  24.439  -9.885  1.00  0.00    +0.000 F 
ATOM     70  C47 UNL A   1      35.889  25.412 -11.980  1.00  0.00    +0.000 C 
ATOM     71  F15 UNL A   1      37.057  26.069 -11.967  1.00  0.00    +0.000 F 
ATOM     72  C48 UNL A   1      35.015  25.571 -13.044  1.00  0.00    +0.000 C 
ATOM     73  F16 UNL A   1      35.344  26.368 -14.070  1.00  0.00    +0.000 F 
ATOM     74  C49 UNL A   1      33.797  24.897 -13.052  1.00  0.00    +0.000 C 
ATOM     75  F17 UNL A   1      32.967  25.071 -14.090  1.00  0.00    +0.000 F 
ENDBRANCH   64   65
TORSDOF 17
ENDMDL
