MODEL 1
REMARK VINA RESULT:     -10.8      0.000      0.000
ROOT
ATOM     19  C15 UNL A   1      38.127  30.151  29.953  1.00  0.00    +0.000 C 
ATOM     20  C16 UNL A   1      38.379  30.634  31.354  1.00  0.00    +0.000 C 
ATOM     21  N3  UNL A   1      39.390  30.378  32.147  1.00  0.00    +0.000 N 
ATOM     22  C17 UNL A   1      39.147  31.093  33.313  1.00  0.00    +0.000 C 
ATOM     23  C18 UNL A   1      39.870  31.113  34.458  1.00  0.00    +0.000 C 
ATOM     35  C25 UNL A   1      41.080  30.362  34.672  1.00  0.00    +0.000 C 
ATOM     36  C26 UNL A   1      41.857  30.281  35.814  1.00  0.00    +0.000 C 
ATOM     37  C27 UNL A   1      42.953  29.455  35.542  1.00  0.00    +0.000 C 
ATOM     38  C28 UNL A   1      42.837  28.989  34.243  1.00  0.00    +0.000 C 
ATOM     39  N4  UNL A   1      41.688  29.558  33.718  1.00  0.00    +0.000 N 
ATOM     40  C29 UNL A   1      43.709  28.093  33.532  1.00  0.00    +0.000 C 
ATOM     52  C36 UNL A   1      43.521  27.677  32.255  1.00  0.00    +0.000 C 
ATOM     53  N5  UNL A   1      42.499  28.000  31.375  1.00  0.00    +0.000 N 
ATOM     54  C37 UNL A   1      42.772  27.370  30.259  1.00  0.00    +0.000 C 
ATOM     55  C38 UNL A   1      41.995  27.335  28.971  1.00  0.00    +0.000 C 
ATOM     67  C45 UNL A   1      40.833  28.010  28.885  1.00  0.00    +0.000 C 
ATOM     68  C46 UNL A   1      39.964  28.053  27.714  1.00  0.00    +0.000 C 
ATOM     69  C47 UNL A   1      38.911  28.842  27.977  1.00  0.00    +0.000 C 
ATOM     70  C48 UNL A   1      39.016  29.338  29.350  1.00  0.00    +0.000 C 
ATOM     71  N6  UNL A   1      40.189  28.794  29.811  1.00  0.00    +0.000 N 
ATOM     72  C49 UNL A   1      44.018  26.590  30.301  1.00  0.00    +0.000 C 
ATOM     73  C50 UNL A   1      44.411  26.777  31.552  1.00  0.00    +0.000 C 
ATOM     74  C51 UNL A   1      37.918  31.830  33.108  1.00  0.00    +0.000 C 
ATOM     75  C52 UNL A   1      37.375  31.539  31.934  1.00  0.00    +0.000 C 
ATOM    112  H21 UNL A   1      41.661  30.751  36.712  1.00  0.00    +0.000 H 
ATOM    113  H22 UNL A   1      43.717  29.231  36.199  1.00  0.00    +0.000 H 
ATOM    114  H23 UNL A   1      41.352  29.413  32.804  1.00  0.00    +0.000 H 
ATOM    115  H24 UNL A   1      40.133  27.556  26.824  1.00  0.00    +0.000 H 
ATOM    116  H25 UNL A   1      38.149  29.063  27.317  1.00  0.00    +0.000 H 
ATOM    117  H26 UNL A   1      40.535  28.948  30.720  1.00  0.00    +0.000 H 
ATOM    118  H27 UNL A   1      44.468  26.041  29.551  1.00  0.00    +0.000 H 
ATOM    119  H28 UNL A   1      45.245  26.338  31.972  1.00  0.00    +0.000 H 
ATOM    120  H29 UNL A   1      37.519  32.496  33.787  1.00  0.00    +0.000 H 
ATOM    121  H30 UNL A   1      36.481  31.861  31.533  1.00  0.00    +0.000 H 
ENDROOT
BRANCH   19   18
ATOM     76  C53 UNL A   1      35.899  29.696  28.909  1.00  0.00    +0.000 C 
ATOM     77  C54 UNL A   1      34.760  30.119  28.224  1.00  0.00    +0.000 C 
ATOM    110  H19 UNL A   1      35.530  33.367  27.889  1.00  0.00    +0.000 H 
ATOM     15  C11 UNL A   1      34.597  31.471  27.906  1.00  0.00    +0.000 C 
ATOM     16  C12 UNL A   1      35.630  32.376  28.164  1.00  0.00    +0.000 C 
ATOM     17  C13 UNL A   1      36.796  31.941  28.796  1.00  0.00    +0.000 C 
ATOM    111  H20 UNL A   1      37.567  32.606  28.965  1.00  0.00    +0.000 H 
ATOM     18  C14 UNL A   1      36.927  30.603  29.204  1.00  0.00    +0.000 C 
ATOM    122  H31 UNL A   1      35.985  28.709  29.200  1.00  0.00    +0.000 H 
ATOM    123  H32 UNL A   1      34.037  29.433  27.951  1.00  0.00    +0.000 H 
BRANCH   15   13
ATOM     13  C10 UNL A   1      33.356  31.972  27.273  1.00  0.00    +0.000 C 
ATOM     14  O2  UNL A   1      32.971  33.112  27.515  1.00  0.00    +0.000 O 
BRANCH   13   12
ATOM     12  N2  UNL A   1      32.626  31.164  26.440  1.00  0.00    +0.000 N 
ATOM    109  H18 UNL A   1      32.790  31.294  25.477  1.00  0.00    +0.000 H 
BRANCH   12   11
ATOM     11  C9  UNL A   1      31.646  30.142  26.769  1.00  0.00    +0.000 C 
ATOM    108  H17 UNL A   1      30.684  30.509  26.478  1.00  0.00    +0.000 H 
ATOM    107  H16 UNL A   1      31.692  29.950  27.821  1.00  0.00    +0.000 H 
BRANCH   11   10
ATOM    105  H14 UNL A   1      32.210  28.101  26.732  1.00  0.00    +0.000 H 
ATOM     10  C8  UNL A   1      31.890  28.834  26.021  1.00  0.00    +0.000 C 
ATOM    106  H15 UNL A   1      30.964  28.590  25.542  1.00  0.00    +0.000 H 
BRANCH   10    9
ATOM      9  C7  UNL A   1      32.938  28.903  24.908  1.00  0.00    +0.000 C 
ATOM    103  H12 UNL A   1      32.435  29.140  23.994  1.00  0.00    +0.000 H 
ATOM    104  H13 UNL A   1      33.645  29.646  25.214  1.00  0.00    +0.000 H 
BRANCH    9    8
ATOM    101  H10 UNL A   1      33.362  27.141  23.808  1.00  0.00    +0.000 H 
ATOM    102  H11 UNL A   1      34.764  27.925  24.604  1.00  0.00    +0.000 H 
ATOM      8  C6  UNL A   1      33.741  27.621  24.686  1.00  0.00    +0.000 C 
BRANCH    8    7
ATOM     99  H8  UNL A   1      34.143  27.058  26.696  1.00  0.00    +0.000 H 
ATOM    100  H9  UNL A   1      32.666  26.355  25.972  1.00  0.00    +0.000 H 
ATOM      7  C5  UNL A   1      33.696  26.604  25.835  1.00  0.00    +0.000 C 
BRANCH    7    6
ATOM     97  H6  UNL A   1      34.786  25.285  24.557  1.00  0.00    +0.000 H 
ATOM     98  H7  UNL A   1      35.232  25.196  26.260  1.00  0.00    +0.000 H 
ATOM      6  C4  UNL A   1      34.424  25.281  25.564  1.00  0.00    +0.000 C 
BRANCH    6    5
ATOM      5  N1  UNL A   1      33.546  24.140  25.745  1.00  0.00    +0.000 N 
ATOM     96  H5  UNL A   1      33.165  23.997  26.642  1.00  0.00    +0.000 H 
BRANCH    5    3
ATOM      3  C3  UNL A   1      33.207  23.247  24.761  1.00  0.00    +0.000 C 
ATOM      4  O1  UNL A   1      34.046  22.386  24.494  1.00  0.00    +0.000 O 
BRANCH    3    2
ATOM      2  C2  UNL A   1      31.822  23.352  24.095  1.00  0.00    +0.000 C 
ATOM     95  H4  UNL A   1      31.097  23.126  24.849  1.00  0.00    +0.000 H 
BRANCH    2    1
ATOM      1  C1  UNL A   1      31.796  22.349  22.935  1.00  0.00    +0.000 C 
ATOM     92  H1  UNL A   1      30.934  22.530  22.326  1.00  0.00    +0.000 H 
ATOM     93  H2  UNL A   1      31.753  21.353  23.325  1.00  0.00    +0.000 H 
ATOM     94  H3  UNL A   1      32.680  22.462  22.344  1.00  0.00    +0.000 H 
ENDBRANCH    2    1
BRANCH    2   78
ATOM    137  H46 UNL A   1      29.362  27.337  24.434  1.00  0.00    +0.000 H 
ATOM     78  C55 UNL A   1      31.389  24.754  23.629  1.00  0.00    +0.000 C 
ATOM     79  C56 UNL A   1      31.856  25.302  22.419  1.00  0.00    +0.000 C 
ATOM     80  C57 UNL A   1      31.431  26.547  21.949  1.00  0.00    +0.000 C 
ATOM     81  C58 UNL A   1      30.528  27.313  22.681  1.00  0.00    +0.000 C 
ATOM     89  C65 UNL A   1      30.050  26.796  23.888  1.00  0.00    +0.000 C 
ATOM     90  C66 UNL A   1      30.490  25.551  24.369  1.00  0.00    +0.000 C 
ATOM     91 Br1  UNL A   1      29.847  25.077  26.100  1.00  0.00    +0.000 Br
ATOM    124  H33 UNL A   1      32.536  24.764  21.859  1.00  0.00    +0.000 H 
ATOM    125  H34 UNL A   1      31.790  26.904  21.051  1.00  0.00    +0.000 H 
BRANCH   81   82
ATOM     82  C59 UNL A   1      30.108  28.678  22.195  1.00  0.00    +0.000 C 
ATOM    126  H35 UNL A   1      29.530  28.547  21.305  1.00  0.00    +0.000 H 
ATOM    127  H36 UNL A   1      31.015  29.227  22.048  1.00  0.00    +0.000 H 
BRANCH   82   83
ATOM    129  H38 UNL A   1      30.472  31.253  22.766  1.00  0.00    +0.000 H 
ATOM    130  H39 UNL A   1      30.429  30.849  24.440  1.00  0.00    +0.000 H 
ATOM    131  H40 UNL A   1      28.575  32.516  22.918  1.00  0.00    +0.000 H 
ATOM    132  H41 UNL A   1      28.688  32.379  24.629  1.00  0.00    +0.000 H 
ATOM    133  H42 UNL A   1      26.548  31.414  23.350  1.00  0.00    +0.000 H 
ATOM    134  H43 UNL A   1      27.145  30.539  24.682  1.00  0.00    +0.000 H 
ATOM    135  H44 UNL A   1      27.734  30.069  21.724  1.00  0.00    +0.000 H 
ATOM     83  C60 UNL A   1      29.273  29.510  23.182  1.00  0.00    +0.000 C 
ATOM     84  C61 UNL A   1      29.839  30.892  23.549  1.00  0.00    +0.000 C 
ATOM     85  C62 UNL A   1      28.628  31.814  23.723  1.00  0.00    +0.000 C 
ATOM     86  C63 UNL A   1      27.413  30.899  23.711  1.00  0.00    +0.000 C 
ATOM     87  C64 UNL A   1      27.831  29.793  22.753  1.00  0.00    +0.000 C 
ATOM    128  H37 UNL A   1      29.311  28.846  24.019  1.00  0.00    +0.000 H 
BRANCH   87   88
ATOM    136  H45 UNL A   1      26.113  28.850  22.625  1.00  0.00    +0.000 H 
ATOM     88  O3  UNL A   1      27.020  28.642  22.897  1.00  0.00    +0.000 O 
ENDBRANCH   87   88
ENDBRANCH   82   83
ENDBRANCH   81   82
ENDBRANCH    2   78
ENDBRANCH    3    2
ENDBRANCH    5    3
ENDBRANCH    6    5
ENDBRANCH    7    6
ENDBRANCH    8    7
ENDBRANCH    9    8
ENDBRANCH   10    9
ENDBRANCH   11   10
ENDBRANCH   12   11
ENDBRANCH   13   12
ENDBRANCH   15   13
ENDBRANCH   19   18
BRANCH   23   24
ATOM     33  C24 UNL A   1      39.827  33.278  35.752  1.00  0.00    +0.000 C 
ATOM     34  F5  UNL A   1      40.693  33.808  34.874  1.00  0.00    +0.000 F 
ATOM     24  C19 UNL A   1      39.365  31.964  35.585  1.00  0.00    +0.000 C 
ATOM     25  C20 UNL A   1      38.464  31.459  36.535  1.00  0.00    +0.000 C 
ATOM     26  F1  UNL A   1      37.984  30.212  36.412  1.00  0.00    +0.000 F 
ATOM     27  C21 UNL A   1      38.032  32.244  37.600  1.00  0.00    +0.000 C 
ATOM     28  F2  UNL A   1      37.145  31.752  38.477  1.00  0.00    +0.000 F 
ATOM     29  C22 UNL A   1      38.512  33.536  37.753  1.00  0.00    +0.000 C 
ATOM     30  F3  UNL A   1      38.104  34.286  38.786  1.00  0.00    +0.000 F 
ATOM     31  C23 UNL A   1      39.412  34.052  36.833  1.00  0.00    +0.000 C 
ATOM     32  F4  UNL A   1      39.886  35.296  36.985  1.00  0.00    +0.000 F 
ENDBRANCH   23   24
BRANCH   40   41
ATOM     41  C30 UNL A   1      44.910  27.557  34.253  1.00  0.00    +0.000 C 
ATOM     42  C31 UNL A   1      46.137  28.236  34.240  1.00  0.00    +0.000 C 
ATOM     43  F6  UNL A   1      46.270  29.374  33.540  1.00  0.00    +0.000 F 
ATOM     44  C32 UNL A   1      47.245  27.724  34.908  1.00  0.00    +0.000 C 
ATOM     45  F7  UNL A   1      48.421  28.364  34.840  1.00  0.00    +0.000 F 
ATOM     46  C33 UNL A   1      47.140  26.544  35.629  1.00  0.00    +0.000 C 
ATOM     47  F8  UNL A   1      48.207  26.053  36.273  1.00  0.00    +0.000 F 
ATOM     48  C34 UNL A   1      45.929  25.867  35.674  1.00  0.00    +0.000 C 
ATOM     49  F9  UNL A   1      45.823  24.732  36.379  1.00  0.00    +0.000 F 
ATOM     50  C35 UNL A   1      44.827  26.363  34.984  1.00  0.00    +0.000 C 
ATOM     51  F10 UNL A   1      43.674  25.678  35.032  1.00  0.00    +0.000 F 
ENDBRANCH   40   41
BRANCH   55   56
ATOM     65  C44 UNL A   1      42.064  25.231  27.591  1.00  0.00    +0.000 C 
ATOM     66  F15 UNL A   1      41.215  24.646  28.449  1.00  0.00    +0.000 F 
ATOM     56  C39 UNL A   1      42.488  26.549  27.811  1.00  0.00    +0.000 C 
ATOM     57  C40 UNL A   1      43.380  27.111  26.888  1.00  0.00    +0.000 C 
ATOM     58  F11 UNL A   1      43.796  28.376  27.046  1.00  0.00    +0.000 F 
ATOM     59  C41 UNL A   1      43.810  26.393  25.775  1.00  0.00    +0.000 C 
ATOM     60  F12 UNL A   1      44.622  26.972  24.880  1.00  0.00    +0.000 F 
ATOM     61  C42 UNL A   1      43.381  25.089  25.579  1.00  0.00    +0.000 C 
ATOM     62  F13 UNL A   1      43.793  24.400  24.507  1.00  0.00    +0.000 F 
ATOM     63  C43 UNL A   1      42.516  24.504  26.492  1.00  0.00    +0.000 C 
ATOM     64  F14 UNL A   1      42.109  23.240  26.313  1.00  0.00    +0.000 F 
ENDBRANCH   55   56
TORSDOF 20
ENDMDL
MODEL 2
REMARK VINA RESULT:     -10.1      1.869      4.231
ROOT
ATOM     19  C15 UNL A   1      38.262  29.818  29.750  1.00  0.00    +0.000 C 
ATOM     20  C16 UNL A   1      38.460  30.380  31.129  1.00  0.00    +0.000 C 
ATOM     21  N3  UNL A   1      39.477  30.238  31.943  1.00  0.00    +0.000 N 
ATOM     22  C17 UNL A   1      39.167  30.984  33.072  1.00  0.00    +0.000 C 
ATOM     23  C18 UNL A   1      39.872  31.109  34.222  1.00  0.00    +0.000 C 
ATOM     35  C25 UNL A   1      41.131  30.462  34.481  1.00  0.00    +0.000 C 
ATOM     36  C26 UNL A   1      41.898  30.492  35.633  1.00  0.00    +0.000 C 
ATOM     37  C27 UNL A   1      43.055  29.739  35.410  1.00  0.00    +0.000 C 
ATOM     38  C28 UNL A   1      42.992  29.208  34.132  1.00  0.00    +0.000 C 
ATOM     39  N4  UNL A   1      41.810  29.664  33.571  1.00  0.00    +0.000 N 
ATOM     40  C29 UNL A   1      43.937  28.348  33.471  1.00  0.00    +0.000 C 
ATOM     52  C36 UNL A   1      43.797  27.862  32.213  1.00  0.00    +0.000 C 
ATOM     53  N5  UNL A   1      42.765  28.068  31.309  1.00  0.00    +0.000 N 
ATOM     54  C37 UNL A   1      43.099  27.410  30.226  1.00  0.00    +0.000 C 
ATOM     55  C38 UNL A   1      42.342  27.259  28.934  1.00  0.00    +0.000 C 
ATOM     67  C45 UNL A   1      41.135  27.840  28.807  1.00  0.00    +0.000 C 
ATOM     68  C46 UNL A   1      40.280  27.765  27.626  1.00  0.00    +0.000 C 
ATOM     69  C47 UNL A   1      39.167  28.483  27.843  1.00  0.00    +0.000 C 
ATOM     70  C48 UNL A   1      39.218  29.048  29.193  1.00  0.00    +0.000 C 
ATOM     71  N6  UNL A   1      40.422  28.614  29.690  1.00  0.00    +0.000 N 
ATOM     72  C49 UNL A   1      44.398  26.729  30.315  1.00  0.00    +0.000 C 
ATOM     73  C50 UNL A   1      44.761  27.001  31.560  1.00  0.00    +0.000 C 
ATOM     74  C51 UNL A   1      37.889  31.616  32.822  1.00  0.00    +0.000 C 
ATOM     75  C52 UNL A   1      37.384  31.233  31.658  1.00  0.00    +0.000 C 
ATOM    112  H21 UNL A   1      41.656  30.985  36.506  1.00  0.00    +0.000 H 
ATOM    113  H22 UNL A   1      43.826  29.603  36.082  1.00  0.00    +0.000 H 
ATOM    114  H23 UNL A   1      41.498  29.453  32.662  1.00  0.00    +0.000 H 
ATOM    115  H24 UNL A   1      40.497  27.242  26.762  1.00  0.00    +0.000 H 
ATOM    116  H25 UNL A   1      38.400  28.617  27.167  1.00  0.00    +0.000 H 
ATOM    117  H26 UNL A   1      40.744  28.835  30.593  1.00  0.00    +0.000 H 
ATOM    118  H27 UNL A   1      44.897  26.182  29.596  1.00  0.00    +0.000 H 
ATOM    119  H28 UNL A   1      45.620  26.646  32.008  1.00  0.00    +0.000 H 
ATOM    120  H29 UNL A   1      37.432  32.281  33.466  1.00  0.00    +0.000 H 
ATOM    121  H30 UNL A   1      36.473  31.469  31.234  1.00  0.00    +0.000 H 
ENDROOT
BRANCH   19   18
ATOM     76  C53 UNL A   1      36.128  29.133  28.637  1.00  0.00    +0.000 C 
ATOM     77  C54 UNL A   1      34.970  29.436  27.922  1.00  0.00    +0.000 C 
ATOM    110  H19 UNL A   1      35.387  32.752  27.636  1.00  0.00    +0.000 H 
ATOM     15  C11 UNL A   1      34.668  30.765  27.610  1.00  0.00    +0.000 C 
ATOM     16  C12 UNL A   1      35.588  31.776  27.906  1.00  0.00    +0.000 C 
ATOM     17  C13 UNL A   1      36.777  31.464  28.569  1.00  0.00    +0.000 C 
ATOM    111  H20 UNL A   1      37.465  32.208  28.765  1.00  0.00    +0.000 H 
ATOM     18  C14 UNL A   1      37.041  30.143  28.969  1.00  0.00    +0.000 C 
ATOM    122  H31 UNL A   1      36.314  28.158  28.923  1.00  0.00    +0.000 H 
ATOM    123  H32 UNL A   1      34.334  28.679  27.624  1.00  0.00    +0.000 H 
BRANCH   15   13
ATOM     13  C10 UNL A   1      33.398  31.135  26.946  1.00  0.00    +0.000 C 
ATOM     14  O2  UNL A   1      32.751  32.090  27.366  1.00  0.00    +0.000 O 
BRANCH   13   12
ATOM     12  N2  UNL A   1      32.933  30.404  25.883  1.00  0.00    +0.000 N 
ATOM    109  H18 UNL A   1      33.600  30.199  25.189  1.00  0.00    +0.000 H 
BRANCH   12   11
ATOM     11  C9  UNL A   1      31.598  29.888  25.631  1.00  0.00    +0.000 C 
ATOM    108  H17 UNL A   1      30.921  30.717  25.640  1.00  0.00    +0.000 H 
ATOM    107  H16 UNL A   1      31.357  29.175  26.392  1.00  0.00    +0.000 H 
BRANCH   11   10
ATOM    105  H14 UNL A   1      31.542  29.965  23.515  1.00  0.00    +0.000 H 
ATOM     10  C8  UNL A   1      31.480  29.208  24.269  1.00  0.00    +0.000 C 
ATOM    106  H15 UNL A   1      32.277  28.494  24.225  1.00  0.00    +0.000 H 
BRANCH   10    9
ATOM      9  C7  UNL A   1      30.190  28.418  24.042  1.00  0.00    +0.000 C 
ATOM    103  H12 UNL A   1      29.704  28.300  24.987  1.00  0.00    +0.000 H 
ATOM    104  H13 UNL A   1      29.619  28.981  23.333  1.00  0.00    +0.000 H 
BRANCH    9    8
ATOM    101  H10 UNL A   1      29.721  26.952  22.585  1.00  0.00    +0.000 H 
ATOM    102  H11 UNL A   1      31.411  26.952  23.181  1.00  0.00    +0.000 H 
ATOM      8  C6  UNL A   1      30.373  27.029  23.429  1.00  0.00    +0.000 C 
BRANCH    8    7
ATOM     99  H8  UNL A   1      29.015  25.759  24.458  1.00  0.00    +0.000 H 
ATOM    100  H9  UNL A   1      30.539  24.993  23.919  1.00  0.00    +0.000 H 
ATOM      7  C5  UNL A   1      30.077  25.848  24.365  1.00  0.00    +0.000 C 
BRANCH    7    6
ATOM     97  H6  UNL A   1      30.797  27.005  26.009  1.00  0.00    +0.000 H 
ATOM     98  H7  UNL A   1      29.995  25.502  26.461  1.00  0.00    +0.000 H 
ATOM      6  C4  UNL A   1      30.669  25.969  25.774  1.00  0.00    +0.000 C 
BRANCH    6    5
ATOM      5  N1  UNL A   1      31.954  25.302  25.874  1.00  0.00    +0.000 N 
ATOM     96  H5  UNL A   1      31.978  24.428  26.328  1.00  0.00    +0.000 H 
BRANCH    5    3
ATOM      3  C3  UNL A   1      33.135  25.797  25.385  1.00  0.00    +0.000 C 
ATOM      4  O1  UNL A   1      33.543  26.841  25.896  1.00  0.00    +0.000 O 
BRANCH    3    2
ATOM      2  C2  UNL A   1      33.877  25.019  24.281  1.00  0.00    +0.000 C 
ATOM     95  H4  UNL A   1      34.899  24.939  24.591  1.00  0.00    +0.000 H 
BRANCH    2    1
ATOM      1  C1  UNL A   1      33.719  25.812  22.978  1.00  0.00    +0.000 C 
ATOM     92  H1  UNL A   1      33.763  25.141  22.145  1.00  0.00    +0.000 H 
ATOM     93  H2  UNL A   1      34.510  26.529  22.898  1.00  0.00    +0.000 H 
ATOM     94  H3  UNL A   1      32.777  26.318  22.979  1.00  0.00    +0.000 H 
ENDBRANCH    2    1
BRANCH    2   78
ATOM    137  H46 UNL A   1      34.244  20.407  25.080  1.00  0.00    +0.000 H 
ATOM     78  C55 UNL A   1      33.474  23.546  24.090  1.00  0.00    +0.000 C 
ATOM     79  C56 UNL A   1      32.483  23.171  23.162  1.00  0.00    +0.000 C 
ATOM     80  C57 UNL A   1      32.142  21.836  22.932  1.00  0.00    +0.000 C 
ATOM     81  C58 UNL A   1      32.767  20.810  23.635  1.00  0.00    +0.000 C 
ATOM     89  C65 UNL A   1      33.752  21.153  24.565  1.00  0.00    +0.000 C 
ATOM     90  C66 UNL A   1      34.084  22.496  24.810  1.00  0.00    +0.000 C 
ATOM     91 Br1  UNL A   1      35.339  22.779  26.216  1.00  0.00    +0.000 Br
ATOM    124  H33 UNL A   1      31.991  23.909  22.634  1.00  0.00    +0.000 H 
ATOM    125  H34 UNL A   1      31.419  21.607  22.233  1.00  0.00    +0.000 H 
BRANCH   81   82
ATOM     82  C59 UNL A   1      32.363  19.373  23.418  1.00  0.00    +0.000 C 
ATOM    126  H35 UNL A   1      32.517  19.140  22.386  1.00  0.00    +0.000 H 
ATOM    127  H36 UNL A   1      31.341  19.308  23.731  1.00  0.00    +0.000 H 
BRANCH   82   83
ATOM    129  H38 UNL A   1      31.483  18.221  25.652  1.00  0.00    +0.000 H 
ATOM    130  H39 UNL A   1      32.981  18.622  26.403  1.00  0.00    +0.000 H 
ATOM    131  H40 UNL A   1      31.874  15.979  25.834  1.00  0.00    +0.000 H 
ATOM    132  H41 UNL A   1      33.211  16.352  26.851  1.00  0.00    +0.000 H 
ATOM    133  H42 UNL A   1      33.605  15.052  24.548  1.00  0.00    +0.000 H 
ATOM    134  H43 UNL A   1      34.766  16.201  25.026  1.00  0.00    +0.000 H 
ATOM    135  H44 UNL A   1      32.425  16.600  23.109  1.00  0.00    +0.000 H 
ATOM     83  C60 UNL A   1      33.123  18.332  24.257  1.00  0.00    +0.000 C 
ATOM     84  C61 UNL A   1      32.534  18.019  25.641  1.00  0.00    +0.000 C 
ATOM     85  C62 UNL A   1      32.790  16.528  25.884  1.00  0.00    +0.000 C 
ATOM     86  C63 UNL A   1      33.732  16.090  24.773  1.00  0.00    +0.000 C 
ATOM     87  C64 UNL A   1      33.304  16.960  23.602  1.00  0.00    +0.000 C 
ATOM    128  H37 UNL A   1      34.054  18.851  24.345  1.00  0.00    +0.000 H 
BRANCH   87   88
ATOM    136  H45 UNL A   1      35.068  16.495  22.876  1.00  0.00    +0.000 H 
ATOM     88  O3  UNL A   1      34.293  17.004  22.591  1.00  0.00    +0.000 O 
ENDBRANCH   87   88
ENDBRANCH   82   83
ENDBRANCH   81   82
ENDBRANCH    2   78
ENDBRANCH    3    2
ENDBRANCH    5    3
ENDBRANCH    6    5
ENDBRANCH    7    6
ENDBRANCH    8    7
ENDBRANCH    9    8
ENDBRANCH   10    9
ENDBRANCH   11   10
ENDBRANCH   12   11
ENDBRANCH   13   12
ENDBRANCH   15   13
ENDBRANCH   19   18
BRANCH   23   24
ATOM     33  C24 UNL A   1      39.568  33.345  35.351  1.00  0.00    +0.000 C 
ATOM     34  F5  UNL A   1      40.320  33.917  34.398  1.00  0.00    +0.000 F 
ATOM     24  C19 UNL A   1      39.290  31.970  35.303  1.00  0.00    +0.000 C 
ATOM     25  C20 UNL A   1      38.502  31.423  36.328  1.00  0.00    +0.000 C 
ATOM     26  F1  UNL A   1      38.199  30.117  36.320  1.00  0.00    +0.000 F 
ATOM     27  C21 UNL A   1      38.000  32.224  37.350  1.00  0.00    +0.000 C 
ATOM     28  F2  UNL A   1      37.222  31.686  38.300  1.00  0.00    +0.000 F 
ATOM     29  C22 UNL A   1      38.298  33.578  37.385  1.00  0.00    +0.000 C 
ATOM     30  F3  UNL A   1      37.824  34.345  38.376  1.00  0.00    +0.000 F 
ATOM     31  C23 UNL A   1      39.085  34.138  36.389  1.00  0.00    +0.000 C 
ATOM     32  F4  UNL A   1      39.383  35.444  36.427  1.00  0.00    +0.000 F 
ENDBRANCH   23   24
BRANCH   40   41
ATOM     41  C30 UNL A   1      45.165  27.937  34.227  1.00  0.00    +0.000 C 
ATOM     42  C31 UNL A   1      46.342  28.700  34.185  1.00  0.00    +0.000 C 
ATOM     43  F6  UNL A   1      46.402  29.804  33.425  1.00  0.00    +0.000 F 
ATOM     44  C32 UNL A   1      47.477  28.303  34.886  1.00  0.00    +0.000 C 
ATOM     45  F7  UNL A   1      48.605  29.019  34.791  1.00  0.00    +0.000 F 
ATOM     46  C33 UNL A   1      47.447  27.158  35.669  1.00  0.00    +0.000 C 
ATOM     47  F8  UNL A   1      48.539  26.778  36.345  1.00  0.00    +0.000 F 
ATOM     48  C34 UNL A   1      46.286  26.401  35.743  1.00  0.00    +0.000 C 
ATOM     49  F9  UNL A   1      46.253  25.301  36.507  1.00  0.00    +0.000 F 
ATOM     50  C35 UNL A   1      45.159  26.781  35.021  1.00  0.00    +0.000 C 
ATOM     51  F10 UNL A   1      44.056  26.020  35.099  1.00  0.00    +0.000 F 
ENDBRANCH   40   41
BRANCH   55   56
ATOM     65  C44 UNL A   1      42.600  25.101  27.663  1.00  0.00    +0.000 C 
ATOM     66  F15 UNL A   1      41.800  24.489  28.549  1.00  0.00    +0.000 F 
ATOM     56  C39 UNL A   1      42.907  26.460  27.816  1.00  0.00    +0.000 C 
ATOM     57  C40 UNL A   1      43.752  27.050  26.866  1.00  0.00    +0.000 C 
ATOM     58  F11 UNL A   1      44.057  28.353  26.959  1.00  0.00    +0.000 F 
ATOM     59  C41 UNL A   1      44.248  26.317  25.791  1.00  0.00    +0.000 C 
ATOM     60  F12 UNL A   1      45.013  26.918  24.869  1.00  0.00    +0.000 F 
ATOM     61  C42 UNL A   1      43.934  24.973  25.661  1.00  0.00    +0.000 C 
ATOM     62  F13 UNL A   1      44.410  24.268  24.626  1.00  0.00    +0.000 F 
ATOM     63  C43 UNL A   1      43.118  24.362  26.602  1.00  0.00    +0.000 C 
ATOM     64  F14 UNL A   1      42.823  23.060  26.488  1.00  0.00    +0.000 F 
ENDBRANCH   55   56
TORSDOF 20
ENDMDL
MODEL 3
REMARK VINA RESULT:     -10.1      1.376      3.518
ROOT
ATOM     19  C15 UNL A   1      38.558  29.868  30.100  1.00  0.00    +0.000 C 
ATOM     20  C16 UNL A   1      38.829  30.419  31.471  1.00  0.00    +0.000 C 
ATOM     21  N3  UNL A   1      39.867  30.230  32.248  1.00  0.00    +0.000 N 
ATOM     22  C17 UNL A   1      39.630  30.987  33.387  1.00  0.00    +0.000 C 
ATOM     23  C18 UNL A   1      40.380  31.079  34.512  1.00  0.00    +0.000 C 
ATOM     35  C25 UNL A   1      41.618  30.376  34.727  1.00  0.00    +0.000 C 
ATOM     36  C26 UNL A   1      42.425  30.370  35.851  1.00  0.00    +0.000 C 
ATOM     37  C27 UNL A   1      43.539  29.566  35.587  1.00  0.00    +0.000 C 
ATOM     38  C28 UNL A   1      43.406  29.040  34.312  1.00  0.00    +0.000 C 
ATOM     39  N4  UNL A   1      42.227  29.550  33.794  1.00  0.00    +0.000 N 
ATOM     40  C29 UNL A   1      44.288  28.139  33.618  1.00  0.00    +0.000 C 
ATOM     52  C36 UNL A   1      44.082  27.662  32.366  1.00  0.00    +0.000 C 
ATOM     53  N5  UNL A   1      43.029  27.915  31.499  1.00  0.00    +0.000 N 
ATOM     54  C37 UNL A   1      43.295  27.245  30.405  1.00  0.00    +0.000 C 
ATOM     55  C38 UNL A   1      42.488  27.130  29.141  1.00  0.00    +0.000 C 
ATOM     67  C45 UNL A   1      41.303  27.764  29.056  1.00  0.00    +0.000 C 
ATOM     68  C46 UNL A   1      40.405  27.730  27.906  1.00  0.00    +0.000 C 
ATOM     69  C47 UNL A   1      39.334  28.497  28.162  1.00  0.00    +0.000 C 
ATOM     70  C48 UNL A   1      39.458  29.057  29.510  1.00  0.00    +0.000 C 
ATOM     71  N6  UNL A   1      40.657  28.569  29.963  1.00  0.00    +0.000 N 
ATOM     72  C49 UNL A   1      44.565  26.506  30.449  1.00  0.00    +0.000 C 
ATOM     73  C50 UNL A   1      44.983  26.760  31.680  1.00  0.00    +0.000 C 
ATOM     74  C51 UNL A   1      38.374  31.677  33.183  1.00  0.00    +0.000 C 
ATOM     75  C52 UNL A   1      37.812  31.318  32.038  1.00  0.00    +0.000 C 
ATOM    112  H21 UNL A   1      42.236  30.872  36.732  1.00  0.00    +0.000 H 
ATOM    113  H22 UNL A   1      44.326  29.394  36.232  1.00  0.00    +0.000 H 
ATOM    114  H23 UNL A   1      41.874  29.354  32.896  1.00  0.00    +0.000 H 
ATOM    115  H24 UNL A   1      40.568  27.199  27.035  1.00  0.00    +0.000 H 
ATOM    116  H25 UNL A   1      38.550  28.666  27.513  1.00  0.00    +0.000 H 
ATOM    117  H26 UNL A   1      41.021  28.774  30.855  1.00  0.00    +0.000 H 
ATOM    118  H27 UNL A   1      45.013  25.938  29.712  1.00  0.00    +0.000 H 
ATOM    119  H28 UNL A   1      45.840  26.365  32.097  1.00  0.00    +0.000 H 
ATOM    120  H29 UNL A   1      37.970  32.360  33.842  1.00  0.00    +0.000 H 
ATOM    121  H30 UNL A   1      36.898  31.595  31.646  1.00  0.00    +0.000 H 
ENDROOT
BRANCH   19   18
ATOM     76  C53 UNL A   1      36.267  29.339  29.244  1.00  0.00    +0.000 C 
ATOM     77  C54 UNL A   1      35.099  29.699  28.571  1.00  0.00    +0.000 C 
ATOM    110  H19 UNL A   1      35.909  32.855  27.774  1.00  0.00    +0.000 H 
ATOM     15  C11 UNL A   1      34.944  31.002  28.088  1.00  0.00    +0.000 C 
ATOM     16  C12 UNL A   1      36.006  31.906  28.170  1.00  0.00    +0.000 C 
ATOM     17  C13 UNL A   1      37.198  31.527  28.791  1.00  0.00    +0.000 C 
ATOM    111  H20 UNL A   1      37.990  32.188  28.830  1.00  0.00    +0.000 H 
ATOM     18  C14 UNL A   1      37.326  30.249  29.362  1.00  0.00    +0.000 C 
ATOM    122  H31 UNL A   1      36.351  28.396  29.656  1.00  0.00    +0.000 H 
ATOM    123  H32 UNL A   1      34.350  29.003  28.429  1.00  0.00    +0.000 H 
BRANCH   15   13
ATOM     13  C10 UNL A   1      33.679  31.449  27.462  1.00  0.00    +0.000 C 
ATOM     14  O2  UNL A   1      33.279  32.593  27.656  1.00  0.00    +0.000 O 
BRANCH   13   12
ATOM     12  N2  UNL A   1      32.944  30.586  26.689  1.00  0.00    +0.000 N 
ATOM    109  H18 UNL A   1      33.179  30.574  25.733  1.00  0.00    +0.000 H 
BRANCH   12   11
ATOM     11  C9  UNL A   1      31.869  29.688  27.075  1.00  0.00    +0.000 C 
ATOM    108  H17 UNL A   1      30.993  29.977  26.533  1.00  0.00    +0.000 H 
ATOM    107  H16 UNL A   1      31.721  29.765  28.133  1.00  0.00    +0.000 H 
BRANCH   11   10
ATOM    105  H14 UNL A   1      32.006  27.642  27.606  1.00  0.00    +0.000 H 
ATOM     10  C8  UNL A   1      32.170  28.231  26.728  1.00  0.00    +0.000 C 
ATOM    106  H15 UNL A   1      31.520  27.980  25.916  1.00  0.00    +0.000 H 
BRANCH   10    9
ATOM      9  C7  UNL A   1      33.592  27.958  26.234  1.00  0.00    +0.000 C 
ATOM    103  H12 UNL A   1      34.016  28.888  25.917  1.00  0.00    +0.000 H 
ATOM    104  H13 UNL A   1      34.110  27.508  27.055  1.00  0.00    +0.000 H 
BRANCH    9    8
ATOM    101  H10 UNL A   1      34.524  26.316  25.271  1.00  0.00    +0.000 H 
ATOM    102  H11 UNL A   1      32.756  26.471  25.021  1.00  0.00    +0.000 H 
ATOM      8  C6  UNL A   1      33.701  26.970  25.072  1.00  0.00    +0.000 C 
BRANCH    8    7
ATOM     99  H8  UNL A   1      34.974  27.647  23.511  1.00  0.00    +0.000 H 
ATOM    100  H9  UNL A   1      33.400  26.972  22.993  1.00  0.00    +0.000 H 
ATOM      7  C5  UNL A   1      33.920  27.596  23.688  1.00  0.00    +0.000 C 
BRANCH    7    6
ATOM     97  H6  UNL A   1      33.136  29.420  24.476  1.00  0.00    +0.000 H 
ATOM     98  H7  UNL A   1      34.060  29.599  22.987  1.00  0.00    +0.000 H 
ATOM      6  C4  UNL A   1      33.341  29.006  23.511  1.00  0.00    +0.000 C 
BRANCH    6    5
ATOM      5  N1  UNL A   1      32.115  28.988  22.736  1.00  0.00    +0.000 N 
ATOM     96  H5  UNL A   1      32.188  29.133  21.765  1.00  0.00    +0.000 H 
BRANCH    5    3
ATOM      3  C3  UNL A   1      30.862  28.784  23.256  1.00  0.00    +0.000 C 
ATOM      4  O1  UNL A   1      30.426  29.669  23.993  1.00  0.00    +0.000 O 
BRANCH    3    2
ATOM      2  C2  UNL A   1      30.084  27.513  22.865  1.00  0.00    +0.000 C 
ATOM     95  H4  UNL A   1      30.189  27.398  21.806  1.00  0.00    +0.000 H 
BRANCH    2    1
ATOM      1  C1  UNL A   1      28.624  27.722  23.290  1.00  0.00    +0.000 C 
ATOM     92  H1  UNL A   1      28.003  27.766  22.420  1.00  0.00    +0.000 H 
ATOM     93  H2  UNL A   1      28.540  28.639  23.835  1.00  0.00    +0.000 H 
ATOM     94  H3  UNL A   1      28.313  26.908  23.910  1.00  0.00    +0.000 H 
ENDBRANCH    2    1
BRANCH    2   78
ATOM    137  H46 UNL A   1      32.471  23.486  22.504  1.00  0.00    +0.000 H 
ATOM     78  C55 UNL A   1      30.634  26.179  23.400  1.00  0.00    +0.000 C 
ATOM     79  C56 UNL A   1      30.312  25.718  24.691  1.00  0.00    +0.000 C 
ATOM     80  C57 UNL A   1      30.753  24.484  25.175  1.00  0.00    +0.000 C 
ATOM     81  C58 UNL A   1      31.557  23.658  24.393  1.00  0.00    +0.000 C 
ATOM     89  C65 UNL A   1      31.895  24.092  23.109  1.00  0.00    +0.000 C 
ATOM     90  C66 UNL A   1      31.466  25.341  22.627  1.00  0.00    +0.000 C 
ATOM     91 Br1  UNL A   1      32.148  25.829  20.916  1.00  0.00    +0.000 Br
ATOM    124  H33 UNL A   1      29.729  26.312  25.301  1.00  0.00    +0.000 H 
ATOM    125  H34 UNL A   1      30.483  24.180  26.123  1.00  0.00    +0.000 H 
BRANCH   81   82
ATOM     82  C59 UNL A   1      32.072  22.349  24.937  1.00  0.00    +0.000 C 
ATOM    126  H35 UNL A   1      31.818  21.580  24.238  1.00  0.00    +0.000 H 
ATOM    127  H36 UNL A   1      31.615  22.232  25.898  1.00  0.00    +0.000 H 
BRANCH   82   83
ATOM    129  H38 UNL A   1      33.972  23.001  23.190  1.00  0.00    +0.000 H 
ATOM    130  H39 UNL A   1      34.740  21.495  23.521  1.00  0.00    +0.000 H 
ATOM    131  H40 UNL A   1      35.727  24.197  24.030  1.00  0.00    +0.000 H 
ATOM    132  H41 UNL A   1      36.628  22.732  24.083  1.00  0.00    +0.000 H 
ATOM    133  H42 UNL A   1      36.137  24.081  26.338  1.00  0.00    +0.000 H 
ATOM    134  H43 UNL A   1      36.107  22.380  26.401  1.00  0.00    +0.000 H 
ATOM    135  H44 UNL A   1      33.739  24.279  26.070  1.00  0.00    +0.000 H 
ATOM     83  C60 UNL A   1      33.587  22.279  25.185  1.00  0.00    +0.000 C 
ATOM     84  C61 UNL A   1      34.483  22.442  23.946  1.00  0.00    +0.000 C 
ATOM     85  C62 UNL A   1      35.727  23.201  24.419  1.00  0.00    +0.000 C 
ATOM     86  C63 UNL A   1      35.639  23.223  25.937  1.00  0.00    +0.000 C 
ATOM     87  C64 UNL A   1      34.141  23.294  26.189  1.00  0.00    +0.000 C 
ATOM    128  H37 UNL A   1      33.639  21.281  25.565  1.00  0.00    +0.000 H 
BRANCH   87   88
ATOM    136  H45 UNL A   1      33.503  22.009  27.531  1.00  0.00    +0.000 H 
ATOM     88  O3  UNL A   1      33.814  22.928  27.516  1.00  0.00    +0.000 O 
ENDBRANCH   87   88
ENDBRANCH   82   83
ENDBRANCH   81   82
ENDBRANCH    2   78
ENDBRANCH    3    2
ENDBRANCH    5    3
ENDBRANCH    6    5
ENDBRANCH    7    6
ENDBRANCH    8    7
ENDBRANCH    9    8
ENDBRANCH   10    9
ENDBRANCH   11   10
ENDBRANCH   12   11
ENDBRANCH   13   12
ENDBRANCH   15   13
ENDBRANCH   19   18
BRANCH   23   24
ATOM     33  C24 UNL A   1      38.855  31.527  36.472  1.00  0.00    +0.000 C 
ATOM     34  F5  UNL A   1      38.352  30.289  36.349  1.00  0.00    +0.000 F 
ATOM     24  C19 UNL A   1      39.876  31.964  35.613  1.00  0.00    +0.000 C 
ATOM     25  C20 UNL A   1      40.363  33.269  35.783  1.00  0.00    +0.000 C 
ATOM     26  F1  UNL A   1      41.345  33.729  34.994  1.00  0.00    +0.000 F 
ATOM     27  C21 UNL A   1      39.859  34.098  36.782  1.00  0.00    +0.000 C 
ATOM     28  F2  UNL A   1      40.363  35.328  36.947  1.00  0.00    +0.000 F 
ATOM     29  C22 UNL A   1      38.842  33.649  37.612  1.00  0.00    +0.000 C 
ATOM     30  F3  UNL A   1      38.350  34.451  38.565  1.00  0.00    +0.000 F 
ATOM     31  C23 UNL A   1      38.337  32.367  37.454  1.00  0.00    +0.000 C 
ATOM     32  F4  UNL A   1      37.346  31.936  38.247  1.00  0.00    +0.000 F 
ENDBRANCH   23   24
BRANCH   40   41
ATOM     41  C30 UNL A   1      45.523  27.673  34.331  1.00  0.00    +0.000 C 
ATOM     42  C31 UNL A   1      46.730  28.380  34.245  1.00  0.00    +0.000 C 
ATOM     43  F6  UNL A   1      46.814  29.481  33.483  1.00  0.00    +0.000 F 
ATOM     44  C32 UNL A   1      47.870  27.932  34.906  1.00  0.00    +0.000 C 
ATOM     45  F7  UNL A   1      49.026  28.595  34.770  1.00  0.00    +0.000 F 
ATOM     46  C33 UNL A   1      47.816  26.790  35.691  1.00  0.00    +0.000 C 
ATOM     47  F8  UNL A   1      48.914  26.360  36.329  1.00  0.00    +0.000 F 
ATOM     48  C34 UNL A   1      46.626  26.087  35.808  1.00  0.00    +0.000 C 
ATOM     49  F9  UNL A   1      46.569  24.989  36.575  1.00  0.00    +0.000 F 
ATOM     50  C35 UNL A   1      45.491  26.518  35.127  1.00  0.00    +0.000 C 
ATOM     51  F10 UNL A   1      44.358  25.808  35.245  1.00  0.00    +0.000 F 
ENDBRANCH   40   41
BRANCH   55   56
ATOM     65  C44 UNL A   1      42.657  24.948  27.897  1.00  0.00    +0.000 C 
ATOM     66  F15 UNL A   1      41.915  24.355  28.845  1.00  0.00    +0.000 F 
ATOM     56  C39 UNL A   1      42.976  26.308  28.004  1.00  0.00    +0.000 C 
ATOM     57  C40 UNL A   1      43.759  26.877  26.989  1.00  0.00    +0.000 C 
ATOM     58  F11 UNL A   1      44.072  28.180  27.038  1.00  0.00    +0.000 F 
ATOM     59  C41 UNL A   1      44.182  26.123  25.898  1.00  0.00    +0.000 C 
ATOM     60  F12 UNL A   1      44.885  26.703  24.917  1.00  0.00    +0.000 F 
ATOM     61  C42 UNL A   1      43.857  24.777  25.815  1.00  0.00    +0.000 C 
ATOM     62  F13 UNL A   1      44.262  24.051  24.765  1.00  0.00    +0.000 F 
ATOM     63  C43 UNL A   1      43.103  24.187  26.819  1.00  0.00    +0.000 C 
ATOM     64  F14 UNL A   1      42.798  22.884  26.749  1.00  0.00    +0.000 F 
ENDBRANCH   55   56
TORSDOF 20
ENDMDL
MODEL 4
REMARK VINA RESULT:      -9.9      2.380      3.336
ROOT
ATOM     19  C15 UNL A   1      39.584  28.913  29.534  1.00  0.00    +0.000 C 
ATOM     20  C16 UNL A   1      40.370  29.766  30.489  1.00  0.00    +0.000 C 
ATOM     21  N3  UNL A   1      41.576  29.577  30.967  1.00  0.00    +0.000 N 
ATOM     22  C17 UNL A   1      41.837  30.671  31.780  1.00  0.00    +0.000 C 
ATOM     23  C18 UNL A   1      42.927  30.914  32.547  1.00  0.00    +0.000 C 
ATOM     35  C25 UNL A   1      44.062  30.035  32.651  1.00  0.00    +0.000 C 
ATOM     36  C26 UNL A   1      45.193  30.172  33.437  1.00  0.00    +0.000 C 
ATOM     37  C27 UNL A   1      46.039  29.087  33.183  1.00  0.00    +0.000 C 
ATOM     38  C28 UNL A   1      45.418  28.254  32.268  1.00  0.00    +0.000 C 
ATOM     39  N4  UNL A   1      44.209  28.850  31.945  1.00  0.00    +0.000 N 
ATOM     40  C29 UNL A   1      45.890  27.007  31.727  1.00  0.00    +0.000 C 
ATOM     52  C36 UNL A   1      45.214  26.243  30.834  1.00  0.00    +0.000 C 
ATOM     53  N5  UNL A   1      43.973  26.468  30.257  1.00  0.00    +0.000 N 
ATOM     54  C37 UNL A   1      43.765  25.460  29.446  1.00  0.00    +0.000 C 
ATOM     55  C38 UNL A   1      42.572  25.169  28.577  1.00  0.00    +0.000 C 
ATOM     67  C45 UNL A   1      41.521  26.010  28.599  1.00  0.00    +0.000 C 
ATOM     68  C46 UNL A   1      40.291  25.848  27.830  1.00  0.00    +0.000 C 
ATOM     69  C47 UNL A   1      39.478  26.886  28.078  1.00  0.00    +0.000 C 
ATOM     70  C48 UNL A   1      40.119  27.775  29.049  1.00  0.00    +0.000 C 
ATOM     71  N6  UNL A   1      41.328  27.176  29.300  1.00  0.00    +0.000 N 
ATOM     72  C49 UNL A   1      44.868  24.490  29.400  1.00  0.00    +0.000 C 
ATOM     73  C50 UNL A   1      45.706  24.992  30.296  1.00  0.00    +0.000 C 
ATOM     74  C51 UNL A   1      40.686  31.545  31.695  1.00  0.00    +0.000 C 
ATOM     75  C52 UNL A   1      39.729  31.006  30.953  1.00  0.00    +0.000 C 
ATOM    112  H21 UNL A   1      45.379  30.943  34.098  1.00  0.00    +0.000 H 
ATOM    113  H22 UNL A   1      46.968  28.935  33.606  1.00  0.00    +0.000 H 
ATOM    114  H23 UNL A   1      43.552  28.486  31.308  1.00  0.00    +0.000 H 
ATOM    115  H24 UNL A   1      40.081  25.061  27.196  1.00  0.00    +0.000 H 
ATOM    116  H25 UNL A   1      38.550  27.035  27.653  1.00  0.00    +0.000 H 
ATOM    117  H26 UNL A   1      41.994  27.544  29.925  1.00  0.00    +0.000 H 
ATOM    118  H27 UNL A   1      44.966  23.641  28.822  1.00  0.00    +0.000 H 
ATOM    119  H28 UNL A   1      46.595  24.548  30.575  1.00  0.00    +0.000 H 
ATOM    120  H29 UNL A   1      40.620  32.468  32.152  1.00  0.00    +0.000 H 
ATOM    121  H30 UNL A   1      38.781  31.361  30.754  1.00  0.00    +0.000 H 
ENDROOT
BRANCH   19   18
ATOM     76  C53 UNL A   1      38.050  29.790  27.762  1.00  0.00    +0.000 C 
ATOM     77  C54 UNL A   1      36.783  30.170  27.320  1.00  0.00    +0.000 C 
ATOM    110  H19 UNL A   1      35.042  29.530  30.115  1.00  0.00    +0.000 H 
ATOM     15  C11 UNL A   1      35.675  30.017  28.159  1.00  0.00    +0.000 C 
ATOM     16  C12 UNL A   1      35.854  29.600  29.481  1.00  0.00    +0.000 C 
ATOM     17  C13 UNL A   1      37.132  29.276  29.942  1.00  0.00    +0.000 C 
ATOM    111  H20 UNL A   1      37.266  28.991  30.925  1.00  0.00    +0.000 H 
ATOM     18  C14 UNL A   1      38.236  29.337  29.076  1.00  0.00    +0.000 C 
ATOM    122  H31 UNL A   1      38.855  29.843  27.118  1.00  0.00    +0.000 H 
ATOM    123  H32 UNL A   1      36.663  30.565  26.374  1.00  0.00    +0.000 H 
BRANCH   15   13
ATOM     13  C10 UNL A   1      34.302  30.311  27.689  1.00  0.00    +0.000 C 
ATOM     14  O2  UNL A   1      33.961  31.476  27.506  1.00  0.00    +0.000 O 
BRANCH   13   12
ATOM     12  N2  UNL A   1      33.407  29.293  27.480  1.00  0.00    +0.000 N 
ATOM    109  H18 UNL A   1      32.492  29.465  27.802  1.00  0.00    +0.000 H 
BRANCH   12   11
ATOM     11  C9  UNL A   1      33.611  27.997  26.855  1.00  0.00    +0.000 C 
ATOM    108  H17 UNL A   1      32.848  27.339  27.214  1.00  0.00    +0.000 H 
ATOM    107  H16 UNL A   1      34.589  27.643  27.110  1.00  0.00    +0.000 H 
BRANCH   11   10
ATOM    105  H14 UNL A   1      32.461  28.178  25.085  1.00  0.00    +0.000 H 
ATOM     10  C8  UNL A   1      33.495  28.057  25.333  1.00  0.00    +0.000 C 
ATOM    106  H15 UNL A   1      34.108  28.877  25.021  1.00  0.00    +0.000 H 
BRANCH   10    9
ATOM      9  C7  UNL A   1      34.019  26.828  24.589  1.00  0.00    +0.000 C 
ATOM    103  H12 UNL A   1      33.330  26.596  23.805  1.00  0.00    +0.000 H 
ATOM    104  H13 UNL A   1      34.996  27.089  24.238  1.00  0.00    +0.000 H 
BRANCH    9    8
ATOM    101  H10 UNL A   1      34.695  25.858  26.349  1.00  0.00    +0.000 H 
ATOM    102  H11 UNL A   1      33.216  25.178  25.598  1.00  0.00    +0.000 H 
ATOM      8  C6  UNL A   1      34.199  25.573  25.445  1.00  0.00    +0.000 C 
BRANCH    8    7
ATOM     99  H8  UNL A   1      34.550  24.196  23.864  1.00  0.00    +0.000 H 
ATOM    100  H9  UNL A   1      36.009  24.811  24.699  1.00  0.00    +0.000 H 
ATOM      7  C5  UNL A   1      35.011  24.441  24.799  1.00  0.00    +0.000 C 
BRANCH    7    6
ATOM     97  H6  UNL A   1      35.888  22.540  25.222  1.00  0.00    +0.000 H 
ATOM     98  H7  UNL A   1      35.332  23.428  26.640  1.00  0.00    +0.000 H 
ATOM      6  C4  UNL A   1      35.112  23.156  25.629  1.00  0.00    +0.000 C 
BRANCH    6    5
ATOM      5  N1  UNL A   1      33.866  22.412  25.619  1.00  0.00    +0.000 N 
ATOM     96  H5  UNL A   1      33.298  22.468  26.421  1.00  0.00    +0.000 H 
BRANCH    5    3
ATOM      3  C3  UNL A   1      33.424  21.638  24.577  1.00  0.00    +0.000 C 
ATOM      4  O1  UNL A   1      34.176  20.736  24.209  1.00  0.00    +0.000 O 
BRANCH    3    2
ATOM      2  C2  UNL A   1      32.033  21.915  23.974  1.00  0.00    +0.000 C 
ATOM     95  H4  UNL A   1      31.328  21.349  24.547  1.00  0.00    +0.000 H 
BRANCH    2    1
ATOM      1  C1  UNL A   1      32.079  21.480  22.503  1.00  0.00    +0.000 C 
ATOM     92  H1  UNL A   1      32.606  20.553  22.421  1.00  0.00    +0.000 H 
ATOM     93  H2  UNL A   1      32.582  22.228  21.926  1.00  0.00    +0.000 H 
ATOM     94  H3  UNL A   1      31.081  21.357  22.136  1.00  0.00    +0.000 H 
ENDBRANCH    2    1
BRANCH    2   78
ATOM    137  H46 UNL A   1      29.731  25.362  26.179  1.00  0.00    +0.000 H 
ATOM     78  C55 UNL A   1      31.497  23.351  24.114  1.00  0.00    +0.000 C 
ATOM     79  C56 UNL A   1      31.650  24.295  23.080  1.00  0.00    +0.000 C 
ATOM     80  C57 UNL A   1      31.122  25.586  23.163  1.00  0.00    +0.000 C 
ATOM     81  C58 UNL A   1      30.427  25.999  24.297  1.00  0.00    +0.000 C 
ATOM     89  C65 UNL A   1      30.262  25.084  25.339  1.00  0.00    +0.000 C 
ATOM     90  C66 UNL A   1      30.808  23.791  25.264  1.00  0.00    +0.000 C 
ATOM     91 Br1  UNL A   1      30.613  22.735  26.839  1.00  0.00    +0.000 Br
ATOM    124  H33 UNL A   1      32.172  24.024  22.232  1.00  0.00    +0.000 H 
ATOM    125  H34 UNL A   1      31.248  26.241  22.377  1.00  0.00    +0.000 H 
BRANCH   81   82
ATOM     82  C59 UNL A   1      29.899  27.408  24.403  1.00  0.00    +0.000 C 
ATOM    126  H35 UNL A   1      30.626  27.993  24.926  1.00  0.00    +0.000 H 
ATOM    127  H36 UNL A   1      28.959  27.330  24.908  1.00  0.00    +0.000 H 
BRANCH   82   83
ATOM    129  H38 UNL A   1      27.657  28.708  23.792  1.00  0.00    +0.000 H 
ATOM    130  H39 UNL A   1      27.584  27.811  22.323  1.00  0.00    +0.000 H 
ATOM    131  H40 UNL A   1      27.926  30.689  22.688  1.00  0.00    +0.000 H 
ATOM    132  H41 UNL A   1      27.548  29.862  21.228  1.00  0.00    +0.000 H 
ATOM    133  H42 UNL A   1      29.931  31.039  21.520  1.00  0.00    +0.000 H 
ATOM    134  H43 UNL A   1      29.868  29.556  20.687  1.00  0.00    +0.000 H 
ATOM    135  H44 UNL A   1      30.529  30.016  23.631  1.00  0.00    +0.000 H 
ATOM     83  C60 UNL A   1      29.599  28.112  23.069  1.00  0.00    +0.000 C 
ATOM     84  C61 UNL A   1      28.143  28.554  22.851  1.00  0.00    +0.000 C 
ATOM     85  C62 UNL A   1      28.212  29.867  22.067  1.00  0.00    +0.000 C 
ATOM     86  C63 UNL A   1      29.663  30.009  21.634  1.00  0.00    +0.000 C 
ATOM     87  C64 UNL A   1      30.424  29.369  22.785  1.00  0.00    +0.000 C 
ATOM    128  H37 UNL A   1      29.860  27.313  22.408  1.00  0.00    +0.000 H 
BRANCH   87   88
ATOM    136  H45 UNL A   1      32.305  29.832  22.460  1.00  0.00    +0.000 H 
ATOM     88  O3  UNL A   1      31.750  29.038  22.416  1.00  0.00    +0.000 O 
ENDBRANCH   87   88
ENDBRANCH   82   83
ENDBRANCH   81   82
ENDBRANCH    2   78
ENDBRANCH    3    2
ENDBRANCH    5    3
ENDBRANCH    6    5
ENDBRANCH    7    6
ENDBRANCH    8    7
ENDBRANCH    9    8
ENDBRANCH   10    9
ENDBRANCH   11   10
ENDBRANCH   12   11
ENDBRANCH   13   12
ENDBRANCH   15   13
ENDBRANCH   19   18
BRANCH   23   24
ATOM     33  C24 UNL A   1      42.387  32.211  34.643  1.00  0.00    +0.000 C 
ATOM     34  F5  UNL A   1      41.879  31.095  35.190  1.00  0.00    +0.000 F 
ATOM     24  C19 UNL A   1      42.942  32.178  33.354  1.00  0.00    +0.000 C 
ATOM     25  C20 UNL A   1      43.454  33.374  32.829  1.00  0.00    +0.000 C 
ATOM     26  F1  UNL A   1      44.005  33.391  31.606  1.00  0.00    +0.000 F 
ATOM     27  C21 UNL A   1      43.426  34.552  33.570  1.00  0.00    +0.000 C 
ATOM     28  F2  UNL A   1      43.952  35.675  33.061  1.00  0.00    +0.000 F 
ATOM     29  C22 UNL A   1      42.862  34.564  34.837  1.00  0.00    +0.000 C 
ATOM     30  F3  UNL A   1      42.825  35.702  35.545  1.00  0.00    +0.000 F 
ATOM     31  C23 UNL A   1      42.338  33.397  35.372  1.00  0.00    +0.000 C 
ATOM     32  F4  UNL A   1      41.782  33.409  36.591  1.00  0.00    +0.000 F 
ENDBRANCH   23   24
BRANCH   40   41
ATOM     41  C30 UNL A   1      47.221  26.496  32.192  1.00  0.00    +0.000 C 
ATOM     42  C31 UNL A   1      48.416  26.895  31.577  1.00  0.00    +0.000 C 
ATOM     43  F6  UNL A   1      48.387  27.724  30.521  1.00  0.00    +0.000 F 
ATOM     44  C32 UNL A   1      49.644  26.408  32.015  1.00  0.00    +0.000 C 
ATOM     45  F7  UNL A   1      50.769  26.763  31.380  1.00  0.00    +0.000 F 
ATOM     46  C33 UNL A   1      49.703  25.540  33.095  1.00  0.00    +0.000 C 
ATOM     47  F8  UNL A   1      50.886  25.072  33.517  1.00  0.00    +0.000 F 
ATOM     48  C34 UNL A   1      48.535  25.150  33.733  1.00  0.00    +0.000 C 
ATOM     49  F9  UNL A   1      48.591  24.320  34.784  1.00  0.00    +0.000 F 
ATOM     50  C35 UNL A   1      47.304  25.614  33.280  1.00  0.00    +0.000 C 
ATOM     51  F10 UNL A   1      46.189  25.206  33.907  1.00  0.00    +0.000 F 
ENDBRANCH   40   41
BRANCH   55   56
ATOM     65  C44 UNL A   1      42.122  22.717  28.226  1.00  0.00    +0.000 C 
ATOM     66  F15 UNL A   1      41.766  22.602  29.514  1.00  0.00    +0.000 F 
ATOM     56  C39 UNL A   1      42.538  23.956  27.720  1.00  0.00    +0.000 C 
ATOM     57  C40 UNL A   1      42.905  24.020  26.369  1.00  0.00    +0.000 C 
ATOM     58  F11 UNL A   1      43.289  25.189  25.835  1.00  0.00    +0.000 F 
ATOM     59  C41 UNL A   1      42.832  22.897  25.549  1.00  0.00    +0.000 C 
ATOM     60  F12 UNL A   1      43.140  22.997  24.249  1.00  0.00    +0.000 F 
ATOM     61  C42 UNL A   1      42.421  21.680  26.072  1.00  0.00    +0.000 C 
ATOM     62  F13 UNL A   1      42.350  20.599  25.284  1.00  0.00    +0.000 F 
ATOM     63  C43 UNL A   1      42.075  21.587  27.413  1.00  0.00    +0.000 C 
ATOM     64  F14 UNL A   1      41.690  20.410  27.925  1.00  0.00    +0.000 F 
ENDBRANCH   55   56
TORSDOF 20
ENDMDL
MODEL 5
REMARK VINA RESULT:      -9.9      1.083      2.055
ROOT
ATOM     19  C15 UNL A   1      38.286  30.075  30.037  1.00  0.00    +0.000 C 
ATOM     20  C16 UNL A   1      38.581  30.537  31.437  1.00  0.00    +0.000 C 
ATOM     21  N3  UNL A   1      39.599  30.242  32.208  1.00  0.00    +0.000 N 
ATOM     22  C17 UNL A   1      39.401  30.953  33.384  1.00  0.00    +0.000 C 
ATOM     23  C18 UNL A   1      40.147  30.939  34.515  1.00  0.00    +0.000 C 
ATOM     35  C25 UNL A   1      41.336  30.149  34.698  1.00  0.00    +0.000 C 
ATOM     36  C26 UNL A   1      42.133  30.033  35.823  1.00  0.00    +0.000 C 
ATOM     37  C27 UNL A   1      43.196  29.175  35.523  1.00  0.00    +0.000 C 
ATOM     38  C28 UNL A   1      43.040  28.725  34.222  1.00  0.00    +0.000 C 
ATOM     39  N4  UNL A   1      41.899  29.335  33.726  1.00  0.00    +0.000 N 
ATOM     40  C29 UNL A   1      43.868  27.808  33.486  1.00  0.00    +0.000 C 
ATOM     52  C36 UNL A   1      43.642  27.410  32.210  1.00  0.00    +0.000 C 
ATOM     53  N5  UNL A   1      42.614  27.774  31.353  1.00  0.00    +0.000 N 
ATOM     54  C37 UNL A   1      42.846  27.145  30.227  1.00  0.00    +0.000 C 
ATOM     55  C38 UNL A   1      42.042  27.147  28.954  1.00  0.00    +0.000 C 
ATOM     67  C45 UNL A   1      40.901  27.859  28.898  1.00  0.00    +0.000 C 
ATOM     68  C46 UNL A   1      40.011  27.940  27.744  1.00  0.00    +0.000 C 
ATOM     69  C47 UNL A   1      38.989  28.760  28.035  1.00  0.00    +0.000 C 
ATOM     70  C48 UNL A   1      39.137  29.240  29.410  1.00  0.00    +0.000 C 
ATOM     71  N6  UNL A   1      40.300  28.655  29.843  1.00  0.00    +0.000 N 
ATOM     72  C49 UNL A   1      44.066  26.326  30.237  1.00  0.00    +0.000 C 
ATOM     73  C50 UNL A   1      44.490  26.489  31.481  1.00  0.00    +0.000 C 
ATOM     74  C51 UNL A   1      38.193  31.730  33.210  1.00  0.00    +0.000 C 
ATOM     75  C52 UNL A   1      37.618  31.468  32.045  1.00  0.00    +0.000 C 
ATOM    112  H21 UNL A   1      41.970  30.500  36.729  1.00  0.00    +0.000 H 
ATOM    113  H22 UNL A   1      43.966  28.921  36.162  1.00  0.00    +0.000 H 
ATOM    114  H23 UNL A   1      41.541  29.209  32.817  1.00  0.00    +0.000 H 
ATOM    115  H24 UNL A   1      40.146  27.447  26.847  1.00  0.00    +0.000 H 
ATOM    116  H25 UNL A   1      38.222  29.012  27.392  1.00  0.00    +0.000 H 
ATOM    117  H26 UNL A   1      40.669  28.790  30.746  1.00  0.00    +0.000 H 
ATOM    118  H27 UNL A   1      44.483  25.770  29.474  1.00  0.00    +0.000 H 
ATOM    119  H28 UNL A   1      45.317  26.020  31.881  1.00  0.00    +0.000 H 
ATOM    120  H29 UNL A   1      37.828  32.403  33.902  1.00  0.00    +0.000 H 
ATOM    121  H30 UNL A   1      36.726  31.822  31.664  1.00  0.00    +0.000 H 
ENDROOT
BRANCH   19   18
ATOM     76  C53 UNL A   1      36.018  29.704  29.046  1.00  0.00    +0.000 C 
ATOM     77  C54 UNL A   1      34.880  30.169  28.387  1.00  0.00    +0.000 C 
ATOM    110  H19 UNL A   1      35.764  33.386  28.031  1.00  0.00    +0.000 H 
ATOM     15  C11 UNL A   1      34.761  31.526  28.072  1.00  0.00    +0.000 C 
ATOM     16  C12 UNL A   1      35.833  32.392  28.305  1.00  0.00    +0.000 C 
ATOM     17  C13 UNL A   1      36.997  31.914  28.910  1.00  0.00    +0.000 C 
ATOM    111  H20 UNL A   1      37.796  32.549  29.060  1.00  0.00    +0.000 H 
ATOM     18  C14 UNL A   1      37.086  30.572  29.316  1.00  0.00    +0.000 C 
ATOM    122  H31 UNL A   1      36.074  28.715  29.336  1.00  0.00    +0.000 H 
ATOM    123  H32 UNL A   1      34.126  29.512  28.133  1.00  0.00    +0.000 H 
BRANCH   15   13
ATOM     13  C10 UNL A   1      33.525  32.074  27.468  1.00  0.00    +0.000 C 
ATOM     14  O2  UNL A   1      33.359  33.289  27.427  1.00  0.00    +0.000 O 
BRANCH   13   12
ATOM     12  N2  UNL A   1      32.560  31.232  26.978  1.00  0.00    +0.000 N 
ATOM    109  H18 UNL A   1      31.792  31.079  27.576  1.00  0.00    +0.000 H 
BRANCH   12   11
ATOM     11  C9  UNL A   1      32.504  30.532  25.705  1.00  0.00    +0.000 C 
ATOM    108  H17 UNL A   1      33.486  30.163  25.494  1.00  0.00    +0.000 H 
ATOM    107  H16 UNL A   1      32.170  31.217  24.952  1.00  0.00    +0.000 H 
BRANCH   11   10
ATOM    105  H14 UNL A   1      30.562  29.699  25.571  1.00  0.00    +0.000 H 
ATOM     10  C8  UNL A   1      31.555  29.337  25.736  1.00  0.00    +0.000 C 
ATOM    106  H15 UNL A   1      31.898  28.667  24.974  1.00  0.00    +0.000 H 
BRANCH   10    9
ATOM      9  C7  UNL A   1      31.557  28.534  27.038  1.00  0.00    +0.000 C 
ATOM    103  H12 UNL A   1      32.538  28.593  27.461  1.00  0.00    +0.000 H 
ATOM    104  H13 UNL A   1      30.797  28.969  27.654  1.00  0.00    +0.000 H 
BRANCH    9    8
ATOM    101  H10 UNL A   1      30.726  26.742  27.807  1.00  0.00    +0.000 H 
ATOM    102  H11 UNL A   1      30.552  26.993  26.040  1.00  0.00    +0.000 H 
ATOM      8  C6  UNL A   1      31.191  27.056  26.896  1.00  0.00    +0.000 C 
BRANCH    8    7
ATOM     99  H8  UNL A   1      32.743  26.331  25.637  1.00  0.00    +0.000 H 
ATOM    100  H9  UNL A   1      33.076  26.275  27.394  1.00  0.00    +0.000 H 
ATOM      7  C5  UNL A   1      32.365  26.108  26.613  1.00  0.00    +0.000 C 
BRANCH    7    6
ATOM     97  H6  UNL A   1      32.265  24.232  27.629  1.00  0.00    +0.000 H 
ATOM     98  H7  UNL A   1      30.977  24.504  26.457  1.00  0.00    +0.000 H 
ATOM      6  C4  UNL A   1      32.022  24.614  26.660  1.00  0.00    +0.000 C 
BRANCH    6    5
ATOM      5  N1  UNL A   1      32.760  23.864  25.660  1.00  0.00    +0.000 N 
ATOM     96  H5  UNL A   1      32.983  22.928  25.867  1.00  0.00    +0.000 H 
BRANCH    5    3
ATOM      3  C3  UNL A   1      33.168  24.363  24.449  1.00  0.00    +0.000 C 
ATOM      4  O1  UNL A   1      34.339  24.737  24.380  1.00  0.00    +0.000 O 
BRANCH    3    2
ATOM      2  C2  UNL A   1      32.173  24.389  23.273  1.00  0.00    +0.000 C 
ATOM     95  H4  UNL A   1      31.529  23.543  23.392  1.00  0.00    +0.000 H 
BRANCH    2    1
ATOM      1  C1  UNL A   1      32.994  24.324  21.979  1.00  0.00    +0.000 C 
ATOM     92  H1  UNL A   1      33.972  23.948  22.195  1.00  0.00    +0.000 H 
ATOM     93  H2  UNL A   1      33.076  25.305  21.558  1.00  0.00    +0.000 H 
ATOM     94  H3  UNL A   1      32.509  23.675  21.279  1.00  0.00    +0.000 H 
ENDBRANCH    2    1
BRANCH    2   78
ATOM    137  H46 UNL A   1      30.967  28.884  22.649  1.00  0.00    +0.000 H 
ATOM     78  C55 UNL A   1      31.177  25.562  23.242  1.00  0.00    +0.000 C 
ATOM     79  C56 UNL A   1      29.833  25.394  23.628  1.00  0.00    +0.000 C 
ATOM     80  C57 UNL A   1      28.927  26.457  23.662  1.00  0.00    +0.000 C 
ATOM     81  C58 UNL A   1      29.321  27.740  23.294  1.00  0.00    +0.000 C 
ATOM     89  C65 UNL A   1      30.648  27.936  22.904  1.00  0.00    +0.000 C 
ATOM     90  C66 UNL A   1      31.556  26.865  22.852  1.00  0.00    +0.000 C 
ATOM     91 Br1  UNL A   1      33.277  27.292  22.154  1.00  0.00    +0.000 Br
ATOM    124  H33 UNL A   1      29.506  24.452  23.894  1.00  0.00    +0.000 H 
ATOM    125  H34 UNL A   1      27.955  26.289  23.963  1.00  0.00    +0.000 H 
BRANCH   81   82
ATOM     82  C59 UNL A   1      28.328  28.876  23.286  1.00  0.00    +0.000 C 
ATOM    126  H35 UNL A   1      28.104  29.124  24.302  1.00  0.00    +0.000 H 
ATOM    127  H36 UNL A   1      27.485  28.522  22.729  1.00  0.00    +0.000 H 
BRANCH   82   83
ATOM    129  H38 UNL A   1      27.311  29.865  21.033  1.00  0.00    +0.000 H 
ATOM    130  H39 UNL A   1      28.914  30.002  20.415  1.00  0.00    +0.000 H 
ATOM    131  H40 UNL A   1      26.994  32.126  20.994  1.00  0.00    +0.000 H 
ATOM    132  H41 UNL A   1      28.457  32.260  20.098  1.00  0.00    +0.000 H 
ATOM    133  H42 UNL A   1      28.240  33.441  22.487  1.00  0.00    +0.000 H 
ATOM    134  H43 UNL A   1      29.737  32.744  22.072  1.00  0.00    +0.000 H 
ATOM    135  H44 UNL A   1      27.494  31.502  23.729  1.00  0.00    +0.000 H 
ATOM     83  C60 UNL A   1      28.788  30.159  22.576  1.00  0.00    +0.000 C 
ATOM     84  C61 UNL A   1      28.242  30.380  21.156  1.00  0.00    +0.000 C 
ATOM     85  C62 UNL A   1      28.037  31.890  21.010  1.00  0.00    +0.000 C 
ATOM     86  C63 UNL A   1      28.703  32.513  22.227  1.00  0.00    +0.000 C 
ATOM     87  C64 UNL A   1      28.478  31.468  23.309  1.00  0.00    +0.000 C 
ATOM    128  H37 UNL A   1      29.838  29.960  22.556  1.00  0.00    +0.000 H 
BRANCH   87   88
ATOM    136  H45 UNL A   1      30.024  32.311  24.178  1.00  0.00    +0.000 H 
ATOM     88  O3  UNL A   1      29.348  31.655  24.409  1.00  0.00    +0.000 O 
ENDBRANCH   87   88
ENDBRANCH   82   83
ENDBRANCH   81   82
ENDBRANCH    2   78
ENDBRANCH    3    2
ENDBRANCH    5    3
ENDBRANCH    6    5
ENDBRANCH    7    6
ENDBRANCH    8    7
ENDBRANCH    9    8
ENDBRANCH   10    9
ENDBRANCH   11   10
ENDBRANCH   12   11
ENDBRANCH   13   12
ENDBRANCH   15   13
ENDBRANCH   19   18
BRANCH   23   24
ATOM     33  C24 UNL A   1      38.659  31.367  36.507  1.00  0.00    +0.000 C 
ATOM     34  F5  UNL A   1      38.100  30.159  36.335  1.00  0.00    +0.000 F 
ATOM     24  C19 UNL A   1      39.691  31.796  35.658  1.00  0.00    +0.000 C 
ATOM     25  C20 UNL A   1      40.237  33.070  35.880  1.00  0.00    +0.000 C 
ATOM     26  F1  UNL A   1      41.232  33.520  35.103  1.00  0.00    +0.000 F 
ATOM     27  C21 UNL A   1      39.778  33.875  36.919  1.00  0.00    +0.000 C 
ATOM     28  F2  UNL A   1      40.337  35.074  37.133  1.00  0.00    +0.000 F 
ATOM     29  C22 UNL A   1      38.748  33.435  37.738  1.00  0.00    +0.000 C 
ATOM     30  F3  UNL A   1      38.300  34.216  38.731  1.00  0.00    +0.000 F 
ATOM     31  C23 UNL A   1      38.186  32.185  37.530  1.00  0.00    +0.000 C 
ATOM     32  F4  UNL A   1      37.183  31.763  38.313  1.00  0.00    +0.000 F 
ENDBRANCH   23   24
BRANCH   40   41
ATOM     41  C30 UNL A   1      45.066  27.228  34.179  1.00  0.00    +0.000 C 
ATOM     42  C31 UNL A   1      46.313  27.867  34.146  1.00  0.00    +0.000 C 
ATOM     43  F6  UNL A   1      46.470  29.005  33.452  1.00  0.00    +0.000 F 
ATOM     44  C32 UNL A   1      47.418  27.314  34.788  1.00  0.00    +0.000 C 
ATOM     45  F7  UNL A   1      48.612  27.916  34.701  1.00  0.00    +0.000 F 
ATOM     46  C33 UNL A   1      47.289  26.132  35.501  1.00  0.00    +0.000 C 
ATOM     47  F8  UNL A   1      48.352  25.601  36.120  1.00  0.00    +0.000 F 
ATOM     48  C34 UNL A   1      46.058  25.494  35.566  1.00  0.00    +0.000 C 
ATOM     49  F9  UNL A   1      45.929  24.357  36.264  1.00  0.00    +0.000 F 
ATOM     50  C35 UNL A   1      44.959  26.031  34.903  1.00  0.00    +0.000 C 
ATOM     51  F10 UNL A   1      43.785  25.383  34.969  1.00  0.00    +0.000 F 
ENDBRANCH   40   41
BRANCH   55   56
ATOM     65  C44 UNL A   1      43.355  26.899  26.821  1.00  0.00    +0.000 C 
ATOM     66  F15 UNL A   1      43.782  28.164  26.943  1.00  0.00    +0.000 F 
ATOM     56  C39 UNL A   1      42.487  26.356  27.778  1.00  0.00    +0.000 C 
ATOM     57  C40 UNL A   1      42.065  25.031  27.601  1.00  0.00    +0.000 C 
ATOM     58  F11 UNL A   1      41.251  24.462  28.503  1.00  0.00    +0.000 F 
ATOM     59  C41 UNL A   1      42.514  24.271  26.524  1.00  0.00    +0.000 C 
ATOM     60  F12 UNL A   1      42.136  22.991  26.406  1.00  0.00    +0.000 F 
ATOM     61  C42 UNL A   1      43.369  24.830  25.587  1.00  0.00    +0.000 C 
ATOM     62  F13 UNL A   1      43.803  24.098  24.552  1.00  0.00    +0.000 F 
ATOM     63  C43 UNL A   1      43.782  26.147  25.729  1.00  0.00    +0.000 C 
ATOM     64  F14 UNL A   1      44.599  26.694  24.819  1.00  0.00    +0.000 F 
ENDBRANCH   55   56
TORSDOF 20
ENDMDL
MODEL 6
REMARK VINA RESULT:      -9.5     25.939     34.059
ROOT
ATOM     19  C15 UNL A   1      19.095  17.965   5.766  1.00  0.00    +0.000 C 
ATOM     20  C16 UNL A   1      18.062  17.858   6.852  1.00  0.00    +0.000 C 
ATOM     21  N3  UNL A   1      16.911  18.473   6.962  1.00  0.00    +0.000 N 
ATOM     22  C17 UNL A   1      16.337  17.996   8.133  1.00  0.00    +0.000 C 
ATOM     23  C18 UNL A   1      15.171  18.368   8.715  1.00  0.00    +0.000 C 
ATOM     35  C25 UNL A   1      14.280  19.369   8.190  1.00  0.00    +0.000 C 
ATOM     36  C26 UNL A   1      13.100  19.847   8.732  1.00  0.00    +0.000 C 
ATOM     37  C27 UNL A   1      12.564  20.793   7.853  1.00  0.00    +0.000 C 
ATOM     38  C28 UNL A   1      13.429  20.933   6.780  1.00  0.00    +0.000 C 
ATOM     39  N4  UNL A   1      14.475  20.049   6.997  1.00  0.00    +0.000 N 
ATOM     40  C29 UNL A   1      13.313  21.806   5.643  1.00  0.00    +0.000 C 
ATOM     52  C36 UNL A   1      14.213  21.889   4.633  1.00  0.00    +0.000 C 
ATOM     53  N5  UNL A   1      15.398  21.188   4.461  1.00  0.00    +0.000 N 
ATOM     54  C37 UNL A   1      15.899  21.602   3.323  1.00  0.00    +0.000 C 
ATOM     55  C38 UNL A   1      17.183  21.203   2.649  1.00  0.00    +0.000 C 
ATOM     67  C45 UNL A   1      17.993  20.311   3.250  1.00  0.00    +0.000 C 
ATOM     68  C46 UNL A   1      19.273  19.845   2.728  1.00  0.00    +0.000 C 
ATOM     69  C47 UNL A   1      19.790  18.941   3.575  1.00  0.00    +0.000 C 
ATOM     70  C48 UNL A   1      18.888  18.786   4.718  1.00  0.00    +0.000 C 
ATOM     71  N6  UNL A   1      17.848  19.637   4.438  1.00  0.00    +0.000 N 
ATOM     72  C49 UNL A   1      15.071  22.601   2.632  1.00  0.00    +0.000 C 
ATOM     73  C50 UNL A   1      14.079  22.771   3.492  1.00  0.00    +0.000 C 
ATOM     74  C51 UNL A   1      17.243  17.006   8.675  1.00  0.00    +0.000 C 
ATOM     75  C52 UNL A   1      18.349  16.922   7.950  1.00  0.00    +0.000 C 
ATOM    112  H21 UNL A   1      12.688  19.555   9.632  1.00  0.00    +0.000 H 
ATOM    113  H22 UNL A   1      11.674  21.300   7.981  1.00  0.00    +0.000 H 
ATOM    114  H23 UNL A   1      15.242  19.924   6.393  1.00  0.00    +0.000 H 
ATOM    115  H24 UNL A   1      19.712  20.160   1.847  1.00  0.00    +0.000 H 
ATOM    116  H25 UNL A   1      20.680  18.436   3.442  1.00  0.00    +0.000 H 
ATOM    117  H26 UNL A   1      17.072  19.754   5.032  1.00  0.00    +0.000 H 
ATOM    118  H27 UNL A   1      15.224  23.051   1.715  1.00  0.00    +0.000 H 
ATOM    119  H28 UNL A   1      13.308  23.446   3.367  1.00  0.00    +0.000 H 
ATOM    120  H29 UNL A   1      17.051  16.438   9.514  1.00  0.00    +0.000 H 
ATOM    121  H30 UNL A   1      19.193  16.351   8.114  1.00  0.00    +0.000 H 
ENDROOT
BRANCH   19   18
ATOM     76  C53 UNL A   1      21.494  17.640   6.399  1.00  0.00    +0.000 C 
ATOM     77  C54 UNL A   1      22.647  16.857   6.462  1.00  0.00    +0.000 C 
ATOM    110  H19 UNL A   1      21.461  14.066   5.027  1.00  0.00    +0.000 H 
ATOM     15  C11 UNL A   1      22.618  15.531   6.018  1.00  0.00    +0.000 C 
ATOM     16  C12 UNL A   1      21.470  15.030   5.397  1.00  0.00    +0.000 C 
ATOM     17  C13 UNL A   1      20.334  15.834   5.280  1.00  0.00    +0.000 C 
ATOM    111  H20 UNL A   1      19.495  15.470   4.801  1.00  0.00    +0.000 H 
ATOM     18  C14 UNL A   1      20.326  17.135   5.810  1.00  0.00    +0.000 C 
ATOM    122  H31 UNL A   1      21.502  18.595   6.789  1.00  0.00    +0.000 H 
ATOM    123  H32 UNL A   1      23.522  17.256   6.837  1.00  0.00    +0.000 H 
BRANCH   15   13
ATOM     13  C10 UNL A   1      23.790  14.640   6.165  1.00  0.00    +0.000 C 
ATOM     14  O2  UNL A   1      24.447  14.335   5.174  1.00  0.00    +0.000 O 
BRANCH   13   12
ATOM     12  N2  UNL A   1      24.130  14.137   7.395  1.00  0.00    +0.000 N 
ATOM    109  H18 UNL A   1      24.026  13.163   7.495  1.00  0.00    +0.000 H 
BRANCH   12   11
ATOM     11  C9  UNL A   1      24.621  14.833   8.573  1.00  0.00    +0.000 C 
ATOM    108  H17 UNL A   1      24.673  15.875   8.338  1.00  0.00    +0.000 H 
ATOM    107  H16 UNL A   1      25.583  14.438   8.828  1.00  0.00    +0.000 H 
BRANCH   11   10
ATOM    105  H14 UNL A   1      22.745  14.331   9.418  1.00  0.00    +0.000 H 
ATOM     10  C8  UNL A   1      23.693  14.674   9.776  1.00  0.00    +0.000 C 
ATOM    106  H15 UNL A   1      24.178  13.982  10.434  1.00  0.00    +0.000 H 
BRANCH   10    9
ATOM      9  C7  UNL A   1      23.460  15.945  10.593  1.00  0.00    +0.000 C 
ATOM    103  H12 UNL A   1      22.411  16.025  10.788  1.00  0.00    +0.000 H 
ATOM    104  H13 UNL A   1      24.054  15.842  11.477  1.00  0.00    +0.000 H 
BRANCH    9    8
ATOM    101  H10 UNL A   1      24.882  17.493  10.315  1.00  0.00    +0.000 H 
ATOM    102  H11 UNL A   1      23.911  17.052   8.874  1.00  0.00    +0.000 H 
ATOM      8  C6  UNL A   1      23.916  17.244   9.927  1.00  0.00    +0.000 C 
BRANCH    8    7
ATOM     99  H8  UNL A   1      23.554  19.338   9.903  1.00  0.00    +0.000 H 
ATOM    100  H9  UNL A   1      22.153  18.301   9.498  1.00  0.00    +0.000 H 
ATOM      7  C5  UNL A   1      22.997  18.455  10.137  1.00  0.00    +0.000 C 
BRANCH    7    6
ATOM     97  H6  UNL A   1      21.446  18.204  11.584  1.00  0.00    +0.000 H 
ATOM     98  H7  UNL A   1      23.081  18.086  12.229  1.00  0.00    +0.000 H 
ATOM      6  C4  UNL A   1      22.436  18.609  11.556  1.00  0.00    +0.000 C 
BRANCH    6    5
ATOM      5  N1  UNL A   1      22.387  20.001  11.964  1.00  0.00    +0.000 N 
ATOM     96  H5  UNL A   1      21.769  20.595  11.479  1.00  0.00    +0.000 H 
BRANCH    5    3
ATOM      3  C3  UNL A   1      23.137  20.550  12.972  1.00  0.00    +0.000 C 
ATOM      4  O1  UNL A   1      22.746  20.338  14.120  1.00  0.00    +0.000 O 
BRANCH    3    2
ATOM      2  C2  UNL A   1      24.408  21.344  12.616  1.00  0.00    +0.000 C 
ATOM     95  H4  UNL A   1      24.993  21.411  13.511  1.00  0.00    +0.000 H 
BRANCH    2    1
ATOM      1  C1  UNL A   1      23.960  22.719  12.104  1.00  0.00    +0.000 C 
ATOM     92  H1  UNL A   1      23.361  23.199  12.849  1.00  0.00    +0.000 H 
ATOM     93  H2  UNL A   1      23.385  22.596  11.210  1.00  0.00    +0.000 H 
ATOM     94  H3  UNL A   1      24.820  23.320  11.895  1.00  0.00    +0.000 H 
ENDBRANCH    2    1
BRANCH    2   78
ATOM    137  H46 UNL A   1      27.647  18.174  11.387  1.00  0.00    +0.000 H 
ATOM     78  C55 UNL A   1      25.384  20.674  11.632  1.00  0.00    +0.000 C 
ATOM     79  C56 UNL A   1      25.585  21.186  10.336  1.00  0.00    +0.000 C 
ATOM     80  C57 UNL A   1      26.508  20.627   9.447  1.00  0.00    +0.000 C 
ATOM     81  C58 UNL A   1      27.262  19.515   9.810  1.00  0.00    +0.000 C 
ATOM     89  C65 UNL A   1      27.081  18.984  11.090  1.00  0.00    +0.000 C 
ATOM     90  C66 UNL A   1      26.141  19.534  11.978  1.00  0.00    +0.000 C 
ATOM     91 Br1  UNL A   1      25.925  18.588  13.619  1.00  0.00    +0.000 Br
ATOM    124  H33 UNL A   1      25.031  22.001  10.031  1.00  0.00    +0.000 H 
ATOM    125  H34 UNL A   1      26.631  21.043   8.512  1.00  0.00    +0.000 H 
BRANCH   81   82
ATOM     82  C59 UNL A   1      28.222  18.886   8.831  1.00  0.00    +0.000 C 
ATOM    126  H35 UNL A   1      29.088  18.572   9.375  1.00  0.00    +0.000 H 
ATOM    127  H36 UNL A   1      28.420  19.636   8.094  1.00  0.00    +0.000 H 
BRANCH   82   83
ATOM    129  H38 UNL A   1      26.234  18.915   7.061  1.00  0.00    +0.000 H 
ATOM    130  H39 UNL A   1      25.523  17.586   7.895  1.00  0.00    +0.000 H 
ATOM    131  H40 UNL A   1      26.569  17.680   5.169  1.00  0.00    +0.000 H 
ATOM    132  H41 UNL A   1      25.594  16.448   5.868  1.00  0.00    +0.000 H 
ATOM    133  H42 UNL A   1      28.145  15.943   5.250  1.00  0.00    +0.000 H 
ATOM    134  H43 UNL A   1      27.513  15.246   6.669  1.00  0.00    +0.000 H 
ATOM    135  H44 UNL A   1      29.128  17.824   6.414  1.00  0.00    +0.000 H 
ATOM     83  C60 UNL A   1      27.685  17.671   8.057  1.00  0.00    +0.000 C 
ATOM     84  C61 UNL A   1      26.363  17.880   7.302  1.00  0.00    +0.000 C 
ATOM     85  C62 UNL A   1      26.467  17.045   6.023  1.00  0.00    +0.000 C 
ATOM     86  C63 UNL A   1      27.711  16.186   6.197  1.00  0.00    +0.000 C 
ATOM     87  C64 UNL A   1      28.633  17.084   7.007  1.00  0.00    +0.000 C 
ATOM    128  H37 UNL A   1      27.553  17.004   8.883  1.00  0.00    +0.000 H 
BRANCH   87   88
ATOM    136  H45 UNL A   1      29.300  15.666   8.191  1.00  0.00    +0.000 H 
ATOM     88  O3  UNL A   1      29.678  16.350   7.616  1.00  0.00    +0.000 O 
ENDBRANCH   87   88
ENDBRANCH   82   83
ENDBRANCH   81   82
ENDBRANCH    2   78
ENDBRANCH    3    2
ENDBRANCH    5    3
ENDBRANCH    6    5
ENDBRANCH    7    6
ENDBRANCH    8    7
ENDBRANCH    9    8
ENDBRANCH   10    9
ENDBRANCH   11   10
ENDBRANCH   12   11
ENDBRANCH   13   12
ENDBRANCH   15   13
ENDBRANCH   19   18
BRANCH   23   24
ATOM     33  C24 UNL A   1      14.003  16.540  10.005  1.00  0.00    +0.000 C 
ATOM     34  F5  UNL A   1      13.616  15.985   8.846  1.00  0.00    +0.000 F 
ATOM     24  C19 UNL A   1      14.794  17.699  10.004  1.00  0.00    +0.000 C 
ATOM     25  C20 UNL A   1      15.168  18.240  11.244  1.00  0.00    +0.000 C 
ATOM     26  F1  UNL A   1      15.932  19.341  11.296  1.00  0.00    +0.000 F 
ATOM     27  C21 UNL A   1      14.778  17.635  12.436  1.00  0.00    +0.000 C 
ATOM     28  F2  UNL A   1      15.175  18.151  13.608  1.00  0.00    +0.000 F 
ATOM     29  C22 UNL A   1      13.986  16.497  12.413  1.00  0.00    +0.000 C 
ATOM     30  F3  UNL A   1      13.602  15.923  13.561  1.00  0.00    +0.000 F 
ATOM     31  C23 UNL A   1      13.595  15.952  11.199  1.00  0.00    +0.000 C 
ATOM     32  F4  UNL A   1      12.820  14.859  11.175  1.00  0.00    +0.000 F 
ENDBRANCH   23   24
BRANCH   40   41
ATOM     41  C30 UNL A   1      12.119  22.711   5.568  1.00  0.00    +0.000 C 
ATOM     42  C31 UNL A   1      10.923  22.298   4.964  1.00  0.00    +0.000 C 
ATOM     43  F6  UNL A   1      10.837  21.083   4.400  1.00  0.00    +0.000 F 
ATOM     44  C32 UNL A   1       9.825  23.150   4.895  1.00  0.00    +0.000 C 
ATOM     45  F7  UNL A   1       8.709  22.753   4.269  1.00  0.00    +0.000 F 
ATOM     46  C33 UNL A   1       9.889  24.416   5.458  1.00  0.00    +0.000 C 
ATOM     47  F8  UNL A   1       8.831  25.235   5.393  1.00  0.00    +0.000 F 
ATOM     48  C34 UNL A   1      11.056  24.837   6.081  1.00  0.00    +0.000 C 
ATOM     49  F9  UNL A   1      11.116  26.056   6.635  1.00  0.00    +0.000 F 
ATOM     50  C35 UNL A   1      12.164  23.997   6.127  1.00  0.00    +0.000 C 
ATOM     51  F10 UNL A   1      13.284  24.438   6.721  1.00  0.00    +0.000 F 
ENDBRANCH   40   41
BRANCH   55   56
ATOM     65  C44 UNL A   1      17.285  21.151   0.134  1.00  0.00    +0.000 C 
ATOM     66  F15 UNL A   1      16.674  19.957   0.139  1.00  0.00    +0.000 F 
ATOM     56  C39 UNL A   1      17.569  21.799   1.344  1.00  0.00    +0.000 C 
ATOM     57  C40 UNL A   1      18.214  23.042   1.284  1.00  0.00    +0.000 C 
ATOM     58  F11 UNL A   1      18.487  23.709   2.414  1.00  0.00    +0.000 F 
ATOM     59  C41 UNL A   1      18.538  23.626   0.062  1.00  0.00    +0.000 C 
ATOM     60  F12 UNL A   1      19.108  24.838   0.031  1.00  0.00    +0.000 F 
ATOM     61  C42 UNL A   1      18.251  22.965  -1.123  1.00  0.00    +0.000 C 
ATOM     62  F13 UNL A   1      18.561  23.528  -2.299  1.00  0.00    +0.000 F 
ATOM     63  C43 UNL A   1      17.634  21.723  -1.088  1.00  0.00    +0.000 C 
ATOM     64  F14 UNL A   1      17.367  21.075  -2.230  1.00  0.00    +0.000 F 
ENDBRANCH   55   56
TORSDOF 20
ENDMDL
MODEL 7
REMARK VINA RESULT:      -9.5      3.820      6.701
ROOT
ATOM     19  C15 UNL A   1      40.829  27.873  28.777  1.00  0.00    +0.000 C 
ATOM     20  C16 UNL A   1      39.881  29.001  29.070  1.00  0.00    +0.000 C 
ATOM     21  N3  UNL A   1      40.129  30.174  29.599  1.00  0.00    +0.000 N 
ATOM     22  C17 UNL A   1      38.913  30.844  29.623  1.00  0.00    +0.000 C 
ATOM     23  C18 UNL A   1      38.633  32.069  30.129  1.00  0.00    +0.000 C 
ATOM     35  C25 UNL A   1      39.599  32.932  30.757  1.00  0.00    +0.000 C 
ATOM     36  C26 UNL A   1      39.400  34.171  31.341  1.00  0.00    +0.000 C 
ATOM     37  C27 UNL A   1      40.636  34.647  31.792  1.00  0.00    +0.000 C 
ATOM     38  C28 UNL A   1      41.598  33.687  31.523  1.00  0.00    +0.000 C 
ATOM     39  N4  UNL A   1      40.950  32.644  30.883  1.00  0.00    +0.000 N 
ATOM     40  C29 UNL A   1      43.004  33.718  31.828  1.00  0.00    +0.000 C 
ATOM     52  C36 UNL A   1      43.883  32.729  31.536  1.00  0.00    +0.000 C 
ATOM     53  N5  UNL A   1      43.652  31.515  30.906  1.00  0.00    +0.000 N 
ATOM     54  C37 UNL A   1      44.817  30.920  30.834  1.00  0.00    +0.000 C 
ATOM     55  C38 UNL A   1      45.160  29.567  30.271  1.00  0.00    +0.000 C 
ATOM     67  C45 UNL A   1      44.179  28.794  29.770  1.00  0.00    +0.000 C 
ATOM     68  C46 UNL A   1      44.356  27.458  29.211  1.00  0.00    +0.000 C 
ATOM     69  C47 UNL A   1      43.169  27.000  28.783  1.00  0.00    +0.000 C 
ATOM     70  C48 UNL A   1      42.139  28.002  29.065  1.00  0.00    +0.000 C 
ATOM     71  N6  UNL A   1      42.831  29.033  29.650  1.00  0.00    +0.000 N 
ATOM     72  C49 UNL A   1      45.927  31.704  31.393  1.00  0.00    +0.000 C 
ATOM     73  C50 UNL A   1      45.297  32.778  31.845  1.00  0.00    +0.000 C 
ATOM     74  C51 UNL A   1      37.936  29.967  29.013  1.00  0.00    +0.000 C 
ATOM     75  C52 UNL A   1      38.471  28.795  28.704  1.00  0.00    +0.000 C 
ATOM    112  H21 UNL A   1      38.495  34.659  31.429  1.00  0.00    +0.000 H 
ATOM    113  H22 UNL A   1      40.802  35.558  32.247  1.00  0.00    +0.000 H 
ATOM    114  H23 UNL A   1      41.384  31.820  30.564  1.00  0.00    +0.000 H 
ATOM    115  H24 UNL A   1      45.251  26.946  29.153  1.00  0.00    +0.000 H 
ATOM    116  H25 UNL A   1      43.008  26.088  28.328  1.00  0.00    +0.000 H 
ATOM    117  H26 UNL A   1      42.403  29.865  29.956  1.00  0.00    +0.000 H 
ATOM    118  H27 UNL A   1      46.934  31.478  31.424  1.00  0.00    +0.000 H 
ATOM    119  H28 UNL A   1      45.755  33.551  32.353  1.00  0.00    +0.000 H 
ATOM    120  H29 UNL A   1      36.951  30.223  28.840  1.00  0.00    +0.000 H 
ATOM    121  H30 UNL A   1      38.018  27.955  28.311  1.00  0.00    +0.000 H 
ENDROOT
BRANCH   19   18
ATOM     76  C53 UNL A   1      39.605  25.692  28.857  1.00  0.00    +0.000 C 
ATOM     77  C54 UNL A   1      39.129  24.533  28.244  1.00  0.00    +0.000 C 
ATOM    110  H19 UNL A   1      40.254  25.091  25.133  1.00  0.00    +0.000 H 
ATOM     15  C11 UNL A   1      39.313  24.343  26.871  1.00  0.00    +0.000 C 
ATOM     16  C12 UNL A   1      40.079  25.254  26.138  1.00  0.00    +0.000 C 
ATOM     17  C13 UNL A   1      40.607  26.385  26.765  1.00  0.00    +0.000 C 
ATOM    111  H20 UNL A   1      41.192  27.043  26.228  1.00  0.00    +0.000 H 
ATOM     18  C14 UNL A   1      40.345  26.630  28.124  1.00  0.00    +0.000 C 
ATOM    122  H31 UNL A   1      39.409  25.860  29.857  1.00  0.00    +0.000 H 
ATOM    123  H32 UNL A   1      38.642  23.816  28.804  1.00  0.00    +0.000 H 
BRANCH   15   13
ATOM     13  C10 UNL A   1      38.732  23.177  26.167  1.00  0.00    +0.000 C 
ATOM     14  O2  UNL A   1      39.434  22.196  25.941  1.00  0.00    +0.000 O 
BRANCH   13   12
ATOM     12  N2  UNL A   1      37.427  23.199  25.748  1.00  0.00    +0.000 N 
ATOM    109  H18 UNL A   1      36.755  23.072  26.457  1.00  0.00    +0.000 H 
BRANCH   12   11
ATOM     11  C9  UNL A   1      36.889  23.383  24.411  1.00  0.00    +0.000 C 
ATOM    108  H17 UNL A   1      36.698  22.414  24.001  1.00  0.00    +0.000 H 
ATOM    107  H16 UNL A   1      37.603  23.925  23.825  1.00  0.00    +0.000 H 
BRANCH   11   10
ATOM    105  H14 UNL A   1      35.681  24.997  23.760  1.00  0.00    +0.000 H 
ATOM     10  C8  UNL A   1      35.571  24.154  24.410  1.00  0.00    +0.000 C 
ATOM    106  H15 UNL A   1      34.822  23.460  24.089  1.00  0.00    +0.000 H 
BRANCH   10    9
ATOM      9  C7  UNL A   1      35.114  24.668  25.777  1.00  0.00    +0.000 C 
ATOM    103  H12 UNL A   1      35.914  24.517  26.471  1.00  0.00    +0.000 H 
ATOM    104  H13 UNL A   1      34.857  25.697  25.636  1.00  0.00    +0.000 H 
BRANCH    9    8
ATOM    101  H10 UNL A   1      33.247  24.753  26.777  1.00  0.00    +0.000 H 
ATOM    102  H11 UNL A   1      33.408  23.482  25.523  1.00  0.00    +0.000 H 
ATOM      8  C6  UNL A   1      33.864  23.994  26.344  1.00  0.00    +0.000 C 
BRANCH    8    7
ATOM     99  H8  UNL A   1      34.912  23.268  28.045  1.00  0.00    +0.000 H 
ATOM    100  H9  UNL A   1      33.190  22.795  27.932  1.00  0.00    +0.000 H 
ATOM      7  C5  UNL A   1      34.117  22.924  27.416  1.00  0.00    +0.000 C 
BRANCH    7    6
ATOM     97  H6  UNL A   1      35.570  21.452  26.881  1.00  0.00    +0.000 H 
ATOM     98  H7  UNL A   1      34.058  20.800  27.509  1.00  0.00    +0.000 H 
ATOM      6  C4  UNL A   1      34.503  21.540  26.878  1.00  0.00    +0.000 C 
BRANCH    6    5
ATOM      5  N1  UNL A   1      34.017  21.337  25.526  1.00  0.00    +0.000 N 
ATOM     96  H5  UNL A   1      34.448  21.852  24.806  1.00  0.00    +0.000 H 
BRANCH    5    3
ATOM      3  C3  UNL A   1      33.003  20.482  25.178  1.00  0.00    +0.000 C 
ATOM      4  O1  UNL A   1      32.997  19.385  25.737  1.00  0.00    +0.000 O 
BRANCH    3    2
ATOM      2  C2  UNL A   1      31.941  20.949  24.163  1.00  0.00    +0.000 C 
ATOM     95  H4  UNL A   1      30.987  20.668  24.560  1.00  0.00    +0.000 H 
BRANCH    2    1
ATOM      1  C1  UNL A   1      32.249  20.257  22.829  1.00  0.00    +0.000 C 
ATOM     92  H1  UNL A   1      32.405  20.997  22.072  1.00  0.00    +0.000 H 
ATOM     93  H2  UNL A   1      31.424  19.634  22.552  1.00  0.00    +0.000 H 
ATOM     94  H3  UNL A   1      33.130  19.659  22.931  1.00  0.00    +0.000 H 
ENDBRANCH    2    1
BRANCH    2   78
ATOM    137  H46 UNL A   1      30.224  25.179  25.262  1.00  0.00    +0.000 H 
ATOM     78  C55 UNL A   1      31.788  22.470  23.980  1.00  0.00    +0.000 C 
ATOM     79  C56 UNL A   1      32.401  23.145  22.907  1.00  0.00    +0.000 C 
ATOM     80  C57 UNL A   1      32.229  24.514  22.689  1.00  0.00    +0.000 C 
ATOM     81  C58 UNL A   1      31.446  25.278  23.550  1.00  0.00    +0.000 C 
ATOM     89  C65 UNL A   1      30.828  24.636  24.625  1.00  0.00    +0.000 C 
ATOM     90  C66 UNL A   1      31.014  23.262  24.855  1.00  0.00    +0.000 C 
ATOM     91 Br1  UNL A   1      30.218  22.590  26.452  1.00  0.00    +0.000 Br
ATOM    124  H33 UNL A   1      32.999  22.609  22.258  1.00  0.00    +0.000 H 
ATOM    125  H34 UNL A   1      32.687  24.965  21.883  1.00  0.00    +0.000 H 
BRANCH   81   82
ATOM     82  C59 UNL A   1      31.300  26.765  23.340  1.00  0.00    +0.000 C 
ATOM    126  H35 UNL A   1      30.257  27.000  23.358  1.00  0.00    +0.000 H 
ATOM    127  H36 UNL A   1      31.777  26.975  22.405  1.00  0.00    +0.000 H 
BRANCH   82   83
ATOM    129  H38 UNL A   1      31.276  26.412  25.979  1.00  0.00    +0.000 H 
ATOM    130  H39 UNL A   1      30.834  28.067  26.157  1.00  0.00    +0.000 H 
ATOM    131  H40 UNL A   1      33.273  26.725  27.042  1.00  0.00    +0.000 H 
ATOM    132  H41 UNL A   1      32.721  28.289  27.498  1.00  0.00    +0.000 H 
ATOM    133  H42 UNL A   1      34.900  28.033  25.971  1.00  0.00    +0.000 H 
ATOM    134  H43 UNL A   1      33.848  29.332  25.651  1.00  0.00    +0.000 H 
ATOM    135  H44 UNL A   1      33.927  26.611  24.271  1.00  0.00    +0.000 H 
ATOM     83  C60 UNL A   1      32.003  27.657  24.376  1.00  0.00    +0.000 C 
ATOM     84  C61 UNL A   1      31.622  27.416  25.846  1.00  0.00    +0.000 C 
ATOM     85  C62 UNL A   1      32.899  27.650  26.659  1.00  0.00    +0.000 C 
ATOM     86  C63 UNL A   1      33.895  28.264  25.687  1.00  0.00    +0.000 C 
ATOM     87  C64 UNL A   1      33.533  27.601  24.367  1.00  0.00    +0.000 C 
ATOM    128  H37 UNL A   1      31.643  28.606  24.038  1.00  0.00    +0.000 H 
BRANCH   87   88
ATOM    136  H45 UNL A   1      33.338  28.606  22.690  1.00  0.00    +0.000 H 
ATOM     88  O3  UNL A   1      34.063  28.310  23.262  1.00  0.00    +0.000 O 
ENDBRANCH   87   88
ENDBRANCH   82   83
ENDBRANCH   81   82
ENDBRANCH    2   78
ENDBRANCH    3    2
ENDBRANCH    5    3
ENDBRANCH    6    5
ENDBRANCH    7    6
ENDBRANCH    8    7
ENDBRANCH    9    8
ENDBRANCH   10    9
ENDBRANCH   11   10
ENDBRANCH   12   11
ENDBRANCH   13   12
ENDBRANCH   15   13
ENDBRANCH   19   18
BRANCH   23   24
ATOM     33  C24 UNL A   1      36.781  33.309  28.945  1.00  0.00    +0.000 C 
ATOM     34  F5  UNL A   1      37.621  33.574  27.933  1.00  0.00    +0.000 F 
ATOM     24  C19 UNL A   1      37.214  32.548  30.042  1.00  0.00    +0.000 C 
ATOM     25  C20 UNL A   1      36.296  32.304  31.075  1.00  0.00    +0.000 C 
ATOM     26  F1  UNL A   1      36.659  31.574  32.140  1.00  0.00    +0.000 F 
ATOM     27  C21 UNL A   1      34.993  32.789  31.005  1.00  0.00    +0.000 C 
ATOM     28  F2  UNL A   1      34.123  32.515  31.987  1.00  0.00    +0.000 F 
ATOM     29  C22 UNL A   1      34.590  33.549  29.916  1.00  0.00    +0.000 C 
ATOM     30  F3  UNL A   1      33.339  34.025  29.856  1.00  0.00    +0.000 F 
ATOM     31  C23 UNL A   1      35.485  33.813  28.890  1.00  0.00    +0.000 C 
ATOM     32  F4  UNL A   1      35.101  34.557  27.843  1.00  0.00    +0.000 F 
ENDBRANCH   23   24
BRANCH   40   41
ATOM     41  C30 UNL A   1      43.545  34.924  32.538  1.00  0.00    +0.000 C 
ATOM     42  C31 UNL A   1      43.675  34.956  33.933  1.00  0.00    +0.000 C 
ATOM     43  F6  UNL A   1      43.275  33.910  34.673  1.00  0.00    +0.000 F 
ATOM     44  C32 UNL A   1      44.173  36.084  34.579  1.00  0.00    +0.000 C 
ATOM     45  F7  UNL A   1      44.240  36.113  35.917  1.00  0.00    +0.000 F 
ATOM     46  C33 UNL A   1      44.581  37.185  33.842  1.00  0.00    +0.000 C 
ATOM     47  F8  UNL A   1      45.062  38.270  34.464  1.00  0.00    +0.000 F 
ATOM     48  C34 UNL A   1      44.483  37.166  32.458  1.00  0.00    +0.000 C 
ATOM     49  F9  UNL A   1      44.887  38.225  31.743  1.00  0.00    +0.000 F 
ATOM     50  C35 UNL A   1      43.960  36.050  31.811  1.00  0.00    +0.000 C 
ATOM     51  F10 UNL A   1      43.862  36.067  30.473  1.00  0.00    +0.000 F 
ENDBRANCH   40   41
BRANCH   55   56
ATOM     65  C44 UNL A   1      47.063  28.334  31.366  1.00  0.00    +0.000 C 
ATOM     66  F15 UNL A   1      46.281  28.077  32.425  1.00  0.00    +0.000 F 
ATOM     56  C39 UNL A   1      46.562  29.075  30.287  1.00  0.00    +0.000 C 
ATOM     57  C40 UNL A   1      47.423  29.321  29.208  1.00  0.00    +0.000 C 
ATOM     58  F11 UNL A   1      46.981  30.007  28.144  1.00  0.00    +0.000 F 
ATOM     59  C41 UNL A   1      48.723  28.824  29.197  1.00  0.00    +0.000 C 
ATOM     60  F12 UNL A   1      49.509  29.031  28.132  1.00  0.00    +0.000 F 
ATOM     61  C42 UNL A   1      49.199  28.097  30.278  1.00  0.00    +0.000 C 
ATOM     62  F13 UNL A   1      50.450  27.617  30.267  1.00  0.00    +0.000 F 
ATOM     63  C43 UNL A   1      48.373  27.860  31.367  1.00  0.00    +0.000 C 
ATOM     64  F14 UNL A   1      48.833  27.170  32.419  1.00  0.00    +0.000 F 
ENDBRANCH   55   56
TORSDOF 20
ENDMDL
MODEL 8
REMARK VINA RESULT:      -9.5      3.529      6.514
ROOT
ATOM     19  C15 UNL A   1      40.719  27.952  29.129  1.00  0.00    +0.000 C 
ATOM     20  C16 UNL A   1      39.773  29.084  29.417  1.00  0.00    +0.000 C 
ATOM     21  N3  UNL A   1      40.008  30.226  30.015  1.00  0.00    +0.000 N 
ATOM     22  C17 UNL A   1      38.804  30.918  29.996  1.00  0.00    +0.000 C 
ATOM     23  C18 UNL A   1      38.513  32.123  30.542  1.00  0.00    +0.000 C 
ATOM     35  C25 UNL A   1      39.452  32.937  31.268  1.00  0.00    +0.000 C 
ATOM     36  C26 UNL A   1      39.239  34.151  31.897  1.00  0.00    +0.000 C 
ATOM     37  C27 UNL A   1      40.452  34.581  32.446  1.00  0.00    +0.000 C 
ATOM     38  C28 UNL A   1      41.413  33.616  32.191  1.00  0.00    +0.000 C 
ATOM     39  N4  UNL A   1      40.788  32.617  31.463  1.00  0.00    +0.000 N 
ATOM     40  C29 UNL A   1      42.797  33.605  32.583  1.00  0.00    +0.000 C 
ATOM     52  C36 UNL A   1      43.676  32.613  32.299  1.00  0.00    +0.000 C 
ATOM     53  N5  UNL A   1      43.464  31.435  31.598  1.00  0.00    +0.000 N 
ATOM     54  C37 UNL A   1      44.621  30.821  31.570  1.00  0.00    +0.000 C 
ATOM     55  C38 UNL A   1      44.976  29.489  30.966  1.00  0.00    +0.000 C 
ATOM     67  C45 UNL A   1      44.015  28.760  30.369  1.00  0.00    +0.000 C 
ATOM     68  C46 UNL A   1      44.204  27.448  29.758  1.00  0.00    +0.000 C 
ATOM     69  C47 UNL A   1      43.039  27.034  29.237  1.00  0.00    +0.000 C 
ATOM     70  C48 UNL A   1      42.010  28.042  29.503  1.00  0.00    +0.000 C 
ATOM     71  N6  UNL A   1      42.681  29.031  30.177  1.00  0.00    +0.000 N 
ATOM     72  C49 UNL A   1      45.707  31.556  32.233  1.00  0.00    +0.000 C 
ATOM     73  C50 UNL A   1      45.069  32.620  32.696  1.00  0.00    +0.000 C 
ATOM     74  C51 UNL A   1      37.852  30.090  29.286  1.00  0.00    +0.000 C 
ATOM     75  C52 UNL A   1      38.386  28.923  28.955  1.00  0.00    +0.000 C 
ATOM    112  H21 UNL A   1      38.338  34.653  31.953  1.00  0.00    +0.000 H 
ATOM    113  H22 UNL A   1      40.605  35.467  32.953  1.00  0.00    +0.000 H 
ATOM    114  H23 UNL A   1      41.227  31.800  31.133  1.00  0.00    +0.000 H 
ATOM    115  H24 UNL A   1      45.092  26.922  29.732  1.00  0.00    +0.000 H 
ATOM    116  H25 UNL A   1      42.891  26.148  28.730  1.00  0.00    +0.000 H 
ATOM    117  H26 UNL A   1      42.249  29.856  30.496  1.00  0.00    +0.000 H 
ATOM    118  H27 UNL A   1      46.706  31.309  32.316  1.00  0.00    +0.000 H 
ATOM    119  H28 UNL A   1      45.507  33.360  33.268  1.00  0.00    +0.000 H 
ATOM    120  H29 UNL A   1      36.884  30.373  29.065  1.00  0.00    +0.000 H 
ATOM    121  H30 UNL A   1      37.944  28.112  28.495  1.00  0.00    +0.000 H 
ENDROOT
BRANCH   19   18
ATOM     76  C53 UNL A   1      39.482  25.779  29.039  1.00  0.00    +0.000 C 
ATOM     77  C54 UNL A   1      39.026  24.659  28.343  1.00  0.00    +0.000 C 
ATOM    110  H19 UNL A   1      40.277  25.382  25.316  1.00  0.00    +0.000 H 
ATOM     15  C11 UNL A   1      39.264  24.544  26.970  1.00  0.00    +0.000 C 
ATOM     16  C12 UNL A   1      40.063  25.489  26.320  1.00  0.00    +0.000 C 
ATOM     17  C13 UNL A   1      40.570  26.580  27.030  1.00  0.00    +0.000 C 
ATOM    111  H20 UNL A   1      41.179  27.263  26.554  1.00  0.00    +0.000 H 
ATOM     18  C14 UNL A   1      40.256  26.751  28.389  1.00  0.00    +0.000 C 
ATOM    122  H31 UNL A   1      39.248  25.893  30.037  1.00  0.00    +0.000 H 
ATOM    123  H32 UNL A   1      38.513  23.915  28.842  1.00  0.00    +0.000 H 
BRANCH   15   13
ATOM     13  C10 UNL A   1      38.706  23.424  26.180  1.00  0.00    +0.000 C 
ATOM     14  O2  UNL A   1      39.348  22.383  26.069  1.00  0.00    +0.000 O 
BRANCH   13   12
ATOM     12  N2  UNL A   1      37.493  23.552  25.554  1.00  0.00    +0.000 N 
ATOM    109  H18 UNL A   1      37.083  24.445  25.610  1.00  0.00    +0.000 H 
BRANCH   12   11
ATOM     11  C9  UNL A   1      36.722  22.561  24.820  1.00  0.00    +0.000 C 
ATOM    108  H17 UNL A   1      37.364  21.727  24.630  1.00  0.00    +0.000 H 
ATOM    107  H16 UNL A   1      36.372  23.004  23.911  1.00  0.00    +0.000 H 
BRANCH   11   10
ATOM    105  H14 UNL A   1      35.877  21.667  26.544  1.00  0.00    +0.000 H 
ATOM     10  C8  UNL A   1      35.520  22.051  25.611  1.00  0.00    +0.000 C 
ATOM    106  H15 UNL A   1      34.859  22.887  25.717  1.00  0.00    +0.000 H 
BRANCH   10    9
ATOM      9  C7  UNL A   1      34.706  20.951  24.927  1.00  0.00    +0.000 C 
ATOM    103  H12 UNL A   1      35.069  20.846  23.926  1.00  0.00    +0.000 H 
ATOM    104  H13 UNL A   1      34.835  20.073  25.524  1.00  0.00    +0.000 H 
BRANCH    9    8
ATOM    101  H10 UNL A   1      32.704  20.335  25.249  1.00  0.00    +0.000 H 
ATOM    102  H11 UNL A   1      33.022  22.091  25.424  1.00  0.00    +0.000 H 
ATOM      8  C6  UNL A   1      33.199  21.200  24.859  1.00  0.00    +0.000 C 
BRANCH    8    7
ATOM     99  H8  UNL A   1      33.461  21.581  22.784  1.00  0.00    +0.000 H 
ATOM    100  H9  UNL A   1      32.000  20.647  23.225  1.00  0.00    +0.000 H 
ATOM      7  C5  UNL A   1      32.636  21.474  23.457  1.00  0.00    +0.000 C 
BRANCH    7    6
ATOM     97  H6  UNL A   1      30.917  22.508  22.722  1.00  0.00    +0.000 H 
ATOM     98  H7  UNL A   1      31.453  23.015  24.323  1.00  0.00    +0.000 H 
ATOM      6  C4  UNL A   1      31.763  22.730  23.339  1.00  0.00    +0.000 C 
BRANCH    6    5
ATOM      5  N1  UNL A   1      32.495  23.838  22.754  1.00  0.00    +0.000 N 
ATOM     96  H5  UNL A   1      32.306  24.061  21.814  1.00  0.00    +0.000 H 
BRANCH    5    3
ATOM      3  C3  UNL A   1      33.430  24.595  23.413  1.00  0.00    +0.000 C 
ATOM      4  O1  UNL A   1      34.609  24.365  23.140  1.00  0.00    +0.000 O 
BRANCH    3    2
ATOM      2  C2  UNL A   1      32.958  25.682  24.398  1.00  0.00    +0.000 C 
ATOM     95  H4  UNL A   1      33.763  26.381  24.497  1.00  0.00    +0.000 H 
BRANCH    2    1
ATOM      1  C1  UNL A   1      32.621  24.983  25.721  1.00  0.00    +0.000 C 
ATOM     92  H1  UNL A   1      31.623  25.236  26.014  1.00  0.00    +0.000 H 
ATOM     93  H2  UNL A   1      33.306  25.305  26.479  1.00  0.00    +0.000 H 
ATOM     94  H3  UNL A   1      32.698  23.923  25.597  1.00  0.00    +0.000 H 
ENDBRANCH    2    1
BRANCH    2   78
ATOM    137  H46 UNL A   1      31.128  29.573  22.513  1.00  0.00    +0.000 H 
ATOM     78  C55 UNL A   1      31.798  26.577  23.929  1.00  0.00    +0.000 C 
ATOM     79  C56 UNL A   1      30.455  26.205  24.134  1.00  0.00    +0.000 C 
ATOM     80  C57 UNL A   1      29.388  27.029  23.768  1.00  0.00    +0.000 C 
ATOM     81  C58 UNL A   1      29.614  28.260  23.161  1.00  0.00    +0.000 C 
ATOM     89  C65 UNL A   1      30.937  28.654  22.941  1.00  0.00    +0.000 C 
ATOM     90  C66 UNL A   1      32.011  27.819  23.293  1.00  0.00    +0.000 C 
ATOM     91 Br1  UNL A   1      33.734  28.454  22.783  1.00  0.00    +0.000 Br
ATOM    124  H33 UNL A   1      30.253  25.292  24.570  1.00  0.00    +0.000 H 
ATOM    125  H34 UNL A   1      28.420  26.721  23.949  1.00  0.00    +0.000 H 
BRANCH   81   82
ATOM     82  C59 UNL A   1      28.459  29.126  22.723  1.00  0.00    +0.000 C 
ATOM    126  H35 UNL A   1      27.786  29.219  23.549  1.00  0.00    +0.000 H 
ATOM    127  H36 UNL A   1      28.036  28.637  21.869  1.00  0.00    +0.000 H 
BRANCH   82   83
ATOM    129  H38 UNL A   1      27.290  30.467  20.742  1.00  0.00    +0.000 H 
ATOM    130  H39 UNL A   1      28.853  30.801  20.097  1.00  0.00    +0.000 H 
ATOM    131  H40 UNL A   1      26.873  32.675  21.147  1.00  0.00    +0.000 H 
ATOM    132  H41 UNL A   1      28.282  33.051  20.234  1.00  0.00    +0.000 H 
ATOM    133  H42 UNL A   1      28.132  33.750  22.810  1.00  0.00    +0.000 H 
ATOM    134  H43 UNL A   1      29.635  33.222  22.211  1.00  0.00    +0.000 H 
ATOM    135  H44 UNL A   1      27.534  31.575  23.690  1.00  0.00    +0.000 H 
ATOM     83  C60 UNL A   1      28.827  30.542  22.252  1.00  0.00    +0.000 C 
ATOM     84  C61 UNL A   1      28.202  30.997  20.923  1.00  0.00    +0.000 C 
ATOM     85  C62 UNL A   1      27.924  32.495  21.075  1.00  0.00    +0.000 C 
ATOM     86  C63 UNL A   1      28.622  32.911  22.361  1.00  0.00    +0.000 C 
ATOM     87  C64 UNL A   1      28.496  31.672  23.232  1.00  0.00    +0.000 C 
ATOM    128  H37 UNL A   1      29.883  30.406  22.152  1.00  0.00    +0.000 H 
BRANCH   87   88
ATOM    136  H45 UNL A   1      29.122  31.066  24.992  1.00  0.00    +0.000 H 
ATOM     88  O3  UNL A   1      29.411  31.694  24.312  1.00  0.00    +0.000 O 
ENDBRANCH   87   88
ENDBRANCH   82   83
ENDBRANCH   81   82
ENDBRANCH    2   78
ENDBRANCH    3    2
ENDBRANCH    5    3
ENDBRANCH    6    5
ENDBRANCH    7    6
ENDBRANCH    8    7
ENDBRANCH    9    8
ENDBRANCH   10    9
ENDBRANCH   11   10
ENDBRANCH   12   11
ENDBRANCH   13   12
ENDBRANCH   15   13
ENDBRANCH   19   18
BRANCH   23   24
ATOM     33  C24 UNL A   1      36.734  33.367  29.255  1.00  0.00    +0.000 C 
ATOM     34  F5  UNL A   1      37.614  33.577  28.263  1.00  0.00    +0.000 F 
ATOM     24  C19 UNL A   1      37.111  32.635  30.391  1.00  0.00    +0.000 C 
ATOM     25  C20 UNL A   1      36.153  32.449  31.400  1.00  0.00    +0.000 C 
ATOM     26  F1  UNL A   1      36.462  31.747  32.500  1.00  0.00    +0.000 F 
ATOM     27  C21 UNL A   1      34.866  32.963  31.269  1.00  0.00    +0.000 C 
ATOM     28  F2  UNL A   1      33.958  32.744  32.230  1.00  0.00    +0.000 F 
ATOM     29  C22 UNL A   1      34.520  33.695  30.142  1.00  0.00    +0.000 C 
ATOM     30  F3  UNL A   1      33.284  34.199  30.023  1.00  0.00    +0.000 F 
ATOM     31  C23 UNL A   1      35.454  33.901  29.138  1.00  0.00    +0.000 C 
ATOM     32  F4  UNL A   1      35.124  34.617  28.055  1.00  0.00    +0.000 F 
ENDBRANCH   23   24
BRANCH   40   41
ATOM     41  C30 UNL A   1      43.313  34.766  33.381  1.00  0.00    +0.000 C 
ATOM     42  C31 UNL A   1      43.772  35.936  32.761  1.00  0.00    +0.000 C 
ATOM     43  F6  UNL A   1      43.795  36.026  31.422  1.00  0.00    +0.000 F 
ATOM     44  C32 UNL A   1      44.255  37.003  33.514  1.00  0.00    +0.000 C 
ATOM     45  F7  UNL A   1      44.737  38.091  32.899  1.00  0.00    +0.000 F 
ATOM     46  C33 UNL A   1      44.256  36.933  34.899  1.00  0.00    +0.000 C 
ATOM     47  F8  UNL A   1      44.719  37.961  35.624  1.00  0.00    +0.000 F 
ATOM     48  C34 UNL A   1      43.784  35.793  35.534  1.00  0.00    +0.000 C 
ATOM     49  F9  UNL A   1      43.775  35.728  36.873  1.00  0.00    +0.000 F 
ATOM     50  C35 UNL A   1      43.327  34.715  34.783  1.00  0.00    +0.000 C 
ATOM     51  F10 UNL A   1      42.893  33.619  35.425  1.00  0.00    +0.000 F 
ENDBRANCH   40   41
BRANCH   55   56
ATOM     65  C44 UNL A   1      46.798  28.206  32.137  1.00  0.00    +0.000 C 
ATOM     66  F15 UNL A   1      45.959  27.951  33.152  1.00  0.00    +0.000 F 
ATOM     56  C39 UNL A   1      46.365  28.969  31.044  1.00  0.00    +0.000 C 
ATOM     57  C40 UNL A   1      47.283  29.212  30.013  1.00  0.00    +0.000 C 
ATOM     58  F11 UNL A   1      46.908  29.919  28.936  1.00  0.00    +0.000 F 
ATOM     59  C41 UNL A   1      48.573  28.689  30.059  1.00  0.00    +0.000 C 
ATOM     60  F12 UNL A   1      49.414  28.893  29.037  1.00  0.00    +0.000 F 
ATOM     61  C42 UNL A   1      48.981  27.940  31.153  1.00  0.00    +0.000 C 
ATOM     62  F13 UNL A   1      50.221  27.435  31.197  1.00  0.00    +0.000 F 
ATOM     63  C43 UNL A   1      48.097  27.706  32.196  1.00  0.00    +0.000 C 
ATOM     64  F14 UNL A   1      48.491  26.993  33.260  1.00  0.00    +0.000 F 
ENDBRANCH   55   56
TORSDOF 20
ENDMDL
MODEL 9
REMARK VINA RESULT:      -9.5      1.628      2.587
ROOT
ATOM     19  C15 UNL A   1      39.328  29.459  30.086  1.00  0.00    +0.000 C 
ATOM     20  C16 UNL A   1      39.967  30.106  31.282  1.00  0.00    +0.000 C 
ATOM     21  N3  UNL A   1      41.111  29.831  31.859  1.00  0.00    +0.000 N 
ATOM     22  C17 UNL A   1      41.239  30.740  32.900  1.00  0.00    +0.000 C 
ATOM     23  C18 UNL A   1      42.221  30.828  33.829  1.00  0.00    +0.000 C 
ATOM     35  C25 UNL A   1      43.362  29.952  33.896  1.00  0.00    +0.000 C 
ATOM     36  C26 UNL A   1      44.385  29.934  34.828  1.00  0.00    +0.000 C 
ATOM     37  C27 UNL A   1      45.288  28.928  34.469  1.00  0.00    +0.000 C 
ATOM     38  C28 UNL A   1      44.807  28.293  33.336  1.00  0.00    +0.000 C 
ATOM     39  N4  UNL A   1      43.628  28.935  32.991  1.00  0.00    +0.000 N 
ATOM     40  C29 UNL A   1      45.378  27.183  32.620  1.00  0.00    +0.000 C 
ATOM     52  C36 UNL A   1      44.838  26.611  31.516  1.00  0.00    +0.000 C 
ATOM     53  N5  UNL A   1      43.669  26.941  30.846  1.00  0.00    +0.000 N 
ATOM     54  C37 UNL A   1      43.591  26.117  29.830  1.00  0.00    +0.000 C 
ATOM     55  C38 UNL A   1      42.520  26.001  28.780  1.00  0.00    +0.000 C 
ATOM     67  C45 UNL A   1      41.450  26.815  28.839  1.00  0.00    +0.000 C 
ATOM     68  C46 UNL A   1      40.327  26.805  27.906  1.00  0.00    +0.000 C 
ATOM     69  C47 UNL A   1      39.459  27.768  28.254  1.00  0.00    +0.000 C 
ATOM     70  C48 UNL A   1      39.952  28.446  29.455  1.00  0.00    +0.000 C 
ATOM     71  N6  UNL A   1      41.139  27.814  29.729  1.00  0.00    +0.000 N 
ATOM     72  C49 UNL A   1      44.721  25.182  29.730  1.00  0.00    +0.000 C 
ATOM     73  C50 UNL A   1      45.429  25.497  30.804  1.00  0.00    +0.000 C 
ATOM     74  C51 UNL A   1      40.081  31.607  32.850  1.00  0.00    +0.000 C 
ATOM     75  C52 UNL A   1      39.238  31.223  31.902  1.00  0.00    +0.000 C 
ATOM    112  H21 UNL A   1      44.467  30.557  35.647  1.00  0.00    +0.000 H 
ATOM    113  H22 UNL A   1      46.163  28.697  34.965  1.00  0.00    +0.000 H 
ATOM    114  H23 UNL A   1      43.064  28.704  32.219  1.00  0.00    +0.000 H 
ATOM    115  H24 UNL A   1      40.218  26.161  27.107  1.00  0.00    +0.000 H 
ATOM    116  H25 UNL A   1      38.585  27.995  27.755  1.00  0.00    +0.000 H 
ATOM    117  H26 UNL A   1      41.713  28.052  30.492  1.00  0.00    +0.000 H 
ATOM    118  H27 UNL A   1      44.912  24.467  29.010  1.00  0.00    +0.000 H 
ATOM    119  H28 UNL A   1      46.291  25.011  31.097  1.00  0.00    +0.000 H 
ATOM    120  H29 UNL A   1      39.933  32.418  33.469  1.00  0.00    +0.000 H 
ATOM    121  H30 UNL A   1      38.310  31.607  31.662  1.00  0.00    +0.000 H 
ENDROOT
BRANCH   19   18
ATOM     76  C53 UNL A   1      38.011  31.009  28.628  1.00  0.00    +0.000 C 
ATOM     77  C54 UNL A   1      36.799  31.470  28.113  1.00  0.00    +0.000 C 
ATOM    110  H19 UNL A   1      34.725  29.362  29.697  1.00  0.00    +0.000 H 
ATOM     15  C11 UNL A   1      35.605  30.828  28.456  1.00  0.00    +0.000 C 
ATOM     16  C12 UNL A   1      35.612  29.806  29.409  1.00  0.00    +0.000 C 
ATOM     17  C13 UNL A   1      36.819  29.384  29.970  1.00  0.00    +0.000 C 
ATOM    111  H20 UNL A   1      36.820  28.646  30.691  1.00  0.00    +0.000 H 
ATOM     18  C14 UNL A   1      38.033  29.961  29.559  1.00  0.00    +0.000 C 
ATOM    122  H31 UNL A   1      38.896  31.442  28.321  1.00  0.00    +0.000 H 
ATOM    123  H32 UNL A   1      36.785  32.284  27.479  1.00  0.00    +0.000 H 
BRANCH   15   13
ATOM     13  C10 UNL A   1      34.313  31.223  27.849  1.00  0.00    +0.000 C 
ATOM     14  O2  UNL A   1      34.036  32.413  27.736  1.00  0.00    +0.000 O 
BRANCH   13   12
ATOM     12  N2  UNL A   1      33.420  30.267  27.436  1.00  0.00    +0.000 N 
ATOM    109  H18 UNL A   1      32.472  30.480  27.597  1.00  0.00    +0.000 H 
BRANCH   12   11
ATOM     11  C9  UNL A   1      33.668  28.986  26.796  1.00  0.00    +0.000 C 
ATOM    108  H17 UNL A   1      33.021  28.265  27.250  1.00  0.00    +0.000 H 
ATOM    107  H16 UNL A   1      34.699  28.730  26.930  1.00  0.00    +0.000 H 
BRANCH   11   10
ATOM    105  H14 UNL A   1      32.312  29.187  25.182  1.00  0.00    +0.000 H 
ATOM     10  C8  UNL A   1      33.360  29.010  25.300  1.00  0.00    +0.000 C 
ATOM    106  H15 UNL A   1      33.975  29.781  24.884  1.00  0.00    +0.000 H 
BRANCH   10    9
ATOM      9  C7  UNL A   1      33.712  27.729  24.541  1.00  0.00    +0.000 C 
ATOM    103  H12 UNL A   1      32.877  27.470  23.925  1.00  0.00    +0.000 H 
ATOM    104  H13 UNL A   1      34.601  27.949  23.987  1.00  0.00    +0.000 H 
BRANCH    9    8
ATOM    101  H10 UNL A   1      34.822  26.809  26.094  1.00  0.00    +0.000 H 
ATOM    102  H11 UNL A   1      33.132  26.245  25.898  1.00  0.00    +0.000 H 
ATOM      8  C6  UNL A   1      34.046  26.521  25.416  1.00  0.00    +0.000 C 
BRANCH    8    7
ATOM     99  H8  UNL A   1      34.011  25.238  23.722  1.00  0.00    +0.000 H 
ATOM    100  H9  UNL A   1      35.579  25.358  24.574  1.00  0.00    +0.000 H 
ATOM      7  C5  UNL A   1      34.518  25.268  24.664  1.00  0.00    +0.000 C 
BRANCH    7    6
ATOM     97  H6  UNL A   1      34.466  23.134  24.711  1.00  0.00    +0.000 H 
ATOM     98  H7  UNL A   1      34.899  23.894  26.241  1.00  0.00    +0.000 H 
ATOM      6  C4  UNL A   1      34.260  23.939  25.384  1.00  0.00    +0.000 C 
BRANCH    6    5
ATOM      5  N1  UNL A   1      32.885  23.834  25.837  1.00  0.00    +0.000 N 
ATOM     96  H5  UNL A   1      32.578  24.481  26.513  1.00  0.00    +0.000 H 
BRANCH    5    3
ATOM      3  C3  UNL A   1      31.983  22.901  25.395  1.00  0.00    +0.000 C 
ATOM      4  O1  UNL A   1      31.837  21.904  26.102  1.00  0.00    +0.000 O 
BRANCH    3    2
ATOM      2  C2  UNL A   1      31.202  23.168  24.094  1.00  0.00    +0.000 C 
ATOM     95  H4  UNL A   1      30.198  22.835  24.261  1.00  0.00    +0.000 H 
BRANCH    2    1
ATOM      1  C1  UNL A   1      31.900  22.388  22.973  1.00  0.00    +0.000 C 
ATOM     92  H1  UNL A   1      32.402  21.539  23.388  1.00  0.00    +0.000 H 
ATOM     93  H2  UNL A   1      32.615  23.021  22.489  1.00  0.00    +0.000 H 
ATOM     94  H3  UNL A   1      31.173  22.059  22.259  1.00  0.00    +0.000 H 
ENDBRANCH    2    1
BRANCH    2   78
ATOM    137  H46 UNL A   1      29.424  27.477  24.661  1.00  0.00    +0.000 H 
ATOM     78  C55 UNL A   1      31.001  24.643  23.704  1.00  0.00    +0.000 C 
ATOM     79  C56 UNL A   1      31.549  25.170  22.518  1.00  0.00    +0.000 C 
ATOM     80  C57 UNL A   1      31.331  26.490  22.117  1.00  0.00    +0.000 C 
ATOM     81  C58 UNL A   1      30.567  27.354  22.896  1.00  0.00    +0.000 C 
ATOM     89  C65 UNL A   1      30.013  26.860  24.080  1.00  0.00    +0.000 C 
ATOM     90  C66 UNL A   1      30.246  25.537  24.493  1.00  0.00    +0.000 C 
ATOM     91 Br1  UNL A   1      29.538  25.085  26.205  1.00  0.00    +0.000 Br
ATOM    124  H33 UNL A   1      32.132  24.559  21.925  1.00  0.00    +0.000 H 
ATOM    125  H34 UNL A   1      31.742  26.830  21.234  1.00  0.00    +0.000 H 
BRANCH   81   82
ATOM     82  C59 UNL A   1      30.373  28.793  22.484  1.00  0.00    +0.000 C 
ATOM    126  H35 UNL A   1      30.022  28.801  21.475  1.00  0.00    +0.000 H 
ATOM    127  H36 UNL A   1      31.325  29.264  22.618  1.00  0.00    +0.000 H 
BRANCH   82   83
ATOM    129  H38 UNL A   1      30.529  31.399  23.004  1.00  0.00    +0.000 H 
ATOM    130  H39 UNL A   1      30.307  31.040  24.675  1.00  0.00    +0.000 H 
ATOM    131  H40 UNL A   1      28.563  32.556  22.887  1.00  0.00    +0.000 H 
ATOM    132  H41 UNL A   1      28.477  32.473  24.603  1.00  0.00    +0.000 H 
ATOM    133  H42 UNL A   1      26.560  31.353  23.113  1.00  0.00    +0.000 H 
ATOM    134  H43 UNL A   1      27.039  30.551  24.536  1.00  0.00    +0.000 H 
ATOM    135  H44 UNL A   1      28.003  30.033  21.687  1.00  0.00    +0.000 H 
ATOM     83  C60 UNL A   1      29.383  29.603  23.336  1.00  0.00    +0.000 C 
ATOM     84  C61 UNL A   1      29.827  31.025  23.720  1.00  0.00    +0.000 C 
ATOM     85  C62 UNL A   1      28.557  31.881  23.716  1.00  0.00    +0.000 C 
ATOM     86  C63 UNL A   1      27.402  30.899  23.592  1.00  0.00    +0.000 C 
ATOM     87  C64 UNL A   1      27.990  29.792  22.730  1.00  0.00    +0.000 C 
ATOM    128  H37 UNL A   1      29.355  28.966  24.194  1.00  0.00    +0.000 H 
BRANCH   87   88
ATOM    136  H45 UNL A   1      26.782  28.565  23.675  1.00  0.00    +0.000 H 
ATOM     88  O3  UNL A   1      27.230  28.601  22.816  1.00  0.00    +0.000 O 
ENDBRANCH   87   88
ENDBRANCH   82   83
ENDBRANCH   81   82
ENDBRANCH    2   78
ENDBRANCH    3    2
ENDBRANCH    5    3
ENDBRANCH    6    5
ENDBRANCH    7    6
ENDBRANCH    8    7
ENDBRANCH    9    8
ENDBRANCH   10    9
ENDBRANCH   11   10
ENDBRANCH   12   11
ENDBRANCH   13   12
ENDBRANCH   15   13
ENDBRANCH   19   18
BRANCH   23   24
ATOM     33  C24 UNL A   1      42.750  33.137  34.701  1.00  0.00    +0.000 C 
ATOM     34  F5  UNL A   1      43.448  33.387  33.582  1.00  0.00    +0.000 F 
ATOM     24  C19 UNL A   1      42.101  31.904  34.868  1.00  0.00    +0.000 C 
ATOM     25  C20 UNL A   1      41.389  31.692  36.059  1.00  0.00    +0.000 C 
ATOM     26  F1  UNL A   1      40.742  30.535  36.261  1.00  0.00    +0.000 F 
ATOM     27  C21 UNL A   1      41.317  32.682  37.036  1.00  0.00    +0.000 C 
ATOM     28  F2  UNL A   1      40.603  32.471  38.150  1.00  0.00    +0.000 F 
ATOM     29  C22 UNL A   1      41.977  33.889  36.855  1.00  0.00    +0.000 C 
ATOM     30  F3  UNL A   1      41.917  34.835  37.801  1.00  0.00    +0.000 F 
ATOM     31  C23 UNL A   1      42.696  34.115  35.691  1.00  0.00    +0.000 C 
ATOM     32  F4  UNL A   1      43.344  35.275  35.519  1.00  0.00    +0.000 F 
ENDBRANCH   23   24
BRANCH   40   41
ATOM     41  C30 UNL A   1      46.658  26.595  33.135  1.00  0.00    +0.000 C 
ATOM     42  C31 UNL A   1      46.662  25.513  34.027  1.00  0.00    +0.000 C 
ATOM     43  F6  UNL A   1      45.503  25.001  34.471  1.00  0.00    +0.000 F 
ATOM     44  C32 UNL A   1      47.857  24.982  34.502  1.00  0.00    +0.000 C 
ATOM     45  F7  UNL A   1      47.837  23.981  35.393  1.00  0.00    +0.000 F 
ATOM     46  C33 UNL A   1      49.069  25.499  34.070  1.00  0.00    +0.000 C 
ATOM     47  F8  UNL A   1      50.220  24.986  34.526  1.00  0.00    +0.000 F 
ATOM     48  C34 UNL A   1      49.089  26.555  33.170  1.00  0.00    +0.000 C 
ATOM     49  F9  UNL A   1      50.260  27.049  32.743  1.00  0.00    +0.000 F 
ATOM     50  C35 UNL A   1      47.895  27.106  32.714  1.00  0.00    +0.000 C 
ATOM     51  F10 UNL A   1      47.945  28.138  31.858  1.00  0.00    +0.000 F 
ENDBRANCH   40   41
BRANCH   55   56
ATOM     65  C44 UNL A   1      43.351  25.242  26.528  1.00  0.00    +0.000 C 
ATOM     66  F15 UNL A   1      43.945  26.432  26.352  1.00  0.00    +0.000 F 
ATOM     56  C39 UNL A   1      42.627  24.986  27.701  1.00  0.00    +0.000 C 
ATOM     57  C40 UNL A   1      42.019  23.730  27.832  1.00  0.00    +0.000 C 
ATOM     58  F11 UNL A   1      41.334  23.431  28.945  1.00  0.00    +0.000 F 
ATOM     59  C41 UNL A   1      42.154  22.759  26.843  1.00  0.00    +0.000 C 
ATOM     60  F12 UNL A   1      41.606  21.548  27.016  1.00  0.00    +0.000 F 
ATOM     61  C42 UNL A   1      42.872  23.036  25.689  1.00  0.00    +0.000 C 
ATOM     62  F13 UNL A   1      43.002  22.101  24.738  1.00  0.00    +0.000 F 
ATOM     63  C43 UNL A   1      43.462  24.280  25.527  1.00  0.00    +0.000 C 
ATOM     64  F14 UNL A   1      44.145  24.556  24.408  1.00  0.00    +0.000 F 
ENDBRANCH   55   56
TORSDOF 20
ENDMDL
MODEL 10
REMARK VINA RESULT:      -9.4      4.113      8.787
ROOT
ATOM     19  C15 UNL A   1      41.408  27.302  28.156  1.00  0.00    +0.000 C 
ATOM     20  C16 UNL A   1      42.871  27.644  28.158  1.00  0.00    +0.000 C 
ATOM     21  N3  UNL A   1      43.466  28.732  28.582  1.00  0.00    +0.000 N 
ATOM     22  C17 UNL A   1      44.824  28.524  28.381  1.00  0.00    +0.000 C 
ATOM     23  C18 UNL A   1      45.851  29.378  28.603  1.00  0.00    +0.000 C 
ATOM     35  C25 UNL A   1      45.704  30.715  29.117  1.00  0.00    +0.000 C 
ATOM     36  C26 UNL A   1      46.681  31.671  29.332  1.00  0.00    +0.000 C 
ATOM     37  C27 UNL A   1      46.071  32.809  29.871  1.00  0.00    +0.000 C 
ATOM     38  C28 UNL A   1      44.708  32.576  29.955  1.00  0.00    +0.000 C 
ATOM     39  N4  UNL A   1      44.498  31.285  29.496  1.00  0.00    +0.000 N 
ATOM     40  C29 UNL A   1      43.674  33.462  30.420  1.00  0.00    +0.000 C 
ATOM     52  C36 UNL A   1      42.354  33.158  30.465  1.00  0.00    +0.000 C 
ATOM     53  N5  UNL A   1      41.717  31.983  30.095  1.00  0.00    +0.000 N 
ATOM     54  C37 UNL A   1      40.444  32.169  30.347  1.00  0.00    +0.000 C 
ATOM     55  C38 UNL A   1      39.284  31.238  30.119  1.00  0.00    +0.000 C 
ATOM     67  C45 UNL A   1      39.506  30.032  29.564  1.00  0.00    +0.000 C 
ATOM     68  C46 UNL A   1      38.482  29.036  29.266  1.00  0.00    +0.000 C 
ATOM     69  C47 UNL A   1      39.068  27.947  28.744  1.00  0.00    +0.000 C 
ATOM     70  C48 UNL A   1      40.510  28.181  28.644  1.00  0.00    +0.000 C 
ATOM     71  N6  UNL A   1      40.678  29.443  29.154  1.00  0.00    +0.000 N 
ATOM     72  C49 UNL A   1      40.134  33.482  30.929  1.00  0.00    +0.000 C 
ATOM     73  C50 UNL A   1      41.326  34.060  30.940  1.00  0.00    +0.000 C 
ATOM     74  C51 UNL A   1      44.972  27.189  27.841  1.00  0.00    +0.000 C 
ATOM     75  C52 UNL A   1      43.792  26.623  27.634  1.00  0.00    +0.000 C 
ATOM    112  H21 UNL A   1      47.687  31.563  29.129  1.00  0.00    +0.000 H 
ATOM    113  H22 UNL A   1      46.554  33.675  30.158  1.00  0.00    +0.000 H 
ATOM    114  H23 UNL A   1      43.621  30.840  29.445  1.00  0.00    +0.000 H 
ATOM    115  H24 UNL A   1      37.469  29.151  29.430  1.00  0.00    +0.000 H 
ATOM    116  H25 UNL A   1      38.581  27.083  28.460  1.00  0.00    +0.000 H 
ATOM    117  H26 UNL A   1      41.555  29.887  29.220  1.00  0.00    +0.000 H 
ATOM    118  H27 UNL A   1      39.226  33.855  31.247  1.00  0.00    +0.000 H 
ATOM    119  H28 UNL A   1      41.500  35.030  31.248  1.00  0.00    +0.000 H 
ATOM    120  H29 UNL A   1      45.878  26.736  27.646  1.00  0.00    +0.000 H 
ATOM    121  H30 UNL A   1      43.574  25.706  27.212  1.00  0.00    +0.000 H 
ENDROOT
BRANCH   19   18
ATOM     76  C53 UNL A   1      41.072  24.843  28.481  1.00  0.00    +0.000 C 
ATOM     77  C54 UNL A   1      40.618  23.602  28.036  1.00  0.00    +0.000 C 
ATOM    110  H19 UNL A   1      39.391  24.533  25.056  1.00  0.00    +0.000 H 
ATOM     15  C11 UNL A   1      39.948  23.500  26.812  1.00  0.00    +0.000 C 
ATOM     16  C12 UNL A   1      39.844  24.617  25.980  1.00  0.00    +0.000 C 
ATOM     17  C13 UNL A   1      40.353  25.849  26.399  1.00  0.00    +0.000 C 
ATOM    111  H20 UNL A   1      40.297  26.667  25.773  1.00  0.00    +0.000 H 
ATOM     18  C14 UNL A   1      40.942  25.979  27.668  1.00  0.00    +0.000 C 
ATOM    122  H31 UNL A   1      41.507  24.926  29.413  1.00  0.00    +0.000 H 
ATOM    123  H32 UNL A   1      40.775  22.759  28.610  1.00  0.00    +0.000 H 
BRANCH   15   13
ATOM     13  C10 UNL A   1      39.361  22.219  26.357  1.00  0.00    +0.000 C 
ATOM     14  O2  UNL A   1      40.045  21.201  26.369  1.00  0.00    +0.000 O 
BRANCH   13   12
ATOM     12  N2  UNL A   1      38.068  22.172  25.901  1.00  0.00    +0.000 N 
ATOM    109  H18 UNL A   1      37.423  22.715  26.410  1.00  0.00    +0.000 H 
BRANCH   12   11
ATOM     11  C9  UNL A   1      37.512  21.439  24.776  1.00  0.00    +0.000 C 
ATOM    108  H17 UNL A   1      37.088  20.534  25.156  1.00  0.00    +0.000 H 
ATOM    107  H16 UNL A   1      38.295  21.243  24.074  1.00  0.00    +0.000 H 
BRANCH   11   10
ATOM    105  H14 UNL A   1      36.506  23.246  24.316  1.00  0.00    +0.000 H 
ATOM     10  C8  UNL A   1      36.401  22.211  24.067  1.00  0.00    +0.000 C 
ATOM    106  H15 UNL A   1      36.520  22.008  23.023  1.00  0.00    +0.000 H 
BRANCH   10    9
ATOM      9  C7  UNL A   1      34.977  21.780  24.423  1.00  0.00    +0.000 C 
ATOM    103  H12 UNL A   1      34.302  22.512  24.031  1.00  0.00    +0.000 H 
ATOM    104  H13 UNL A   1      34.847  20.806  23.998  1.00  0.00    +0.000 H 
BRANCH    9    8
ATOM    101  H10 UNL A   1      33.783  21.080  26.029  1.00  0.00    +0.000 H 
ATOM    102  H11 UNL A   1      35.549  21.137  26.332  1.00  0.00    +0.000 H 
ATOM      8  C6  UNL A   1      34.694  21.630  25.919  1.00  0.00    +0.000 C 
BRANCH    8    7
ATOM     99  H8  UNL A   1      34.284  22.702  27.708  1.00  0.00    +0.000 H 
ATOM    100  H9  UNL A   1      35.491  23.444  26.616  1.00  0.00    +0.000 H 
ATOM      7  C5  UNL A   1      34.550  22.944  26.700  1.00  0.00    +0.000 C 
BRANCH    7    6
ATOM     97  H6  UNL A   1      32.912  23.413  25.412  1.00  0.00    +0.000 H 
ATOM     98  H7  UNL A   1      32.886  24.241  26.968  1.00  0.00    +0.000 H 
ATOM      6  C4  UNL A   1      33.498  23.917  26.152  1.00  0.00    +0.000 C 
BRANCH    6    5
ATOM      5  N1  UNL A   1      34.111  25.086  25.551  1.00  0.00    +0.000 N 
ATOM     96  H5  UNL A   1      34.947  25.418  25.954  1.00  0.00    +0.000 H 
BRANCH    5    3
ATOM      3  C3  UNL A   1      33.615  25.762  24.467  1.00  0.00    +0.000 C 
ATOM      4  O1  UNL A   1      33.411  25.093  23.453  1.00  0.00    +0.000 O 
BRANCH    3    2
ATOM      2  C2  UNL A   1      33.316  27.269  24.592  1.00  0.00    +0.000 C 
ATOM     95  H4  UNL A   1      34.027  27.778  23.975  1.00  0.00    +0.000 H 
BRANCH    2    1
ATOM      1  C1  UNL A   1      33.452  27.640  26.074  1.00  0.00    +0.000 C 
ATOM     92  H1  UNL A   1      32.480  27.780  26.498  1.00  0.00    +0.000 H 
ATOM     93  H2  UNL A   1      34.014  28.547  26.164  1.00  0.00    +0.000 H 
ATOM     94  H3  UNL A   1      33.959  26.854  26.595  1.00  0.00    +0.000 H 
ENDBRANCH    2    1
BRANCH    2   78
ATOM    137  H46 UNL A   1      28.636  27.238  24.210  1.00  0.00    +0.000 H 
ATOM     78  C55 UNL A   1      31.972  27.752  24.018  1.00  0.00    +0.000 C 
ATOM     79  C56 UNL A   1      31.917  28.709  22.987  1.00  0.00    +0.000 C 
ATOM     80  C57 UNL A   1      30.711  29.119  22.412  1.00  0.00    +0.000 C 
ATOM     81  C58 UNL A   1      29.498  28.601  22.857  1.00  0.00    +0.000 C 
ATOM     89  C65 UNL A   1      29.522  27.652  23.881  1.00  0.00    +0.000 C 
ATOM     90  C66 UNL A   1      30.733  27.251  24.472  1.00  0.00    +0.000 C 
ATOM     91 Br1  UNL A   1      30.560  26.063  25.953  1.00  0.00    +0.000 Br
ATOM    124  H33 UNL A   1      32.798  29.123  22.644  1.00  0.00    +0.000 H 
ATOM    125  H34 UNL A   1      30.719  29.814  21.651  1.00  0.00    +0.000 H 
BRANCH   81   82
ATOM     82  C59 UNL A   1      28.195  29.082  22.268  1.00  0.00    +0.000 C 
ATOM    126  H35 UNL A   1      27.401  28.550  22.747  1.00  0.00    +0.000 H 
ATOM    127  H36 UNL A   1      28.267  28.900  21.215  1.00  0.00    +0.000 H 
BRANCH   82   83
ATOM    129  H38 UNL A   1      29.240  30.698  24.107  1.00  0.00    +0.000 H 
ATOM    130  H39 UNL A   1      27.650  31.262  24.458  1.00  0.00    +0.000 H 
ATOM    131  H40 UNL A   1      29.913  32.749  23.361  1.00  0.00    +0.000 H 
ATOM    132  H41 UNL A   1      28.447  33.396  23.987  1.00  0.00    +0.000 H 
ATOM    133  H42 UNL A   1      28.973  33.563  21.371  1.00  0.00    +0.000 H 
ATOM    134  H43 UNL A   1      27.364  33.272  21.846  1.00  0.00    +0.000 H 
ATOM    135  H44 UNL A   1      29.461  31.221  20.999  1.00  0.00    +0.000 H 
ATOM     83  C60 UNL A   1      27.911  30.586  22.413  1.00  0.00    +0.000 C 
ATOM     84  C61 UNL A   1      28.411  31.246  23.708  1.00  0.00    +0.000 C 
ATOM     85  C62 UNL A   1      28.848  32.662  23.320  1.00  0.00    +0.000 C 
ATOM     86  C63 UNL A   1      28.354  32.867  21.897  1.00  0.00    +0.000 C 
ATOM     87  C64 UNL A   1      28.464  31.474  21.296  1.00  0.00    +0.000 C 
ATOM    128  H37 UNL A   1      26.842  30.547  22.391  1.00  0.00    +0.000 H 
BRANCH   87   88
ATOM    136  H45 UNL A   1      27.210  32.175  19.957  1.00  0.00    +0.000 H 
ATOM     88  O3  UNL A   1      27.693  31.349  20.115  1.00  0.00    +0.000 O 
ENDBRANCH   87   88
ENDBRANCH   82   83
ENDBRANCH   81   82
ENDBRANCH    2   78
ENDBRANCH    3    2
ENDBRANCH    5    3
ENDBRANCH    6    5
ENDBRANCH    7    6
ENDBRANCH    8    7
ENDBRANCH    9    8
ENDBRANCH   10    9
ENDBRANCH   11   10
ENDBRANCH   12   11
ENDBRANCH   13   12
ENDBRANCH   15   13
ENDBRANCH   19   18
BRANCH   23   24
ATOM     33  C24 UNL A   1      48.082  28.413  29.282  1.00  0.00    +0.000 C 
ATOM     34  F5  UNL A   1      47.644  28.320  30.547  1.00  0.00    +0.000 F 
ATOM     24  C19 UNL A   1      47.235  28.901  28.275  1.00  0.00    +0.000 C 
ATOM     25  C20 UNL A   1      47.746  28.982  26.970  1.00  0.00    +0.000 C 
ATOM     26  F1  UNL A   1      46.972  29.432  25.971  1.00  0.00    +0.000 F 
ATOM     27  C21 UNL A   1      49.046  28.575  26.683  1.00  0.00    +0.000 C 
ATOM     28  F2  UNL A   1      49.500  28.629  25.423  1.00  0.00    +0.000 F 
ATOM     29  C22 UNL A   1      49.869  28.107  27.697  1.00  0.00    +0.000 C 
ATOM     30  F3  UNL A   1      51.124  27.727  27.421  1.00  0.00    +0.000 F 
ATOM     31  C23 UNL A   1      49.389  28.030  28.996  1.00  0.00    +0.000 C 
ATOM     32  F4  UNL A   1      50.187  27.589  29.978  1.00  0.00    +0.000 F 
ENDBRANCH   23   24
BRANCH   40   41
ATOM     41  C30 UNL A   1      44.074  34.834  30.875  1.00  0.00    +0.000 C 
ATOM     42  C31 UNL A   1      44.084  35.925  29.994  1.00  0.00    +0.000 C 
ATOM     43  F6  UNL A   1      43.769  35.751  28.701  1.00  0.00    +0.000 F 
ATOM     44  C32 UNL A   1      44.463  37.192  30.429  1.00  0.00    +0.000 C 
ATOM     45  F7  UNL A   1      44.515  38.209  29.559  1.00  0.00    +0.000 F 
ATOM     46  C33 UNL A   1      44.806  37.398  31.757  1.00  0.00    +0.000 C 
ATOM     47  F8  UNL A   1      45.169  38.619  32.175  1.00  0.00    +0.000 F 
ATOM     48  C34 UNL A   1      44.781  36.337  32.651  1.00  0.00    +0.000 C 
ATOM     49  F9  UNL A   1      45.101  36.538  33.937  1.00  0.00    +0.000 F 
ATOM     50  C35 UNL A   1      44.428  35.064  32.213  1.00  0.00    +0.000 C 
ATOM     51  F10 UNL A   1      44.429  34.054  33.097  1.00  0.00    +0.000 F 
ENDBRANCH   40   41
BRANCH   55   56
ATOM     65  C44 UNL A   1      37.442  31.572  31.802  1.00  0.00    +0.000 C 
ATOM     66  F15 UNL A   1      38.244  31.099  32.767  1.00  0.00    +0.000 F 
ATOM     56  C39 UNL A   1      37.903  31.649  30.480  1.00  0.00    +0.000 C 
ATOM     57  C40 UNL A   1      37.022  32.145  29.509  1.00  0.00    +0.000 C 
ATOM     58  F11 UNL A   1      37.426  32.257  28.235  1.00  0.00    +0.000 F 
ATOM     59  C41 UNL A   1      35.742  32.574  29.851  1.00  0.00    +0.000 C 
ATOM     60  F12 UNL A   1      34.939  33.092  28.912  1.00  0.00    +0.000 F 
ATOM     61  C42 UNL A   1      35.306  32.485  31.164  1.00  0.00    +0.000 C 
ATOM     62  F13 UNL A   1      34.075  32.899  31.493  1.00  0.00    +0.000 F 
ATOM     63  C43 UNL A   1      36.152  31.976  32.138  1.00  0.00    +0.000 C 
ATOM     64  F14 UNL A   1      35.730  31.876  33.406  1.00  0.00    +0.000 F 
ENDBRANCH   55   56
TORSDOF 20
ENDMDL
