MODEL 1
REMARK VINA RESULT:     -10.5      0.000      0.000
ROOT
ATOM     33  C22 UNL A   1      24.201  38.288  48.529  1.00  0.00    +0.000 C 
ATOM     34  C23 UNL A   1      25.483  39.060  48.392  1.00  0.00    +0.000 C 
ATOM     35  N6  UNL A   1      26.577  38.737  47.751  1.00  0.00    +0.000 N 
ATOM     36  C24 UNL A   1      27.442  39.811  47.914  1.00  0.00    +0.000 C 
ATOM     37  C25 UNL A   1      28.723  39.935  47.488  1.00  0.00    +0.000 C 
ATOM     49  C32 UNL A   1      29.436  38.923  46.751  1.00  0.00    +0.000 C 
ATOM     50  C33 UNL A   1      30.755  38.930  46.333  1.00  0.00    +0.000 C 
ATOM     51  C34 UNL A   1      30.986  37.766  45.591  1.00  0.00    +0.000 C 
ATOM     52  C35 UNL A   1      29.828  37.006  45.596  1.00  0.00    +0.000 C 
ATOM     53  N7  UNL A   1      28.886  37.726  46.316  1.00  0.00    +0.000 N 
ATOM     54  C36 UNL A   1      29.596  35.720  44.990  1.00  0.00    +0.000 C 
ATOM     66  C43 UNL A   1      28.439  35.019  45.079  1.00  0.00    +0.000 C 
ATOM     67  N8  UNL A   1      27.260  35.358  45.730  1.00  0.00    +0.000 N 
ATOM     68  C44 UNL A   1      26.430  34.369  45.509  1.00  0.00    +0.000 C 
ATOM     69  C45 UNL A   1      25.016  34.192  45.990  1.00  0.00    +0.000 C 
ATOM     81  C52 UNL A   1      24.463  35.143  46.767  1.00  0.00    +0.000 C 
ATOM     82  C53 UNL A   1      23.107  35.109  47.305  1.00  0.00    +0.000 C 
ATOM     83  C54 UNL A   1      22.873  36.248  47.974  1.00  0.00    +0.000 C 
ATOM     84  C55 UNL A   1      24.080  37.076  47.951  1.00  0.00    +0.000 C 
ATOM     85  N9  UNL A   1      24.976  36.334  47.221  1.00  0.00    +0.000 N 
ATOM     86  C56 UNL A   1      26.982  33.296  44.669  1.00  0.00    +0.000 C 
ATOM     87  C57 UNL A   1      28.222  33.723  44.471  1.00  0.00    +0.000 C 
ATOM     88  C58 UNL A   1      26.727  40.817  48.670  1.00  0.00    +0.000 C 
ATOM     89  C59 UNL A   1      25.532  40.379  49.041  1.00  0.00    +0.000 C 
ATOM    118  H24 UNL A   1      31.449  39.667  46.534  1.00  0.00    +0.000 H 
ATOM    119  H25 UNL A   1      31.870  37.517  45.120  1.00  0.00    +0.000 H 
ATOM    120  H26 UNL A   1      27.963  37.431  46.490  1.00  0.00    +0.000 H 
ATOM    121  H27 UNL A   1      22.436  34.333  47.190  1.00  0.00    +0.000 H 
ATOM    122  H28 UNL A   1      21.983  36.500  48.433  1.00  0.00    +0.000 H 
ATOM    123  H29 UNL A   1      25.898  36.627  47.041  1.00  0.00    +0.000 H 
ATOM    124  H30 UNL A   1      26.526  32.437  44.325  1.00  0.00    +0.000 H 
ATOM    125  H31 UNL A   1      28.941  33.198  43.948  1.00  0.00    +0.000 H 
ATOM    126  H32 UNL A   1      27.099  41.754  48.891  1.00  0.00    +0.000 H 
ATOM    127  H33 UNL A   1      24.822  40.843  49.628  1.00  0.00    +0.000 H 
ENDROOT
BRANCH   33   32
ATOM    129  H35 UNL A   1      20.285  40.713  48.617  1.00  0.00    +0.000 H 
ATOM    128  H34 UNL A   1      22.245  39.817  47.505  1.00  0.00    +0.000 H 
ATOM    116  H22 UNL A   1      21.470  38.875  52.209  1.00  0.00    +0.000 H 
ATOM    117  H23 UNL A   1      23.537  38.162  51.156  1.00  0.00    +0.000 H 
ATOM     90  C60 UNL A   1      22.087  39.622  48.507  1.00  0.00    +0.000 C 
ATOM     91  C61 UNL A   1      20.940  40.105  49.134  1.00  0.00    +0.000 C 
ATOM     29  C18 UNL A   1      20.676  39.765  50.463  1.00  0.00    +0.000 C 
ATOM     30  C19 UNL A   1      21.635  39.072  51.210  1.00  0.00    +0.000 C 
ATOM     31  C20 UNL A   1      22.817  38.647  50.599  1.00  0.00    +0.000 C 
ATOM     32  C21 UNL A   1      23.030  38.875  49.229  1.00  0.00    +0.000 C 
BRANCH   29   27
ATOM     27  C17 UNL A   1      19.397  40.126  51.114  1.00  0.00    +0.000 C 
ATOM     28  O5  UNL A   1      19.383  40.992  51.984  1.00  0.00    +0.000 O 
BRANCH   27   26
ATOM     26  N5  UNL A   1      18.236  39.478  50.771  1.00  0.00    +0.000 N 
ATOM    115  H21 UNL A   1      17.847  39.750  49.907  1.00  0.00    +0.000 H 
BRANCH   26   25
ATOM     25  C16 UNL A   1      17.495  38.454  51.486  1.00  0.00    +0.000 C 
ATOM    114  H20 UNL A   1      17.620  38.638  52.533  1.00  0.00    +0.000 H 
ATOM    113  H19 UNL A   1      17.877  37.495  51.202  1.00  0.00    +0.000 H 
BRANCH   25   24
ATOM    112  H18 UNL A   1      15.693  39.499  51.363  1.00  0.00    +0.000 H 
ATOM    111  H17 UNL A   1      15.521  37.773  51.826  1.00  0.00    +0.000 H 
ATOM     24  C15 UNL A   1      15.998  38.489  51.189  1.00  0.00    +0.000 C 
BRANCH   24   23
ATOM    109  H15 UNL A   1      14.635  38.619  49.574  1.00  0.00    +0.000 H 
ATOM    110  H16 UNL A   1      16.382  38.572  49.140  1.00  0.00    +0.000 H 
ATOM     23  C14 UNL A   1      15.595  38.176  49.746  1.00  0.00    +0.000 C 
BRANCH   23   22
ATOM    107  H13 UNL A   1      16.492  36.334  49.213  1.00  0.00    +0.000 H 
ATOM    108  H14 UNL A   1      14.978  36.231  50.183  1.00  0.00    +0.000 H 
ATOM     22  C13 UNL A   1      15.497  36.696  49.370  1.00  0.00    +0.000 C 
BRANCH   22   21
ATOM    105  H11 UNL A   1      14.009  35.566  48.380  1.00  0.00    +0.000 H 
ATOM    106  H12 UNL A   1      14.201  37.275  47.846  1.00  0.00    +0.000 H 
ATOM     21  C12 UNL A   1      14.679  36.360  48.124  1.00  0.00    +0.000 C 
BRANCH   21   20
ATOM     20  C11 UNL A   1      15.461  35.924  46.891  1.00  0.00    +0.000 C 
ATOM    103  H9  UNL A   1      15.879  34.958  47.083  1.00  0.00    +0.000 H 
ATOM    104  H10 UNL A   1      14.769  35.924  46.073  1.00  0.00    +0.000 H 
BRANCH   20   19
ATOM     19  N4  UNL A   1      16.543  36.822  46.518  1.00  0.00    +0.000 N 
ATOM    102  H8  UNL A   1      16.410  37.759  46.786  1.00  0.00    +0.000 H 
BRANCH   19   17
ATOM     17  C10 UNL A   1      17.723  36.576  45.851  1.00  0.00    +0.000 C 
ATOM     18  O4  UNL A   1      18.377  37.529  45.419  1.00  0.00    +0.000 O 
BRANCH   17   16
ATOM    130  H36 UNL A   1      17.467  34.775  43.827  1.00  0.00    +0.000 H 
ATOM     99  H5  UNL A   1      19.393  31.541  45.677  1.00  0.00    +0.000 H 
ATOM    100  H6  UNL A   1      20.268  33.053  47.363  1.00  0.00    +0.000 H 
ATOM     11  C5  UNL A   1      18.268  33.010  44.663  1.00  0.00    +0.000 C 
ATOM     12  C6  UNL A   1      19.118  32.535  45.666  1.00  0.00    +0.000 C 
ATOM     13  C7  UNL A   1      19.601  33.398  46.656  1.00  0.00    +0.000 C 
ATOM     14  C8  UNL A   1      19.176  34.726  46.686  1.00  0.00    +0.000 C 
ATOM     16  C9  UNL A   1      18.298  35.214  45.710  1.00  0.00    +0.000 C 
ATOM     92  C62 UNL A   1      17.957  34.378  44.644  1.00  0.00    +0.000 C 
BRANCH   11   10
ATOM     10  N3  UNL A   1      17.688  32.096  43.749  1.00  0.00    +0.000 N 
BRANCH   10    9
ATOM      9  N2  UNL A   1      18.400  31.066  43.669  1.00  0.00    +0.000 N 
BRANCH    9    8
ATOM     97  H3  UNL A   1      14.685  28.911  42.223  1.00  0.00    +0.000 H 
ATOM     98  H4  UNL A   1      16.118  30.864  42.398  1.00  0.00    +0.000 H 
ATOM    131  H37 UNL A   1      18.955  28.605  44.527  1.00  0.00    +0.000 H 
ATOM    132  H38 UNL A   1      17.523  26.651  44.371  1.00  0.00    +0.000 H 
ATOM      5  C1  UNL A   1      15.999  27.640  43.289  1.00  0.00    +0.000 C 
ATOM      6  C2  UNL A   1      15.590  28.846  42.715  1.00  0.00    +0.000 C 
ATOM      7  C3  UNL A   1      16.421  29.969  42.813  1.00  0.00    +0.000 C 
ATOM      8  C4  UNL A   1      17.658  29.892  43.467  1.00  0.00    +0.000 C 
ATOM     93  C63 UNL A   1      18.049  28.672  44.038  1.00  0.00    +0.000 C 
ATOM     94  C64 UNL A   1      17.226  27.546  43.950  1.00  0.00    +0.000 C 
BRANCH    5    2
ATOM      2  S1  UNL A   1      14.946  26.221  43.196  1.00  0.00    +0.000 S 
ATOM      3  O1  UNL A   1      13.740  26.479  43.946  1.00  0.00    +0.000 O 
ATOM      4  O2  UNL A   1      15.755  25.040  43.392  1.00  0.00    +0.000 O 
BRANCH    2    1
ATOM      1  N1  UNL A   1      14.464  26.203  41.584  1.00  0.00    +0.000 N 
ATOM     95  H1  UNL A   1      13.999  27.083  41.359  1.00  0.00    +0.000 H 
ATOM     96  H2  UNL A   1      13.821  25.428  41.430  1.00  0.00    +0.000 H 
ENDBRANCH    2    1
ENDBRANCH    5    2
ENDBRANCH    9    8
ENDBRANCH   10    9
ENDBRANCH   11   10
BRANCH   14   15
ATOM    101  H7  UNL A   1      19.180  36.258  47.986  1.00  0.00    +0.000 H 
ATOM     15  O3  UNL A   1      19.653  35.497  47.712  1.00  0.00    +0.000 O 
ENDBRANCH   14   15
ENDBRANCH   17   16
ENDBRANCH   19   17
ENDBRANCH   20   19
ENDBRANCH   21   20
ENDBRANCH   22   21
ENDBRANCH   23   22
ENDBRANCH   24   23
ENDBRANCH   25   24
ENDBRANCH   26   25
ENDBRANCH   27   26
ENDBRANCH   29   27
ENDBRANCH   33   32
BRANCH   37   38
ATOM     38  C26 UNL A   1      29.442  41.217  47.800  1.00  0.00    +0.000 C 
ATOM     39  C27 UNL A   1      29.286  42.362  47.005  1.00  0.00    +0.000 C 
ATOM     40  F1  UNL A   1      28.527  42.320  45.900  1.00  0.00    +0.000 F 
ATOM     41  C28 UNL A   1      29.938  43.551  47.325  1.00  0.00    +0.000 C 
ATOM     42  F2  UNL A   1      29.810  44.620  46.525  1.00  0.00    +0.000 F 
ATOM     43  C29 UNL A   1      30.728  43.629  48.462  1.00  0.00    +0.000 C 
ATOM     44  F3  UNL A   1      31.345  44.777  48.775  1.00  0.00    +0.000 F 
ATOM     45  C30 UNL A   1      30.881  42.514  49.273  1.00  0.00    +0.000 C 
ATOM     46  F4  UNL A   1      31.632  42.590  50.380  1.00  0.00    +0.000 F 
ATOM     47  C31 UNL A   1      30.256  41.316  48.938  1.00  0.00    +0.000 C 
ATOM     48  F5  UNL A   1      30.435  40.252  49.736  1.00  0.00    +0.000 F 
ENDBRANCH   37   38
BRANCH   54   55
ATOM     65  F10 UNL A   1      31.556  34.031  46.176  1.00  0.00    +0.000 F 
ATOM     55  C37 UNL A   1      30.721  35.093  44.217  1.00  0.00    +0.000 C 
ATOM     56  C38 UNL A   1      30.888  35.328  42.843  1.00  0.00    +0.000 C 
ATOM     57  F6  UNL A   1      30.003  36.083  42.175  1.00  0.00    +0.000 F 
ATOM     58  C39 UNL A   1      31.942  34.750  42.141  1.00  0.00    +0.000 C 
ATOM     59  F7  UNL A   1      32.052  34.946  40.820  1.00  0.00    +0.000 F 
ATOM     60  C40 UNL A   1      32.870  33.960  42.803  1.00  0.00    +0.000 C 
ATOM     61  F8  UNL A   1      33.890  33.411  42.127  1.00  0.00    +0.000 F 
ATOM     62  C41 UNL A   1      32.737  33.733  44.164  1.00  0.00    +0.000 C 
ATOM     63  F9  UNL A   1      33.642  32.982  44.809  1.00  0.00    +0.000 F 
ATOM     64  C42 UNL A   1      31.666  34.281  44.863  1.00  0.00    +0.000 C 
ENDBRANCH   54   55
BRANCH   69   70
ATOM     70  C46 UNL A   1      24.229  32.985  45.623  1.00  0.00    +0.000 C 
ATOM     71  C47 UNL A   1      23.237  33.043  44.634  1.00  0.00    +0.000 C 
ATOM     72  F11 UNL A   1      22.977  34.204  44.015  1.00  0.00    +0.000 F 
ATOM     73  C48 UNL A   1      22.480  31.920  44.307  1.00  0.00    +0.000 C 
ATOM     74  F12 UNL A   1      21.506  32.016  43.392  1.00  0.00    +0.000 F 
ATOM     75  C49 UNL A   1      22.723  30.709  44.937  1.00  0.00    +0.000 C 
ATOM     76  F13 UNL A   1      21.999  29.627  44.617  1.00  0.00    +0.000 F 
ATOM     77  C50 UNL A   1      23.713  30.622  45.903  1.00  0.00    +0.000 C 
ATOM     78  F14 UNL A   1      23.966  29.449  46.501  1.00  0.00    +0.000 F 
ATOM     79  C51 UNL A   1      24.448  31.751  46.254  1.00  0.00    +0.000 C 
ATOM     80  F15 UNL A   1      25.392  31.640  47.202  1.00  0.00    +0.000 F 
ENDBRANCH   69   70
TORSDOF 21
ENDMDL
MODEL 2
REMARK VINA RESULT:     -10.3     43.590     45.805
ROOT
ATOM     33  C22 UNL A   1      14.064  53.905   5.207  1.00  0.00    +0.000 C 
ATOM     34  C23 UNL A   1      14.989  54.361   4.113  1.00  0.00    +0.000 C 
ATOM     35  N6  UNL A   1      15.485  53.676   3.114  1.00  0.00    +0.000 N 
ATOM     36  C24 UNL A   1      16.251  54.576   2.383  1.00  0.00    +0.000 C 
ATOM     37  C25 UNL A   1      17.016  54.340   1.290  1.00  0.00    +0.000 C 
ATOM     49  C32 UNL A   1      17.166  53.050   0.666  1.00  0.00    +0.000 C 
ATOM     50  C33 UNL A   1      17.969  52.698  -0.404  1.00  0.00    +0.000 C 
ATOM     51  C34 UNL A   1      17.735  51.352  -0.704  1.00  0.00    +0.000 C 
ATOM     52  C35 UNL A   1      16.830  50.848   0.216  1.00  0.00    +0.000 C 
ATOM     53  N7  UNL A   1      16.492  51.900   1.054  1.00  0.00    +0.000 N 
ATOM     54  C36 UNL A   1      16.310  49.509   0.322  1.00  0.00    +0.000 C 
ATOM     66  C43 UNL A   1      15.454  49.085   1.285  1.00  0.00    +0.000 C 
ATOM     67  N8  UNL A   1      14.895  49.802   2.334  1.00  0.00    +0.000 N 
ATOM     68  C44 UNL A   1      14.121  48.960   2.973  1.00  0.00    +0.000 C 
ATOM     69  C45 UNL A   1      13.284  49.186   4.202  1.00  0.00    +0.000 C 
ATOM     81  C52 UNL A   1      13.286  50.401   4.784  1.00  0.00    +0.000 C 
ATOM     82  C53 UNL A   1      12.527  50.767   5.974  1.00  0.00    +0.000 C 
ATOM     83  C54 UNL A   1      12.716  52.071   6.230  1.00  0.00    +0.000 C 
ATOM     84  C55 UNL A   1      13.648  52.624   5.246  1.00  0.00    +0.000 C 
ATOM     85  N9  UNL A   1      13.942  51.557   4.434  1.00  0.00    +0.000 N 
ATOM     86  C56 UNL A   1      14.083  47.613   2.385  1.00  0.00    +0.000 C 
ATOM     87  C57 UNL A   1      14.945  47.733   1.385  1.00  0.00    +0.000 C 
ATOM     88  C58 UNL A   1      16.110  55.867   3.023  1.00  0.00    +0.000 C 
ATOM     89  C59 UNL A   1      15.387  55.776   4.131  1.00  0.00    +0.000 C 
ATOM    118  H24 UNL A   1      18.628  53.321  -0.897  1.00  0.00    +0.000 H 
ATOM    119  H25 UNL A   1      18.164  50.823  -1.480  1.00  0.00    +0.000 H 
ATOM    120  H26 UNL A   1      15.866  51.840   1.812  1.00  0.00    +0.000 H 
ATOM    121  H27 UNL A   1      11.939  50.127   6.531  1.00  0.00    +0.000 H 
ATOM    122  H28 UNL A   1      12.274  52.600   6.999  1.00  0.00    +0.000 H 
ATOM    123  H29 UNL A   1      14.565  51.614   3.673  1.00  0.00    +0.000 H 
ATOM    124  H30 UNL A   1      13.531  46.791   2.675  1.00  0.00    +0.000 H 
ATOM    125  H31 UNL A   1      15.217  46.960   0.757  1.00  0.00    +0.000 H 
ATOM    126  H32 UNL A   1      16.519  56.743   2.664  1.00  0.00    +0.000 H 
ATOM    127  H33 UNL A   1      15.162  56.507   4.823  1.00  0.00    +0.000 H 
ENDROOT
BRANCH   33   32
ATOM    129  H35 UNL A   1      14.361  56.305   9.129  1.00  0.00    +0.000 H 
ATOM    128  H34 UNL A   1      15.173  54.673   7.529  1.00  0.00    +0.000 H 
ATOM    116  H22 UNL A   1      11.021  57.051   6.685  1.00  0.00    +0.000 H 
ATOM    117  H23 UNL A   1      11.718  55.266   5.196  1.00  0.00    +0.000 H 
ATOM     90  C60 UNL A   1      14.286  55.171   7.352  1.00  0.00    +0.000 C 
ATOM     91  C61 UNL A   1      13.842  56.137   8.253  1.00  0.00    +0.000 C 
ATOM     29  C18 UNL A   1      12.692  56.878   7.968  1.00  0.00    +0.000 C 
ATOM     30  C19 UNL A   1      11.903  56.546   6.861  1.00  0.00    +0.000 C 
ATOM     31  C20 UNL A   1      12.314  55.531   5.995  1.00  0.00    +0.000 C 
ATOM     32  C21 UNL A   1      13.535  54.869   6.206  1.00  0.00    +0.000 C 
BRANCH   29   27
ATOM     27  C17 UNL A   1      12.276  58.016   8.819  1.00  0.00    +0.000 C 
ATOM     28  O5  UNL A   1      12.835  59.102   8.694  1.00  0.00    +0.000 O 
BRANCH   27   26
ATOM     26  N5  UNL A   1      11.291  57.855   9.762  1.00  0.00    +0.000 N 
ATOM    115  H21 UNL A   1      11.039  58.675  10.246  1.00  0.00    +0.000 H 
BRANCH   26   25
ATOM     25  C16 UNL A   1      10.565  56.659  10.155  1.00  0.00    +0.000 C 
ATOM    114  H20 UNL A   1      10.824  55.884   9.464  1.00  0.00    +0.000 H 
ATOM    113  H19 UNL A   1       9.516  56.875  10.135  1.00  0.00    +0.000 H 
BRANCH   25   24
ATOM    112  H18 UNL A   1      10.007  56.021  12.061  1.00  0.00    +0.000 H 
ATOM    111  H17 UNL A   1      11.564  56.914  12.001  1.00  0.00    +0.000 H 
ATOM     24  C15 UNL A   1      10.936  56.173  11.553  1.00  0.00    +0.000 C 
BRANCH   24   23
ATOM    109  H15 UNL A   1      12.647  55.015  12.015  1.00  0.00    +0.000 H 
ATOM    110  H16 UNL A   1      11.055  54.203  12.233  1.00  0.00    +0.000 H 
ATOM     23  C14 UNL A   1      11.669  54.831  11.622  1.00  0.00    +0.000 C 
BRANCH   23   22
ATOM    107  H13 UNL A   1      10.907  53.586  10.088  1.00  0.00    +0.000 H 
ATOM    108  H14 UNL A   1      12.120  54.817   9.585  1.00  0.00    +0.000 H 
ATOM     22  C13 UNL A   1      11.834  54.075  10.301  1.00  0.00    +0.000 C 
BRANCH   22   21
ATOM    105  H11 UNL A   1      12.566  52.138  10.730  1.00  0.00    +0.000 H 
ATOM    106  H12 UNL A   1      13.168  52.901   9.213  1.00  0.00    +0.000 H 
ATOM     21  C12 UNL A   1      12.938  53.020  10.251  1.00  0.00    +0.000 C 
BRANCH   21   20
ATOM     20  C11 UNL A   1      14.260  53.383  10.916  1.00  0.00    +0.000 C 
ATOM    103  H9  UNL A   1      15.055  53.082  10.267  1.00  0.00    +0.000 H 
ATOM    104  H10 UNL A   1      14.238  54.440  11.085  1.00  0.00    +0.000 H 
BRANCH   20   19
ATOM     19  N4  UNL A   1      14.471  52.761  12.213  1.00  0.00    +0.000 N 
ATOM    102  H8  UNL A   1      14.259  53.334  12.984  1.00  0.00    +0.000 H 
BRANCH   19   17
ATOM     17  C10 UNL A   1      14.919  51.499  12.540  1.00  0.00    +0.000 C 
ATOM     18  O4  UNL A   1      14.966  51.170  13.728  1.00  0.00    +0.000 O 
BRANCH   17   16
ATOM    130  H36 UNL A   1      13.292  49.884  11.074  1.00  0.00    +0.000 H 
ATOM     99  H5  UNL A   1      16.268  47.523   9.295  1.00  0.00    +0.000 H 
ATOM    100  H6  UNL A   1      17.940  49.135  10.000  1.00  0.00    +0.000 H 
ATOM     11  C5  UNL A   1      14.645  48.511  10.213  1.00  0.00    +0.000 C 
ATOM     12  C6  UNL A   1      15.989  48.333   9.870  1.00  0.00    +0.000 C 
ATOM     13  C7  UNL A   1      16.959  49.244  10.300  1.00  0.00    +0.000 C 
ATOM     14  C8  UNL A   1      16.597  50.300  11.136  1.00  0.00    +0.000 C 
ATOM     16  C9  UNL A   1      15.262  50.477  11.519  1.00  0.00    +0.000 C 
ATOM     92  C62 UNL A   1      14.290  49.651  10.950  1.00  0.00    +0.000 C 
BRANCH   11   10
ATOM     10  N3  UNL A   1      13.700  47.510   9.878  1.00  0.00    +0.000 N 
BRANCH   10    9
ATOM      9  N2  UNL A   1      12.645  47.685  10.532  1.00  0.00    +0.000 N 
BRANCH    9    8
ATOM     97  H3  UNL A   1       9.794  49.584   7.565  1.00  0.00    +0.000 H 
ATOM     98  H4  UNL A   1      11.893  49.485   8.784  1.00  0.00    +0.000 H 
ATOM    131  H37 UNL A   1      10.728  45.834  10.515  1.00  0.00    +0.000 H 
ATOM    132  H38 UNL A   1       8.621  45.931   9.312  1.00  0.00    +0.000 H 
ATOM      5  C1  UNL A   1       9.053  47.766   8.355  1.00  0.00    +0.000 C 
ATOM      6  C2  UNL A   1       9.991  48.789   8.194  1.00  0.00    +0.000 C 
ATOM      7  C3  UNL A   1      11.202  48.727   8.893  1.00  0.00    +0.000 C 
ATOM      8  C4  UNL A   1      11.487  47.647   9.740  1.00  0.00    +0.000 C 
ATOM     93  C63 UNL A   1      10.532  46.631   9.890  1.00  0.00    +0.000 C 
ATOM     94  C64 UNL A   1       9.318  46.685   9.199  1.00  0.00    +0.000 C 
BRANCH    5    2
ATOM      2  S1  UNL A   1       7.507  47.847   7.497  1.00  0.00    +0.000 S 
ATOM      3  O1  UNL A   1       6.544  48.528   8.328  1.00  0.00    +0.000 O 
ATOM      4  O2  UNL A   1       7.254  46.559   6.894  1.00  0.00    +0.000 O 
BRANCH    2    1
ATOM      1  N1  UNL A   1       7.824  48.909   6.232  1.00  0.00    +0.000 N 
ATOM     95  H1  UNL A   1       8.441  48.459   5.556  1.00  0.00    +0.000 H 
ATOM     96  H2  UNL A   1       8.273  49.749   6.596  1.00  0.00    +0.000 H 
ENDBRANCH    2    1
ENDBRANCH    5    2
ENDBRANCH    9    8
ENDBRANCH   10    9
ENDBRANCH   11   10
BRANCH   14   15
ATOM    101  H7  UNL A   1      17.629  51.428  12.439  1.00  0.00    +0.000 H 
ATOM     15  O3  UNL A   1      17.609  51.122  11.554  1.00  0.00    +0.000 O 
ENDBRANCH   14   15
ENDBRANCH   17   16
ENDBRANCH   19   17
ENDBRANCH   20   19
ENDBRANCH   21   20
ENDBRANCH   22   21
ENDBRANCH   23   22
ENDBRANCH   24   23
ENDBRANCH   25   24
ENDBRANCH   26   25
ENDBRANCH   27   26
ENDBRANCH   29   27
ENDBRANCH   33   32
BRANCH   37   38
ATOM     38  C26 UNL A   1      17.749  55.504   0.684  1.00  0.00    +0.000 C 
ATOM     39  C27 UNL A   1      19.023  55.884   1.130  1.00  0.00    +0.000 C 
ATOM     40  F1  UNL A   1      19.598  55.246   2.159  1.00  0.00    +0.000 F 
ATOM     41  C28 UNL A   1      19.701  56.948   0.538  1.00  0.00    +0.000 C 
ATOM     42  F2  UNL A   1      20.899  57.323   1.010  1.00  0.00    +0.000 F 
ATOM     43  C29 UNL A   1      19.136  57.627  -0.531  1.00  0.00    +0.000 C 
ATOM     44  F3  UNL A   1      19.795  58.642  -1.106  1.00  0.00    +0.000 F 
ATOM     45  C30 UNL A   1      17.885  57.256  -1.000  1.00  0.00    +0.000 C 
ATOM     46  F4  UNL A   1      17.342  57.900  -2.042  1.00  0.00    +0.000 F 
ATOM     47  C31 UNL A   1      17.192  56.213  -0.390  1.00  0.00    +0.000 C 
ATOM     48  F5  UNL A   1      15.978  55.887  -0.859  1.00  0.00    +0.000 F 
ENDBRANCH   37   38
BRANCH   54   55
ATOM     65  F10 UNL A   1      14.817  48.870  -2.016  1.00  0.00    +0.000 F 
ATOM     55  C37 UNL A   1      16.759  48.496  -0.692  1.00  0.00    +0.000 C 
ATOM     56  C38 UNL A   1      17.953  47.776  -0.530  1.00  0.00    +0.000 C 
ATOM     57  F6  UNL A   1      18.751  48.020   0.520  1.00  0.00    +0.000 F 
ATOM     58  C39 UNL A   1      18.352  46.832  -1.472  1.00  0.00    +0.000 C 
ATOM     59  F7  UNL A   1      19.521  46.193  -1.324  1.00  0.00    +0.000 F 
ATOM     60  C40 UNL A   1      17.551  46.561  -2.570  1.00  0.00    +0.000 C 
ATOM     61  F8  UNL A   1      17.933  45.645  -3.472  1.00  0.00    +0.000 F 
ATOM     62  C41 UNL A   1      16.357  47.246  -2.739  1.00  0.00    +0.000 C 
ATOM     63  F9  UNL A   1      15.573  46.975  -3.793  1.00  0.00    +0.000 F 
ATOM     64  C42 UNL A   1      15.970  48.215  -1.818  1.00  0.00    +0.000 C 
ENDBRANCH   54   55
BRANCH   69   70
ATOM     70  C46 UNL A   1      12.462  48.090   4.780  1.00  0.00    +0.000 C 
ATOM     71  C47 UNL A   1      11.188  47.798   4.271  1.00  0.00    +0.000 C 
ATOM     72  F11 UNL A   1      10.690  48.523   3.259  1.00  0.00    +0.000 F 
ATOM     73  C48 UNL A   1      10.405  46.789   4.828  1.00  0.00    +0.000 C 
ATOM     74  F12 UNL A   1       9.173  46.564   4.353  1.00  0.00    +0.000 F 
ATOM     75  C49 UNL A   1      10.893  46.030   5.880  1.00  0.00    +0.000 C 
ATOM     76  F13 UNL A   1      10.142  45.054   6.411  1.00  0.00    +0.000 F 
ATOM     77  C50 UNL A   1      12.158  46.286   6.386  1.00  0.00    +0.000 C 
ATOM     78  F14 UNL A   1      12.643  45.541   7.390  1.00  0.00    +0.000 F 
ATOM     79  C51 UNL A   1      12.929  47.315   5.853  1.00  0.00    +0.000 C 
ATOM     80  F15 UNL A   1      14.145  47.549   6.370  1.00  0.00    +0.000 F 
ENDBRANCH   69   70
TORSDOF 21
ENDMDL
MODEL 3
REMARK VINA RESULT:     -10.1     21.685     26.560
ROOT
ATOM     33  C22 UNL A   1      39.775  29.041  29.336  1.00  0.00    +0.000 C 
ATOM     34  C23 UNL A   1      40.486  27.803  28.871  1.00  0.00    +0.000 C 
ATOM     35  N6  UNL A   1      41.669  27.355  29.207  1.00  0.00    +0.000 N 
ATOM     36  C24 UNL A   1      41.832  26.161  28.516  1.00  0.00    +0.000 C 
ATOM     37  C25 UNL A   1      42.914  25.346  28.482  1.00  0.00    +0.000 C 
ATOM     49  C32 UNL A   1      44.139  25.592  29.200  1.00  0.00    +0.000 C 
ATOM     50  C33 UNL A   1      45.313  24.859  29.178  1.00  0.00    +0.000 C 
ATOM     51  C34 UNL A   1      46.207  25.436  30.087  1.00  0.00    +0.000 C 
ATOM     52  C35 UNL A   1      45.612  26.562  30.633  1.00  0.00    +0.000 C 
ATOM     53  N7  UNL A   1      44.345  26.648  30.076  1.00  0.00    +0.000 N 
ATOM     54  C36 UNL A   1      46.157  27.489  31.591  1.00  0.00    +0.000 C 
ATOM     66  C43 UNL A   1      45.520  28.598  32.045  1.00  0.00    +0.000 C 
ATOM     67  N8  UNL A   1      44.257  29.072  31.721  1.00  0.00    +0.000 N 
ATOM     68  C44 UNL A   1      44.088  30.160  32.433  1.00  0.00    +0.000 C 
ATOM     69  C45 UNL A   1      42.912  31.096  32.470  1.00  0.00    +0.000 C 
ATOM     81  C52 UNL A   1      41.849  30.847  31.683  1.00  0.00    +0.000 C 
ATOM     82  C53 UNL A   1      40.641  31.662  31.613  1.00  0.00    +0.000 C 
ATOM     83  C54 UNL A   1      39.767  31.080  30.778  1.00  0.00    +0.000 C 
ATOM     84  C55 UNL A   1      40.371  29.870  30.216  1.00  0.00    +0.000 C 
ATOM     85  N9  UNL A   1      41.612  29.818  30.802  1.00  0.00    +0.000 N 
ATOM     86  C56 UNL A   1      45.222  30.486  33.310  1.00  0.00    +0.000 C 
ATOM     87  C57 UNL A   1      46.084  29.526  33.002  1.00  0.00    +0.000 C 
ATOM     88  C58 UNL A   1      40.606  25.928  27.782  1.00  0.00    +0.000 C 
ATOM     89  C59 UNL A   1      39.764  26.943  27.922  1.00  0.00    +0.000 C 
ATOM    118  H24 UNL A   1      45.498  24.030  28.591  1.00  0.00    +0.000 H 
ATOM    119  H25 UNL A   1      47.150  25.082  30.313  1.00  0.00    +0.000 H 
ATOM    120  H26 UNL A   1      43.688  27.354  30.275  1.00  0.00    +0.000 H 
ATOM    121  H27 UNL A   1      40.484  32.545  32.123  1.00  0.00    +0.000 H 
ATOM    122  H28 UNL A   1      38.819  31.429  30.565  1.00  0.00    +0.000 H 
ATOM    123  H29 UNL A   1      42.270  29.112  30.609  1.00  0.00    +0.000 H 
ATOM    124  H30 UNL A   1      45.321  31.259  33.986  1.00  0.00    +0.000 H 
ATOM    125  H31 UNL A   1      47.034  29.451  33.397  1.00  0.00    +0.000 H 
ATOM    126  H32 UNL A   1      40.412  25.082  27.225  1.00  0.00    +0.000 H 
ATOM    127  H33 UNL A   1      38.843  27.089  27.480  1.00  0.00    +0.000 H 
ENDROOT
BRANCH   33   32
ATOM    129  H35 UNL A   1      35.235  29.309  30.075  1.00  0.00    +0.000 H 
ATOM    128  H34 UNL A   1      37.502  28.767  30.742  1.00  0.00    +0.000 H 
ATOM    116  H22 UNL A   1      36.640  30.632  26.339  1.00  0.00    +0.000 H 
ATOM    117  H23 UNL A   1      38.875  29.889  26.922  1.00  0.00    +0.000 H 
ATOM     90  C60 UNL A   1      37.321  29.155  29.802  1.00  0.00    +0.000 C 
ATOM     91  C61 UNL A   1      36.022  29.503  29.436  1.00  0.00    +0.000 C 
ATOM     29  C18 UNL A   1      35.786  30.115  28.202  1.00  0.00    +0.000 C 
ATOM     30  C19 UNL A   1      36.826  30.238  27.273  1.00  0.00    +0.000 C 
ATOM     31  C20 UNL A   1      38.115  29.826  27.616  1.00  0.00    +0.000 C 
ATOM     32  C21 UNL A   1      38.383  29.328  28.902  1.00  0.00    +0.000 C 
BRANCH   29   27
ATOM     27  C17 UNL A   1      34.450  30.640  27.842  1.00  0.00    +0.000 C 
ATOM     28  O5  UNL A   1      34.082  31.721  28.294  1.00  0.00    +0.000 O 
BRANCH   27   26
ATOM     26  N5  UNL A   1      33.613  29.913  27.033  1.00  0.00    +0.000 N 
ATOM    115  H21 UNL A   1      33.978  29.696  26.144  1.00  0.00    +0.000 H 
BRANCH   26   25
ATOM     25  C16 UNL A   1      32.272  29.415  27.287  1.00  0.00    +0.000 C 
ATOM    114  H20 UNL A   1      31.623  29.849  26.555  1.00  0.00    +0.000 H 
ATOM    113  H19 UNL A   1      31.989  29.690  28.282  1.00  0.00    +0.000 H 
BRANCH   25   24
ATOM    112  H18 UNL A   1      31.847  27.546  28.111  1.00  0.00    +0.000 H 
ATOM    111  H17 UNL A   1      33.125  27.530  26.850  1.00  0.00    +0.000 H 
ATOM     24  C15 UNL A   1      32.168  27.898  27.153  1.00  0.00    +0.000 C 
BRANCH   24   23
ATOM    109  H15 UNL A   1      30.165  27.707  26.493  1.00  0.00    +0.000 H 
ATOM    110  H16 UNL A   1      31.422  27.786  25.207  1.00  0.00    +0.000 H 
ATOM     23  C14 UNL A   1      31.128  27.385  26.154  1.00  0.00    +0.000 C 
BRANCH   23   22
ATOM    107  H13 UNL A   1      30.123  25.529  26.325  1.00  0.00    +0.000 H 
ATOM    108  H14 UNL A   1      31.209  25.718  24.902  1.00  0.00    +0.000 H 
ATOM     22  C13 UNL A   1      31.066  25.869  25.952  1.00  0.00    +0.000 C 
BRANCH   22   21
ATOM    105  H11 UNL A   1      32.983  24.976  25.953  1.00  0.00    +0.000 H 
ATOM    106  H12 UNL A   1      32.372  25.556  27.544  1.00  0.00    +0.000 H 
ATOM     21  C12 UNL A   1      32.158  25.044  26.630  1.00  0.00    +0.000 C 
BRANCH   21   20
ATOM     20  C11 UNL A   1      31.784  23.625  27.044  1.00  0.00    +0.000 C 
ATOM    103  H9  UNL A   1      31.247  23.676  27.968  1.00  0.00    +0.000 H 
ATOM    104  H10 UNL A   1      31.199  23.217  26.245  1.00  0.00    +0.000 H 
BRANCH   20   19
ATOM     19  N4  UNL A   1      32.918  22.734  27.226  1.00  0.00    +0.000 N 
ATOM    102  H8  UNL A   1      33.149  22.549  28.165  1.00  0.00    +0.000 H 
BRANCH   19   17
ATOM     17  C10 UNL A   1      33.722  22.104  26.301  1.00  0.00    +0.000 C 
ATOM     18  O4  UNL A   1      34.692  21.452  26.696  1.00  0.00    +0.000 O 
BRANCH   17   16
ATOM    130  H36 UNL A   1      34.559  23.790  24.336  1.00  0.00    +0.000 H 
ATOM     99  H5  UNL A   1      32.172  22.292  21.229  1.00  0.00    +0.000 H 
ATOM    100  H6  UNL A   1      31.686  20.332  22.575  1.00  0.00    +0.000 H 
ATOM     11  C5  UNL A   1      33.325  23.262  22.706  1.00  0.00    +0.000 C 
ATOM     12  C6  UNL A   1      32.534  22.230  22.193  1.00  0.00    +0.000 C 
ATOM     13  C7  UNL A   1      32.227  21.113  22.977  1.00  0.00    +0.000 C 
ATOM     14  C8  UNL A   1      32.654  21.058  24.303  1.00  0.00    +0.000 C 
ATOM     16  C9  UNL A   1      33.420  22.096  24.847  1.00  0.00    +0.000 C 
ATOM     92  C62 UNL A   1      33.846  23.123  24.001  1.00  0.00    +0.000 C 
BRANCH   11   10
ATOM     10  N3  UNL A   1      33.516  24.441  21.944  1.00  0.00    +0.000 N 
BRANCH   10    9
ATOM      9  N2  UNL A   1      33.735  25.411  22.709  1.00  0.00    +0.000 N 
BRANCH    9    8
ATOM     97  H3  UNL A   1      32.506  29.759  23.055  1.00  0.00    +0.000 H 
ATOM     98  H4  UNL A   1      34.158  27.979  23.002  1.00  0.00    +0.000 H 
ATOM    131  H37 UNL A   1      31.125  25.172  22.225  1.00  0.00    +0.000 H 
ATOM    132  H38 UNL A   1      29.464  26.942  22.291  1.00  0.00    +0.000 H 
ATOM      5  C1  UNL A   1      30.864  28.478  22.681  1.00  0.00    +0.000 C 
ATOM      6  C2  UNL A   1      32.212  28.785  22.882  1.00  0.00    +0.000 C 
ATOM      7  C3  UNL A   1      33.162  27.758  22.845  1.00  0.00    +0.000 C 
ATOM      8  C4  UNL A   1      32.778  26.433  22.599  1.00  0.00    +0.000 C 
ATOM     93  C63 UNL A   1      31.420  26.145  22.402  1.00  0.00    +0.000 C 
ATOM     94  C64 UNL A   1      30.462  27.162  22.440  1.00  0.00    +0.000 C 
BRANCH    5    2
ATOM      2  S1  UNL A   1      29.649  29.763  22.753  1.00  0.00    +0.000 S 
ATOM      3  O1  UNL A   1      29.590  30.426  21.473  1.00  0.00    +0.000 O 
ATOM      4  O2  UNL A   1      29.813  30.475  24.000  1.00  0.00    +0.000 O 
BRANCH    2    1
ATOM      1  N1  UNL A   1      28.200  28.917  22.876  1.00  0.00    +0.000 N 
ATOM     95  H1  UNL A   1      28.145  28.227  22.127  1.00  0.00    +0.000 H 
ATOM     96  H2  UNL A   1      27.419  29.567  22.800  1.00  0.00    +0.000 H 
ENDBRANCH    2    1
ENDBRANCH    5    2
ENDBRANCH    9    8
ENDBRANCH   10    9
ENDBRANCH   11   10
BRANCH   14   15
ATOM    101  H7  UNL A   1      31.546  20.005  25.607  1.00  0.00    +0.000 H 
ATOM     15  O3  UNL A   1      32.275  19.954  25.021  1.00  0.00    +0.000 O 
ENDBRANCH   14   15
ENDBRANCH   17   16
ENDBRANCH   19   17
ENDBRANCH   20   19
ENDBRANCH   21   20
ENDBRANCH   22   21
ENDBRANCH   23   22
ENDBRANCH   24   23
ENDBRANCH   25   24
ENDBRANCH   26   25
ENDBRANCH   27   26
ENDBRANCH   29   27
ENDBRANCH   33   32
BRANCH   37   38
ATOM     38  C26 UNL A   1      42.826  24.101  27.646  1.00  0.00    +0.000 C 
ATOM     39  C27 UNL A   1      43.117  24.113  26.273  1.00  0.00    +0.000 C 
ATOM     40  F1  UNL A   1      43.425  25.263  25.657  1.00  0.00    +0.000 F 
ATOM     41  C28 UNL A   1      43.058  22.943  25.519  1.00  0.00    +0.000 C 
ATOM     42  F2  UNL A   1      43.295  22.986  24.199  1.00  0.00    +0.000 F 
ATOM     43  C29 UNL A   1      42.745  21.736  26.126  1.00  0.00    +0.000 C 
ATOM     44  F3  UNL A   1      42.700  20.611  25.400  1.00  0.00    +0.000 F 
ATOM     45  C30 UNL A   1      42.473  21.698  27.485  1.00  0.00    +0.000 C 
ATOM     46  F4  UNL A   1      42.185  20.531  28.077  1.00  0.00    +0.000 F 
ATOM     47  C31 UNL A   1      42.500  22.870  28.236  1.00  0.00    +0.000 C 
ATOM     48  F5  UNL A   1      42.220  22.802  29.546  1.00  0.00    +0.000 F 
ENDBRANCH   37   38
BRANCH   54   55
ATOM     65  F10 UNL A   1      46.679  25.896  33.891  1.00  0.00    +0.000 F 
ATOM     55  C37 UNL A   1      47.540  27.227  32.116  1.00  0.00    +0.000 C 
ATOM     56  C38 UNL A   1      48.674  27.784  31.505  1.00  0.00    +0.000 C 
ATOM     57  F6  UNL A   1      48.547  28.526  30.395  1.00  0.00    +0.000 F 
ATOM     58  C39 UNL A   1      49.949  27.543  32.010  1.00  0.00    +0.000 C 
ATOM     59  F7  UNL A   1      51.022  28.041  31.380  1.00  0.00    +0.000 F 
ATOM     60  C40 UNL A   1      50.113  26.776  33.153  1.00  0.00    +0.000 C 
ATOM     61  F8  UNL A   1      51.341  26.552  33.642  1.00  0.00    +0.000 F 
ATOM     62  C41 UNL A   1      49.004  26.234  33.785  1.00  0.00    +0.000 C 
ATOM     63  F9  UNL A   1      49.159  25.504  34.900  1.00  0.00    +0.000 F 
ATOM     64  C42 UNL A   1      47.730  26.445  33.265  1.00  0.00    +0.000 C 
ENDBRANCH   54   55
BRANCH   69   70
ATOM     70  C46 UNL A   1      42.913  32.289  33.359  1.00  0.00    +0.000 C 
ATOM     71  C47 UNL A   1      42.389  32.221  34.658  1.00  0.00    +0.000 C 
ATOM     72  F11 UNL A   1      41.865  31.072  35.108  1.00  0.00    +0.000 F 
ATOM     73  C48 UNL A   1      42.363  33.343  35.483  1.00  0.00    +0.000 C 
ATOM     74  F12 UNL A   1      41.814  33.262  36.702  1.00  0.00    +0.000 F 
ATOM     75  C49 UNL A   1      42.892  34.546  35.039  1.00  0.00    +0.000 C 
ATOM     76  F13 UNL A   1      42.873  35.624  35.835  1.00  0.00    +0.000 F 
ATOM     77  C50 UNL A   1      43.433  34.632  33.765  1.00  0.00    +0.000 C 
ATOM     78  F14 UNL A   1      43.964  35.787  33.338  1.00  0.00    +0.000 F 
ATOM     79  C51 UNL A   1      43.430  33.520  32.928  1.00  0.00    +0.000 C 
ATOM     80  F15 UNL A   1      43.950  33.635  31.696  1.00  0.00    +0.000 F 
ENDBRANCH   69   70
TORSDOF 21
ENDMDL
MODEL 4
REMARK VINA RESULT:      -9.8     21.447     26.201
ROOT
ATOM     33  C22 UNL A   1      39.514  28.951  29.384  1.00  0.00    +0.000 C 
ATOM     34  C23 UNL A   1      40.260  27.732  28.920  1.00  0.00    +0.000 C 
ATOM     35  N6  UNL A   1      41.427  27.281  29.305  1.00  0.00    +0.000 N 
ATOM     36  C24 UNL A   1      41.636  26.111  28.587  1.00  0.00    +0.000 C 
ATOM     37  C25 UNL A   1      42.725  25.304  28.586  1.00  0.00    +0.000 C 
ATOM     49  C32 UNL A   1      43.908  25.536  29.376  1.00  0.00    +0.000 C 
ATOM     50  C33 UNL A   1      45.087  24.812  29.394  1.00  0.00    +0.000 C 
ATOM     51  C34 UNL A   1      45.926  25.366  30.367  1.00  0.00    +0.000 C 
ATOM     52  C35 UNL A   1      45.294  26.471  30.914  1.00  0.00    +0.000 C 
ATOM     53  N7  UNL A   1      44.058  26.566  30.294  1.00  0.00    +0.000 N 
ATOM     54  C36 UNL A   1      45.779  27.371  31.929  1.00  0.00    +0.000 C 
ATOM     66  C43 UNL A   1      45.111  28.461  32.381  1.00  0.00    +0.000 C 
ATOM     67  N8  UNL A   1      43.862  28.937  32.005  1.00  0.00    +0.000 N 
ATOM     68  C44 UNL A   1      43.647  30.001  32.740  1.00  0.00    +0.000 C 
ATOM     69  C45 UNL A   1      42.463  30.928  32.742  1.00  0.00    +0.000 C 
ATOM     81  C52 UNL A   1      41.445  30.696  31.892  1.00  0.00    +0.000 C 
ATOM     82  C53 UNL A   1      40.236  31.505  31.783  1.00  0.00    +0.000 C 
ATOM     83  C54 UNL A   1      39.413  30.943  30.884  1.00  0.00    +0.000 C 
ATOM     84  C55 UNL A   1      40.056  29.756  30.319  1.00  0.00    +0.000 C 
ATOM     85  N9  UNL A   1      41.264  29.694  30.968  1.00  0.00    +0.000 N 
ATOM     86  C56 UNL A   1      44.730  30.307  33.686  1.00  0.00    +0.000 C 
ATOM     87  C57 UNL A   1      45.614  29.363  33.395  1.00  0.00    +0.000 C 
ATOM     88  C58 UNL A   1      40.452  25.892  27.782  1.00  0.00    +0.000 C 
ATOM     89  C59 UNL A   1      39.596  26.897  27.907  1.00  0.00    +0.000 C 
ATOM    118  H24 UNL A   1      45.310  24.003  28.794  1.00  0.00    +0.000 H 
ATOM    119  H25 UNL A   1      46.859  25.011  30.632  1.00  0.00    +0.000 H 
ATOM    120  H26 UNL A   1      43.385  27.261  30.478  1.00  0.00    +0.000 H 
ATOM    121  H27 UNL A   1      40.045  32.371  32.311  1.00  0.00    +0.000 H 
ATOM    122  H28 UNL A   1      38.475  31.293  30.632  1.00  0.00    +0.000 H 
ATOM    123  H29 UNL A   1      41.937  28.998  30.790  1.00  0.00    +0.000 H 
ATOM    124  H30 UNL A   1      44.787  31.060  34.390  1.00  0.00    +0.000 H 
ATOM    125  H31 UNL A   1      46.543  29.282  33.838  1.00  0.00    +0.000 H 
ATOM    126  H32 UNL A   1      40.296  25.063  27.189  1.00  0.00    +0.000 H 
ATOM    127  H33 UNL A   1      38.699  27.051  27.422  1.00  0.00    +0.000 H 
ENDROOT
BRANCH   33   32
ATOM    129  H35 UNL A   1      34.947  29.249  29.913  1.00  0.00    +0.000 H 
ATOM    128  H34 UNL A   1      37.178  28.700  30.686  1.00  0.00    +0.000 H 
ATOM    116  H22 UNL A   1      36.528  30.535  26.235  1.00  0.00    +0.000 H 
ATOM    117  H23 UNL A   1      38.730  29.784  26.924  1.00  0.00    +0.000 H 
ATOM     90  C60 UNL A   1      37.042  29.082  29.737  1.00  0.00    +0.000 C 
ATOM     91  C61 UNL A   1      35.763  29.434  29.309  1.00  0.00    +0.000 C 
ATOM     29  C18 UNL A   1      35.588  30.038  28.061  1.00  0.00    +0.000 C 
ATOM     30  C19 UNL A   1      36.669  30.148  27.180  1.00  0.00    +0.000 C 
ATOM     31  C20 UNL A   1      37.939  29.732  27.584  1.00  0.00    +0.000 C 
ATOM     32  C21 UNL A   1      38.146  29.242  28.885  1.00  0.00    +0.000 C 
BRANCH   29   27
ATOM     27  C17 UNL A   1      34.272  30.567  27.638  1.00  0.00    +0.000 C 
ATOM     28  O5  UNL A   1      33.854  31.613  28.126  1.00  0.00    +0.000 O 
BRANCH   27   26
ATOM     26  N5  UNL A   1      33.508  29.881  26.726  1.00  0.00    +0.000 N 
ATOM    115  H21 UNL A   1      33.717  30.069  25.781  1.00  0.00    +0.000 H 
BRANCH   26   25
ATOM     25  C16 UNL A   1      32.440  28.920  26.942  1.00  0.00    +0.000 C 
ATOM    114  H20 UNL A   1      31.710  29.072  26.174  1.00  0.00    +0.000 H 
ATOM    113  H19 UNL A   1      32.030  29.079  27.918  1.00  0.00    +0.000 H 
BRANCH   25   24
ATOM    112  H18 UNL A   1      32.033  26.889  26.692  1.00  0.00    +0.000 H 
ATOM    111  H17 UNL A   1      33.444  27.241  27.745  1.00  0.00    +0.000 H 
ATOM     24  C15 UNL A   1      32.916  27.473  26.844  1.00  0.00    +0.000 C 
BRANCH   24   23
ATOM    109  H15 UNL A   1      33.374  27.537  24.778  1.00  0.00    +0.000 H 
ATOM    110  H16 UNL A   1      34.776  27.595  25.906  1.00  0.00    +0.000 H 
ATOM     23  C14 UNL A   1      33.834  27.149  25.663  1.00  0.00    +0.000 C 
BRANCH   23   22
ATOM    107  H13 UNL A   1      35.008  25.417  25.988  1.00  0.00    +0.000 H 
ATOM    108  H14 UNL A   1      33.250  25.147  25.712  1.00  0.00    +0.000 H 
ATOM     22  C13 UNL A   1      34.137  25.669  25.420  1.00  0.00    +0.000 C 
BRANCH   22   21
ATOM    105  H11 UNL A   1      33.455  25.286  23.455  1.00  0.00    +0.000 H 
ATOM    106  H12 UNL A   1      35.128  25.936  23.607  1.00  0.00    +0.000 H 
ATOM     21  C12 UNL A   1      34.391  25.252  23.972  1.00  0.00    +0.000 C 
BRANCH   21   20
ATOM     20  C11 UNL A   1      34.988  23.866  23.755  1.00  0.00    +0.000 C 
ATOM    103  H9  UNL A   1      35.876  23.972  23.167  1.00  0.00    +0.000 H 
ATOM    104  H10 UNL A   1      35.179  23.459  24.727  1.00  0.00    +0.000 H 
BRANCH   20   19
ATOM     19  N4  UNL A   1      34.104  22.931  23.080  1.00  0.00    +0.000 N 
ATOM    102  H8  UNL A   1      34.347  22.736  22.146  1.00  0.00    +0.000 H 
BRANCH   19   17
ATOM     17  C10 UNL A   1      32.982  22.271  23.531  1.00  0.00    +0.000 C 
ATOM     18  O4  UNL A   1      32.705  21.166  23.058  1.00  0.00    +0.000 O 
BRANCH   17   16
ATOM    130  H36 UNL A   1      30.874  23.991  23.455  1.00  0.00    +0.000 H 
ATOM     99  H5  UNL A   1      30.354  24.459  27.590  1.00  0.00    +0.000 H 
ATOM    100  H6  UNL A   1      31.790  22.538  27.967  1.00  0.00    +0.000 H 
ATOM     11  C5  UNL A   1      30.572  24.456  25.491  1.00  0.00    +0.000 C 
ATOM     12  C6  UNL A   1      30.809  23.994  26.790  1.00  0.00    +0.000 C 
ATOM     13  C7  UNL A   1      31.660  22.906  27.012  1.00  0.00    +0.000 C 
ATOM     14  C8  UNL A   1      32.332  22.321  25.940  1.00  0.00    +0.000 C 
ATOM     16  C9  UNL A   1      32.134  22.789  24.636  1.00  0.00    +0.000 C 
ATOM     92  C62 UNL A   1      31.163  23.769  24.420  1.00  0.00    +0.000 C 
BRANCH   11   10
ATOM     10  N3  UNL A   1      29.813  25.637  25.299  1.00  0.00    +0.000 N 
BRANCH   10    9
ATOM      9  N2  UNL A   1      29.729  25.893  24.074  1.00  0.00    +0.000 N 
BRANCH    9    8
ATOM     97  H3  UNL A   1      26.785  29.120  22.870  1.00  0.00    +0.000 H 
ATOM     98  H4  UNL A   1      27.349  26.863  23.567  1.00  0.00    +0.000 H 
ATOM    131  H37 UNL A   1      31.391  27.969  23.911  1.00  0.00    +0.000 H 
ATOM    132  H38 UNL A   1      30.839  30.224  23.201  1.00  0.00    +0.000 H 
ATOM      5  C1  UNL A   1      28.773  29.835  22.980  1.00  0.00    +0.000 C 
ATOM      6  C2  UNL A   1      27.763  28.875  23.088  1.00  0.00    +0.000 C 
ATOM      7  C3  UNL A   1      28.091  27.577  23.495  1.00  0.00    +0.000 C 
ATOM      8  C4  UNL A   1      29.414  27.234  23.806  1.00  0.00    +0.000 C 
ATOM     93  C63 UNL A   1      30.413  28.211  23.691  1.00  0.00    +0.000 C 
ATOM     94  C64 UNL A   1      30.098  29.510  23.281  1.00  0.00    +0.000 C 
BRANCH    5    2
ATOM      2  S1  UNL A   1      28.376  31.473  22.440  1.00  0.00    +0.000 S 
ATOM      3  O1  UNL A   1      29.579  32.269  22.429  1.00  0.00    +0.000 O 
ATOM      4  O2  UNL A   1      27.163  31.890  23.106  1.00  0.00    +0.000 O 
BRANCH    2    1
ATOM      1  N1  UNL A   1      27.977  31.257  20.820  1.00  0.00    +0.000 N 
ATOM     95  H1  UNL A   1      28.830  31.213  20.263  1.00  0.00    +0.000 H 
ATOM     96  H2  UNL A   1      27.403  32.038  20.504  1.00  0.00    +0.000 H 
ENDBRANCH    2    1
ENDBRANCH    5    2
ENDBRANCH    9    8
ENDBRANCH   10    9
ENDBRANCH   11   10
BRANCH   14   15
ATOM    101  H7  UNL A   1      33.998  21.207  25.786  1.00  0.00    +0.000 H 
ATOM     15  O3  UNL A   1      33.184  21.291  26.243  1.00  0.00    +0.000 O 
ENDBRANCH   14   15
ENDBRANCH   17   16
ENDBRANCH   19   17
ENDBRANCH   20   19
ENDBRANCH   21   20
ENDBRANCH   22   21
ENDBRANCH   23   22
ENDBRANCH   24   23
ENDBRANCH   25   24
ENDBRANCH   26   25
ENDBRANCH   27   26
ENDBRANCH   29   27
ENDBRANCH   33   32
BRANCH   37   38
ATOM     38  C26 UNL A   1      42.692  24.085  27.709  1.00  0.00    +0.000 C 
ATOM     39  C27 UNL A   1      43.037  24.145  26.350  1.00  0.00    +0.000 C 
ATOM     40  F1  UNL A   1      43.352  25.319  25.784  1.00  0.00    +0.000 F 
ATOM     41  C28 UNL A   1      43.029  22.999  25.558  1.00  0.00    +0.000 C 
ATOM     42  F2  UNL A   1      43.318  23.088  24.252  1.00  0.00    +0.000 F 
ATOM     43  C29 UNL A   1      42.712  21.769  26.114  1.00  0.00    +0.000 C 
ATOM     44  F3  UNL A   1      42.716  20.666  25.352  1.00  0.00    +0.000 F 
ATOM     45  C30 UNL A   1      42.386  21.683  27.459  1.00  0.00    +0.000 C 
ATOM     46  F4  UNL A   1      42.094  20.494  28.002  1.00  0.00    +0.000 F 
ATOM     47  C31 UNL A   1      42.363  22.832  28.246  1.00  0.00    +0.000 C 
ATOM     48  F5  UNL A   1      42.030  22.717  29.541  1.00  0.00    +0.000 F 
ENDBRANCH   37   38
BRANCH   54   55
ATOM     65  F10 UNL A   1      48.187  28.470  30.880  1.00  0.00    +0.000 F 
ATOM     55  C37 UNL A   1      47.134  27.103  32.519  1.00  0.00    +0.000 C 
ATOM     56  C38 UNL A   1      47.296  26.259  33.629  1.00  0.00    +0.000 C 
ATOM     57  F6  UNL A   1      46.225  25.712  34.223  1.00  0.00    +0.000 F 
ATOM     58  C39 UNL A   1      48.560  26.009  34.159  1.00  0.00    +0.000 C 
ATOM     59  F7  UNL A   1      48.686  25.242  35.251  1.00  0.00    +0.000 F 
ATOM     60  C40 UNL A   1      49.685  26.563  33.570  1.00  0.00    +0.000 C 
ATOM     61  F8  UNL A   1      50.901  26.315  34.076  1.00  0.00    +0.000 F 
ATOM     62  C41 UNL A   1      49.550  27.383  32.459  1.00  0.00    +0.000 C 
ATOM     63  F9  UNL A   1      50.638  27.909  31.878  1.00  0.00    +0.000 F 
ATOM     64  C42 UNL A   1      48.286  27.663  31.946  1.00  0.00    +0.000 C 
ENDBRANCH   54   55
BRANCH   69   70
ATOM     70  C46 UNL A   1      42.406  32.093  33.666  1.00  0.00    +0.000 C 
ATOM     71  C47 UNL A   1      42.922  33.341  33.287  1.00  0.00    +0.000 C 
ATOM     72  F11 UNL A   1      43.490  33.491  32.082  1.00  0.00    +0.000 F 
ATOM     73  C48 UNL A   1      42.895  34.426  34.160  1.00  0.00    +0.000 C 
ATOM     74  F12 UNL A   1      43.438  35.593  33.790  1.00  0.00    +0.000 F 
ATOM     75  C49 UNL A   1      42.320  34.295  35.416  1.00  0.00    +0.000 C 
ATOM     76  F13 UNL A   1      42.287  35.341  36.253  1.00  0.00    +0.000 F 
ATOM     77  C50 UNL A   1      41.785  33.076  35.804  1.00  0.00    +0.000 C 
ATOM     78  F14 UNL A   1      41.211  32.949  37.009  1.00  0.00    +0.000 F 
ATOM     79  C51 UNL A   1      41.841  31.982  34.945  1.00  0.00    +0.000 C 
ATOM     80  F15 UNL A   1      41.326  30.812  35.353  1.00  0.00    +0.000 F 
ENDBRANCH   69   70
TORSDOF 21
ENDMDL
MODEL 5
REMARK VINA RESULT:      -9.5     43.584     46.349
ROOT
ATOM     33  C22 UNL A   1      13.830  53.980   4.665  1.00  0.00    +0.000 C 
ATOM     34  C23 UNL A   1      13.428  52.533   4.619  1.00  0.00    +0.000 C 
ATOM     35  N6  UNL A   1      13.830  51.590   3.804  1.00  0.00    +0.000 N 
ATOM     36  C24 UNL A   1      13.176  50.434   4.212  1.00  0.00    +0.000 C 
ATOM     37  C25 UNL A   1      13.213  49.201   3.650  1.00  0.00    +0.000 C 
ATOM     49  C32 UNL A   1      13.980  48.865   2.478  1.00  0.00    +0.000 C 
ATOM     50  C33 UNL A   1      14.030  47.661   1.796  1.00  0.00    +0.000 C 
ATOM     51  C34 UNL A   1      14.965  47.781   0.763  1.00  0.00    +0.000 C 
ATOM     52  C35 UNL A   1      15.454  49.077   0.762  1.00  0.00    +0.000 C 
ATOM     53  N7  UNL A   1      14.838  49.732   1.818  1.00  0.00    +0.000 N 
ATOM     54  C36 UNL A   1      16.413  49.674  -0.132  1.00  0.00    +0.000 C 
ATOM     66  C43 UNL A   1      16.809  50.970  -0.090  1.00  0.00    +0.000 C 
ATOM     67  N8  UNL A   1      16.417  51.975   0.783  1.00  0.00    +0.000 N 
ATOM     68  C44 UNL A   1      17.093  53.041   0.431  1.00  0.00    +0.000 C 
ATOM     69  C45 UNL A   1      17.052  54.426   1.017  1.00  0.00    +0.000 C 
ATOM     81  C52 UNL A   1      16.223  54.679   2.048  1.00  0.00    +0.000 C 
ATOM     82  C53 UNL A   1      16.078  55.967   2.717  1.00  0.00    +0.000 C 
ATOM     83  C54 UNL A   1      15.218  55.836   3.738  1.00  0.00    +0.000 C 
ATOM     84  C55 UNL A   1      14.715  54.461   3.770  1.00  0.00    +0.000 C 
ATOM     85  N9  UNL A   1      15.358  53.850   2.723  1.00  0.00    +0.000 N 
ATOM     86  C56 UNL A   1      18.012  52.826  -0.695  1.00  0.00    +0.000 C 
ATOM     87  C57 UNL A   1      17.768  51.559  -1.001  1.00  0.00    +0.000 C 
ATOM     88  C58 UNL A   1      12.393  50.782   5.379  1.00  0.00    +0.000 C 
ATOM     89  C59 UNL A   1      12.469  52.080   5.637  1.00  0.00    +0.000 C 
ATOM    118  H24 UNL A   1      13.473  46.820   2.014  1.00  0.00    +0.000 H 
ATOM    119  H25 UNL A   1      15.242  47.031   0.110  1.00  0.00    +0.000 H 
ATOM    120  H26 UNL A   1      14.988  50.674   2.062  1.00  0.00    +0.000 H 
ATOM    121  H27 UNL A   1      16.559  56.840   2.447  1.00  0.00    +0.000 H 
ATOM    122  H28 UNL A   1      14.953  56.585   4.397  1.00  0.00    +0.000 H 
ATOM    123  H29 UNL A   1      15.214  52.908   2.477  1.00  0.00    +0.000 H 
ATOM    124  H30 UNL A   1      18.673  53.487  -1.132  1.00  0.00    +0.000 H 
ATOM    125  H31 UNL A   1      18.208  51.057  -1.789  1.00  0.00    +0.000 H 
ATOM    126  H32 UNL A   1      11.849  50.107   5.937  1.00  0.00    +0.000 H 
ATOM    127  H33 UNL A   1      11.982  52.628   6.363  1.00  0.00    +0.000 H 
ENDROOT
BRANCH   33   32
ATOM    129  H35 UNL A   1      10.624  56.703   6.545  1.00  0.00    +0.000 H 
ATOM    128  H34 UNL A   1      11.496  55.305   4.766  1.00  0.00    +0.000 H 
ATOM    116  H22 UNL A   1      14.081  55.973   8.825  1.00  0.00    +0.000 H 
ATOM    117  H23 UNL A   1      15.047  54.755   6.961  1.00  0.00    +0.000 H 
ATOM     90  C60 UNL A   1      12.051  55.452   5.624  1.00  0.00    +0.000 C 
ATOM     91  C61 UNL A   1      11.531  56.224   6.661  1.00  0.00    +0.000 C 
ATOM     29  C18 UNL A   1      12.238  56.347   7.860  1.00  0.00    +0.000 C 
ATOM     30  C19 UNL A   1      13.533  55.828   7.963  1.00  0.00    +0.000 C 
ATOM     31  C20 UNL A   1      14.081  55.112   6.897  1.00  0.00    +0.000 C 
ATOM     32  C21 UNL A   1      13.325  54.875   5.737  1.00  0.00    +0.000 C 
BRANCH   29   27
ATOM     27  C17 UNL A   1      11.651  57.025   9.037  1.00  0.00    +0.000 C 
ATOM     28  O5  UNL A   1      11.158  58.142   8.909  1.00  0.00    +0.000 O 
BRANCH   27   26
ATOM     26  N5  UNL A   1      11.680  56.424  10.271  1.00  0.00    +0.000 N 
ATOM    115  H21 UNL A   1      11.805  57.039  11.031  1.00  0.00    +0.000 H 
BRANCH   26   25
ATOM     25  C16 UNL A   1      11.554  55.021  10.627  1.00  0.00    +0.000 C 
ATOM    114  H20 UNL A   1      11.091  54.974  11.590  1.00  0.00    +0.000 H 
ATOM    113  H19 UNL A   1      12.530  54.582  10.632  1.00  0.00    +0.000 H 
BRANCH   25   24
ATOM    112  H18 UNL A   1      10.553  54.875   8.802  1.00  0.00    +0.000 H 
ATOM    111  H17 UNL A   1       9.761  54.003  10.158  1.00  0.00    +0.000 H 
ATOM     24  C15 UNL A   1      10.675  54.240   9.654  1.00  0.00    +0.000 C 
BRANCH   24   23
ATOM    109  H15 UNL A   1      10.643  52.133   9.451  1.00  0.00    +0.000 H 
ATOM    110  H16 UNL A   1      11.305  53.056   8.055  1.00  0.00    +0.000 H 
ATOM     23  C14 UNL A   1      11.267  52.935   9.117  1.00  0.00    +0.000 C 
BRANCH   23   22
ATOM    107  H13 UNL A   1      13.314  53.451   9.281  1.00  0.00    +0.000 H 
ATOM    108  H14 UNL A   1      12.650  52.408  10.588  1.00  0.00    +0.000 H 
ATOM     22  C13 UNL A   1      12.703  52.613   9.539  1.00  0.00    +0.000 C 
BRANCH   22   21
ATOM    105  H11 UNL A   1      13.456  51.553   7.871  1.00  0.00    +0.000 H 
ATOM    106  H12 UNL A   1      14.249  51.219   9.453  1.00  0.00    +0.000 H 
ATOM     21  C12 UNL A   1      13.335  51.368   8.918  1.00  0.00    +0.000 C 
BRANCH   21   20
ATOM     20  C11 UNL A   1      12.563  50.063   9.069  1.00  0.00    +0.000 C 
ATOM    103  H9  UNL A   1      12.382  49.900  10.111  1.00  0.00    +0.000 H 
ATOM    104  H10 UNL A   1      11.662  50.172   8.502  1.00  0.00    +0.000 H 
BRANCH   20   19
ATOM     19  N4  UNL A   1      13.248  48.895   8.539  1.00  0.00    +0.000 N 
ATOM    102  H8  UNL A   1      12.811  48.480   7.761  1.00  0.00    +0.000 H 
BRANCH   19   17
ATOM     17  C10 UNL A   1      14.409  48.274   8.945  1.00  0.00    +0.000 C 
ATOM     18  O4  UNL A   1      14.497  47.047   8.850  1.00  0.00    +0.000 O 
BRANCH   17   16
ATOM    130  H36 UNL A   1      15.171  48.957  11.467  1.00  0.00    +0.000 H 
ATOM     99  H5  UNL A   1      18.421  51.405  10.450  1.00  0.00    +0.000 H 
ATOM    100  H6  UNL A   1      18.348  50.526   8.188  1.00  0.00    +0.000 H 
ATOM     11  C5  UNL A   1      16.735  50.333  11.129  1.00  0.00    +0.000 C 
ATOM     12  C6  UNL A   1      17.678  50.743  10.181  1.00  0.00    +0.000 C 
ATOM     13  C7  UNL A   1      17.621  50.261   8.869  1.00  0.00    +0.000 C 
ATOM     14  C8  UNL A   1      16.576  49.422   8.483  1.00  0.00    +0.000 C 
ATOM     16  C9  UNL A   1      15.603  49.026   9.409  1.00  0.00    +0.000 C 
ATOM     92  C62 UNL A   1      15.769  49.391  10.746  1.00  0.00    +0.000 C 
BRANCH   11   10
ATOM     10  N3  UNL A   1      16.733  50.931  12.414  1.00  0.00    +0.000 N 
BRANCH   10    9
ATOM      9  N2  UNL A   1      16.174  52.053  12.359  1.00  0.00    +0.000 N 
BRANCH    9    8
ATOM     97  H3  UNL A   1      13.206  50.256  15.275  1.00  0.00    +0.000 H 
ATOM     98  H4  UNL A   1      15.349  50.310  14.133  1.00  0.00    +0.000 H 
ATOM    131  H37 UNL A   1      14.265  53.908  12.247  1.00  0.00    +0.000 H 
ATOM    132  H38 UNL A   1      12.114  53.855  13.372  1.00  0.00    +0.000 H 
ATOM      5  C1  UNL A   1      12.502  52.050  14.402  1.00  0.00    +0.000 C 
ATOM      6  C2  UNL A   1      13.429  51.030  14.630  1.00  0.00    +0.000 C 
ATOM      7  C3  UNL A   1      14.666  51.067  13.974  1.00  0.00    +0.000 C 
ATOM      8  C4  UNL A   1      14.987  52.119  13.106  1.00  0.00    +0.000 C 
ATOM     93  C63 UNL A   1      14.042  53.132  12.889  1.00  0.00    +0.000 C 
ATOM     94  C64 UNL A   1      12.803  53.103  13.534  1.00  0.00    +0.000 C 
BRANCH    5    2
ATOM      2  S1  UNL A   1      10.925  52.000  15.202  1.00  0.00    +0.000 S 
ATOM      3  O1  UNL A   1      10.419  50.649  15.162  1.00  0.00    +0.000 O 
ATOM      4  O2  UNL A   1      10.155  53.141  14.762  1.00  0.00    +0.000 O 
BRANCH    2    1
ATOM      1  N1  UNL A   1      11.304  52.279  16.818  1.00  0.00    +0.000 N 
ATOM     95  H1  UNL A   1      10.447  52.284  17.372  1.00  0.00    +0.000 H 
ATOM     96  H2  UNL A   1      11.772  53.180  16.906  1.00  0.00    +0.000 H 
ENDBRANCH    2    1
ENDBRANCH    5    2
ENDBRANCH    9    8
ENDBRANCH   10    9
ENDBRANCH   11   10
BRANCH   14   15
ATOM    101  H7  UNL A   1      17.317  49.163   6.633  1.00  0.00    +0.000 H 
ATOM     15  O3  UNL A   1      16.561  49.029   7.170  1.00  0.00    +0.000 O 
ENDBRANCH   14   15
ENDBRANCH   17   16
ENDBRANCH   19   17
ENDBRANCH   20   19
ENDBRANCH   21   20
ENDBRANCH   22   21
ENDBRANCH   23   22
ENDBRANCH   24   23
ENDBRANCH   25   24
ENDBRANCH   26   25
ENDBRANCH   27   26
ENDBRANCH   29   27
ENDBRANCH   33   32
BRANCH   37   38
ATOM     38  C26 UNL A   1      12.404  48.113   4.299  1.00  0.00    +0.000 C 
ATOM     39  C27 UNL A   1      11.102  47.810   3.875  1.00  0.00    +0.000 C 
ATOM     40  F1  UNL A   1      10.520  48.534   2.908  1.00  0.00    +0.000 F 
ATOM     41  C28 UNL A   1      10.377  46.779   4.468  1.00  0.00    +0.000 C 
ATOM     42  F2  UNL A   1       9.117  46.537   4.077  1.00  0.00    +0.000 F 
ATOM     43  C29 UNL A   1      10.951  46.009   5.468  1.00  0.00    +0.000 C 
ATOM     44  F3  UNL A   1      10.256  45.010   6.029  1.00  0.00    +0.000 F 
ATOM     45  C30 UNL A   1      12.244  46.278   5.890  1.00  0.00    +0.000 C 
ATOM     46  F4  UNL A   1      12.807  45.527   6.846  1.00  0.00    +0.000 F 
ATOM     47  C31 UNL A   1      12.959  47.329   5.321  1.00  0.00    +0.000 C 
ATOM     48  F5  UNL A   1      14.204  47.572   5.760  1.00  0.00    +0.000 F 
ENDBRANCH   37   38
BRANCH   54   55
ATOM     65  F10 UNL A   1      18.806  48.172   0.218  1.00  0.00    +0.000 F 
ATOM     55  C37 UNL A   1      17.008  48.808  -1.206  1.00  0.00    +0.000 C 
ATOM     56  C38 UNL A   1      16.420  48.706  -2.476  1.00  0.00    +0.000 C 
ATOM     57  F6  UNL A   1      15.271  49.347  -2.741  1.00  0.00    +0.000 F 
ATOM     58  C39 UNL A   1      16.988  47.909  -3.467  1.00  0.00    +0.000 C 
ATOM     59  F7  UNL A   1      16.380  47.786  -4.655  1.00  0.00    +0.000 F 
ATOM     60  C40 UNL A   1      18.172  47.231  -3.221  1.00  0.00    +0.000 C 
ATOM     61  F8  UNL A   1      18.722  46.471  -4.178  1.00  0.00    +0.000 F 
ATOM     62  C41 UNL A   1      18.782  47.334  -1.980  1.00  0.00    +0.000 C 
ATOM     63  F9  UNL A   1      19.935  46.691  -1.745  1.00  0.00    +0.000 F 
ATOM     64  C42 UNL A   1      18.199  48.103  -0.976  1.00  0.00    +0.000 C 
ENDBRANCH   54   55
BRANCH   69   70
ATOM     70  C46 UNL A   1      17.910  55.511   0.473  1.00  0.00    +0.000 C 
ATOM     71  C47 UNL A   1      17.518  56.243  -0.658  1.00  0.00    +0.000 C 
ATOM     72  F11 UNL A   1      16.361  55.956  -1.271  1.00  0.00    +0.000 F 
ATOM     73  C48 UNL A   1      18.332  57.242  -1.186  1.00  0.00    +0.000 C 
ATOM     74  F12 UNL A   1      17.955  57.893  -2.295  1.00  0.00    +0.000 F 
ATOM     75  C49 UNL A   1      19.538  57.553  -0.576  1.00  0.00    +0.000 C 
ATOM     76  F13 UNL A   1      20.318  58.520  -1.080  1.00  0.00    +0.000 F 
ATOM     77  C50 UNL A   1      19.937  56.858   0.555  1.00  0.00    +0.000 C 
ATOM     78  F14 UNL A   1      21.092  57.168   1.161  1.00  0.00    +0.000 F 
ATOM     79  C51 UNL A   1      19.140  55.837   1.066  1.00  0.00    +0.000 C 
ATOM     80  F15 UNL A   1      19.557  55.172   2.154  1.00  0.00    +0.000 F 
ENDBRANCH   69   70
TORSDOF 21
ENDMDL
MODEL 6
REMARK VINA RESULT:      -9.5     20.391     25.494
ROOT
ATOM     33  C22 UNL A   1      40.719  28.135  29.085  1.00  0.00    +0.000 C 
ATOM     34  C23 UNL A   1      42.098  28.253  29.670  1.00  0.00    +0.000 C 
ATOM     35  N6  UNL A   1      42.604  29.211  30.404  1.00  0.00    +0.000 N 
ATOM     36  C24 UNL A   1      43.901  28.813  30.703  1.00  0.00    +0.000 C 
ATOM     37  C25 UNL A   1      44.854  29.489  31.389  1.00  0.00    +0.000 C 
ATOM     49  C32 UNL A   1      44.671  30.801  31.956  1.00  0.00    +0.000 C 
ATOM     50  C33 UNL A   1      45.597  31.595  32.611  1.00  0.00    +0.000 C 
ATOM     51  C34 UNL A   1      44.948  32.755  33.048  1.00  0.00    +0.000 C 
ATOM     52  C35 UNL A   1      43.633  32.712  32.615  1.00  0.00    +0.000 C 
ATOM     53  N7  UNL A   1      43.478  31.509  31.942  1.00  0.00    +0.000 N 
ATOM     54  C36 UNL A   1      42.595  33.693  32.802  1.00  0.00    +0.000 C 
ATOM     66  C43 UNL A   1      41.337  33.593  32.306  1.00  0.00    +0.000 C 
ATOM     67  N8  UNL A   1      40.774  32.573  31.551  1.00  0.00    +0.000 N 
ATOM     68  C44 UNL A   1      39.531  32.929  31.335  1.00  0.00    +0.000 C 
ATOM     69  C45 UNL A   1      38.462  32.213  30.557  1.00  0.00    +0.000 C 
ATOM     81  C52 UNL A   1      38.753  31.038  29.967  1.00  0.00    +0.000 C 
ATOM     82  C53 UNL A   1      37.822  30.233  29.185  1.00  0.00    +0.000 C 
ATOM     83  C54 UNL A   1      38.432  29.098  28.809  1.00  0.00    +0.000 C 
ATOM     84  C55 UNL A   1      39.816  29.116  29.287  1.00  0.00    +0.000 C 
ATOM     85  N9  UNL A   1      39.920  30.311  29.954  1.00  0.00    +0.000 N 
ATOM     86  C56 UNL A   1      39.157  34.209  31.952  1.00  0.00    +0.000 C 
ATOM     87  C57 UNL A   1      40.305  34.591  32.495  1.00  0.00    +0.000 C 
ATOM     88  C58 UNL A   1      44.086  27.503  30.116  1.00  0.00    +0.000 C 
ATOM     89  C59 UNL A   1      43.020  27.136  29.416  1.00  0.00    +0.000 C 
ATOM    118  H24 UNL A   1      46.594  31.369  32.752  1.00  0.00    +0.000 H 
ATOM    119  H25 UNL A   1      45.378  33.514  33.600  1.00  0.00    +0.000 H 
ATOM    120  H26 UNL A   1      42.643  31.204  31.519  1.00  0.00    +0.000 H 
ATOM    121  H27 UNL A   1      36.850  30.494  28.957  1.00  0.00    +0.000 H 
ATOM    122  H28 UNL A   1      37.995  28.335  28.269  1.00  0.00    +0.000 H 
ATOM    123  H29 UNL A   1      40.751  30.619  30.382  1.00  0.00    +0.000 H 
ATOM    124  H30 UNL A   1      38.241  34.685  31.960  1.00  0.00    +0.000 H 
ATOM    125  H31 UNL A   1      40.444  35.486  32.989  1.00  0.00    +0.000 H 
ATOM    126  H32 UNL A   1      44.935  26.928  30.229  1.00  0.00    +0.000 H 
ATOM    127  H33 UNL A   1      42.877  26.289  28.845  1.00  0.00    +0.000 H 
ENDROOT
BRANCH   33   32
ATOM    129  H35 UNL A   1      38.531  24.092  28.782  1.00  0.00    +0.000 H 
ATOM    128  H34 UNL A   1      39.282  26.055  29.992  1.00  0.00    +0.000 H 
ATOM    116  H22 UNL A   1      40.347  25.544  25.279  1.00  0.00    +0.000 H 
ATOM    117  H23 UNL A   1      41.283  27.396  26.537  1.00  0.00    +0.000 H 
ATOM     90  C60 UNL A   1      39.517  25.944  28.992  1.00  0.00    +0.000 C 
ATOM     91  C61 UNL A   1      39.050  24.835  28.290  1.00  0.00    +0.000 C 
ATOM     29  C18 UNL A   1      39.287  24.731  26.916  1.00  0.00    +0.000 C 
ATOM     30  C19 UNL A   1      40.120  25.655  26.279  1.00  0.00    +0.000 C 
ATOM     31  C20 UNL A   1      40.644  26.731  26.999  1.00  0.00    +0.000 C 
ATOM     32  C21 UNL A   1      40.306  26.912  28.351  1.00  0.00    +0.000 C 
BRANCH   29   27
ATOM     27  C17 UNL A   1      38.676  23.651  26.108  1.00  0.00    +0.000 C 
ATOM     28  O5  UNL A   1      37.589  23.839  25.570  1.00  0.00    +0.000 O 
BRANCH   27   26
ATOM     26  N5  UNL A   1      39.306  22.438  25.980  1.00  0.00    +0.000 N 
ATOM    115  H21 UNL A   1      40.285  22.484  25.879  1.00  0.00    +0.000 H 
BRANCH   26   25
ATOM     25  C16 UNL A   1      38.748  21.096  25.973  1.00  0.00    +0.000 C 
ATOM    114  H20 UNL A   1      38.176  20.981  26.870  1.00  0.00    +0.000 H 
ATOM    113  H19 UNL A   1      39.553  20.392  25.920  1.00  0.00    +0.000 H 
BRANCH   25   24
ATOM    112  H18 UNL A   1      38.164  19.958  24.325  1.00  0.00    +0.000 H 
ATOM    111  H17 UNL A   1      37.839  21.717  24.167  1.00  0.00    +0.000 H 
ATOM     24  C15 UNL A   1      37.809  20.851  24.795  1.00  0.00    +0.000 C 
BRANCH   24   23
ATOM    109  H15 UNL A   1      36.250  20.656  26.214  1.00  0.00    +0.000 H 
ATOM    110  H16 UNL A   1      35.780  21.298  24.599  1.00  0.00    +0.000 H 
ATOM     23  C14 UNL A   1      36.346  20.577  25.151  1.00  0.00    +0.000 C 
BRANCH   23   22
ATOM    107  H13 UNL A   1      36.161  18.994  23.757  1.00  0.00    +0.000 H 
ATOM    108  H14 UNL A   1      36.102  18.534  25.496  1.00  0.00    +0.000 H 
ATOM     22  C13 UNL A   1      35.785  19.215  24.734  1.00  0.00    +0.000 C 
BRANCH   22   21
ATOM    105  H11 UNL A   1      33.991  18.816  23.689  1.00  0.00    +0.000 H 
ATOM    106  H12 UNL A   1      34.019  18.360  25.432  1.00  0.00    +0.000 H 
ATOM     21  C12 UNL A   1      34.264  19.088  24.687  1.00  0.00    +0.000 C 
BRANCH   21   20
ATOM     20  C11 UNL A   1      33.463  20.330  25.061  1.00  0.00    +0.000 C 
ATOM    103  H9  UNL A   1      32.457  20.031  25.266  1.00  0.00    +0.000 H 
ATOM    104  H10 UNL A   1      33.950  20.763  25.911  1.00  0.00    +0.000 H 
BRANCH   20   19
ATOM     19  N4  UNL A   1      33.432  21.357  24.033  1.00  0.00    +0.000 N 
ATOM    102  H8  UNL A   1      34.253  21.424  23.494  1.00  0.00    +0.000 H 
BRANCH   19   17
ATOM     17  C10 UNL A   1      32.443  22.252  23.687  1.00  0.00    +0.000 C 
ATOM     18  O4  UNL A   1      31.761  22.033  22.683  1.00  0.00    +0.000 O 
BRANCH   17   16
ATOM    130  H36 UNL A   1      33.126  24.869  23.390  1.00  0.00    +0.000 H 
ATOM     99  H5  UNL A   1      31.578  26.291  27.019  1.00  0.00    +0.000 H 
ATOM    100  H6  UNL A   1      30.355  24.211  27.288  1.00  0.00    +0.000 H 
ATOM     11  C5  UNL A   1      32.542  25.720  25.231  1.00  0.00    +0.000 C 
ATOM     12  C6  UNL A   1      31.698  25.533  26.330  1.00  0.00    +0.000 C 
ATOM     13  C7  UNL A   1      31.015  24.324  26.504  1.00  0.00    +0.000 C 
ATOM     14  C8  UNL A   1      31.229  23.273  25.614  1.00  0.00    +0.000 C 
ATOM     16  C9  UNL A   1      32.095  23.428  24.524  1.00  0.00    +0.000 C 
ATOM     92  C62 UNL A   1      32.641  24.691  24.283  1.00  0.00    +0.000 C 
BRANCH   11   10
ATOM     10  N3  UNL A   1      33.322  26.899  25.143  1.00  0.00    +0.000 N 
BRANCH   10    9
ATOM      9  N2  UNL A   1      33.338  27.311  23.958  1.00  0.00    +0.000 N 
BRANCH    9    8
ATOM     97  H3  UNL A   1      30.175  30.446  24.797  1.00  0.00    +0.000 H 
ATOM     98  H4  UNL A   1      32.293  29.343  25.240  1.00  0.00    +0.000 H 
ATOM    131  H37 UNL A   1      31.711  26.859  21.898  1.00  0.00    +0.000 H 
ATOM    132  H38 UNL A   1      29.586  27.945  21.455  1.00  0.00    +0.000 H 
ATOM      5  C1  UNL A   1      29.724  29.271  23.095  1.00  0.00    +0.000 C 
ATOM      6  C2  UNL A   1      30.500  29.682  24.183  1.00  0.00    +0.000 C 
ATOM      7  C3  UNL A   1      31.722  29.048  24.433  1.00  0.00    +0.000 C 
ATOM      8  C4  UNL A   1      32.180  28.018  23.599  1.00  0.00    +0.000 C 
ATOM     93  C63 UNL A   1      31.387  27.619  22.514  1.00  0.00    +0.000 C 
ATOM     94  C64 UNL A   1      30.162  28.242  22.258  1.00  0.00    +0.000 C 
BRANCH    5    2
ATOM      2  S1  UNL A   1      28.164  30.046  22.785  1.00  0.00    +0.000 S 
ATOM      3  O1  UNL A   1      28.016  30.255  21.365  1.00  0.00    +0.000 O 
ATOM      4  O2  UNL A   1      27.976  31.097  23.759  1.00  0.00    +0.000 O 
BRANCH    2    1
ATOM      1  N1  UNL A   1      27.053  28.841  23.169  1.00  0.00    +0.000 N 
ATOM     95  H1  UNL A   1      27.246  28.487  24.105  1.00  0.00    +0.000 H 
ATOM     96  H2  UNL A   1      27.129  28.081  22.494  1.00  0.00    +0.000 H 
ENDBRANCH    2    1
ENDBRANCH    5    2
ENDBRANCH    9    8
ENDBRANCH   10    9
ENDBRANCH   11   10
BRANCH   14   15
ATOM    101  H7  UNL A   1      31.009  21.285  25.807  1.00  0.00    +0.000 H 
ATOM     15  O3  UNL A   1      30.562  22.105  25.876  1.00  0.00    +0.000 O 
ENDBRANCH   14   15
ENDBRANCH   17   16
ENDBRANCH   19   17
ENDBRANCH   20   19
ENDBRANCH   21   20
ENDBRANCH   22   21
ENDBRANCH   23   22
ENDBRANCH   24   23
ENDBRANCH   25   24
ENDBRANCH   26   25
ENDBRANCH   27   26
ENDBRANCH   29   27
ENDBRANCH   33   32
BRANCH   37   38
ATOM     38  C26 UNL A   1      46.188  28.822  31.575  1.00  0.00    +0.000 C 
ATOM     39  C27 UNL A   1      46.457  28.009  32.685  1.00  0.00    +0.000 C 
ATOM     40  F1  UNL A   1      45.537  27.854  33.649  1.00  0.00    +0.000 F 
ATOM     41  C28 UNL A   1      47.689  27.375  32.827  1.00  0.00    +0.000 C 
ATOM     42  F2  UNL A   1      47.940  26.639  33.920  1.00  0.00    +0.000 F 
ATOM     43  C29 UNL A   1      48.661  27.512  31.848  1.00  0.00    +0.000 C 
ATOM     44  F3  UNL A   1      49.841  26.892  31.980  1.00  0.00    +0.000 F 
ATOM     45  C30 UNL A   1      48.410  28.296  30.731  1.00  0.00    +0.000 C 
ATOM     46  F4  UNL A   1      49.341  28.418  29.776  1.00  0.00    +0.000 F 
ATOM     47  C31 UNL A   1      47.190  28.956  30.602  1.00  0.00    +0.000 C 
ATOM     48  F5  UNL A   1      46.983  29.718  29.517  1.00  0.00    +0.000 F 
ENDBRANCH   37   38
BRANCH   54   55
ATOM     65  F10 UNL A   1      43.483  36.114  31.597  1.00  0.00    +0.000 F 
ATOM     55  C37 UNL A   1      42.928  34.930  33.586  1.00  0.00    +0.000 C 
ATOM     56  C38 UNL A   1      42.842  34.957  34.986  1.00  0.00    +0.000 C 
ATOM     57  F6  UNL A   1      42.404  33.880  35.656  1.00  0.00    +0.000 F 
ATOM     58  C39 UNL A   1      43.165  36.107  35.702  1.00  0.00    +0.000 C 
ATOM     59  F7  UNL A   1      43.026  36.126  37.034  1.00  0.00    +0.000 F 
ATOM     60  C40 UNL A   1      43.617  37.237  35.037  1.00  0.00    +0.000 C 
ATOM     61  F8  UNL A   1      43.936  38.341  35.727  1.00  0.00    +0.000 F 
ATOM     62  C41 UNL A   1      43.730  37.226  33.655  1.00  0.00    +0.000 C 
ATOM     63  F9  UNL A   1      44.180  38.313  33.011  1.00  0.00    +0.000 F 
ATOM     64  C42 UNL A   1      43.376  36.089  32.934  1.00  0.00    +0.000 C 
ENDBRANCH   54   55
BRANCH   69   70
ATOM     70  C46 UNL A   1      37.096  32.787  30.430  1.00  0.00    +0.000 C 
ATOM     71  C47 UNL A   1      36.132  32.584  31.428  1.00  0.00    +0.000 C 
ATOM     72  F11 UNL A   1      36.433  31.850  32.509  1.00  0.00    +0.000 F 
ATOM     73  C48 UNL A   1      34.843  33.097  31.300  1.00  0.00    +0.000 C 
ATOM     74  F12 UNL A   1      33.928  32.847  32.246  1.00  0.00    +0.000 F 
ATOM     75  C49 UNL A   1      34.503  33.853  30.188  1.00  0.00    +0.000 C 
ATOM     76  F13 UNL A   1      33.265  34.353  30.067  1.00  0.00    +0.000 F 
ATOM     77  C50 UNL A   1      35.446  34.084  29.198  1.00  0.00    +0.000 C 
ATOM     78  F14 UNL A   1      35.128  34.831  28.130  1.00  0.00    +0.000 F 
ATOM     79  C51 UNL A   1      36.724  33.544  29.309  1.00  0.00    +0.000 C 
ATOM     80  F15 UNL A   1      37.612  33.775  28.330  1.00  0.00    +0.000 F 
ENDBRANCH   69   70
TORSDOF 21
ENDMDL
MODEL 7
REMARK VINA RESULT:      -9.4      4.933     13.168
ROOT
ATOM     33  C22 UNL A   1      26.135  35.189  45.768  1.00  0.00    +0.000 C 
ATOM     34  C23 UNL A   1      24.775  34.574  45.602  1.00  0.00    +0.000 C 
ATOM     35  N6  UNL A   1      23.653  34.875  46.205  1.00  0.00    +0.000 N 
ATOM     36  C24 UNL A   1      22.693  34.028  45.666  1.00  0.00    +0.000 C 
ATOM     37  C25 UNL A   1      21.386  33.909  46.003  1.00  0.00    +0.000 C 
ATOM     49  C32 UNL A   1      20.738  34.687  47.029  1.00  0.00    +0.000 C 
ATOM     50  C33 UNL A   1      19.436  34.594  47.488  1.00  0.00    +0.000 C 
ATOM     51  C34 UNL A   1      19.234  35.599  48.440  1.00  0.00    +0.000 C 
ATOM     52  C35 UNL A   1      20.426  36.281  48.618  1.00  0.00    +0.000 C 
ATOM     53  N7  UNL A   1      21.342  35.708  47.748  1.00  0.00    +0.000 N 
ATOM     54  C36 UNL A   1      20.710  37.375  49.512  1.00  0.00    +0.000 C 
ATOM     66  C43 UNL A   1      21.924  37.962  49.656  1.00  0.00    +0.000 C 
ATOM     67  N8  UNL A   1      23.116  37.675  49.006  1.00  0.00    +0.000 N 
ATOM     68  C44 UNL A   1      23.995  38.527  49.473  1.00  0.00    +0.000 C 
ATOM     69  C45 UNL A   1      25.454  38.664  49.137  1.00  0.00    +0.000 C 
ATOM     81  C52 UNL A   1      26.004  37.821  48.243  1.00  0.00    +0.000 C 
ATOM     82  C53 UNL A   1      27.400  37.834  47.819  1.00  0.00    +0.000 C 
ATOM     83  C54 UNL A   1      27.579  36.902  46.870  1.00  0.00    +0.000 C 
ATOM     84  C55 UNL A   1      26.317  36.192  46.649  1.00  0.00    +0.000 C 
ATOM     85  N9  UNL A   1      25.442  36.798  47.516  1.00  0.00    +0.000 N 
ATOM     86  C56 UNL A   1      23.451  39.471  50.459  1.00  0.00    +0.000 C 
ATOM     87  C57 UNL A   1      22.196  39.055  50.565  1.00  0.00    +0.000 C 
ATOM     88  C58 UNL A   1      23.354  33.236  44.649  1.00  0.00    +0.000 C 
ATOM     89  C59 UNL A   1      24.654  33.494  44.611  1.00  0.00    +0.000 C 
ATOM    118  H24 UNL A   1      18.734  33.902  47.180  1.00  0.00    +0.000 H 
ATOM    119  H25 UNL A   1      18.346  35.798  48.927  1.00  0.00    +0.000 H 
ATOM    120  H26 UNL A   1      22.282  35.986  47.655  1.00  0.00    +0.000 H 
ATOM    121  H27 UNL A   1      28.133  38.459  48.189  1.00  0.00    +0.000 H 
ATOM    122  H28 UNL A   1      28.465  36.715  46.375  1.00  0.00    +0.000 H 
ATOM    123  H29 UNL A   1      24.500  36.526  47.609  1.00  0.00    +0.000 H 
ATOM    124  H30 UNL A   1      23.922  40.252  50.942  1.00  0.00    +0.000 H 
ATOM    125  H31 UNL A   1      21.503  39.461  51.214  1.00  0.00    +0.000 H 
ATOM    126  H32 UNL A   1      22.875  32.561  44.035  1.00  0.00    +0.000 H 
ATOM    127  H33 UNL A   1      25.388  33.053  44.035  1.00  0.00    +0.000 H 
ENDROOT
BRANCH   33   32
ATOM    129  H35 UNL A   1      28.685  35.426  41.938  1.00  0.00    +0.000 H 
ATOM    128  H34 UNL A   1      26.786  36.053  43.309  1.00  0.00    +0.000 H 
ATOM    116  H22 UNL A   1      30.031  32.840  44.968  1.00  0.00    +0.000 H 
ATOM    117  H23 UNL A   1      28.021  33.300  46.248  1.00  0.00    +0.000 H 
ATOM     90  C60 UNL A   1      27.470  35.363  43.660  1.00  0.00    +0.000 C 
ATOM     91  C61 UNL A   1      28.581  35.034  42.887  1.00  0.00    +0.000 C 
ATOM     29  C18 UNL A   1      29.556  34.174  43.399  1.00  0.00    +0.000 C 
ATOM     30  C19 UNL A   1      29.343  33.523  44.619  1.00  0.00    +0.000 C 
ATOM     31  C20 UNL A   1      28.194  33.802  45.363  1.00  0.00    +0.000 C 
ATOM     32  C21 UNL A   1      27.272  34.762  44.913  1.00  0.00    +0.000 C 
BRANCH   29   27
ATOM     27  C17 UNL A   1      30.823  33.924  42.676  1.00  0.00    +0.000 C 
ATOM     28  O5  UNL A   1      30.829  33.171  41.707  1.00  0.00    +0.000 O 
BRANCH   27   26
ATOM     26  N5  UNL A   1      31.992  34.508  43.099  1.00  0.00    +0.000 N 
ATOM    115  H21 UNL A   1      32.758  34.397  42.490  1.00  0.00    +0.000 H 
BRANCH   26   25
ATOM     25  C16 UNL A   1      32.270  35.264  44.308  1.00  0.00    +0.000 C 
ATOM    114  H20 UNL A   1      33.317  35.173  44.511  1.00  0.00    +0.000 H 
ATOM    113  H19 UNL A   1      31.674  34.867  45.104  1.00  0.00    +0.000 H 
BRANCH   25   24
ATOM    112  H18 UNL A   1      31.630  36.879  43.152  1.00  0.00    +0.000 H 
ATOM    111  H17 UNL A   1      32.844  37.297  44.407  1.00  0.00    +0.000 H 
ATOM     24  C15 UNL A   1      31.958  36.751  44.162  1.00  0.00    +0.000 C 
BRANCH   24   23
ATOM    109  H15 UNL A   1      30.332  36.444  45.483  1.00  0.00    +0.000 H 
ATOM    110  H16 UNL A   1      31.286  37.951  45.732  1.00  0.00    +0.000 H 
ATOM     23  C14 UNL A   1      30.820  37.285  45.036  1.00  0.00    +0.000 C 
BRANCH   23   22
ATOM    107  H13 UNL A   1      29.769  37.862  43.291  1.00  0.00    +0.000 H 
ATOM    108  H14 UNL A   1      28.833  37.887  44.829  1.00  0.00    +0.000 H 
ATOM     22  C13 UNL A   1      29.750  38.121  44.329  1.00  0.00    +0.000 C 
BRANCH   22   21
ATOM    105  H11 UNL A   1      30.905  39.855  44.694  1.00  0.00    +0.000 H 
ATOM    106  H12 UNL A   1      29.586  40.015  43.477  1.00  0.00    +0.000 H 
ATOM     21  C12 UNL A   1      29.890  39.639  44.431  1.00  0.00    +0.000 C 
BRANCH   21   20
ATOM     20  C11 UNL A   1      28.992  40.340  45.444  1.00  0.00    +0.000 C 
ATOM    103  H9  UNL A   1      28.542  41.183  44.964  1.00  0.00    +0.000 H 
ATOM    104  H10 UNL A   1      28.275  39.615  45.772  1.00  0.00    +0.000 H 
BRANCH   20   19
ATOM     19  N4  UNL A   1      29.682  40.809  46.635  1.00  0.00    +0.000 N 
ATOM    102  H8  UNL A   1      29.209  41.513  47.134  1.00  0.00    +0.000 H 
BRANCH   19   17
ATOM     17  C10 UNL A   1      30.889  40.430  47.180  1.00  0.00    +0.000 C 
ATOM     18  O4  UNL A   1      31.934  40.778  46.624  1.00  0.00    +0.000 O 
BRANCH   17   16
ATOM    130  H36 UNL A   1      31.091  37.757  47.654  1.00  0.00    +0.000 H 
ATOM     99  H5  UNL A   1      30.739  37.879  51.832  1.00  0.00    +0.000 H 
ATOM    100  H6  UNL A   1      31.115  40.277  51.773  1.00  0.00    +0.000 H 
ATOM     11  C5  UNL A   1      30.779  37.624  49.738  1.00  0.00    +0.000 C 
ATOM     12  C6  UNL A   1      30.836  38.361  50.925  1.00  0.00    +0.000 C 
ATOM     13  C7  UNL A   1      31.022  39.747  50.893  1.00  0.00    +0.000 C 
ATOM     14  C8  UNL A   1      31.082  40.410  49.668  1.00  0.00    +0.000 C 
ATOM     16  C9  UNL A   1      30.995  39.696  48.467  1.00  0.00    +0.000 C 
ATOM     92  C62 UNL A   1      30.968  38.301  48.523  1.00  0.00    +0.000 C 
BRANCH   11   10
ATOM     10  N3  UNL A   1      30.460  36.245  49.787  1.00  0.00    +0.000 N 
BRANCH   10    9
ATOM      9  N2  UNL A   1      30.641  35.726  48.659  1.00  0.00    +0.000 N 
BRANCH    9    8
ATOM     97  H3  UNL A   1      27.182  32.881  49.349  1.00  0.00    +0.000 H 
ATOM     98  H4  UNL A   1      28.195  35.089  49.346  1.00  0.00    +0.000 H 
ATOM    131  H37 UNL A   1      31.722  33.480  47.718  1.00  0.00    +0.000 H 
ATOM    132  H38 UNL A   1      30.724  31.267  47.730  1.00  0.00    +0.000 H 
ATOM      5  C1  UNL A   1      28.883  31.913  48.544  1.00  0.00    +0.000 C 
ATOM      6  C2  UNL A   1      28.147  33.008  49.005  1.00  0.00    +0.000 C 
ATOM      7  C3  UNL A   1      28.732  34.279  48.997  1.00  0.00    +0.000 C 
ATOM      8  C4  UNL A   1      30.037  34.467  48.522  1.00  0.00    +0.000 C 
ATOM     93  C63 UNL A   1      30.759  33.355  48.064  1.00  0.00    +0.000 C 
ATOM     94  C64 UNL A   1      30.187  32.080  48.072  1.00  0.00    +0.000 C 
BRANCH    5    2
ATOM      2  S1  UNL A   1      28.165  30.295  48.574  1.00  0.00    +0.000 S 
ATOM      3  O1  UNL A   1      27.154  30.210  47.548  1.00  0.00    +0.000 O 
ATOM      4  O2  UNL A   1      27.920  29.932  49.951  1.00  0.00    +0.000 O 
BRANCH    2    1
ATOM      1  N1  UNL A   1      29.418  29.308  48.039  1.00  0.00    +0.000 N 
ATOM     95  H1  UNL A   1      29.136  28.836  47.180  1.00  0.00    +0.000 H 
ATOM     96  H2  UNL A   1      29.634  28.615  48.754  1.00  0.00    +0.000 H 
ENDBRANCH    2    1
ENDBRANCH    5    2
ENDBRANCH    9    8
ENDBRANCH   10    9
ENDBRANCH   11   10
BRANCH   14   15
ATOM    101  H7  UNL A   1      31.654  42.225  49.023  1.00  0.00    +0.000 H 
ATOM     15  O3  UNL A   1      31.218  41.773  49.718  1.00  0.00    +0.000 O 
ENDBRANCH   14   15
ENDBRANCH   17   16
ENDBRANCH   19   17
ENDBRANCH   20   19
ENDBRANCH   21   20
ENDBRANCH   22   21
ENDBRANCH   23   22
ENDBRANCH   24   23
ENDBRANCH   25   24
ENDBRANCH   26   25
ENDBRANCH   27   26
ENDBRANCH   29   27
ENDBRANCH   33   32
BRANCH   37   38
ATOM     38  C26 UNL A   1      20.559  32.904  45.253  1.00  0.00    +0.000 C 
ATOM     39  C27 UNL A   1      20.523  31.553  45.627  1.00  0.00    +0.000 C 
ATOM     40  F1  UNL A   1      21.283  31.111  46.639  1.00  0.00    +0.000 F 
ATOM     41  C28 UNL A   1      19.728  30.640  44.938  1.00  0.00    +0.000 C 
ATOM     42  F2  UNL A   1      19.744  29.344  45.284  1.00  0.00    +0.000 F 
ATOM     43  C29 UNL A   1      18.927  31.065  43.889  1.00  0.00    +0.000 C 
ATOM     44  F3  UNL A   1      18.154  30.187  43.235  1.00  0.00    +0.000 F 
ATOM     45  C30 UNL A   1      18.932  32.400  43.514  1.00  0.00    +0.000 C 
ATOM     46  F4  UNL A   1      18.148  32.817  42.511  1.00  0.00    +0.000 F 
ATOM     47  C31 UNL A   1      19.750  33.309  44.181  1.00  0.00    +0.000 C 
ATOM     48  F5  UNL A   1      19.742  34.591  43.786  1.00  0.00    +0.000 F 
ENDBRANCH   37   38
BRANCH   54   55
ATOM     65  F10 UNL A   1      20.049  36.287  52.058  1.00  0.00    +0.000 F 
ATOM     55  C37 UNL A   1      19.588  37.895  50.365  1.00  0.00    +0.000 C 
ATOM     56  C38 UNL A   1      18.771  38.953  49.937  1.00  0.00    +0.000 C 
ATOM     57  F6  UNL A   1      19.013  39.562  48.767  1.00  0.00    +0.000 F 
ATOM     58  C39 UNL A   1      17.727  39.418  50.733  1.00  0.00    +0.000 C 
ATOM     59  F7  UNL A   1      16.993  40.463  50.328  1.00  0.00    +0.000 F 
ATOM     60  C40 UNL A   1      17.456  38.812  51.950  1.00  0.00    +0.000 C 
ATOM     61  F8  UNL A   1      16.446  39.255  52.712  1.00  0.00    +0.000 F 
ATOM     62  C41 UNL A   1      18.238  37.751  52.383  1.00  0.00    +0.000 C 
ATOM     63  F9  UNL A   1      17.968  37.154  53.553  1.00  0.00    +0.000 F 
ATOM     64  C42 UNL A   1      19.303  37.305  51.606  1.00  0.00    +0.000 C 
ENDBRANCH   54   55
BRANCH   69   70
ATOM     70  C46 UNL A   1      26.291  39.711  49.781  1.00  0.00    +0.000 C 
ATOM     71  C47 UNL A   1      26.525  40.939  49.146  1.00  0.00    +0.000 C 
ATOM     72  F11 UNL A   1      26.002  41.176  47.935  1.00  0.00    +0.000 F 
ATOM     73  C48 UNL A   1      27.331  41.911  49.735  1.00  0.00    +0.000 C 
ATOM     74  F12 UNL A   1      27.577  43.057  49.085  1.00  0.00    +0.000 F 
ATOM     75  C49 UNL A   1      27.891  41.689  50.983  1.00  0.00    +0.000 C 
ATOM     76  F13 UNL A   1      28.661  42.627  51.553  1.00  0.00    +0.000 F 
ATOM     77  C50 UNL A   1      27.657  40.490  51.639  1.00  0.00    +0.000 C 
ATOM     78  F14 UNL A   1      28.179  40.277  52.856  1.00  0.00    +0.000 F 
ATOM     79  C51 UNL A   1      26.878  39.504  51.038  1.00  0.00    +0.000 C 
ATOM     80  F15 UNL A   1      26.679  38.349  51.691  1.00  0.00    +0.000 F 
ENDBRANCH   69   70
TORSDOF 21
ENDMDL
MODEL 8
REMARK VINA RESULT:      -9.3     47.040     49.670
ROOT
ATOM     33  C22 UNL A   1      16.703  49.782   0.311  1.00  0.00    +0.000 C 
ATOM     34  C23 UNL A   1      16.846  51.212  -0.126  1.00  0.00    +0.000 C 
ATOM     35  N6  UNL A   1      16.602  52.309   0.545  1.00  0.00    +0.000 N 
ATOM     36  C24 UNL A   1      16.927  53.355  -0.308  1.00  0.00    +0.000 C 
ATOM     37  C25 UNL A   1      16.795  54.688  -0.099  1.00  0.00    +0.000 C 
ATOM     49  C32 UNL A   1      16.271  55.272   1.110  1.00  0.00    +0.000 C 
ATOM     50  C33 UNL A   1      16.036  56.607   1.390  1.00  0.00    +0.000 C 
ATOM     51  C34 UNL A   1      15.591  56.705   2.713  1.00  0.00    +0.000 C 
ATOM     52  C35 UNL A   1      15.490  55.427   3.238  1.00  0.00    +0.000 C 
ATOM     53  N7  UNL A   1      15.907  54.557   2.241  1.00  0.00    +0.000 N 
ATOM     54  C36 UNL A   1      15.050  55.028   4.550  1.00  0.00    +0.000 C 
ATOM     66  C43 UNL A   1      14.941  53.744   4.973  1.00  0.00    +0.000 C 
ATOM     67  N8  UNL A   1      15.221  52.572   4.286  1.00  0.00    +0.000 N 
ATOM     68  C44 UNL A   1      14.977  51.595   5.126  1.00  0.00    +0.000 C 
ATOM     69  C45 UNL A   1      15.089  50.111   4.913  1.00  0.00    +0.000 C 
ATOM     81  C52 UNL A   1      15.486  49.648   3.712  1.00  0.00    +0.000 C 
ATOM     82  C53 UNL A   1      15.642  48.241   3.360  1.00  0.00    +0.000 C 
ATOM     83  C54 UNL A   1      16.116  48.152   2.108  1.00  0.00    +0.000 C 
ATOM     84  C55 UNL A   1      16.256  49.499   1.550  1.00  0.00    +0.000 C 
ATOM     85  N9  UNL A   1      15.848  50.322   2.570  1.00  0.00    +0.000 N 
ATOM     86  C56 UNL A   1      14.534  52.042   6.454  1.00  0.00    +0.000 C 
ATOM     87  C57 UNL A   1      14.488  53.358   6.293  1.00  0.00    +0.000 C 
ATOM     88  C58 UNL A   1      17.436  52.763  -1.527  1.00  0.00    +0.000 C 
ATOM     89  C59 UNL A   1      17.352  51.440  -1.488  1.00  0.00    +0.000 C 
ATOM    118  H24 UNL A   1      16.168  57.395   0.736  1.00  0.00    +0.000 H 
ATOM    119  H25 UNL A   1      15.374  57.582   3.213  1.00  0.00    +0.000 H 
ATOM    120  H26 UNL A   1      15.940  53.576   2.326  1.00  0.00    +0.000 H 
ATOM    121  H27 UNL A   1      15.422  47.442   3.975  1.00  0.00    +0.000 H 
ATOM    122  H28 UNL A   1      16.346  47.274   1.616  1.00  0.00    +0.000 H 
ATOM    123  H29 UNL A   1      15.817  51.303   2.491  1.00  0.00    +0.000 H 
ATOM    124  H30 UNL A   1      14.315  51.480   7.291  1.00  0.00    +0.000 H 
ATOM    125  H31 UNL A   1      14.171  54.021   7.018  1.00  0.00    +0.000 H 
ATOM    126  H32 UNL A   1      17.816  53.300  -2.322  1.00  0.00    +0.000 H 
ATOM    127  H33 UNL A   1      17.583  50.751  -2.221  1.00  0.00    +0.000 H 
ENDROOT
BRANCH   33   32
ATOM    129  H35 UNL A   1      15.886  46.581  -2.901  1.00  0.00    +0.000 H 
ATOM    128  H34 UNL A   1      15.196  48.343  -1.385  1.00  0.00    +0.000 H 
ATOM    116  H22 UNL A   1      19.868  47.030  -1.626  1.00  0.00    +0.000 H 
ATOM    117  H23 UNL A   1      19.147  48.637   0.043  1.00  0.00    +0.000 H 
ATOM     90  C60 UNL A   1      16.188  48.060  -1.428  1.00  0.00    +0.000 C 
ATOM     91  C61 UNL A   1      16.589  47.075  -2.329  1.00  0.00    +0.000 C 
ATOM     29  C18 UNL A   1      17.943  46.757  -2.456  1.00  0.00    +0.000 C 
ATOM     30  C19 UNL A   1      18.877  47.312  -1.575  1.00  0.00    +0.000 C 
ATOM     31  C20 UNL A   1      18.465  48.250  -0.626  1.00  0.00    +0.000 C 
ATOM     32  C21 UNL A   1      17.124  48.669  -0.578  1.00  0.00    +0.000 C 
BRANCH   29   27
ATOM     27  C17 UNL A   1      18.424  45.832  -3.507  1.00  0.00    +0.000 C 
ATOM     28  O5  UNL A   1      19.540  45.330  -3.409  1.00  0.00    +0.000 O 
BRANCH   27   26
ATOM     26  N5  UNL A   1      17.641  45.557  -4.601  1.00  0.00    +0.000 N 
ATOM    115  H21 UNL A   1      16.671  45.555  -4.430  1.00  0.00    +0.000 H 
BRANCH   26   25
ATOM     25  C16 UNL A   1      18.026  45.269  -5.972  1.00  0.00    +0.000 C 
ATOM    114  H20 UNL A   1      17.626  44.308  -6.223  1.00  0.00    +0.000 H 
ATOM    113  H19 UNL A   1      19.094  45.285  -6.038  1.00  0.00    +0.000 H 
BRANCH   25   24
ATOM    112  H18 UNL A   1      16.429  46.388  -6.715  1.00  0.00    +0.000 H 
ATOM    111  H17 UNL A   1      17.630  45.892  -7.954  1.00  0.00    +0.000 H 
ATOM     24  C15 UNL A   1      17.461  46.277  -6.970  1.00  0.00    +0.000 C 
BRANCH   24   23
ATOM    109  H15 UNL A   1      18.947  47.636  -6.315  1.00  0.00    +0.000 H 
ATOM    110  H16 UNL A   1      18.217  47.971  -7.926  1.00  0.00    +0.000 H 
ATOM     23  C14 UNL A   1      18.057  47.685  -6.908  1.00  0.00    +0.000 C 
BRANCH   23   22
ATOM    107  H13 UNL A   1      17.141  49.591  -7.009  1.00  0.00    +0.000 H 
ATOM    108  H14 UNL A   1      16.218  48.309  -6.147  1.00  0.00    +0.000 H 
ATOM     22  C13 UNL A   1      17.165  48.778  -6.315  1.00  0.00    +0.000 C 
BRANCH   22   21
ATOM    105  H11 UNL A   1      17.110  48.749  -4.201  1.00  0.00    +0.000 H 
ATOM    106  H12 UNL A   1      18.652  49.299  -4.952  1.00  0.00    +0.000 H 
ATOM     21  C12 UNL A   1      17.583  49.340  -4.957  1.00  0.00    +0.000 C 
BRANCH   21   20
ATOM     20  C11 UNL A   1      17.236  50.799  -4.686  1.00  0.00    +0.000 C 
ATOM    103  H9  UNL A   1      16.866  50.875  -3.685  1.00  0.00    +0.000 H 
ATOM    104  H10 UNL A   1      18.134  51.362  -4.841  1.00  0.00    +0.000 H 
BRANCH   20   19
ATOM     19  N4  UNL A   1      16.238  51.356  -5.584  1.00  0.00    +0.000 N 
ATOM    102  H8  UNL A   1      16.605  51.823  -6.368  1.00  0.00    +0.000 H 
BRANCH   19   17
ATOM     17  C10 UNL A   1      14.861  51.337  -5.518  1.00  0.00    +0.000 C 
ATOM     18  O4  UNL A   1      14.209  51.608  -6.530  1.00  0.00    +0.000 O 
BRANCH   17   16
ATOM    130  H36 UNL A   1      13.877  52.828  -3.464  1.00  0.00    +0.000 H 
ATOM     99  H5  UNL A   1      12.685  49.671  -0.973  1.00  0.00    +0.000 H 
ATOM    100  H6  UNL A   1      12.932  48.135  -2.837  1.00  0.00    +0.000 H 
ATOM     11  C5  UNL A   1      13.360  51.369  -2.030  1.00  0.00    +0.000 C 
ATOM     12  C6  UNL A   1      13.045  50.015  -1.877  1.00  0.00    +0.000 C 
ATOM     13  C7  UNL A   1      13.214  49.122  -2.940  1.00  0.00    +0.000 C 
ATOM     14  C8  UNL A   1      13.767  49.568  -4.139  1.00  0.00    +0.000 C 
ATOM     16  C9  UNL A   1      14.120  50.913  -4.303  1.00  0.00    +0.000 C 
ATOM     92  C62 UNL A   1      13.796  51.814  -3.286  1.00  0.00    +0.000 C 
BRANCH   11   10
ATOM     10  N3  UNL A   1      13.305  52.229  -0.906  1.00  0.00    +0.000 N 
BRANCH   10    9
ATOM      9  N2  UNL A   1      13.644  51.603   0.126  1.00  0.00    +0.000 N 
BRANCH    9    8
ATOM     97  H3  UNL A   1      11.800  54.153   3.387  1.00  0.00    +0.000 H 
ATOM     98  H4  UNL A   1      13.141  53.845   1.385  1.00  0.00    +0.000 H 
ATOM    131  H37 UNL A   1      12.169  49.754   1.353  1.00  0.00    +0.000 H 
ATOM    132  H38 UNL A   1      10.838  50.049   3.362  1.00  0.00    +0.000 H 
ATOM      5  C1  UNL A   1      11.225  52.122   3.522  1.00  0.00    +0.000 C 
ATOM      6  C2  UNL A   1      11.880  53.219   2.957  1.00  0.00    +0.000 C 
ATOM      7  C3  UNL A   1      12.648  53.038   1.800  1.00  0.00    +0.000 C 
ATOM      8  C4  UNL A   1      12.756  51.777   1.200  1.00  0.00    +0.000 C 
ATOM     93  C63 UNL A   1      12.092  50.688   1.783  1.00  0.00    +0.000 C 
ATOM     94  C64 UNL A   1      11.326  50.855   2.941  1.00  0.00    +0.000 C 
BRANCH    5    2
ATOM      2  S1  UNL A   1      10.274  52.331   5.000  1.00  0.00    +0.000 S 
ATOM      3  O1  UNL A   1       9.042  51.591   4.876  1.00  0.00    +0.000 O 
ATOM      4  O2  UNL A   1      10.319  53.725   5.376  1.00  0.00    +0.000 O 
BRANCH    2    1
ATOM      1  N1  UNL A   1      11.171  51.499   6.156  1.00  0.00    +0.000 N 
ATOM     95  H1  UNL A   1      11.876  50.926   5.691  1.00  0.00    +0.000 H 
ATOM     96  H2  UNL A   1      10.552  50.901   6.701  1.00  0.00    +0.000 H 
ENDBRANCH    2    1
ENDBRANCH    5    2
ENDBRANCH    9    8
ENDBRANCH   10    9
ENDBRANCH   11   10
BRANCH   14   15
ATOM    101  H7  UNL A   1      14.025  48.889  -6.013  1.00  0.00    +0.000 H 
ATOM     15  O3  UNL A   1      13.947  48.625  -5.117  1.00  0.00    +0.000 O 
ENDBRANCH   14   15
ENDBRANCH   17   16
ENDBRANCH   19   17
ENDBRANCH   20   19
ENDBRANCH   21   20
ENDBRANCH   22   21
ENDBRANCH   23   22
ENDBRANCH   24   23
ENDBRANCH   25   24
ENDBRANCH   26   25
ENDBRANCH   27   26
ENDBRANCH   29   27
ENDBRANCH   33   32
BRANCH   37   38
ATOM     38  C26 UNL A   1      17.229  55.615  -1.198  1.00  0.00    +0.000 C 
ATOM     39  C27 UNL A   1      16.340  56.045  -2.195  1.00  0.00    +0.000 C 
ATOM     40  F1  UNL A   1      15.081  55.584  -2.222  1.00  0.00    +0.000 F 
ATOM     41  C28 UNL A   1      16.753  56.928  -3.190  1.00  0.00    +0.000 C 
ATOM     42  F2  UNL A   1      15.899  57.289  -4.159  1.00  0.00    +0.000 F 
ATOM     43  C29 UNL A   1      18.047  57.425  -3.189  1.00  0.00    +0.000 C 
ATOM     44  F3  UNL A   1      18.438  58.284  -4.141  1.00  0.00    +0.000 F 
ATOM     45  C30 UNL A   1      18.937  57.029  -2.202  1.00  0.00    +0.000 C 
ATOM     46  F4  UNL A   1      20.184  57.520  -2.189  1.00  0.00    +0.000 F 
ATOM     47  C31 UNL A   1      18.537  56.122  -1.224  1.00  0.00    +0.000 C 
ATOM     48  F5  UNL A   1      19.426  55.749  -0.291  1.00  0.00    +0.000 F 
ENDBRANCH   37   38
BRANCH   54   55
ATOM     65  F10 UNL A   1      16.928  56.407   6.186  1.00  0.00    +0.000 F 
ATOM     55  C37 UNL A   1      14.663  56.107   5.521  1.00  0.00    +0.000 C 
ATOM     56  C38 UNL A   1      13.324  56.488   5.698  1.00  0.00    +0.000 C 
ATOM     57  F6  UNL A   1      12.358  55.926   4.955  1.00  0.00    +0.000 F 
ATOM     58  C39 UNL A   1      12.977  57.482   6.610  1.00  0.00    +0.000 C 
ATOM     59  F7  UNL A   1      11.699  57.867   6.725  1.00  0.00    +0.000 F 
ATOM     60  C40 UNL A   1      13.953  58.085   7.388  1.00  0.00    +0.000 C 
ATOM     61  F8  UNL A   1      13.617  59.035   8.272  1.00  0.00    +0.000 F 
ATOM     62  C41 UNL A   1      15.281  57.708   7.245  1.00  0.00    +0.000 C 
ATOM     63  F9  UNL A   1      16.224  58.279   8.007  1.00  0.00    +0.000 F 
ATOM     64  C42 UNL A   1      15.635  56.739   6.311  1.00  0.00    +0.000 C 
ENDBRANCH   54   55
BRANCH   69   70
ATOM     70  C46 UNL A   1      14.766  49.156   6.005  1.00  0.00    +0.000 C 
ATOM     71  C47 UNL A   1      15.715  48.830   6.985  1.00  0.00    +0.000 C 
ATOM     72  F11 UNL A   1      16.940  49.373   6.934  1.00  0.00    +0.000 F 
ATOM     73  C48 UNL A   1      15.424  47.915   7.994  1.00  0.00    +0.000 C 
ATOM     74  F12 UNL A   1      16.366  47.587   8.888  1.00  0.00    +0.000 F 
ATOM     75  C49 UNL A   1      14.167  47.333   8.064  1.00  0.00    +0.000 C 
ATOM     76  F13 UNL A   1      13.884  46.458   9.040  1.00  0.00    +0.000 F 
ATOM     77  C50 UNL A   1      13.205  47.656   7.119  1.00  0.00    +0.000 C 
ATOM     78  F14 UNL A   1      11.982  47.112   7.194  1.00  0.00    +0.000 F 
ATOM     79  C51 UNL A   1      13.505  48.545   6.091  1.00  0.00    +0.000 C 
ATOM     80  F15 UNL A   1      12.558  48.829   5.183  1.00  0.00    +0.000 F 
ENDBRANCH   69   70
TORSDOF 21
ENDMDL
MODEL 9
REMARK VINA RESULT:      -9.2      6.414     15.804
ROOT
ATOM     33  C22 UNL A   1      26.153  35.232  45.773  1.00  0.00    +0.000 C 
ATOM     34  C23 UNL A   1      24.792  34.619  45.605  1.00  0.00    +0.000 C 
ATOM     35  N6  UNL A   1      23.666  34.934  46.193  1.00  0.00    +0.000 N 
ATOM     36  C24 UNL A   1      22.708  34.082  45.658  1.00  0.00    +0.000 C 
ATOM     37  C25 UNL A   1      21.397  33.974  45.986  1.00  0.00    +0.000 C 
ATOM     49  C32 UNL A   1      20.743  34.770  46.993  1.00  0.00    +0.000 C 
ATOM     50  C33 UNL A   1      19.436  34.689  47.441  1.00  0.00    +0.000 C 
ATOM     51  C34 UNL A   1      19.229  35.710  48.376  1.00  0.00    +0.000 C 
ATOM     52  C35 UNL A   1      20.423  36.390  48.554  1.00  0.00    +0.000 C 
ATOM     53  N7  UNL A   1      21.345  35.800  47.702  1.00  0.00    +0.000 N 
ATOM     54  C36 UNL A   1      20.703  37.496  49.433  1.00  0.00    +0.000 C 
ATOM     66  C43 UNL A   1      21.918  38.081  49.580  1.00  0.00    +0.000 C 
ATOM     67  N8  UNL A   1      23.114  37.779  48.944  1.00  0.00    +0.000 N 
ATOM     68  C44 UNL A   1      23.992  38.636  49.406  1.00  0.00    +0.000 C 
ATOM     69  C45 UNL A   1      25.455  38.762  49.081  1.00  0.00    +0.000 C 
ATOM     81  C52 UNL A   1      26.010  37.902  48.205  1.00  0.00    +0.000 C 
ATOM     82  C53 UNL A   1      27.410  37.904  47.794  1.00  0.00    +0.000 C 
ATOM     83  C54 UNL A   1      27.593  36.956  46.862  1.00  0.00    +0.000 C 
ATOM     84  C55 UNL A   1      26.331  36.248  46.640  1.00  0.00    +0.000 C 
ATOM     85  N9  UNL A   1      25.450  36.871  47.490  1.00  0.00    +0.000 N 
ATOM     86  C56 UNL A   1      23.444  39.597  50.372  1.00  0.00    +0.000 C 
ATOM     87  C57 UNL A   1      22.186  39.188  50.474  1.00  0.00    +0.000 C 
ATOM     88  C58 UNL A   1      23.374  33.272  44.661  1.00  0.00    +0.000 C 
ATOM     89  C59 UNL A   1      24.676  33.524  44.629  1.00  0.00    +0.000 C 
ATOM    118  H24 UNL A   1      18.735  33.995  47.139  1.00  0.00    +0.000 H 
ATOM    119  H25 UNL A   1      18.338  35.920  48.852  1.00  0.00    +0.000 H 
ATOM    120  H26 UNL A   1      22.287  36.073  47.613  1.00  0.00    +0.000 H 
ATOM    121  H27 UNL A   1      28.142  38.532  48.161  1.00  0.00    +0.000 H 
ATOM    122  H28 UNL A   1      28.483  36.758  46.377  1.00  0.00    +0.000 H 
ATOM    123  H29 UNL A   1      24.507  36.604  47.579  1.00  0.00    +0.000 H 
ATOM    124  H30 UNL A   1      23.913  40.384  50.848  1.00  0.00    +0.000 H 
ATOM    125  H31 UNL A   1      21.489  39.606  51.109  1.00  0.00    +0.000 H 
ATOM    126  H32 UNL A   1      22.898  32.589  44.052  1.00  0.00    +0.000 H 
ATOM    127  H33 UNL A   1      25.413  33.072  44.068  1.00  0.00    +0.000 H 
ENDROOT
BRANCH   33   32
ATOM    129  H35 UNL A   1      28.737  35.397  41.962  1.00  0.00    +0.000 H 
ATOM    128  H34 UNL A   1      26.829  36.053  43.307  1.00  0.00    +0.000 H 
ATOM    116  H22 UNL A   1      30.048  32.857  45.046  1.00  0.00    +0.000 H 
ATOM    117  H23 UNL A   1      28.028  33.344  46.300  1.00  0.00    +0.000 H 
ATOM     90  C60 UNL A   1      27.507  35.367  43.675  1.00  0.00    +0.000 C 
ATOM     91  C61 UNL A   1      28.624  35.022  42.917  1.00  0.00    +0.000 C 
ATOM     29  C18 UNL A   1      29.591  34.167  43.452  1.00  0.00    +0.000 C 
ATOM     30  C19 UNL A   1      29.364  33.537  44.680  1.00  0.00    +0.000 C 
ATOM     31  C20 UNL A   1      28.211  33.831  45.409  1.00  0.00    +0.000 C 
ATOM     32  C21 UNL A   1      27.296  34.787  44.936  1.00  0.00    +0.000 C 
BRANCH   29   27
ATOM     27  C17 UNL A   1      30.864  33.901  42.744  1.00  0.00    +0.000 C 
ATOM     28  O5  UNL A   1      30.866  33.172  41.756  1.00  0.00    +0.000 O 
BRANCH   27   26
ATOM     26  N5  UNL A   1      32.040  34.442  43.202  1.00  0.00    +0.000 N 
ATOM    115  H21 UNL A   1      32.846  34.168  42.705  1.00  0.00    +0.000 H 
BRANCH   26   25
ATOM     25  C16 UNL A   1      32.276  35.355  44.306  1.00  0.00    +0.000 C 
ATOM    114  H20 UNL A   1      33.330  35.364  44.497  1.00  0.00    +0.000 H 
ATOM    113  H19 UNL A   1      31.721  35.015  45.156  1.00  0.00    +0.000 H 
BRANCH   25   24
ATOM    112  H18 UNL A   1      31.363  36.742  43.043  1.00  0.00    +0.000 H 
ATOM    111  H17 UNL A   1      32.734  37.397  43.999  1.00  0.00    +0.000 H 
ATOM     24  C15 UNL A   1      31.854  36.788  43.992  1.00  0.00    +0.000 C 
BRANCH   24   23
ATOM    109  H15 UNL A   1      30.398  36.620  45.519  1.00  0.00    +0.000 H 
ATOM    110  H16 UNL A   1      31.398  38.117  45.535  1.00  0.00    +0.000 H 
ATOM     23  C14 UNL A   1      30.841  37.413  44.953  1.00  0.00    +0.000 C 
BRANCH   23   22
ATOM    107  H13 UNL A   1      29.476  37.772  43.374  1.00  0.00    +0.000 H 
ATOM    108  H14 UNL A   1      28.907  38.192  45.029  1.00  0.00    +0.000 H 
ATOM     22  C13 UNL A   1      29.705  38.220  44.318  1.00  0.00    +0.000 C 
BRANCH   22   21
ATOM    105  H11 UNL A   1      30.944  39.928  44.469  1.00  0.00    +0.000 H 
ATOM    106  H12 UNL A   1      29.883  39.837  43.016  1.00  0.00    +0.000 H 
ATOM     21  C12 UNL A   1      29.976  39.704  44.073  1.00  0.00    +0.000 C 
BRANCH   21   20
ATOM     20  C11 UNL A   1      28.987  40.688  44.689  1.00  0.00    +0.000 C 
ATOM    103  H9  UNL A   1      28.664  41.361  43.923  1.00  0.00    +0.000 H 
ATOM    104  H10 UNL A   1      28.187  40.104  45.095  1.00  0.00    +0.000 H 
BRANCH   20   19
ATOM     19  N4  UNL A   1      29.527  41.473  45.787  1.00  0.00    +0.000 N 
ATOM    102  H8  UNL A   1      28.963  42.229  46.068  1.00  0.00    +0.000 H 
BRANCH   19   17
ATOM     17  C10 UNL A   1      30.698  41.334  46.500  1.00  0.00    +0.000 C 
ATOM     18  O4  UNL A   1      30.782  40.440  47.346  1.00  0.00    +0.000 O 
BRANCH   17   16
ATOM    130  H36 UNL A   1      31.296  43.869  47.287  1.00  0.00    +0.000 H 
ATOM     99  H5  UNL A   1      34.810  44.360  45.050  1.00  0.00    +0.000 H 
ATOM    100  H6  UNL A   1      34.859  41.968  44.641  1.00  0.00    +0.000 H 
ATOM     11  C5  UNL A   1      32.990  44.338  46.118  1.00  0.00    +0.000 C 
ATOM     12  C6  UNL A   1      34.040  43.765  45.394  1.00  0.00    +0.000 C 
ATOM     13  C7  UNL A   1      34.056  42.392  45.131  1.00  0.00    +0.000 C 
ATOM     14  C8  UNL A   1      32.983  41.597  45.532  1.00  0.00    +0.000 C 
ATOM     16  C9  UNL A   1      31.906  42.155  46.230  1.00  0.00    +0.000 C 
ATOM     92  C62 UNL A   1      31.987  43.494  46.618  1.00  0.00    +0.000 C 
BRANCH   11   10
ATOM     10  N3  UNL A   1      32.927  45.746  46.262  1.00  0.00    +0.000 N 
BRANCH   10    9
ATOM      9  N2  UNL A   1      33.798  46.286  45.539  1.00  0.00    +0.000 N 
BRANCH    9    8
ATOM     97  H3  UNL A   1      32.506  50.308  47.178  1.00  0.00    +0.000 H 
ATOM     98  H4  UNL A   1      33.040  47.950  47.414  1.00  0.00    +0.000 H 
ATOM    131  H37 UNL A   1      34.109  47.775  43.351  1.00  0.00    +0.000 H 
ATOM    132  H38 UNL A   1      33.564  50.128  43.101  1.00  0.00    +0.000 H 
ATOM      5  C1  UNL A   1      32.992  50.388  45.120  1.00  0.00    +0.000 C 
ATOM      6  C2  UNL A   1      32.844  49.770  46.365  1.00  0.00    +0.000 C 
ATOM      7  C3  UNL A   1      33.157  48.412  46.499  1.00  0.00    +0.000 C 
ATOM      8  C4  UNL A   1      33.628  47.673  45.405  1.00  0.00    +0.000 C 
ATOM     93  C63 UNL A   1      33.769  48.311  44.164  1.00  0.00    +0.000 C 
ATOM     94  C64 UNL A   1      33.455  49.665  44.018  1.00  0.00    +0.000 C 
BRANCH    5    2
ATOM      2  S1  UNL A   1      32.573  52.097  44.931  1.00  0.00    +0.000 S 
ATOM      3  O1  UNL A   1      31.225  52.305  45.400  1.00  0.00    +0.000 O 
ATOM      4  O2  UNL A   1      33.030  52.536  43.632  1.00  0.00    +0.000 O 
BRANCH    2    1
ATOM      1  N1  UNL A   1      33.555  52.862  46.063  1.00  0.00    +0.000 N 
ATOM     95  H1  UNL A   1      34.196  53.494  45.584  1.00  0.00    +0.000 H 
ATOM     96  H2  UNL A   1      34.087  52.162  46.579  1.00  0.00    +0.000 H 
ENDBRANCH    2    1
ENDBRANCH    5    2
ENDBRANCH    9    8
ENDBRANCH   10    9
ENDBRANCH   11   10
BRANCH   14   15
ATOM    101  H7  UNL A   1      32.340  39.697  45.415  1.00  0.00    +0.000 H 
ATOM     15  O3  UNL A   1      33.048  40.270  45.197  1.00  0.00    +0.000 O 
ENDBRANCH   14   15
ENDBRANCH   17   16
ENDBRANCH   19   17
ENDBRANCH   20   19
ENDBRANCH   21   20
ENDBRANCH   22   21
ENDBRANCH   23   22
ENDBRANCH   24   23
ENDBRANCH   25   24
ENDBRANCH   26   25
ENDBRANCH   27   26
ENDBRANCH   29   27
ENDBRANCH   33   32
BRANCH   37   38
ATOM     38  C26 UNL A   1      20.572  32.960  45.244  1.00  0.00    +0.000 C 
ATOM     39  C27 UNL A   1      20.532  31.614  45.636  1.00  0.00    +0.000 C 
ATOM     40  F1  UNL A   1      21.286  31.184  46.658  1.00  0.00    +0.000 F 
ATOM     41  C28 UNL A   1      19.740  30.693  44.954  1.00  0.00    +0.000 C 
ATOM     42  F2  UNL A   1      19.752  29.402  45.317  1.00  0.00    +0.000 F 
ATOM     43  C29 UNL A   1      18.946  31.105  43.895  1.00  0.00    +0.000 C 
ATOM     44  F3  UNL A   1      18.175  30.220  43.248  1.00  0.00    +0.000 F 
ATOM     45  C30 UNL A   1      18.955  32.436  43.503  1.00  0.00    +0.000 C 
ATOM     46  F4  UNL A   1      18.178  32.840  42.489  1.00  0.00    +0.000 F 
ATOM     47  C31 UNL A   1      19.770  33.352  44.162  1.00  0.00    +0.000 C 
ATOM     48  F5  UNL A   1      19.766  34.629  43.750  1.00  0.00    +0.000 F 
ENDBRANCH   37   38
BRANCH   54   55
ATOM     65  F10 UNL A   1      19.926  36.364  51.926  1.00  0.00    +0.000 F 
ATOM     55  C37 UNL A   1      19.576  38.034  50.268  1.00  0.00    +0.000 C 
ATOM     56  C38 UNL A   1      18.811  39.133  49.847  1.00  0.00    +0.000 C 
ATOM     57  F6  UNL A   1      19.110  39.765  48.702  1.00  0.00    +0.000 F 
ATOM     58  C39 UNL A   1      17.761  39.615  50.626  1.00  0.00    +0.000 C 
ATOM     59  F7  UNL A   1      17.078  40.697  50.229  1.00  0.00    +0.000 F 
ATOM     60  C40 UNL A   1      17.432  38.986  51.816  1.00  0.00    +0.000 C 
ATOM     61  F8  UNL A   1      16.415  39.445  52.560  1.00  0.00    +0.000 F 
ATOM     62  C41 UNL A   1      18.160  37.885  52.241  1.00  0.00    +0.000 C 
ATOM     63  F9  UNL A   1      17.834  37.267  53.385  1.00  0.00    +0.000 F 
ATOM     64  C42 UNL A   1      19.232  37.422  51.482  1.00  0.00    +0.000 C 
ENDBRANCH   54   55
BRANCH   69   70
ATOM     70  C46 UNL A   1      26.291  39.815  49.716  1.00  0.00    +0.000 C 
ATOM     71  C47 UNL A   1      26.485  41.056  49.092  1.00  0.00    +0.000 C 
ATOM     72  F11 UNL A   1      25.925  41.299  47.898  1.00  0.00    +0.000 F 
ATOM     73  C48 UNL A   1      27.289  42.035  49.671  1.00  0.00    +0.000 C 
ATOM     74  F12 UNL A   1      27.496  43.193  49.030  1.00  0.00    +0.000 F 
ATOM     75  C49 UNL A   1      27.887  41.807  50.901  1.00  0.00    +0.000 C 
ATOM     76  F13 UNL A   1      28.655  42.752  51.462  1.00  0.00    +0.000 F 
ATOM     77  C50 UNL A   1      27.692  40.595  51.547  1.00  0.00    +0.000 C 
ATOM     78  F14 UNL A   1      28.251  40.377  52.746  1.00  0.00    +0.000 F 
ATOM     79  C51 UNL A   1      26.916  39.604  50.954  1.00  0.00    +0.000 C 
ATOM     80  F15 UNL A   1      26.755  38.437  51.597  1.00  0.00    +0.000 F 
ENDBRANCH   69   70
TORSDOF 21
ENDMDL
MODEL 10
REMARK VINA RESULT:      -9.2     45.859     50.889
ROOT
ATOM     33  C22 UNL A   1      24.095 -10.827  34.314  1.00  0.00    +0.000 C 
ATOM     34  C23 UNL A   1      24.699 -11.886  35.192  1.00  0.00    +0.000 C 
ATOM     35  N6  UNL A   1      25.778 -12.601  35.000  1.00  0.00    +0.000 N 
ATOM     36  C24 UNL A   1      25.904 -13.407  36.124  1.00  0.00    +0.000 C 
ATOM     37  C25 UNL A   1      26.828 -14.365  36.377  1.00  0.00    +0.000 C 
ATOM     49  C32 UNL A   1      27.894 -14.724  35.477  1.00  0.00    +0.000 C 
ATOM     50  C33 UNL A   1      28.840 -15.725  35.615  1.00  0.00    +0.000 C 
ATOM     51  C34 UNL A   1      29.716 -15.653  34.527  1.00  0.00    +0.000 C 
ATOM     52  C35 UNL A   1      29.283 -14.647  33.680  1.00  0.00    +0.000 C 
ATOM     53  N7  UNL A   1      28.161 -14.087  34.273  1.00  0.00    +0.000 N 
ATOM     54  C36 UNL A   1      29.850 -14.224  32.425  1.00  0.00    +0.000 C 
ATOM     66  C43 UNL A   1      29.336 -13.252  31.631  1.00  0.00    +0.000 C 
ATOM     67  N8  UNL A   1      28.210 -12.465  31.832  1.00  0.00    +0.000 N 
ATOM     68  C44 UNL A   1      28.144 -11.662  30.798  1.00  0.00    +0.000 C 
ATOM     69  C45 UNL A   1      27.117 -10.611  30.479  1.00  0.00    +0.000 C 
ATOM     81  C52 UNL A   1      26.090 -10.416  31.328  1.00  0.00    +0.000 C 
ATOM     82  C53 UNL A   1      25.024  -9.435  31.152  1.00  0.00    +0.000 C 
ATOM     83  C54 UNL A   1      24.214  -9.473  32.220  1.00  0.00    +0.000 C 
ATOM     84  C55 UNL A   1      24.678 -10.513  33.140  1.00  0.00    +0.000 C 
ATOM     85  N9  UNL A   1      25.790 -11.028  32.522  1.00  0.00    +0.000 N 
ATOM     86  C56 UNL A   1      29.238 -11.834  29.833  1.00  0.00    +0.000 C 
ATOM     87  C57 UNL A   1      29.912 -12.843  30.368  1.00  0.00    +0.000 C 
ATOM     88  C58 UNL A   1      24.820 -13.055  37.018  1.00  0.00    +0.000 C 
ATOM     89  C59 UNL A   1      24.012 -12.162  36.463  1.00  0.00    +0.000 C 
ATOM    118  H24 UNL A   1      28.889 -16.407  36.388  1.00  0.00    +0.000 H 
ATOM    119  H25 UNL A   1      30.545 -16.251  34.380  1.00  0.00    +0.000 H 
ATOM    120  H26 UNL A   1      27.633 -13.346  33.896  1.00  0.00    +0.000 H 
ATOM    121  H27 UNL A   1      24.911  -8.814  30.336  1.00  0.00    +0.000 H 
ATOM    122  H28 UNL A   1      23.394  -8.864  32.371  1.00  0.00    +0.000 H 
ATOM    123  H29 UNL A   1      26.323 -11.765  32.898  1.00  0.00    +0.000 H 
ATOM    124  H30 UNL A   1      29.431 -11.307  28.966  1.00  0.00    +0.000 H 
ATOM    125  H31 UNL A   1      30.742 -13.280  29.937  1.00  0.00    +0.000 H 
ATOM    126  H32 UNL A   1      24.693 -13.449  37.963  1.00  0.00    +0.000 H 
ATOM    127  H33 UNL A   1      23.134 -11.763  36.828  1.00  0.00    +0.000 H 
ENDROOT
BRANCH   33   32
ATOM    129  H35 UNL A   1      19.554 -10.073  34.509  1.00  0.00    +0.000 H 
ATOM    128  H34 UNL A   1      21.512 -11.269  33.725  1.00  0.00    +0.000 H 
ATOM    116  H22 UNL A   1      22.008  -7.539  36.799  1.00  0.00    +0.000 H 
ATOM    117  H23 UNL A   1      23.976  -8.592  35.847  1.00  0.00    +0.000 H 
ATOM     90  C60 UNL A   1      21.621 -10.471  34.371  1.00  0.00    +0.000 C 
ATOM     91  C61 UNL A   1      20.492  -9.811  34.852  1.00  0.00    +0.000 C 
ATOM     29  C18 UNL A   1      20.631  -8.793  35.799  1.00  0.00    +0.000 C 
ATOM     30  C19 UNL A   1      21.905  -8.333  36.148  1.00  0.00    +0.000 C 
ATOM     31  C20 UNL A   1      23.037  -8.950  35.614  1.00  0.00    +0.000 C 
ATOM     32  C21 UNL A   1      22.905 -10.058  34.759  1.00  0.00    +0.000 C 
BRANCH   29   27
ATOM     27  C17 UNL A   1      19.452  -8.176  36.449  1.00  0.00    +0.000 C 
ATOM     28  O5  UNL A   1      19.596  -7.166  37.132  1.00  0.00    +0.000 O 
BRANCH   27   26
ATOM     26  N5  UNL A   1      18.209  -8.743  36.314  1.00  0.00    +0.000 N 
ATOM    115  H21 UNL A   1      17.788  -8.620  35.432  1.00  0.00    +0.000 H 
BRANCH   26   25
ATOM     25  C16 UNL A   1      17.420  -9.497  37.274  1.00  0.00    +0.000 C 
ATOM    114  H20 UNL A   1      16.414  -9.139  37.215  1.00  0.00    +0.000 H 
ATOM    113  H19 UNL A   1      17.839  -9.352  38.248  1.00  0.00    +0.000 H 
BRANCH   25   24
ATOM    112  H18 UNL A   1      17.744 -11.092  35.968  1.00  0.00    +0.000 H 
ATOM    111  H17 UNL A   1      16.393 -11.339  37.124  1.00  0.00    +0.000 H 
ATOM     24  C15 UNL A   1      17.394 -10.993  36.974  1.00  0.00    +0.000 C 
BRANCH   24   23
ATOM    109  H15 UNL A   1      18.863 -11.214  38.482  1.00  0.00    +0.000 H 
ATOM    110  H16 UNL A   1      17.685 -12.565  38.316  1.00  0.00    +0.000 H 
ATOM     23  C14 UNL A   1      18.324 -11.862  37.824  1.00  0.00    +0.000 C 
BRANCH   23   22
ATOM    107  H13 UNL A   1      19.115 -13.738  37.242  1.00  0.00    +0.000 H 
ATOM    108  H14 UNL A   1      19.265 -12.405  36.042  1.00  0.00    +0.000 H 
ATOM     22  C13 UNL A   1      19.349 -12.710  37.065  1.00  0.00    +0.000 C 
BRANCH   22   21
ATOM    105  H11 UNL A   1      21.412 -12.954  36.668  1.00  0.00    +0.000 H 
ATOM    106  H12 UNL A   1      20.935 -11.436  37.514  1.00  0.00    +0.000 H 
ATOM     21  C12 UNL A   1      20.817 -12.496  37.430  1.00  0.00    +0.000 C 
BRANCH   21   20
ATOM     20  C11 UNL A   1      21.274 -13.058  38.772  1.00  0.00    +0.000 C 
ATOM    103  H9  UNL A   1      22.009 -12.395  39.179  1.00  0.00    +0.000 H 
ATOM    104  H10 UNL A   1      20.400 -13.138  39.385  1.00  0.00    +0.000 H 
BRANCH   20   19
ATOM     19  N4  UNL A   1      21.854 -14.389  38.699  1.00  0.00    +0.000 N 
ATOM    102  H8  UNL A   1      22.730 -14.481  39.139  1.00  0.00    +0.000 H 
BRANCH   19   17
ATOM     17  C10 UNL A   1      21.380 -15.544  38.116  1.00  0.00    +0.000 C 
ATOM     18  O4  UNL A   1      20.325 -16.033  38.526  1.00  0.00    +0.000 O 
BRANCH   17   16
ATOM    130  H36 UNL A   1      22.267 -14.435  35.794  1.00  0.00    +0.000 H 
ATOM     99  H5  UNL A   1      23.238 -17.987  33.786  1.00  0.00    +0.000 H 
ATOM    100  H6  UNL A   1      23.074 -19.195  35.886  1.00  0.00    +0.000 H 
ATOM     11  C5  UNL A   1      22.665 -16.122  34.589  1.00  0.00    +0.000 C 
ATOM     12  C6  UNL A   1      22.941 -17.491  34.641  1.00  0.00    +0.000 C 
ATOM     13  C7  UNL A   1      22.819 -18.196  35.843  1.00  0.00    +0.000 C 
ATOM     14  C8  UNL A   1      22.350 -17.545  36.983  1.00  0.00    +0.000 C 
ATOM     16  C9  UNL A   1      22.036 -16.181  36.945  1.00  0.00    +0.000 C 
ATOM     92  C62 UNL A   1      22.316 -15.466  35.779  1.00  0.00    +0.000 C 
BRANCH   11   10
ATOM     10  N3  UNL A   1      22.669 -15.456  33.338  1.00  0.00    +0.000 N 
BRANCH   10    9
ATOM      9  N2  UNL A   1      22.072 -14.358  33.440  1.00  0.00    +0.000 N 
BRANCH    9    8
ATOM     97  H3  UNL A   1      17.721 -13.117  33.707  1.00  0.00    +0.000 H 
ATOM     98  H4  UNL A   1      20.065 -12.918  34.313  1.00  0.00    +0.000 H 
ATOM    131  H37 UNL A   1      21.046 -15.930  31.549  1.00  0.00    +0.000 H 
ATOM    132  H38 UNL A   1      18.704 -16.147  30.947  1.00  0.00    +0.000 H 
ATOM      5  C1  UNL A   1      18.043 -14.651  32.286  1.00  0.00    +0.000 C 
ATOM      6  C2  UNL A   1      18.427 -13.716  33.251  1.00  0.00    +0.000 C 
ATOM      7  C3  UNL A   1      19.779 -13.601  33.594  1.00  0.00    +0.000 C 
ATOM      8  C4  UNL A   1      20.748 -14.400  32.973  1.00  0.00    +0.000 C 
ATOM     93  C63 UNL A   1      20.343 -15.332  32.008  1.00  0.00    +0.000 C 
ATOM     94  C64 UNL A   1      18.995 -15.460  31.661  1.00  0.00    +0.000 C 
BRANCH    5    2
ATOM      2  S1  UNL A   1      16.333 -14.827  31.863  1.00  0.00    +0.000 S 
ATOM      3  O1  UNL A   1      16.096 -14.191  30.590  1.00  0.00    +0.000 O 
ATOM      4  O2  UNL A   1      15.542 -14.549  33.040  1.00  0.00    +0.000 O 
BRANCH    2    1
ATOM      1  N1  UNL A   1      16.178 -16.476  31.566  1.00  0.00    +0.000 N 
ATOM     95  H1  UNL A   1      15.269 -16.661  31.142  1.00  0.00    +0.000 H 
ATOM     96  H2  UNL A   1      16.255 -16.988  32.444  1.00  0.00    +0.000 H 
ENDBRANCH    2    1
ENDBRANCH    5    2
ENDBRANCH    9    8
ENDBRANCH   10    9
ENDBRANCH   11   10
BRANCH   14   15
ATOM    101  H7  UNL A   1      22.783 -18.178  38.841  1.00  0.00    +0.000 H 
ATOM     15  O3  UNL A   1      22.211 -18.312  38.110  1.00  0.00    +0.000 O 
ENDBRANCH   14   15
ENDBRANCH   17   16
ENDBRANCH   19   17
ENDBRANCH   20   19
ENDBRANCH   21   20
ENDBRANCH   22   21
ENDBRANCH   23   22
ENDBRANCH   24   23
ENDBRANCH   25   24
ENDBRANCH   26   25
ENDBRANCH   27   26
ENDBRANCH   29   27
ENDBRANCH   33   32
BRANCH   37   38
ATOM     38  C26 UNL A   1      26.737 -15.096  37.687  1.00  0.00    +0.000 C 
ATOM     39  C27 UNL A   1      26.101 -16.343  37.793  1.00  0.00    +0.000 C 
ATOM     40  F1  UNL A   1      25.501 -16.888  36.725  1.00  0.00    +0.000 F 
ATOM     41  C28 UNL A   1      26.051 -17.020  39.009  1.00  0.00    +0.000 C 
ATOM     42  F2  UNL A   1      25.399 -18.189  39.096  1.00  0.00    +0.000 F 
ATOM     43  C29 UNL A   1      26.664 -16.485  40.131  1.00  0.00    +0.000 C 
ATOM     44  F3  UNL A   1      26.625 -17.144  41.297  1.00  0.00    +0.000 F 
ATOM     45  C30 UNL A   1      27.315 -15.263  40.046  1.00  0.00    +0.000 C 
ATOM     46  F4  UNL A   1      27.921 -14.750  41.124  1.00  0.00    +0.000 F 
ATOM     47  C31 UNL A   1      27.340 -14.569  38.839  1.00  0.00    +0.000 C 
ATOM     48  F5  UNL A   1      27.966 -13.383  38.791  1.00  0.00    +0.000 F 
ENDBRANCH   37   38
BRANCH   54   55
ATOM     65  F10 UNL A   1      29.803 -16.434  30.631  1.00  0.00    +0.000 F 
ATOM     55  C37 UNL A   1      31.090 -14.922  31.942  1.00  0.00    +0.000 C 
ATOM     56  C38 UNL A   1      32.366 -14.531  32.375  1.00  0.00    +0.000 C 
ATOM     57  F6  UNL A   1      32.508 -13.480  33.197  1.00  0.00    +0.000 F 
ATOM     58  C39 UNL A   1      33.507 -15.194  31.929  1.00  0.00    +0.000 C 
ATOM     59  F7  UNL A   1      34.719 -14.771  32.315  1.00  0.00    +0.000 F 
ATOM     60  C40 UNL A   1      33.393 -16.280  31.076  1.00  0.00    +0.000 C 
ATOM     61  F8  UNL A   1      34.491 -16.922  30.654  1.00  0.00    +0.000 F 
ATOM     62  C41 UNL A   1      32.139 -16.697  30.652  1.00  0.00    +0.000 C 
ATOM     63  F9  UNL A   1      32.026 -17.756  29.838  1.00  0.00    +0.000 F 
ATOM     64  C42 UNL A   1      30.999 -16.016  31.069  1.00  0.00    +0.000 C 
ENDBRANCH   54   55
BRANCH   69   70
ATOM     70  C46 UNL A   1      27.222  -9.792  29.242  1.00  0.00    +0.000 C 
ATOM     71  C47 UNL A   1      26.558 -10.171  28.066  1.00  0.00    +0.000 C 
ATOM     72  F11 UNL A   1      25.829 -11.296  28.044  1.00  0.00    +0.000 F 
ATOM     73  C48 UNL A   1      26.676  -9.421  26.899  1.00  0.00    +0.000 C 
ATOM     74  F12 UNL A   1      26.071  -9.832  25.777  1.00  0.00    +0.000 F 
ATOM     75  C49 UNL A   1      27.431  -8.257  26.893  1.00  0.00    +0.000 C 
ATOM     76  F13 UNL A   1      27.539  -7.531  25.771  1.00  0.00    +0.000 F 
ATOM     77  C50 UNL A   1      28.079  -7.851  28.049  1.00  0.00    +0.000 C 
ATOM     78  F14 UNL A   1      28.794  -6.716  28.054  1.00  0.00    +0.000 F 
ATOM     79  C51 UNL A   1      27.989  -8.617  29.208  1.00  0.00    +0.000 C 
ATOM     80  F15 UNL A   1      28.637  -8.206  30.308  1.00  0.00    +0.000 F 
ENDBRANCH   69   70
TORSDOF 21
ENDMDL
