MODEL 1
REMARK VINA RESULT:      -9.9      0.000      0.000
ROOT
ATOM     19  C15 UNL A   1      10.354   3.082  21.373  1.00  0.00    +0.000 C 
ATOM     20  C16 UNL A   1      10.895   3.547  20.052  1.00  0.00    +0.000 C 
ATOM     21  N3  UNL A   1      10.833   4.731  19.499  1.00  0.00    +0.000 N 
ATOM     22  C17 UNL A   1      11.565   4.633  18.323  1.00  0.00    +0.000 C 
ATOM     23  C18 UNL A   1      11.769   5.579  17.377  1.00  0.00    +0.000 C 
ATOM     35  C25 UNL A   1      11.207   6.902  17.424  1.00  0.00    +0.000 C 
ATOM     36  C26 UNL A   1      11.293   7.911  16.481  1.00  0.00    +0.000 C 
ATOM     37  C27 UNL A   1      10.616   9.030  16.978  1.00  0.00    +0.000 C 
ATOM     38  C28 UNL A   1      10.073   8.704  18.212  1.00  0.00    +0.000 C 
ATOM     39  N4  UNL A   1      10.448   7.397  18.474  1.00  0.00    +0.000 N 
ATOM     40  C29 UNL A   1       9.273   9.524  19.084  1.00  0.00    +0.000 C 
ATOM     52  C36 UNL A   1       8.778   9.137  20.285  1.00  0.00    +0.000 C 
ATOM     53  N5  UNL A   1       8.901   7.910  20.922  1.00  0.00    +0.000 N 
ATOM     54  C37 UNL A   1       8.244   8.022  22.051  1.00  0.00    +0.000 C 
ATOM     55  C38 UNL A   1       8.029   6.991  23.124  1.00  0.00    +0.000 C 
ATOM     67  C45 UNL A   1       8.481   5.736  22.938  1.00  0.00    +0.000 C 
ATOM     68  C46 UNL A   1       8.363   4.642  23.898  1.00  0.00    +0.000 C 
ATOM     69  C47 UNL A   1       9.027   3.574  23.428  1.00  0.00    +0.000 C 
ATOM     70  C48 UNL A   1       9.581   3.898  22.114  1.00  0.00    +0.000 C 
ATOM     71  N6  UNL A   1       9.159   5.184  21.879  1.00  0.00    +0.000 N 
ATOM     72  C49 UNL A   1       7.655   9.350  22.273  1.00  0.00    +0.000 C 
ATOM     73  C50 UNL A   1       7.987   9.983  21.156  1.00  0.00    +0.000 C 
ATOM     74  C51 UNL A   1      12.091   3.285  18.262  1.00  0.00    +0.000 C 
ATOM     75  C52 UNL A   1      11.643   2.552  19.269  1.00  0.00    +0.000 C 
ATOM    112  H21 UNL A   1      11.771   7.849  15.570  1.00  0.00    +0.000 H 
ATOM    113  H22 UNL A   1      10.535   9.945  16.507  1.00  0.00    +0.000 H 
ATOM    114  H23 UNL A   1      10.211   6.894  19.288  1.00  0.00    +0.000 H 
ATOM    115  H24 UNL A   1       7.851   4.683  24.793  1.00  0.00    +0.000 H 
ATOM    116  H25 UNL A   1       9.128   2.670  23.915  1.00  0.00    +0.000 H 
ATOM    117  H26 UNL A   1       9.328   5.663  21.035  1.00  0.00    +0.000 H 
ATOM    118  H27 UNL A   1       7.122   9.698  23.086  1.00  0.00    +0.000 H 
ATOM    119  H28 UNL A   1       7.716  10.953  20.935  1.00  0.00    +0.000 H 
ATOM    120  H29 UNL A   1      12.731   2.942  17.528  1.00  0.00    +0.000 H 
ATOM    121  H30 UNL A   1      11.783   1.546  19.456  1.00  0.00    +0.000 H 
ENDROOT
BRANCH   19   18
ATOM     76  C53 UNL A   1      12.082   1.639  22.419  1.00  0.00    +0.000 C 
ATOM     77  C54 UNL A   1      12.529   0.418  22.911  1.00  0.00    +0.000 C 
ATOM    110  H19 UNL A   1       9.724  -1.376  22.467  1.00  0.00    +0.000 H 
ATOM     15  C11 UNL A   1      11.645  -0.661  22.984  1.00  0.00    +0.000 C 
ATOM     16  C12 UNL A   1      10.356  -0.560  22.453  1.00  0.00    +0.000 C 
ATOM     17  C13 UNL A   1       9.929   0.651  21.902  1.00  0.00    +0.000 C 
ATOM    111  H20 UNL A   1       8.986   0.724  21.490  1.00  0.00    +0.000 H 
ATOM     18  C14 UNL A   1      10.779   1.766  21.911  1.00  0.00    +0.000 C 
ATOM    122  H31 UNL A   1      12.712   2.457  22.427  1.00  0.00    +0.000 H 
ATOM    123  H32 UNL A   1      13.508   0.310  23.221  1.00  0.00    +0.000 H 
BRANCH   15   13
ATOM     13  C10 UNL A   1      12.057  -1.916  23.647  1.00  0.00    +0.000 C 
ATOM     14  O2  UNL A   1      12.414  -2.876  22.972  1.00  0.00    +0.000 O 
BRANCH   13   12
ATOM     12  N2  UNL A   1      12.013  -1.996  25.017  1.00  0.00    +0.000 N 
ATOM    109  H18 UNL A   1      11.114  -2.005  25.418  1.00  0.00    +0.000 H 
BRANCH   12   11
ATOM     11  C9  UNL A   1      13.125  -2.069  25.954  1.00  0.00    +0.000 C 
ATOM    108  H17 UNL A   1      14.007  -2.303  25.395  1.00  0.00    +0.000 H 
ATOM    107  H16 UNL A   1      12.911  -2.824  26.681  1.00  0.00    +0.000 H 
BRANCH   11   10
ATOM    105  H14 UNL A   1      12.425  -0.243  26.767  1.00  0.00    +0.000 H 
ATOM     10  C8  UNL A   1      13.365  -0.747  26.673  1.00  0.00    +0.000 C 
ATOM    106  H15 UNL A   1      13.806  -0.993  27.617  1.00  0.00    +0.000 H 
BRANCH   10    9
ATOM      9  C7  UNL A   1      14.343   0.193  25.968  1.00  0.00    +0.000 C 
ATOM    103  H12 UNL A   1      15.253  -0.342  25.798  1.00  0.00    +0.000 H 
ATOM    104  H13 UNL A   1      13.858   0.506  25.067  1.00  0.00    +0.000 H 
BRANCH    9    8
ATOM    101  H10 UNL A   1      14.901   2.239  26.022  1.00  0.00    +0.000 H 
ATOM    102  H11 UNL A   1      13.826   1.687  27.344  1.00  0.00    +0.000 H 
ATOM      8  C6  UNL A   1      14.680   1.474  26.737  1.00  0.00    +0.000 C 
BRANCH    8    7
ATOM     99  H8  UNL A   1      15.640   0.625  28.437  1.00  0.00    +0.000 H 
ATOM    100  H9  UNL A   1      16.724   1.120  27.108  1.00  0.00    +0.000 H 
ATOM      7  C5  UNL A   1      15.870   1.369  27.702  1.00  0.00    +0.000 C 
BRANCH    7    6
ATOM     97  H6  UNL A   1      17.124   2.543  28.975  1.00  0.00    +0.000 H 
ATOM     98  H7  UNL A   1      16.318   3.456  27.710  1.00  0.00    +0.000 H 
ATOM      6  C4  UNL A   1      16.211   2.673  28.433  1.00  0.00    +0.000 C 
BRANCH    6    5
ATOM      5  N1  UNL A   1      15.155   3.031  29.357  1.00  0.00    +0.000 N 
ATOM     96  H5  UNL A   1      14.918   2.345  30.022  1.00  0.00    +0.000 H 
BRANCH    5    3
ATOM      3  C3  UNL A   1      14.442   4.195  29.427  1.00  0.00    +0.000 C 
ATOM      4  O1  UNL A   1      14.858   5.140  28.750  1.00  0.00    +0.000 O 
BRANCH    3    2
ATOM      2  C2  UNL A   1      13.227   4.303  30.374  1.00  0.00    +0.000 C 
ATOM     95  H4  UNL A   1      13.145   5.306  30.738  1.00  0.00    +0.000 H 
BRANCH    2    1
ATOM      1  C1  UNL A   1      13.437   3.399  31.594  1.00  0.00    +0.000 C 
ATOM     92  H1  UNL A   1      14.129   3.862  32.266  1.00  0.00    +0.000 H 
ATOM     93  H2  UNL A   1      13.829   2.455  31.275  1.00  0.00    +0.000 H 
ATOM     94  H3  UNL A   1      12.503   3.248  32.092  1.00  0.00    +0.000 H 
ENDBRANCH    2    1
BRANCH    2   78
ATOM    132  H41 UNL A   1      12.824   2.932  28.079  1.00  0.00    +0.000 H 
ATOM     78  C55 UNL A   1      11.907   4.039  29.631  1.00  0.00    +0.000 C 
ATOM     79  C56 UNL A   1      10.671   4.550  30.059  1.00  0.00    +0.000 C 
ATOM     80  C57 UNL A   1       9.488   4.226  29.391  1.00  0.00    +0.000 C 
ATOM     81  C58 UNL A   1       9.516   3.368  28.294  1.00  0.00    +0.000 C 
ATOM     82  C59 UNL A   1      10.731   2.856  27.832  1.00  0.00    +0.000 C 
ATOM     91  C67 UNL A   1      11.920   3.240  28.469  1.00  0.00    +0.000 C 
ATOM    124  H33 UNL A   1      10.637   5.176  30.879  1.00  0.00    +0.000 H 
ATOM    125  H34 UNL A   1       8.591   4.621  29.712  1.00  0.00    +0.000 H 
ATOM    126  H35 UNL A   1       8.636   3.110  27.820  1.00  0.00    +0.000 H 
BRANCH   82   83
ATOM     83  C60 UNL A   1      10.709   1.936  26.660  1.00  0.00    +0.000 C 
ATOM     84  O3  UNL A   1      11.402   2.189  25.676  1.00  0.00    +0.000 O 
BRANCH   83   85
ATOM    129  H38 UNL A   1       7.845  -2.530  26.761  1.00  0.00    +0.000 H 
ATOM    130  H39 UNL A   1       7.601  -1.006  24.891  1.00  0.00    +0.000 H 
ATOM    131  H40 UNL A   1       8.921   1.033  24.800  1.00  0.00    +0.000 H 
ATOM     85  C61 UNL A   1       9.901   0.692  26.644  1.00  0.00    +0.000 C 
ATOM     86  C62 UNL A   1      10.066  -0.209  27.703  1.00  0.00    +0.000 C 
ATOM     87  C63 UNL A   1       9.316  -1.383  27.745  1.00  0.00    +0.000 C 
ATOM     88  C64 UNL A   1       8.410  -1.668  26.723  1.00  0.00    +0.000 C 
ATOM     89  C65 UNL A   1       8.265  -0.788  25.650  1.00  0.00    +0.000 C 
ATOM     90  C66 UNL A   1       9.017   0.389  25.601  1.00  0.00    +0.000 C 
ATOM    127  H36 UNL A   1      10.745  -0.003  28.453  1.00  0.00    +0.000 H 
ATOM    128  H37 UNL A   1       9.430  -2.041  28.531  1.00  0.00    +0.000 H 
ENDBRANCH   83   85
ENDBRANCH   82   83
ENDBRANCH    2   78
ENDBRANCH    3    2
ENDBRANCH    5    3
ENDBRANCH    6    5
ENDBRANCH    7    6
ENDBRANCH    8    7
ENDBRANCH    9    8
ENDBRANCH   10    9
ENDBRANCH   11   10
ENDBRANCH   12   11
ENDBRANCH   13   12
ENDBRANCH   15   13
ENDBRANCH   19   18
BRANCH   23   24
ATOM     33  C24 UNL A   1      12.110   4.569  15.094  1.00  0.00    +0.000 C 
ATOM     34  F5  UNL A   1      10.804   4.268  15.049  1.00  0.00    +0.000 F 
ATOM     24  C19 UNL A   1      12.650   5.214  16.218  1.00  0.00    +0.000 C 
ATOM     25  C20 UNL A   1      14.024   5.499  16.214  1.00  0.00    +0.000 C 
ATOM     26  F1  UNL A   1      14.585   6.127  17.258  1.00  0.00    +0.000 F 
ATOM     27  C21 UNL A   1      14.817   5.189  15.112  1.00  0.00    +0.000 C 
ATOM     28  F2  UNL A   1      16.114   5.528  15.107  1.00  0.00    +0.000 F 
ATOM     29  C22 UNL A   1      14.261   4.552  14.013  1.00  0.00    +0.000 C 
ATOM     30  F3  UNL A   1      15.025   4.257  12.951  1.00  0.00    +0.000 F 
ATOM     31  C23 UNL A   1      12.913   4.232  14.007  1.00  0.00    +0.000 C 
ATOM     32  F4  UNL A   1      12.377   3.606  12.950  1.00  0.00    +0.000 F 
ENDBRANCH   23   24
BRANCH   40   41
ATOM     41  C30 UNL A   1       8.942  10.908  18.612  1.00  0.00    +0.000 C 
ATOM     42  C31 UNL A   1       7.767  11.180  17.898  1.00  0.00    +0.000 C 
ATOM     43  F6  UNL A   1       6.949  10.178  17.539  1.00  0.00    +0.000 F 
ATOM     44  C32 UNL A   1       7.437  12.483  17.536  1.00  0.00    +0.000 C 
ATOM     45  F7  UNL A   1       6.321  12.720  16.834  1.00  0.00    +0.000 F 
ATOM     46  C33 UNL A   1       8.262  13.537  17.901  1.00  0.00    +0.000 C 
ATOM     47  F8  UNL A   1       7.935  14.793  17.566  1.00  0.00    +0.000 F 
ATOM     48  C34 UNL A   1       9.429  13.290  18.609  1.00  0.00    +0.000 C 
ATOM     49  F9  UNL A   1      10.222  14.308  18.971  1.00  0.00    +0.000 F 
ATOM     50  C35 UNL A   1       9.773  11.987  18.952  1.00  0.00    +0.000 C 
ATOM     51  F10 UNL A   1      10.905  11.777  19.640  1.00  0.00    +0.000 F 
ENDBRANCH   40   41
BRANCH   55   56
ATOM     65  C44 UNL A   1       7.926   8.035  25.413  1.00  0.00    +0.000 C 
ATOM     66  F15 UNL A   1       9.191   8.459  25.273  1.00  0.00    +0.000 F 
ATOM     56  C39 UNL A   1       7.304   7.325  24.376  1.00  0.00    +0.000 C 
ATOM     57  C40 UNL A   1       5.986   6.896  24.576  1.00  0.00    +0.000 C 
ATOM     58  F11 UNL A   1       5.346   6.228  23.604  1.00  0.00    +0.000 F 
ATOM     59  C41 UNL A   1       5.313   7.169  25.764  1.00  0.00    +0.000 C 
ATOM     60  F12 UNL A   1       4.044   6.768  25.921  1.00  0.00    +0.000 F 
ATOM     61  C42 UNL A   1       5.953   7.858  26.784  1.00  0.00    +0.000 C 
ATOM     62  F13 UNL A   1       5.310   8.107  27.933  1.00  0.00    +0.000 F 
ATOM     63  C43 UNL A   1       7.260   8.289  26.610  1.00  0.00    +0.000 C 
ATOM     64  F14 UNL A   1       7.887   8.941  27.598  1.00  0.00    +0.000 F 
ENDBRANCH   55   56
TORSDOF 19
ENDMDL
MODEL 2
REMARK VINA RESULT:      -9.8     44.291     50.704
ROOT
ATOM     19  C15 UNL A   1      13.479  50.311   3.389  1.00  0.00    +0.000 C 
ATOM     20  C16 UNL A   1      14.293  49.836   2.221  1.00  0.00    +0.000 C 
ATOM     21  N3  UNL A   1      15.152  50.494   1.485  1.00  0.00    +0.000 N 
ATOM     22  C17 UNL A   1      15.678  49.561   0.600  1.00  0.00    +0.000 C 
ATOM     23  C18 UNL A   1      16.579  49.756  -0.391  1.00  0.00    +0.000 C 
ATOM     35  C25 UNL A   1      17.147  51.034  -0.726  1.00  0.00    +0.000 C 
ATOM     36  C26 UNL A   1      18.013  51.350  -1.758  1.00  0.00    +0.000 C 
ATOM     37  C27 UNL A   1      18.319  52.713  -1.667  1.00  0.00    +0.000 C 
ATOM     38  C28 UNL A   1      17.611  53.253  -0.604  1.00  0.00    +0.000 C 
ATOM     39  N4  UNL A   1      16.901  52.210  -0.033  1.00  0.00    +0.000 N 
ATOM     40  C29 UNL A   1      17.586  54.618  -0.145  1.00  0.00    +0.000 C 
ATOM     52  C36 UNL A   1      16.870  55.074   0.911  1.00  0.00    +0.000 C 
ATOM     53  N5  UNL A   1      16.014  54.373   1.750  1.00  0.00    +0.000 N 
ATOM     54  C37 UNL A   1      15.553  55.250   2.609  1.00  0.00    +0.000 C 
ATOM     55  C38 UNL A   1      14.573  55.047   3.731  1.00  0.00    +0.000 C 
ATOM     67  C45 UNL A   1      13.990  53.844   3.892  1.00  0.00    +0.000 C 
ATOM     68  C46 UNL A   1      13.040  53.498   4.945  1.00  0.00    +0.000 C 
ATOM     69  C47 UNL A   1      12.759  52.186   4.868  1.00  0.00    +0.000 C 
ATOM     70  C48 UNL A   1      13.480  51.611   3.733  1.00  0.00    +0.000 C 
ATOM     71  N6  UNL A   1      14.140  52.681   3.177  1.00  0.00    +0.000 N 
ATOM     72  C49 UNL A   1      16.093  56.605   2.431  1.00  0.00    +0.000 C 
ATOM     73  C50 UNL A   1      16.869  56.449   1.367  1.00  0.00    +0.000 C 
ATOM     74  C51 UNL A   1      15.068  48.287   0.916  1.00  0.00    +0.000 C 
ATOM     75  C52 UNL A   1      14.149  48.418   1.859  1.00  0.00    +0.000 C 
ATOM    112  H21 UNL A   1      18.370  50.696  -2.471  1.00  0.00    +0.000 H 
ATOM    113  H22 UNL A   1      18.963  53.229  -2.286  1.00  0.00    +0.000 H 
ATOM    114  H23 UNL A   1      16.308  52.292   0.750  1.00  0.00    +0.000 H 
ATOM    115  H24 UNL A   1      12.646  54.154   5.637  1.00  0.00    +0.000 H 
ATOM    116  H25 UNL A   1      12.135  51.668   5.506  1.00  0.00    +0.000 H 
ATOM    117  H26 UNL A   1      14.671  52.618   2.350  1.00  0.00    +0.000 H 
ATOM    118  H27 UNL A   1      15.914  57.456   2.988  1.00  0.00    +0.000 H 
ATOM    119  H28 UNL A   1      17.403  57.210   0.920  1.00  0.00    +0.000 H 
ATOM    120  H29 UNL A   1      15.318  47.393   0.463  1.00  0.00    +0.000 H 
ATOM    121  H30 UNL A   1      13.502  47.710   2.242  1.00  0.00    +0.000 H 
ENDROOT
BRANCH   19   18
ATOM     76  C53 UNL A   1      11.443  48.996   3.927  1.00  0.00    +0.000 C 
ATOM     77  C54 UNL A   1      10.739  48.086   4.708  1.00  0.00    +0.000 C 
ATOM    110  H19 UNL A   1      13.166  47.291   6.890  1.00  0.00    +0.000 H 
ATOM     15  C11 UNL A   1      11.391  47.421   5.749  1.00  0.00    +0.000 C 
ATOM     16  C12 UNL A   1      12.706  47.752   6.089  1.00  0.00    +0.000 C 
ATOM     17  C13 UNL A   1      13.392  48.712   5.341  1.00  0.00    +0.000 C 
ATOM    111  H20 UNL A   1      14.355  48.975   5.602  1.00  0.00    +0.000 H 
ATOM     18  C14 UNL A   1      12.775  49.316   4.236  1.00  0.00    +0.000 C 
ATOM    122  H31 UNL A   1      10.984  49.438   3.115  1.00  0.00    +0.000 H 
ATOM    123  H32 UNL A   1       9.741  47.904   4.519  1.00  0.00    +0.000 H 
BRANCH   15   13
ATOM     13  C10 UNL A   1      10.704  46.341   6.486  1.00  0.00    +0.000 C 
ATOM     14  O2  UNL A   1      10.697  45.200   6.036  1.00  0.00    +0.000 O 
BRANCH   13   12
ATOM     12  N2  UNL A   1      10.063  46.636   7.664  1.00  0.00    +0.000 N 
ATOM    109  H18 UNL A   1       9.230  47.154   7.581  1.00  0.00    +0.000 H 
BRANCH   12   11
ATOM     11  C9  UNL A   1      10.456  46.283   9.020  1.00  0.00    +0.000 C 
ATOM    108  H17 UNL A   1       9.874  45.437   9.318  1.00  0.00    +0.000 H 
ATOM    107  H16 UNL A   1      10.280  47.124   9.658  1.00  0.00    +0.000 H 
BRANCH   11   10
ATOM    105  H14 UNL A   1      11.984  44.907   9.526  1.00  0.00    +0.000 H 
ATOM     10  C8  UNL A   1      11.927  45.894   9.116  1.00  0.00    +0.000 C 
ATOM    106  H15 UNL A   1      12.323  45.962   8.125  1.00  0.00    +0.000 H 
BRANCH   10    9
ATOM      9  C7  UNL A   1      12.775  46.822   9.987  1.00  0.00    +0.000 C 
ATOM    103  H12 UNL A   1      12.512  46.648  11.010  1.00  0.00    +0.000 H 
ATOM    104  H13 UNL A   1      13.796  46.588   9.765  1.00  0.00    +0.000 H 
BRANCH    9    8
ATOM    101  H10 UNL A   1      13.518  48.673   9.266  1.00  0.00    +0.000 H 
ATOM    102  H11 UNL A   1      11.761  48.398   9.050  1.00  0.00    +0.000 H 
ATOM      8  C6  UNL A   1      12.607  48.316   9.699  1.00  0.00    +0.000 C 
BRANCH    8    7
ATOM     99  H8  UNL A   1      11.600  48.659  11.543  1.00  0.00    +0.000 H 
ATOM    100  H9  UNL A   1      13.223  49.389  11.406  1.00  0.00    +0.000 H 
ATOM      7  C5  UNL A   1      12.289  49.191  10.921  1.00  0.00    +0.000 C 
BRANCH    7    6
ATOM     97  H6  UNL A   1      11.893  50.794   9.562  1.00  0.00    +0.000 H 
ATOM     98  H7  UNL A   1      10.615  50.501  10.730  1.00  0.00    +0.000 H 
ATOM      6  C4  UNL A   1      11.674  50.554  10.582  1.00  0.00    +0.000 C 
BRANCH    6    5
ATOM      5  N1  UNL A   1      12.216  51.586  11.442  1.00  0.00    +0.000 N 
ATOM     96  H5  UNL A   1      11.585  52.289  11.715  1.00  0.00    +0.000 H 
BRANCH    5    3
ATOM      3  C3  UNL A   1      13.490  51.713  11.922  1.00  0.00    +0.000 C 
ATOM      4  O1  UNL A   1      13.680  51.354  13.087  1.00  0.00    +0.000 O 
BRANCH    3    2
ATOM      2  C2  UNL A   1      14.589  52.347  11.041  1.00  0.00    +0.000 C 
ATOM     95  H4  UNL A   1      15.123  53.080  11.609  1.00  0.00    +0.000 H 
BRANCH    2    1
ATOM      1  C1  UNL A   1      13.948  53.077   9.855  1.00  0.00    +0.000 C 
ATOM     92  H1  UNL A   1      12.966  53.404  10.128  1.00  0.00    +0.000 H 
ATOM     93  H2  UNL A   1      13.883  52.412   9.019  1.00  0.00    +0.000 H 
ATOM     94  H3  UNL A   1      14.545  53.924   9.592  1.00  0.00    +0.000 H 
ENDBRANCH    2    1
BRANCH    2   78
ATOM    132  H41 UNL A   1      14.472  50.504   9.065  1.00  0.00    +0.000 H 
ATOM     78  C55 UNL A   1      15.648  51.312  10.628  1.00  0.00    +0.000 C 
ATOM     79  C56 UNL A   1      16.870  51.156  11.300  1.00  0.00    +0.000 C 
ATOM     80  C57 UNL A   1      17.832  50.251  10.845  1.00  0.00    +0.000 C 
ATOM     81  C58 UNL A   1      17.596  49.497   9.698  1.00  0.00    +0.000 C 
ATOM     82  C59 UNL A   1      16.383  49.615   9.016  1.00  0.00    +0.000 C 
ATOM     91  C67 UNL A   1      15.399  50.479   9.518  1.00  0.00    +0.000 C 
ATOM    124  H33 UNL A   1      17.061  51.719  12.143  1.00  0.00    +0.000 H 
ATOM    125  H34 UNL A   1      18.719  50.141  11.360  1.00  0.00    +0.000 H 
ATOM    126  H35 UNL A   1      18.320  48.848   9.351  1.00  0.00    +0.000 H 
BRANCH   82   83
ATOM     83  C60 UNL A   1      16.182  48.794   7.789  1.00  0.00    +0.000 C 
ATOM     84  O3  UNL A   1      15.650  47.688   7.879  1.00  0.00    +0.000 O 
BRANCH   83   85
ATOM    129  H38 UNL A   1      17.596  50.659   3.027  1.00  0.00    +0.000 H 
ATOM    130  H39 UNL A   1      17.561  48.263   3.400  1.00  0.00    +0.000 H 
ATOM    131  H40 UNL A   1      16.887  47.376   5.560  1.00  0.00    +0.000 H 
ATOM     85  C61 UNL A   1      16.569  49.274   6.440  1.00  0.00    +0.000 C 
ATOM     86  C62 UNL A   1      16.555  50.655   6.208  1.00  0.00    +0.000 C 
ATOM     87  C63 UNL A   1      16.930  51.158   4.964  1.00  0.00    +0.000 C 
ATOM     88  C64 UNL A   1      17.306  50.285   3.944  1.00  0.00    +0.000 C 
ATOM     89  C65 UNL A   1      17.291  48.906   4.160  1.00  0.00    +0.000 C 
ATOM     90  C66 UNL A   1      16.913  48.396   5.405  1.00  0.00    +0.000 C 
ATOM    127  H36 UNL A   1      16.267  51.300   6.960  1.00  0.00    +0.000 H 
ATOM    128  H37 UNL A   1      16.931  52.177   4.798  1.00  0.00    +0.000 H 
ENDBRANCH   83   85
ENDBRANCH   82   83
ENDBRANCH    2   78
ENDBRANCH    3    2
ENDBRANCH    5    3
ENDBRANCH    6    5
ENDBRANCH    7    6
ENDBRANCH    8    7
ENDBRANCH    9    8
ENDBRANCH   10    9
ENDBRANCH   11   10
ENDBRANCH   12   11
ENDBRANCH   13   12
ENDBRANCH   15   13
ENDBRANCH   19   18
BRANCH   23   24
ATOM     33  C24 UNL A   1      18.121  47.797  -0.755  1.00  0.00    +0.000 C 
ATOM     34  F5  UNL A   1      18.805  48.150   0.343  1.00  0.00    +0.000 F 
ATOM     24  C19 UNL A   1      17.013  48.551  -1.172  1.00  0.00    +0.000 C 
ATOM     25  C20 UNL A   1      16.338  48.139  -2.332  1.00  0.00    +0.000 C 
ATOM     26  F1  UNL A   1      15.265  48.816  -2.764  1.00  0.00    +0.000 F 
ATOM     27  C21 UNL A   1      16.731  46.994  -3.021  1.00  0.00    +0.000 C 
ATOM     28  F2  UNL A   1      16.033  46.585  -4.089  1.00  0.00    +0.000 F 
ATOM     29  C22 UNL A   1      17.829  46.264  -2.588  1.00  0.00    +0.000 C 
ATOM     30  F3  UNL A   1      18.204  45.161  -3.251  1.00  0.00    +0.000 F 
ATOM     31  C23 UNL A   1      18.530  46.670  -1.464  1.00  0.00    +0.000 C 
ATOM     32  F4  UNL A   1      19.598  45.972  -1.053  1.00  0.00    +0.000 F 
ENDBRANCH   23   24
BRANCH   40   41
ATOM     41  C30 UNL A   1      18.399  55.616  -0.914  1.00  0.00    +0.000 C 
ATOM     42  C31 UNL A   1      19.687  55.985  -0.505  1.00  0.00    +0.000 C 
ATOM     43  F6  UNL A   1      20.189  55.516   0.647  1.00  0.00    +0.000 F 
ATOM     44  C32 UNL A   1      20.458  56.852  -1.274  1.00  0.00    +0.000 C 
ATOM     45  F7  UNL A   1      21.679  57.211  -0.855  1.00  0.00    +0.000 F 
ATOM     46  C33 UNL A   1      19.965  57.346  -2.473  1.00  0.00    +0.000 C 
ATOM     47  F8  UNL A   1      20.715  58.168  -3.220  1.00  0.00    +0.000 F 
ATOM     48  C34 UNL A   1      18.693  56.992  -2.897  1.00  0.00    +0.000 C 
ATOM     49  F9  UNL A   1      18.219  57.460  -4.060  1.00  0.00    +0.000 F 
ATOM     50  C35 UNL A   1      17.911  56.143  -2.120  1.00  0.00    +0.000 C 
ATOM     51  F10 UNL A   1      16.685  55.814  -2.555  1.00  0.00    +0.000 F 
ENDBRANCH   40   41
BRANCH   55   56
ATOM     65  C44 UNL A   1      13.038  56.897   4.478  1.00  0.00    +0.000 C 
ATOM     66  F15 UNL A   1      12.188  56.587   3.488  1.00  0.00    +0.000 F 
ATOM     56  C39 UNL A   1      14.216  56.157   4.650  1.00  0.00    +0.000 C 
ATOM     57  C40 UNL A   1      15.076  56.529   5.692  1.00  0.00    +0.000 C 
ATOM     58  F11 UNL A   1      16.206  55.837   5.904  1.00  0.00    +0.000 F 
ATOM     59  C41 UNL A   1      14.768  57.595   6.532  1.00  0.00    +0.000 C 
ATOM     60  F12 UNL A   1      15.596  57.915   7.536  1.00  0.00    +0.000 F 
ATOM     61  C42 UNL A   1      13.605  58.325   6.334  1.00  0.00    +0.000 C 
ATOM     62  F13 UNL A   1      13.318  59.362   7.133  1.00  0.00    +0.000 F 
ATOM     63  C43 UNL A   1      12.742  57.978   5.305  1.00  0.00    +0.000 C 
ATOM     64  F14 UNL A   1      11.626  58.691   5.100  1.00  0.00    +0.000 F 
ENDBRANCH   55   56
TORSDOF 19
ENDMDL
MODEL 3
REMARK VINA RESULT:      -9.4     53.903     59.124
ROOT
ATOM     19  C15 UNL A   1      46.484  50.632  18.283  1.00  0.00    +0.000 C 
ATOM     20  C16 UNL A   1      46.724  51.928  17.564  1.00  0.00    +0.000 C 
ATOM     21  N3  UNL A   1      47.741  52.746  17.644  1.00  0.00    +0.000 N 
ATOM     22  C17 UNL A   1      47.495  53.742  16.708  1.00  0.00    +0.000 C 
ATOM     23  C18 UNL A   1      48.234  54.842  16.434  1.00  0.00    +0.000 C 
ATOM     35  C25 UNL A   1      49.447  55.191  17.124  1.00  0.00    +0.000 C 
ATOM     36  C26 UNL A   1      50.232  56.321  16.972  1.00  0.00    +0.000 C 
ATOM     37  C27 UNL A   1      51.329  56.208  17.834  1.00  0.00    +0.000 C 
ATOM     38  C28 UNL A   1      51.204  55.028  18.552  1.00  0.00    +0.000 C 
ATOM     39  N4  UNL A   1      50.048  54.413  18.103  1.00  0.00    +0.000 N 
ATOM     40  C29 UNL A   1      52.075  54.503  19.572  1.00  0.00    +0.000 C 
ATOM     52  C36 UNL A   1      51.891  53.334  20.232  1.00  0.00    +0.000 C 
ATOM     53  N5  UNL A   1      50.857  52.416  20.103  1.00  0.00    +0.000 N 
ATOM     54  C37 UNL A   1      51.118  51.457  20.958  1.00  0.00    +0.000 C 
ATOM     55  C38 UNL A   1      50.322  50.217  21.257  1.00  0.00    +0.000 C 
ATOM     67  C45 UNL A   1      49.131  50.033  20.658  1.00  0.00    +0.000 C 
ATOM     68  C46 UNL A   1      48.262  48.873  20.836  1.00  0.00    +0.000 C 
ATOM     69  C47 UNL A   1      47.219  48.974  19.997  1.00  0.00    +0.000 C 
ATOM     70  C48 UNL A   1      47.326  50.228  19.252  1.00  0.00    +0.000 C 
ATOM     71  N6  UNL A   1      48.461  50.819  19.751  1.00  0.00    +0.000 N 
ATOM     72  C49 UNL A   1      52.369  51.643  21.706  1.00  0.00    +0.000 C 
ATOM     73  C50 UNL A   1      52.787  52.815  21.244  1.00  0.00    +0.000 C 
ATOM     74  C51 UNL A   1      46.250  53.406  16.049  1.00  0.00    +0.000 C 
ATOM     75  C52 UNL A   1      45.696  52.334  16.594  1.00  0.00    +0.000 C 
ATOM    112  H21 UNL A   1      50.042  57.109  16.335  1.00  0.00    +0.000 H 
ATOM    113  H22 UNL A   1      52.101  56.887  17.920  1.00  0.00    +0.000 H 
ATOM    114  H23 UNL A   1      49.703  53.550  18.429  1.00  0.00    +0.000 H 
ATOM    115  H24 UNL A   1      48.423  48.100  21.500  1.00  0.00    +0.000 H 
ATOM    116  H25 UNL A   1      46.463  48.279  19.894  1.00  0.00    +0.000 H 
ATOM    117  H26 UNL A   1      48.767  51.716  19.483  1.00  0.00    +0.000 H 
ATOM    118  H27 UNL A   1      52.807  51.025  22.406  1.00  0.00    +0.000 H 
ATOM    119  H28 UNL A   1      53.641  53.295  21.566  1.00  0.00    +0.000 H 
ATOM    120  H29 UNL A   1      45.848  53.933  15.258  1.00  0.00    +0.000 H 
ATOM    121  H30 UNL A   1      44.783  51.898  16.391  1.00  0.00    +0.000 H 
ENDROOT
BRANCH   19   18
ATOM     76  C53 UNL A   1      44.107  49.924  18.385  1.00  0.00    +0.000 C 
ATOM     77  C54 UNL A   1      43.054  49.098  18.007  1.00  0.00    +0.000 C 
ATOM    110  H19 UNL A   1      44.672  47.192  15.763  1.00  0.00    +0.000 H 
ATOM     15  C11 UNL A   1      43.250  48.145  17.005  1.00  0.00    +0.000 C 
ATOM     16  C12 UNL A   1      44.523  47.931  16.469  1.00  0.00    +0.000 C 
ATOM     17  C13 UNL A   1      45.594  48.721  16.895  1.00  0.00    +0.000 C 
ATOM    111  H20 UNL A   1      46.540  48.552  16.518  1.00  0.00    +0.000 H 
ATOM     18  C14 UNL A   1      45.385  49.743  17.832  1.00  0.00    +0.000 C 
ATOM    122  H31 UNL A   1      43.948  50.674  19.076  1.00  0.00    +0.000 H 
ATOM    123  H32 UNL A   1      42.133  49.189  18.464  1.00  0.00    +0.000 H 
BRANCH   15   13
ATOM     13  C10 UNL A   1      42.107  47.368  16.483  1.00  0.00    +0.000 C 
ATOM     14  O2  UNL A   1      41.310  47.893  15.713  1.00  0.00    +0.000 O 
BRANCH   13   12
ATOM     12  N2  UNL A   1      41.942  46.066  16.887  1.00  0.00    +0.000 N 
ATOM    109  H18 UNL A   1      42.265  45.378  16.260  1.00  0.00    +0.000 H 
BRANCH   12   11
ATOM     11  C9  UNL A   1      41.349  45.570  18.120  1.00  0.00    +0.000 C 
ATOM    108  H17 UNL A   1      40.404  46.056  18.245  1.00  0.00    +0.000 H 
ATOM    107  H16 UNL A   1      42.012  45.788  18.931  1.00  0.00    +0.000 H 
BRANCH   11   10
ATOM    105  H14 UNL A   1      40.079  43.891  18.357  1.00  0.00    +0.000 H 
ATOM     10  C8  UNL A   1      41.098  44.067  18.080  1.00  0.00    +0.000 C 
ATOM    106  H15 UNL A   1      41.324  43.749  17.084  1.00  0.00    +0.000 H 
BRANCH   10    9
ATOM      9  C7  UNL A   1      41.994  43.248  19.011  1.00  0.00    +0.000 C 
ATOM    103  H12 UNL A   1      41.637  42.239  19.010  1.00  0.00    +0.000 H 
ATOM    104  H13 UNL A   1      42.989  43.347  18.631  1.00  0.00    +0.000 H 
BRANCH    9    8
ATOM    101  H10 UNL A   1      42.575  44.662  20.481  1.00  0.00    +0.000 H 
ATOM    102  H11 UNL A   1      41.022  43.820  20.777  1.00  0.00    +0.000 H 
ATOM      8  C6  UNL A   1      42.040  43.735  20.462  1.00  0.00    +0.000 C 
BRANCH    8    7
ATOM     99  H8  UNL A   1      43.156  41.977  20.903  1.00  0.00    +0.000 H 
ATOM    100  H9  UNL A   1      43.432  43.358  21.999  1.00  0.00    +0.000 H 
ATOM      7  C5  UNL A   1      42.714  42.778  21.457  1.00  0.00    +0.000 C 
BRANCH    7    6
ATOM     97  H6  UNL A   1      40.785  42.586  22.360  1.00  0.00    +0.000 H 
ATOM     98  H7  UNL A   1      41.739  41.112  22.367  1.00  0.00    +0.000 H 
ATOM      6  C4  UNL A   1      41.763  42.174  22.497  1.00  0.00    +0.000 C 
BRANCH    6    5
ATOM      5  N1  UNL A   1      42.221  42.471  23.839  1.00  0.00    +0.000 N 
ATOM     96  H5  UNL A   1      42.401  43.419  24.029  1.00  0.00    +0.000 H 
BRANCH    5    3
ATOM      3  C3  UNL A   1      42.437  41.607  24.876  1.00  0.00    +0.000 C 
ATOM      4  O1  UNL A   1      41.447  41.025  25.327  1.00  0.00    +0.000 O 
BRANCH    3    2
ATOM      2  C2  UNL A   1      43.854  41.451  25.471  1.00  0.00    +0.000 C 
ATOM     95  H4  UNL A   1      44.362  40.650  24.977  1.00  0.00    +0.000 H 
BRANCH    2    1
ATOM      1  C1  UNL A   1      43.756  41.075  26.954  1.00  0.00    +0.000 C 
ATOM     92  H1  UNL A   1      44.361  41.742  27.531  1.00  0.00    +0.000 H 
ATOM     93  H2  UNL A   1      44.102  40.071  27.091  1.00  0.00    +0.000 H 
ATOM     94  H3  UNL A   1      42.738  41.149  27.274  1.00  0.00    +0.000 H 
ENDBRANCH    2    1
BRANCH    2   78
ATOM    132  H41 UNL A   1      45.515  41.946  23.396  1.00  0.00    +0.000 H 
ATOM     78  C55 UNL A   1      44.717  42.696  25.206  1.00  0.00    +0.000 C 
ATOM     79  C56 UNL A   1      44.789  43.782  26.093  1.00  0.00    +0.000 C 
ATOM     80  C57 UNL A   1      45.532  44.921  25.776  1.00  0.00    +0.000 C 
ATOM     81  C58 UNL A   1      46.203  45.004  24.559  1.00  0.00    +0.000 C 
ATOM     82  C59 UNL A   1      46.166  43.933  23.662  1.00  0.00    +0.000 C 
ATOM     91  C67 UNL A   1      45.472  42.768  24.017  1.00  0.00    +0.000 C 
ATOM    124  H33 UNL A   1      44.284  43.737  26.992  1.00  0.00    +0.000 H 
ATOM    125  H34 UNL A   1      45.582  45.704  26.446  1.00  0.00    +0.000 H 
ATOM    126  H35 UNL A   1      46.728  45.859  24.318  1.00  0.00    +0.000 H 
BRANCH   82   83
ATOM     83  C60 UNL A   1      46.893  44.072  22.368  1.00  0.00    +0.000 C 
ATOM     84  O3  UNL A   1      48.085  43.773  22.307  1.00  0.00    +0.000 O 
BRANCH   83   85
ATOM    129  H38 UNL A   1      44.487  45.555  17.878  1.00  0.00    +0.000 H 
ATOM    130  H39 UNL A   1      44.532  47.083  19.760  1.00  0.00    +0.000 H 
ATOM    131  H40 UNL A   1      45.653  46.446  21.820  1.00  0.00    +0.000 H 
ATOM     85  C61 UNL A   1      46.223  44.530  21.127  1.00  0.00    +0.000 C 
ATOM     86  C62 UNL A   1      46.227  43.666  20.025  1.00  0.00    +0.000 C 
ATOM     87  C63 UNL A   1      45.593  44.041  18.841  1.00  0.00    +0.000 C 
ATOM     88  C64 UNL A   1      44.967  45.283  18.750  1.00  0.00    +0.000 C 
ATOM     89  C65 UNL A   1      44.988  46.161  19.835  1.00  0.00    +0.000 C 
ATOM     90  C66 UNL A   1      45.624  45.791  21.023  1.00  0.00    +0.000 C 
ATOM    127  H36 UNL A   1      46.700  42.751  20.090  1.00  0.00    +0.000 H 
ATOM    128  H37 UNL A   1      45.586  43.399  18.034  1.00  0.00    +0.000 H 
ENDBRANCH   83   85
ENDBRANCH   82   83
ENDBRANCH    2   78
ENDBRANCH    3    2
ENDBRANCH    5    3
ENDBRANCH    6    5
ENDBRANCH    7    6
ENDBRANCH    8    7
ENDBRANCH    9    8
ENDBRANCH   10    9
ENDBRANCH   11   10
ENDBRANCH   12   11
ENDBRANCH   13   12
ENDBRANCH   15   13
ENDBRANCH   19   18
BRANCH   23   24
ATOM     33  C24 UNL A   1      47.038  56.907  15.627  1.00  0.00    +0.000 C 
ATOM     34  F5  UNL A   1      46.773  57.233  16.901  1.00  0.00    +0.000 F 
ATOM     24  C19 UNL A   1      47.754  55.736  15.330  1.00  0.00    +0.000 C 
ATOM     25  C20 UNL A   1      47.996  55.441  13.979  1.00  0.00    +0.000 C 
ATOM     26  F1  UNL A   1      48.688  54.343  13.643  1.00  0.00    +0.000 F 
ATOM     27  C21 UNL A   1      47.576  56.305  12.971  1.00  0.00    +0.000 C 
ATOM     28  F2  UNL A   1      47.875  56.034  11.693  1.00  0.00    +0.000 F 
ATOM     29  C22 UNL A   1      46.872  57.456  13.289  1.00  0.00    +0.000 C 
ATOM     30  F3  UNL A   1      46.472  58.288  12.317  1.00  0.00    +0.000 F 
ATOM     31  C23 UNL A   1      46.592  57.752  14.614  1.00  0.00    +0.000 C 
ATOM     32  F4  UNL A   1      45.902  58.858  14.922  1.00  0.00    +0.000 F 
ENDBRANCH   23   24
BRANCH   40   41
ATOM     41  C30 UNL A   1      53.267  55.331  19.949  1.00  0.00    +0.000 C 
ATOM     42  C31 UNL A   1      54.496  55.191  19.291  1.00  0.00    +0.000 C 
ATOM     43  F6  UNL A   1      54.658  54.239  18.360  1.00  0.00    +0.000 F 
ATOM     44  C32 UNL A   1      55.569  56.023  19.600  1.00  0.00    +0.000 C 
ATOM     45  F7  UNL A   1      56.743  55.859  18.976  1.00  0.00    +0.000 F 
ATOM     46  C33 UNL A   1      55.426  57.020  20.554  1.00  0.00    +0.000 C 
ATOM     47  F8  UNL A   1      56.455  57.830  20.839  1.00  0.00    +0.000 F 
ATOM     48  C34 UNL A   1      54.217  57.176  21.215  1.00  0.00    +0.000 C 
ATOM     49  F9  UNL A   1      54.073  58.146  22.130  1.00  0.00    +0.000 F 
ATOM     50  C35 UNL A   1      53.149  56.333  20.925  1.00  0.00    +0.000 C 
ATOM     51  F10 UNL A   1      51.991  56.507  21.578  1.00  0.00    +0.000 F 
ENDBRANCH   40   41
BRANCH   55   56
ATOM     65  C44 UNL A   1      51.676  48.171  21.822  1.00  0.00    +0.000 C 
ATOM     66  F15 UNL A   1      52.102  48.106  20.552  1.00  0.00    +0.000 F 
ATOM     56  C39 UNL A   1      50.814  49.202  22.223  1.00  0.00    +0.000 C 
ATOM     57  C40 UNL A   1      50.391  49.220  23.558  1.00  0.00    +0.000 C 
ATOM     58  F11 UNL A   1      49.580  50.197  23.989  1.00  0.00    +0.000 F 
ATOM     59  C41 UNL A   1      50.816  48.247  24.460  1.00  0.00    +0.000 C 
ATOM     60  F12 UNL A   1      50.414  48.300  25.738  1.00  0.00    +0.000 F 
ATOM     61  C42 UNL A   1      51.655  47.226  24.039  1.00  0.00    +0.000 C 
ATOM     62  F13 UNL A   1      52.050  46.281  24.903  1.00  0.00    +0.000 F 
ATOM     63  C43 UNL A   1      52.083  47.186  22.720  1.00  0.00    +0.000 C 
ATOM     64  F14 UNL A   1      52.881  46.193  22.305  1.00  0.00    +0.000 F 
ENDBRANCH   55   56
TORSDOF 19
ENDMDL
MODEL 4
REMARK VINA RESULT:      -9.4     14.378     22.310
ROOT
ATOM     19  C15 UNL A   1      22.183   8.695   7.680  1.00  0.00    +0.000 C 
ATOM     20  C16 UNL A   1      23.306   8.167   6.834  1.00  0.00    +0.000 C 
ATOM     21  N3  UNL A   1      23.726   6.937   6.685  1.00  0.00    +0.000 N 
ATOM     22  C17 UNL A   1      24.730   6.999   5.728  1.00  0.00    +0.000 C 
ATOM     23  C18 UNL A   1      25.504   5.995   5.253  1.00  0.00    +0.000 C 
ATOM     35  C25 UNL A   1      25.427   4.632   5.708  1.00  0.00    +0.000 C 
ATOM     36  C26 UNL A   1      26.215   3.554   5.344  1.00  0.00    +0.000 C 
ATOM     37  C27 UNL A   1      25.746   2.424   6.023  1.00  0.00    +0.000 C 
ATOM     38  C28 UNL A   1      24.694   2.806   6.840  1.00  0.00    +0.000 C 
ATOM     39  N4  UNL A   1      24.506   4.163   6.633  1.00  0.00    +0.000 N 
ATOM     40  C29 UNL A   1      23.918   1.994   7.743  1.00  0.00    +0.000 C 
ATOM     52  C36 UNL A   1      22.895   2.439   8.511  1.00  0.00    +0.000 C 
ATOM     53  N5  UNL A   1      22.385   3.726   8.623  1.00  0.00    +0.000 N 
ATOM     54  C37 UNL A   1      21.410   3.653   9.496  1.00  0.00    +0.000 C 
ATOM     55  C38 UNL A   1      20.524   4.752  10.015  1.00  0.00    +0.000 C 
ATOM     67  C45 UNL A   1      20.751   6.023   9.632  1.00  0.00    +0.000 C 
ATOM     68  C46 UNL A   1      19.963   7.183  10.038  1.00  0.00    +0.000 C 
ATOM     69  C47 UNL A   1      20.403   8.265   9.374  1.00  0.00    +0.000 C 
ATOM     70  C48 UNL A   1      21.531   7.878   8.528  1.00  0.00    +0.000 C 
ATOM     71  N6  UNL A   1      21.704   6.540   8.788  1.00  0.00    +0.000 N 
ATOM     72  C49 UNL A   1      21.167   2.300  10.014  1.00  0.00    +0.000 C 
ATOM     73  C50 UNL A   1      22.116   1.603   9.402  1.00  0.00    +0.000 C 
ATOM     74  C51 UNL A   1      24.831   8.380   5.307  1.00  0.00    +0.000 C 
ATOM     75  C52 UNL A   1      24.024   9.155   6.016  1.00  0.00    +0.000 C 
ATOM    112  H21 UNL A   1      27.010   3.580   4.688  1.00  0.00    +0.000 H 
ATOM    113  H22 UNL A   1      26.120   1.467   5.930  1.00  0.00    +0.000 H 
ATOM    114  H23 UNL A   1      23.819   4.713   7.077  1.00  0.00    +0.000 H 
ATOM    115  H24 UNL A   1      19.193   7.175  10.724  1.00  0.00    +0.000 H 
ATOM    116  H25 UNL A   1      20.008   9.215   9.449  1.00  0.00    +0.000 H 
ATOM    117  H26 UNL A   1      22.437   6.005   8.407  1.00  0.00    +0.000 H 
ATOM    118  H27 UNL A   1      20.448   1.976  10.679  1.00  0.00    +0.000 H 
ATOM    119  H28 UNL A   1      22.279   0.594   9.543  1.00  0.00    +0.000 H 
ATOM    120  H29 UNL A   1      25.451   8.717   4.553  1.00  0.00    +0.000 H 
ATOM    121  H30 UNL A   1      23.925  10.182   5.998  1.00  0.00    +0.000 H 
ENDROOT
BRANCH   19   18
ATOM     76  C53 UNL A   1      22.265  11.099   8.293  1.00  0.00    +0.000 C 
ATOM     77  C54 UNL A   1      21.841  12.416   8.157  1.00  0.00    +0.000 C 
ATOM    110  H19 UNL A   1      19.653  11.998   5.642  1.00  0.00    +0.000 H 
ATOM     15  C11 UNL A   1      20.935  12.749   7.147  1.00  0.00    +0.000 C 
ATOM     16  C12 UNL A   1      20.358  11.752   6.355  1.00  0.00    +0.000 C 
ATOM     17  C13 UNL A   1      20.740  10.420   6.534  1.00  0.00    +0.000 C 
ATOM    111  H20 UNL A   1      20.300   9.678   5.967  1.00  0.00    +0.000 H 
ATOM     18  C14 UNL A   1      21.719  10.090   7.483  1.00  0.00    +0.000 C 
ATOM    122  H31 UNL A   1      22.986  10.861   8.993  1.00  0.00    +0.000 H 
ATOM    123  H32 UNL A   1      22.195  13.144   8.798  1.00  0.00    +0.000 H 
BRANCH   15   13
ATOM     13  C10 UNL A   1      20.595  14.163   6.889  1.00  0.00    +0.000 C 
ATOM     14  O2  UNL A   1      20.022  14.476   5.850  1.00  0.00    +0.000 O 
BRANCH   13   12
ATOM     12  N2  UNL A   1      20.945  15.116   7.813  1.00  0.00    +0.000 N 
ATOM    109  H18 UNL A   1      20.845  14.855   8.758  1.00  0.00    +0.000 H 
BRANCH   12   11
ATOM     11  C9  UNL A   1      21.445  16.462   7.578  1.00  0.00    +0.000 C 
ATOM    108  H17 UNL A   1      20.732  17.150   7.984  1.00  0.00    +0.000 H 
ATOM    107  H16 UNL A   1      21.569  16.604   6.525  1.00  0.00    +0.000 H 
BRANCH   11   10
ATOM    105  H14 UNL A   1      23.529  16.832   7.513  1.00  0.00    +0.000 H 
ATOM     10  C8  UNL A   1      22.780  16.715   8.268  1.00  0.00    +0.000 C 
ATOM    106  H15 UNL A   1      22.649  17.591   8.869  1.00  0.00    +0.000 H 
BRANCH   10    9
ATOM      9  C7  UNL A   1      23.228  15.602   9.216  1.00  0.00    +0.000 C 
ATOM    103  H12 UNL A   1      23.509  16.050  10.146  1.00  0.00    +0.000 H 
ATOM    104  H13 UNL A   1      22.399  14.930   9.300  1.00  0.00    +0.000 H 
BRANCH    9    8
ATOM    101  H10 UNL A   1      25.286  15.087   9.235  1.00  0.00    +0.000 H 
ATOM    102  H11 UNL A   1      24.147  13.743   8.911  1.00  0.00    +0.000 H 
ATOM      8  C6  UNL A   1      24.408  14.762   8.718  1.00  0.00    +0.000 C 
BRANCH    8    7
ATOM     99  H8  UNL A   1      24.566  13.870   6.791  1.00  0.00    +0.000 H 
ATOM    100  H9  UNL A   1      23.997  15.563   6.812  1.00  0.00    +0.000 H 
ATOM      7  C5  UNL A   1      24.688  14.848   7.210  1.00  0.00    +0.000 C 
BRANCH    7    6
ATOM     97  H6  UNL A   1      26.722  14.510   6.644  1.00  0.00    +0.000 H 
ATOM     98  H7  UNL A   1      26.024  15.984   5.994  1.00  0.00    +0.000 H 
ATOM      6  C4  UNL A   1      26.092  15.350   6.853  1.00  0.00    +0.000 C 
BRANCH    6    5
ATOM      5  N1  UNL A   1      26.656  16.108   7.951  1.00  0.00    +0.000 N 
ATOM     96  H5  UNL A   1      26.391  15.817   8.852  1.00  0.00    +0.000 H 
BRANCH    5    3
ATOM      3  C3  UNL A   1      27.508  17.176   7.899  1.00  0.00    +0.000 C 
ATOM      4  O1  UNL A   1      28.701  16.923   7.716  1.00  0.00    +0.000 O 
BRANCH    3    2
ATOM      2  C2  UNL A   1      26.971  18.605   8.137  1.00  0.00    +0.000 C 
ATOM     95  H4  UNL A   1      26.053  18.735   7.602  1.00  0.00    +0.000 H 
BRANCH    2    1
ATOM      1  C1  UNL A   1      27.965  19.631   7.581  1.00  0.00    +0.000 C 
ATOM     92  H1  UNL A   1      27.442  20.527   7.318  1.00  0.00    +0.000 H 
ATOM     93  H2  UNL A   1      28.443  19.230   6.711  1.00  0.00    +0.000 H 
ATOM     94  H3  UNL A   1      28.702  19.853   8.323  1.00  0.00    +0.000 H 
ENDBRANCH    2    1
BRANCH    2   78
ATOM    132  H41 UNL A   1      24.538  18.522   9.313  1.00  0.00    +0.000 H 
ATOM     78  C55 UNL A   1      26.609  18.834   9.613  1.00  0.00    +0.000 C 
ATOM     79  C56 UNL A   1      27.556  19.183  10.589  1.00  0.00    +0.000 C 
ATOM     80  C57 UNL A   1      27.191  19.311  11.932  1.00  0.00    +0.000 C 
ATOM     81  C58 UNL A   1      25.877  19.075  12.326  1.00  0.00    +0.000 C 
ATOM     82  C59 UNL A   1      24.907  18.744  11.377  1.00  0.00    +0.000 C 
ATOM     91  C67 UNL A   1      25.269  18.682  10.023  1.00  0.00    +0.000 C 
ATOM    124  H33 UNL A   1      28.536  19.346  10.311  1.00  0.00    +0.000 H 
ATOM    125  H34 UNL A   1      27.899  19.580  12.633  1.00  0.00    +0.000 H 
ATOM    126  H35 UNL A   1      25.618  19.146  13.323  1.00  0.00    +0.000 H 
BRANCH   82   83
ATOM     83  C60 UNL A   1      23.515  18.493  11.849  1.00  0.00    +0.000 C 
ATOM     84  O3  UNL A   1      22.579  19.094  11.325  1.00  0.00    +0.000 O 
BRANCH   83   85
ATOM    129  H38 UNL A   1      22.292  15.077  15.720  1.00  0.00    +0.000 H 
ATOM    130  H39 UNL A   1      23.461  14.273  13.754  1.00  0.00    +0.000 H 
ATOM    131  H40 UNL A   1      24.064  15.818  11.977  1.00  0.00    +0.000 H 
ATOM     85  C61 UNL A   1      23.205  17.509  12.914  1.00  0.00    +0.000 C 
ATOM     86  C62 UNL A   1      22.563  17.976  14.068  1.00  0.00    +0.000 C 
ATOM     87  C63 UNL A   1      22.230  17.088  15.090  1.00  0.00    +0.000 C 
ATOM     88  C64 UNL A   1      22.550  15.736  14.970  1.00  0.00    +0.000 C 
ATOM     89  C65 UNL A   1      23.218  15.272  13.835  1.00  0.00    +0.000 C 
ATOM     90  C66 UNL A   1      23.556  16.158  12.809  1.00  0.00    +0.000 C 
ATOM    127  H36 UNL A   1      22.336  18.978  14.161  1.00  0.00    +0.000 H 
ATOM    128  H37 UNL A   1      21.747  17.431  15.935  1.00  0.00    +0.000 H 
ENDBRANCH   83   85
ENDBRANCH   82   83
ENDBRANCH    2   78
ENDBRANCH    3    2
ENDBRANCH    5    3
ENDBRANCH    6    5
ENDBRANCH    7    6
ENDBRANCH    8    7
ENDBRANCH    9    8
ENDBRANCH   10    9
ENDBRANCH   11   10
ENDBRANCH   12   11
ENDBRANCH   13   12
ENDBRANCH   15   13
ENDBRANCH   19   18
BRANCH   23   24
ATOM     33  C24 UNL A   1      26.096   6.339   2.829  1.00  0.00    +0.000 C 
ATOM     34  F5  UNL A   1      24.835   6.032   2.492  1.00  0.00    +0.000 F 
ATOM     24  C19 UNL A   1      26.490   6.337   4.176  1.00  0.00    +0.000 C 
ATOM     25  C20 UNL A   1      27.824   6.661   4.470  1.00  0.00    +0.000 C 
ATOM     26  F1  UNL A   1      28.247   6.687   5.742  1.00  0.00    +0.000 F 
ATOM     27  C21 UNL A   1      28.714   7.015   3.459  1.00  0.00    +0.000 C 
ATOM     28  F2  UNL A   1      29.965   7.383   3.770  1.00  0.00    +0.000 F 
ATOM     29  C22 UNL A   1      28.301   7.012   2.135  1.00  0.00    +0.000 C 
ATOM     30  F3  UNL A   1      29.158   7.357   1.164  1.00  0.00    +0.000 F 
ATOM     31  C23 UNL A   1      26.998   6.664   1.818  1.00  0.00    +0.000 C 
ATOM     32  F4  UNL A   1      26.600   6.650   0.538  1.00  0.00    +0.000 F 
ENDBRANCH   23   24
BRANCH   40   41
ATOM     41  C30 UNL A   1      24.292   0.547   7.856  1.00  0.00    +0.000 C 
ATOM     42  C31 UNL A   1      25.211   0.099   8.815  1.00  0.00    +0.000 C 
ATOM     43  F6  UNL A   1      25.851   0.979   9.599  1.00  0.00    +0.000 F 
ATOM     44  C32 UNL A   1      25.487  -1.259   8.958  1.00  0.00    +0.000 C 
ATOM     45  F7  UNL A   1      26.385  -1.666   9.865  1.00  0.00    +0.000 F 
ATOM     46  C33 UNL A   1      24.834  -2.190   8.164  1.00  0.00    +0.000 C 
ATOM     47  F8  UNL A   1      25.088  -3.497   8.315  1.00  0.00    +0.000 F 
ATOM     48  C34 UNL A   1      23.919  -1.767   7.211  1.00  0.00    +0.000 C 
ATOM     49  F9  UNL A   1      23.280  -2.666   6.450  1.00  0.00    +0.000 F 
ATOM     50  C35 UNL A   1      23.658  -0.411   7.049  1.00  0.00    +0.000 C 
ATOM     51  F10 UNL A   1      22.768  -0.029   6.121  1.00  0.00    +0.000 F 
ENDBRANCH   40   41
BRANCH   55   56
ATOM     65  C44 UNL A   1      18.133   4.137  10.507  1.00  0.00    +0.000 C 
ATOM     66  F15 UNL A   1      17.889   4.044   9.192  1.00  0.00    +0.000 F 
ATOM     56  C39 UNL A   1      19.418   4.464  10.963  1.00  0.00    +0.000 C 
ATOM     57  C40 UNL A   1      19.618   4.558  12.346  1.00  0.00    +0.000 C 
ATOM     58  F11 UNL A   1      20.836   4.852  12.826  1.00  0.00    +0.000 F 
ATOM     59  C41 UNL A   1      18.576   4.331  13.240  1.00  0.00    +0.000 C 
ATOM     60  F12 UNL A   1      18.799   4.404  14.560  1.00  0.00    +0.000 F 
ATOM     61  C42 UNL A   1      17.307   4.025  12.768  1.00  0.00    +0.000 C 
ATOM     62  F13 UNL A   1      16.301   3.822  13.629  1.00  0.00    +0.000 F 
ATOM     63  C43 UNL A   1      17.085   3.931  11.402  1.00  0.00    +0.000 C 
ATOM     64  F14 UNL A   1      15.858   3.652  10.942  1.00  0.00    +0.000 F 
ENDBRANCH   55   56
TORSDOF 19
ENDMDL
MODEL 5
REMARK VINA RESULT:      -9.2     37.596     42.403
ROOT
ATOM     19  C15 UNL A   1      25.859  36.403  45.796  1.00  0.00    +0.000 C 
ATOM     20  C16 UNL A   1      25.775  37.573  46.732  1.00  0.00    +0.000 C 
ATOM     21  N3  UNL A   1      26.669  38.492  46.997  1.00  0.00    +0.000 N 
ATOM     22  C17 UNL A   1      26.047  39.380  47.864  1.00  0.00    +0.000 C 
ATOM     23  C18 UNL A   1      26.566  40.481  48.456  1.00  0.00    +0.000 C 
ATOM     35  C25 UNL A   1      27.928  40.916  48.299  1.00  0.00    +0.000 C 
ATOM     36  C26 UNL A   1      28.573  41.975  48.913  1.00  0.00    +0.000 C 
ATOM     37  C27 UNL A   1      29.883  42.030  48.425  1.00  0.00    +0.000 C 
ATOM     38  C28 UNL A   1      30.066  40.980  47.538  1.00  0.00    +0.000 C 
ATOM     39  N4  UNL A   1      28.857  40.308  47.468  1.00  0.00    +0.000 N 
ATOM     40  C29 UNL A   1      31.255  40.618  46.811  1.00  0.00    +0.000 C 
ATOM     52  C36 UNL A   1      31.359  39.574  45.953  1.00  0.00    +0.000 C 
ATOM     53  N5  UNL A   1      30.397  38.637  45.602  1.00  0.00    +0.000 N 
ATOM     54  C37 UNL A   1      30.977  37.826  44.751  1.00  0.00    +0.000 C 
ATOM     55  C38 UNL A   1      30.409  36.615  44.063  1.00  0.00    +0.000 C 
ATOM     67  C45 UNL A   1      29.164  36.203  44.369  1.00  0.00    +0.000 C 
ATOM     68  C46 UNL A   1      28.479  35.062  43.769  1.00  0.00    +0.000 C 
ATOM     69  C47 UNL A   1      27.216  35.019  44.225  1.00  0.00    +0.000 C 
ATOM     70  C48 UNL A   1      27.019  36.107  45.182  1.00  0.00    +0.000 C 
ATOM     71  N6  UNL A   1      28.246  36.724  45.248  1.00  0.00    +0.000 N 
ATOM     72  C49 UNL A   1      32.369  38.178  44.440  1.00  0.00    +0.000 C 
ATOM     73  C50 UNL A   1      32.561  39.234  45.219  1.00  0.00    +0.000 C 
ATOM     74  C51 UNL A   1      24.690  38.911  48.051  1.00  0.00    +0.000 C 
ATOM     75  C52 UNL A   1      24.496  37.756  47.433  1.00  0.00    +0.000 C 
ATOM    112  H21 UNL A   1      28.160  42.613  49.611  1.00  0.00    +0.000 H 
ATOM    113  H22 UNL A   1      30.593  42.734  48.680  1.00  0.00    +0.000 H 
ATOM    114  H23 UNL A   1      28.682  39.516  46.909  1.00  0.00    +0.000 H 
ATOM    115  H24 UNL A   1      28.896  34.394  43.102  1.00  0.00    +0.000 H 
ATOM    116  H25 UNL A   1      26.501  34.330  43.947  1.00  0.00    +0.000 H 
ATOM    117  H26 UNL A   1      28.446  37.467  45.862  1.00  0.00    +0.000 H 
ATOM    118  H27 UNL A   1      33.026  37.722  43.787  1.00  0.00    +0.000 H 
ATOM    119  H28 UNL A   1      33.452  39.748  45.293  1.00  0.00    +0.000 H 
ATOM    120  H29 UNL A   1      23.970  39.411  48.596  1.00  0.00    +0.000 H 
ATOM    121  H30 UNL A   1      23.663  37.145  47.441  1.00  0.00    +0.000 H 
ENDROOT
BRANCH   19   18
ATOM     76  C53 UNL A   1      23.801  36.144  44.432  1.00  0.00    +0.000 C 
ATOM     77  C54 UNL A   1      22.624  35.484  44.099  1.00  0.00    +0.000 C 
ATOM    110  H19 UNL A   1      22.835  32.924  46.264  1.00  0.00    +0.000 H 
ATOM     15  C11 UNL A   1      22.308  34.277  44.727  1.00  0.00    +0.000 C 
ATOM     16  C12 UNL A   1      23.099  33.792  45.772  1.00  0.00    +0.000 C 
ATOM     17  C13 UNL A   1      24.250  34.490  46.147  1.00  0.00    +0.000 C 
ATOM    111  H20 UNL A   1      24.826  34.147  46.932  1.00  0.00    +0.000 H 
ATOM     18  C14 UNL A   1      24.625  35.653  45.458  1.00  0.00    +0.000 C 
ATOM    122  H31 UNL A   1      24.072  37.000  43.922  1.00  0.00    +0.000 H 
ATOM    123  H32 UNL A   1      21.987  35.884  43.391  1.00  0.00    +0.000 H 
BRANCH   15   13
ATOM     13  C10 UNL A   1      21.144  33.486  44.276  1.00  0.00    +0.000 C 
ATOM     14  O2  UNL A   1      21.306  32.346  43.851  1.00  0.00    +0.000 O 
BRANCH   13   12
ATOM     12  N2  UNL A   1      19.893  34.049  44.320  1.00  0.00    +0.000 N 
ATOM    109  H18 UNL A   1      19.768  34.861  43.776  1.00  0.00    +0.000 H 
BRANCH   12   11
ATOM     11  C9  UNL A   1      18.727  33.603  45.068  1.00  0.00    +0.000 C 
ATOM    108  H17 UNL A   1      18.908  33.801  46.103  1.00  0.00    +0.000 H 
ATOM    107  H16 UNL A   1      18.583  32.558  44.888  1.00  0.00    +0.000 H 
BRANCH   11   10
ATOM    105  H14 UNL A   1      16.951  34.647  45.559  1.00  0.00    +0.000 H 
ATOM     10  C8  UNL A   1      17.460  34.349  44.666  1.00  0.00    +0.000 C 
ATOM    106  H15 UNL A   1      17.774  35.177  44.065  1.00  0.00    +0.000 H 
BRANCH   10    9
ATOM      9  C7  UNL A   1      16.486  33.536  43.811  1.00  0.00    +0.000 C 
ATOM    103  H12 UNL A   1      15.502  33.924  43.971  1.00  0.00    +0.000 H 
ATOM    104  H13 UNL A   1      16.823  33.635  42.800  1.00  0.00    +0.000 H 
BRANCH    9    8
ATOM    101  H10 UNL A   1      16.782  31.892  45.118  1.00  0.00    +0.000 H 
ATOM    102  H11 UNL A   1      15.456  31.715  43.927  1.00  0.00    +0.000 H 
ATOM      8  C6  UNL A   1      16.461  32.034  44.108  1.00  0.00    +0.000 C 
BRANCH    8    7
ATOM     99  H8  UNL A   1      16.829  31.006  42.280  1.00  0.00    +0.000 H 
ATOM    100  H9  UNL A   1      18.268  31.703  43.074  1.00  0.00    +0.000 H 
ATOM      7  C5  UNL A   1      17.349  31.169  43.201  1.00  0.00    +0.000 C 
BRANCH    7    6
ATOM     97  H6  UNL A   1      18.247  29.233  43.057  1.00  0.00    +0.000 H 
ATOM     98  H7  UNL A   1      18.329  29.952  44.656  1.00  0.00    +0.000 H 
ATOM      6  C4  UNL A   1      17.716  29.802  43.792  1.00  0.00    +0.000 C 
BRANCH    6    5
ATOM      5  N1  UNL A   1      16.524  29.079  44.184  1.00  0.00    +0.000 N 
ATOM     96  H5  UNL A   1      16.130  29.341  45.047  1.00  0.00    +0.000 H 
BRANCH    5    3
ATOM      3  C3  UNL A   1      15.874  28.080  43.514  1.00  0.00    +0.000 C 
ATOM      4  O1  UNL A   1      15.544  28.319  42.349  1.00  0.00    +0.000 O 
BRANCH    3    2
ATOM      2  C2  UNL A   1      15.525  26.762  44.240  1.00  0.00    +0.000 C 
ATOM     95  H4  UNL A   1      15.093  26.983  45.193  1.00  0.00    +0.000 H 
BRANCH    2    1
ATOM      1  C1  UNL A   1      16.804  25.959  44.501  1.00  0.00    +0.000 C 
ATOM     92  H1  UNL A   1      17.150  26.154  45.495  1.00  0.00    +0.000 H 
ATOM     93  H2  UNL A   1      17.558  26.250  43.799  1.00  0.00    +0.000 H 
ATOM     94  H3  UNL A   1      16.599  24.915  44.393  1.00  0.00    +0.000 H 
ENDBRANCH    2    1
BRANCH    2   78
ATOM    132  H41 UNL A   1      15.831  24.952  42.254  1.00  0.00    +0.000 H 
ATOM     78  C55 UNL A   1      14.444  25.971  43.485  1.00  0.00    +0.000 C 
ATOM     79  C56 UNL A   1      13.070  26.137  43.719  1.00  0.00    +0.000 C 
ATOM     80  C57 UNL A   1      12.127  25.345  43.059  1.00  0.00    +0.000 C 
ATOM     81  C58 UNL A   1      12.541  24.360  42.166  1.00  0.00    +0.000 C 
ATOM     82  C59 UNL A   1      13.901  24.182  41.897  1.00  0.00    +0.000 C 
ATOM     91  C67 UNL A   1      14.836  25.025  42.515  1.00  0.00    +0.000 C 
ATOM    124  H33 UNL A   1      12.752  26.854  44.389  1.00  0.00    +0.000 H 
ATOM    125  H34 UNL A   1      11.121  25.490  43.235  1.00  0.00    +0.000 H 
ATOM    126  H35 UNL A   1      11.842  23.760  41.701  1.00  0.00    +0.000 H 
BRANCH   82   83
ATOM     83  C60 UNL A   1      14.295  23.109  40.941  1.00  0.00    +0.000 C 
ATOM     84  O3  UNL A   1      14.478  21.965  41.354  1.00  0.00    +0.000 O 
BRANCH   83   85
ATOM    129  H38 UNL A   1      14.893  24.147  35.772  1.00  0.00    +0.000 H 
ATOM    130  H39 UNL A   1      14.610  21.850  36.496  1.00  0.00    +0.000 H 
ATOM    131  H40 UNL A   1      14.303  21.344  38.854  1.00  0.00    +0.000 H 
ATOM     85  C61 UNL A   1      14.445  23.358  39.487  1.00  0.00    +0.000 C 
ATOM     86  C62 UNL A   1      14.571  24.685  39.060  1.00  0.00    +0.000 C 
ATOM     87  C63 UNL A   1      14.735  24.972  37.706  1.00  0.00    +0.000 C 
ATOM     88  C64 UNL A   1      14.758  23.935  36.773  1.00  0.00    +0.000 C 
ATOM     89  C65 UNL A   1      14.601  22.613  37.190  1.00  0.00    +0.000 C 
ATOM     90  C66 UNL A   1      14.434  22.321  38.546  1.00  0.00    +0.000 C 
ATOM    127  H36 UNL A   1      14.543  25.453  39.750  1.00  0.00    +0.000 H 
ATOM    128  H37 UNL A   1      14.839  25.950  37.393  1.00  0.00    +0.000 H 
ENDBRANCH   83   85
ENDBRANCH   82   83
ENDBRANCH    2   78
ENDBRANCH    3    2
ENDBRANCH    5    3
ENDBRANCH    6    5
ENDBRANCH    7    6
ENDBRANCH    8    7
ENDBRANCH    9    8
ENDBRANCH   10    9
ENDBRANCH   11   10
ENDBRANCH   12   11
ENDBRANCH   13   12
ENDBRANCH   15   13
ENDBRANCH   19   18
BRANCH   23   24
ATOM     33  C24 UNL A   1      24.907  42.352  48.765  1.00  0.00    +0.000 C 
ATOM     34  F5  UNL A   1      25.018  42.645  47.462  1.00  0.00    +0.000 F 
ATOM     24  C19 UNL A   1      25.647  41.295  49.319  1.00  0.00    +0.000 C 
ATOM     25  C20 UNL A   1      25.497  41.037  50.690  1.00  0.00    +0.000 C 
ATOM     26  F1  UNL A   1      26.171  40.030  51.264  1.00  0.00    +0.000 F 
ATOM     27  C21 UNL A   1      24.609  41.778  51.466  1.00  0.00    +0.000 C 
ATOM     28  F2  UNL A   1      24.435  41.471  52.759  1.00  0.00    +0.000 F 
ATOM     29  C22 UNL A   1      23.887  42.816  50.896  1.00  0.00    +0.000 C 
ATOM     30  F3  UNL A   1      23.030  43.526  51.643  1.00  0.00    +0.000 F 
ATOM     31  C23 UNL A   1      24.043  43.111  49.551  1.00  0.00    +0.000 C 
ATOM     32  F4  UNL A   1      23.354  44.121  49.002  1.00  0.00    +0.000 F 
ENDBRANCH   23   24
BRANCH   40   41
ATOM     41  C30 UNL A   1      32.481  41.449  47.043  1.00  0.00    +0.000 C 
ATOM     42  C31 UNL A   1      32.601  42.743  46.519  1.00  0.00    +0.000 C 
ATOM     43  F6  UNL A   1      31.648  43.235  45.713  1.00  0.00    +0.000 F 
ATOM     44  C32 UNL A   1      33.712  43.530  46.810  1.00  0.00    +0.000 C 
ATOM     45  F7  UNL A   1      33.819  44.756  46.281  1.00  0.00    +0.000 F 
ATOM     46  C33 UNL A   1      34.708  43.047  47.646  1.00  0.00    +0.000 C 
ATOM     47  F8  UNL A   1      35.769  43.813  47.939  1.00  0.00    +0.000 F 
ATOM     48  C34 UNL A   1      34.608  41.770  48.177  1.00  0.00    +0.000 C 
ATOM     49  F9  UNL A   1      35.564  41.306  48.993  1.00  0.00    +0.000 F 
ATOM     50  C35 UNL A   1      33.510  40.972  47.870  1.00  0.00    +0.000 C 
ATOM     51  F10 UNL A   1      33.437  39.742  48.399  1.00  0.00    +0.000 F 
ENDBRANCH   40   41
BRANCH   55   56
ATOM     65  C44 UNL A   1      31.317  36.275  41.740  1.00  0.00    +0.000 C 
ATOM     66  F15 UNL A   1      30.726  37.413  41.346  1.00  0.00    +0.000 F 
ATOM     56  C39 UNL A   1      31.206  35.850  43.072  1.00  0.00    +0.000 C 
ATOM     57  C40 UNL A   1      31.833  34.650  43.430  1.00  0.00    +0.000 C 
ATOM     58  F11 UNL A   1      31.767  34.214  44.697  1.00  0.00    +0.000 F 
ATOM     59  C41 UNL A   1      32.548  33.905  42.495  1.00  0.00    +0.000 C 
ATOM     60  F12 UNL A   1      33.159  32.772  42.869  1.00  0.00    +0.000 F 
ATOM     61  C42 UNL A   1      32.631  34.335  41.179  1.00  0.00    +0.000 C 
ATOM     62  F13 UNL A   1      33.306  33.609  40.277  1.00  0.00    +0.000 F 
ATOM     63  C43 UNL A   1      32.014  35.518  40.801  1.00  0.00    +0.000 C 
ATOM     64  F14 UNL A   1      32.079  35.929  39.527  1.00  0.00    +0.000 F 
ENDBRANCH   55   56
TORSDOF 19
ENDMDL
MODEL 6
REMARK VINA RESULT:      -9.2     39.324     44.735
ROOT
ATOM     19  C15 UNL A   1      43.276  15.635  50.002  1.00  0.00    +0.000 C 
ATOM     20  C16 UNL A   1      43.874  17.012  49.982  1.00  0.00    +0.000 C 
ATOM     21  N3  UNL A   1      44.428  17.662  48.991  1.00  0.00    +0.000 N 
ATOM     22  C17 UNL A   1      44.732  18.920  49.493  1.00  0.00    +0.000 C 
ATOM     23  C18 UNL A   1      45.352  19.949  48.869  1.00  0.00    +0.000 C 
ATOM     35  C25 UNL A   1      45.848  19.893  47.520  1.00  0.00    +0.000 C 
ATOM     36  C26 UNL A   1      46.555  20.855  46.820  1.00  0.00    +0.000 C 
ATOM     37  C27 UNL A   1      46.794  20.366  45.530  1.00  0.00    +0.000 C 
ATOM     38  C28 UNL A   1      46.272  19.085  45.442  1.00  0.00    +0.000 C 
ATOM     39  N4  UNL A   1      45.691  18.810  46.668  1.00  0.00    +0.000 N 
ATOM     40  C29 UNL A   1      46.303  18.180  44.322  1.00  0.00    +0.000 C 
ATOM     52  C36 UNL A   1      45.765  16.936  44.306  1.00  0.00    +0.000 C 
ATOM     53  N5  UNL A   1      45.104  16.261  45.324  1.00  0.00    +0.000 N 
ATOM     54  C37 UNL A   1      44.782  15.090  44.831  1.00  0.00    +0.000 C 
ATOM     55  C38 UNL A   1      44.072  13.947  45.501  1.00  0.00    +0.000 C 
ATOM     67  C45 UNL A   1      43.758  14.035  46.807  1.00  0.00    +0.000 C 
ATOM     68  C46 UNL A   1      43.053  13.017  47.580  1.00  0.00    +0.000 C 
ATOM     69  C47 UNL A   1      42.810  13.492  48.812  1.00  0.00    +0.000 C 
ATOM     70  C48 UNL A   1      43.379  14.834  48.926  1.00  0.00    +0.000 C 
ATOM     71  N6  UNL A   1      43.972  15.052  47.706  1.00  0.00    +0.000 N 
ATOM     72  C49 UNL A   1      45.174  14.902  43.427  1.00  0.00    +0.000 C 
ATOM     73  C50 UNL A   1      45.792  16.046  43.164  1.00  0.00    +0.000 C 
ATOM     74  C51 UNL A   1      44.269  18.953  50.865  1.00  0.00    +0.000 C 
ATOM     75  C52 UNL A   1      43.799  17.773  51.238  1.00  0.00    +0.000 C 
ATOM    112  H21 UNL A   1      46.855  21.772  47.185  1.00  0.00    +0.000 H 
ATOM    113  H22 UNL A   1      47.276  20.875  44.772  1.00  0.00    +0.000 H 
ATOM    114  H23 UNL A   1      45.233  17.969  46.901  1.00  0.00    +0.000 H 
ATOM    115  H24 UNL A   1      42.786  12.081  47.236  1.00  0.00    +0.000 H 
ATOM    116  H25 UNL A   1      42.303  12.991  49.559  1.00  0.00    +0.000 H 
ATOM    117  H26 UNL A   1      44.497  15.858  47.495  1.00  0.00    +0.000 H 
ATOM    118  H27 UNL A   1      45.011  14.092  42.809  1.00  0.00    +0.000 H 
ATOM    119  H28 UNL A   1      46.237  16.272  42.261  1.00  0.00    +0.000 H 
ATOM    120  H29 UNL A   1      44.301  19.788  51.472  1.00  0.00    +0.000 H 
ATOM    121  H30 UNL A   1      43.467  17.467  52.166  1.00  0.00    +0.000 H 
ENDROOT
BRANCH   19   18
ATOM     76  C53 UNL A   1      41.092  15.513  51.178  1.00  0.00    +0.000 C 
ATOM     77  C54 UNL A   1      40.301  15.156  52.263  1.00  0.00    +0.000 C 
ATOM    110  H19 UNL A   1      42.638  13.624  54.127  1.00  0.00    +0.000 H 
ATOM     15  C11 UNL A   1      40.856  14.412  53.307  1.00  0.00    +0.000 C 
ATOM     16  C12 UNL A   1      42.225  14.133  53.330  1.00  0.00    +0.000 C 
ATOM     17  C13 UNL A   1      43.032  14.547  52.267  1.00  0.00    +0.000 C 
ATOM    111  H20 UNL A   1      44.047  14.362  52.290  1.00  0.00    +0.000 H 
ATOM     18  C14 UNL A   1      42.464  15.212  51.170  1.00  0.00    +0.000 C 
ATOM    122  H31 UNL A   1      40.670  16.004  50.374  1.00  0.00    +0.000 H 
ATOM    123  H32 UNL A   1      39.308  15.438  52.296  1.00  0.00    +0.000 H 
BRANCH   15   13
ATOM     13  C10 UNL A   1      39.995  13.891  54.389  1.00  0.00    +0.000 C 
ATOM     14  O2  UNL A   1      38.979  14.500  54.710  1.00  0.00    +0.000 O 
BRANCH   13   12
ATOM     12  N2  UNL A   1      40.357  12.737  55.037  1.00  0.00    +0.000 N 
ATOM    109  H18 UNL A   1      40.166  11.897  54.559  1.00  0.00    +0.000 H 
BRANCH   12   11
ATOM     11  C9  UNL A   1      40.987  12.592  56.341  1.00  0.00    +0.000 C 
ATOM    108  H17 UNL A   1      40.242  12.244  57.026  1.00  0.00    +0.000 H 
ATOM    107  H16 UNL A   1      41.380  13.541  56.640  1.00  0.00    +0.000 H 
BRANCH   11   10
ATOM    105  H14 UNL A   1      43.040  12.094  56.497  1.00  0.00    +0.000 H 
ATOM     10  C8  UNL A   1      42.120  11.573  56.329  1.00  0.00    +0.000 C 
ATOM    106  H15 UNL A   1      41.895  10.860  57.095  1.00  0.00    +0.000 H 
BRANCH   10    9
ATOM      9  C7  UNL A   1      42.251  10.782  55.026  1.00  0.00    +0.000 C 
ATOM    103  H12 UNL A   1      41.350  10.917  54.465  1.00  0.00    +0.000 H 
ATOM    104  H13 UNL A   1      43.121  11.163  54.533  1.00  0.00    +0.000 H 
BRANCH    9    8
ATOM    101  H10 UNL A   1      43.516   9.130  55.440  1.00  0.00    +0.000 H 
ATOM    102  H11 UNL A   1      41.814   8.964  55.972  1.00  0.00    +0.000 H 
ATOM      8  C6  UNL A   1      42.484   9.279  55.200  1.00  0.00    +0.000 C 
BRANCH    8    7
ATOM     99  H8  UNL A   1      41.764   7.479  54.320  1.00  0.00    +0.000 H 
ATOM    100  H9  UNL A   1      41.447   8.970  53.391  1.00  0.00    +0.000 H 
ATOM      7  C5  UNL A   1      42.152   8.414  53.974  1.00  0.00    +0.000 C 
BRANCH    7    6
ATOM     97  H6  UNL A   1      43.292   8.762  52.199  1.00  0.00    +0.000 H 
ATOM     98  H7  UNL A   1      44.252   8.320  53.601  1.00  0.00    +0.000 H 
ATOM      6  C4  UNL A   1      43.349   8.128  53.059  1.00  0.00    +0.000 C 
BRANCH    6    5
ATOM      5  N1  UNL A   1      43.344   6.743  52.632  1.00  0.00    +0.000 N 
ATOM     96  H5  UNL A   1      43.629   6.088  53.309  1.00  0.00    +0.000 H 
BRANCH    5    3
ATOM      3  C3  UNL A   1      43.000   6.228  51.414  1.00  0.00    +0.000 C 
ATOM      4  O1  UNL A   1      41.810   6.307  51.097  1.00  0.00    +0.000 O 
BRANCH    3    2
ATOM      2  C2  UNL A   1      44.064   5.526  50.542  1.00  0.00    +0.000 C 
ATOM     95  H4  UNL A   1      43.629   5.248  49.604  1.00  0.00    +0.000 H 
BRANCH    2    1
ATOM      1  C1  UNL A   1      44.525   4.234  51.225  1.00  0.00    +0.000 C 
ATOM     92  H1  UNL A   1      45.585   4.134  51.119  1.00  0.00    +0.000 H 
ATOM     93  H2  UNL A   1      44.040   3.396  50.767  1.00  0.00    +0.000 H 
ATOM     94  H3  UNL A   1      44.272   4.269  52.263  1.00  0.00    +0.000 H 
ENDBRANCH    2    1
BRANCH    2   78
ATOM    132  H41 UNL A   1      43.994   7.769  49.033  1.00  0.00    +0.000 H 
ATOM     78  C55 UNL A   1      45.216   6.478  50.181  1.00  0.00    +0.000 C 
ATOM     79  C56 UNL A   1      46.544   6.260  50.581  1.00  0.00    +0.000 C 
ATOM     80  C57 UNL A   1      47.545   7.190  50.289  1.00  0.00    +0.000 C 
ATOM     81  C58 UNL A   1      47.233   8.364  49.608  1.00  0.00    +0.000 C 
ATOM     82  C59 UNL A   1      45.924   8.603  49.181  1.00  0.00    +0.000 C 
ATOM     91  C67 UNL A   1      44.940   7.634  49.421  1.00  0.00    +0.000 C 
ATOM    124  H33 UNL A   1      46.783   5.400  51.098  1.00  0.00    +0.000 H 
ATOM    125  H34 UNL A   1      48.517   7.007  50.580  1.00  0.00    +0.000 H 
ATOM    126  H35 UNL A   1      47.971   9.060  49.419  1.00  0.00    +0.000 H 
BRANCH   82   83
ATOM     83  C60 UNL A   1      45.639   9.878  48.464  1.00  0.00    +0.000 C 
ATOM     84  O3  UNL A   1      45.085   9.845  47.366  1.00  0.00    +0.000 O 
BRANCH   83   85
ATOM    129  H38 UNL A   1      46.835  14.680  50.378  1.00  0.00    +0.000 H 
ATOM    130  H39 UNL A   1      45.676  13.091  51.797  1.00  0.00    +0.000 H 
ATOM    131  H40 UNL A   1      45.142  10.873  50.961  1.00  0.00    +0.000 H 
ATOM     85  C61 UNL A   1      45.967  11.204  49.041  1.00  0.00    +0.000 C 
ATOM     86  C62 UNL A   1      46.669  12.111  48.238  1.00  0.00    +0.000 C 
ATOM     87  C63 UNL A   1      46.984  13.378  48.726  1.00  0.00    +0.000 C 
ATOM     88  C64 UNL A   1      46.613  13.738  50.022  1.00  0.00    +0.000 C 
ATOM     89  C65 UNL A   1      45.941  12.825  50.837  1.00  0.00    +0.000 C 
ATOM     90  C66 UNL A   1      45.625  11.553  50.353  1.00  0.00    +0.000 C 
ATOM    127  H36 UNL A   1      46.953  11.841  47.283  1.00  0.00    +0.000 H 
ATOM    128  H37 UNL A   1      47.491  14.050  48.129  1.00  0.00    +0.000 H 
ENDBRANCH   83   85
ENDBRANCH   82   83
ENDBRANCH    2   78
ENDBRANCH    3    2
ENDBRANCH    5    3
ENDBRANCH    6    5
ENDBRANCH    7    6
ENDBRANCH    8    7
ENDBRANCH    9    8
ENDBRANCH   10    9
ENDBRANCH   11   10
ENDBRANCH   12   11
ENDBRANCH   13   12
ENDBRANCH   15   13
ENDBRANCH   19   18
BRANCH   23   24
ATOM     33  C24 UNL A   1      46.745  21.545  50.233  1.00  0.00    +0.000 C 
ATOM     34  F5  UNL A   1      47.788  20.709  50.117  1.00  0.00    +0.000 F 
ATOM     24  C19 UNL A   1      45.513  21.226  49.641  1.00  0.00    +0.000 C 
ATOM     25  C20 UNL A   1      44.454  22.133  49.799  1.00  0.00    +0.000 C 
ATOM     26  F1  UNL A   1      43.261  21.882  49.242  1.00  0.00    +0.000 F 
ATOM     27  C21 UNL A   1      44.635  23.332  50.485  1.00  0.00    +0.000 C 
ATOM     28  F2  UNL A   1      43.627  24.212  50.568  1.00  0.00    +0.000 F 
ATOM     29  C22 UNL A   1      45.862  23.626  51.060  1.00  0.00    +0.000 C 
ATOM     30  F3  UNL A   1      46.036  24.782  51.717  1.00  0.00    +0.000 F 
ATOM     31  C23 UNL A   1      46.913  22.730  50.945  1.00  0.00    +0.000 C 
ATOM     32  F4  UNL A   1      48.096  23.008  51.509  1.00  0.00    +0.000 F 
ENDBRANCH   23   24
BRANCH   40   41
ATOM     41  C30 UNL A   1      47.009  18.644  43.083  1.00  0.00    +0.000 C 
ATOM     42  C31 UNL A   1      48.398  18.527  42.942  1.00  0.00    +0.000 C 
ATOM     43  F6  UNL A   1      49.144  18.076  43.961  1.00  0.00    +0.000 F 
ATOM     44  C32 UNL A   1      49.027  18.891  41.754  1.00  0.00    +0.000 C 
ATOM     45  F7  UNL A   1      50.359  18.793  41.646  1.00  0.00    +0.000 F 
ATOM     46  C33 UNL A   1      48.278  19.355  40.683  1.00  0.00    +0.000 C 
ATOM     47  F8  UNL A   1      48.883  19.689  39.534  1.00  0.00    +0.000 F 
ATOM     48  C34 UNL A   1      46.902  19.476  40.801  1.00  0.00    +0.000 C 
ATOM     49  F9  UNL A   1      46.175  19.915  39.764  1.00  0.00    +0.000 F 
ATOM     50  C35 UNL A   1      46.272  19.136  41.994  1.00  0.00    +0.000 C 
ATOM     51  F10 UNL A   1      44.940  19.261  42.081  1.00  0.00    +0.000 F 
ENDBRANCH   40   41
BRANCH   55   56
ATOM     65  C44 UNL A   1      44.687  11.705  44.533  1.00  0.00    +0.000 C 
ATOM     66  F15 UNL A   1      45.925  11.834  45.031  1.00  0.00    +0.000 F 
ATOM     56  C39 UNL A   1      43.733  12.709  44.753  1.00  0.00    +0.000 C 
ATOM     57  C40 UNL A   1      42.457  12.531  44.204  1.00  0.00    +0.000 C 
ATOM     58  F11 UNL A   1      41.508  13.458  44.404  1.00  0.00    +0.000 F 
ATOM     59  C41 UNL A   1      42.144  11.392  43.466  1.00  0.00    +0.000 C 
ATOM     60  F12 UNL A   1      40.909  11.236  42.971  1.00  0.00    +0.000 F 
ATOM     61  C42 UNL A   1      43.108  10.419  43.246  1.00  0.00    +0.000 C 
ATOM     62  F13 UNL A   1      42.810   9.331  42.522  1.00  0.00    +0.000 F 
ATOM     63  C43 UNL A   1      44.380  10.577  43.777  1.00  0.00    +0.000 C 
ATOM     64  F14 UNL A   1      45.318   9.646  43.553  1.00  0.00    +0.000 F 
ENDBRANCH   55   56
TORSDOF 19
ENDMDL
MODEL 7
REMARK VINA RESULT:      -9.1     16.827     23.074
ROOT
ATOM     19  C15 UNL A   1      18.364  17.112   6.812  1.00  0.00    +0.000 C 
ATOM     20  C16 UNL A   1      18.284  18.238   5.824  1.00  0.00    +0.000 C 
ATOM     21  N3  UNL A   1      17.430  19.227   5.758  1.00  0.00    +0.000 N 
ATOM     22  C17 UNL A   1      17.862  20.026   4.707  1.00  0.00    +0.000 C 
ATOM     23  C18 UNL A   1      17.292  21.150   4.214  1.00  0.00    +0.000 C 
ATOM     35  C25 UNL A   1      16.065  21.716   4.707  1.00  0.00    +0.000 C 
ATOM     36  C26 UNL A   1      15.366  22.811   4.231  1.00  0.00    +0.000 C 
ATOM     37  C27 UNL A   1      14.248  23.004   5.050  1.00  0.00    +0.000 C 
ATOM     38  C28 UNL A   1      14.229  22.005   6.011  1.00  0.00    +0.000 C 
ATOM     39  N4  UNL A   1      15.352  21.225   5.791  1.00  0.00    +0.000 N 
ATOM     40  C29 UNL A   1      13.258  21.779   7.050  1.00  0.00    +0.000 C 
ATOM     52  C36 UNL A   1      13.307  20.778   7.962  1.00  0.00    +0.000 C 
ATOM     53  N5  UNL A   1      14.249  19.766   8.094  1.00  0.00    +0.000 N 
ATOM     54  C37 UNL A   1      13.860  19.041   9.114  1.00  0.00    +0.000 C 
ATOM     55  C38 UNL A   1      14.493  17.805   9.691  1.00  0.00    +0.000 C 
ATOM     67  C45 UNL A   1      15.569  17.268   9.085  1.00  0.00    +0.000 C 
ATOM     68  C46 UNL A   1      16.297  16.088   9.542  1.00  0.00    +0.000 C 
ATOM     69  C47 UNL A   1      17.379  15.913   8.766  1.00  0.00    +0.000 C 
ATOM     70  C48 UNL A   1      17.395  16.946   7.731  1.00  0.00    +0.000 C 
ATOM     71  N6  UNL A   1      16.252  17.672   7.964  1.00  0.00    +0.000 N 
ATOM     72  C49 UNL A   1      12.638  19.532   9.768  1.00  0.00    +0.000 C 
ATOM     73  C50 UNL A   1      12.328  20.576   9.011  1.00  0.00    +0.000 C 
ATOM     74  C51 UNL A   1      19.073  19.425   4.188  1.00  0.00    +0.000 C 
ATOM     75  C52 UNL A   1      19.334  18.278   4.795  1.00  0.00    +0.000 C 
ATOM    112  H21 UNL A   1      15.623  23.384   3.413  1.00  0.00    +0.000 H 
ATOM    113  H22 UNL A   1      13.555  23.763   4.956  1.00  0.00    +0.000 H 
ATOM    114  H23 UNL A   1      15.608  20.438   6.326  1.00  0.00    +0.000 H 
ATOM    115  H24 UNL A   1      16.025  15.485  10.334  1.00  0.00    +0.000 H 
ATOM    116  H25 UNL A   1      18.085  15.169   8.880  1.00  0.00    +0.000 H 
ATOM    117  H26 UNL A   1      15.953  18.411   7.385  1.00  0.00    +0.000 H 
ATOM    118  H27 UNL A   1      12.150  19.161  10.598  1.00  0.00    +0.000 H 
ATOM    119  H28 UNL A   1      11.496  21.169   9.150  1.00  0.00    +0.000 H 
ATOM    120  H29 UNL A   1      19.655  19.838   3.442  1.00  0.00    +0.000 H 
ATOM    121  H30 UNL A   1      20.080  17.591   4.598  1.00  0.00    +0.000 H 
ENDROOT
BRANCH   19   18
ATOM     76  C53 UNL A   1      20.687  16.704   7.586  1.00  0.00    +0.000 C 
ATOM     77  C54 UNL A   1      21.853  15.948   7.627  1.00  0.00    +0.000 C 
ATOM    110  H19 UNL A   1      20.853  13.353   5.742  1.00  0.00    +0.000 H 
ATOM     15  C11 UNL A   1      21.887  14.698   7.005  1.00  0.00    +0.000 C 
ATOM     16  C12 UNL A   1      20.804  14.257   6.239  1.00  0.00    +0.000 C 
ATOM     17  C13 UNL A   1      19.655  15.047   6.148  1.00  0.00    +0.000 C 
ATOM    111  H20 UNL A   1      18.861  14.735   5.567  1.00  0.00    +0.000 H 
ATOM     18  C14 UNL A   1      19.578  16.260   6.847  1.00  0.00    +0.000 C 
ATOM    122  H31 UNL A   1      20.637  17.597   8.102  1.00  0.00    +0.000 H 
ATOM    123  H32 UNL A   1      22.689  16.308   8.115  1.00  0.00    +0.000 H 
BRANCH   15   13
ATOM     13  C10 UNL A   1      23.060  13.816   7.170  1.00  0.00    +0.000 C 
ATOM     14  O2  UNL A   1      23.009  12.867   7.946  1.00  0.00    +0.000 O 
BRANCH   13   12
ATOM     12  N2  UNL A   1      24.206  14.085   6.463  1.00  0.00    +0.000 N 
ATOM    109  H18 UNL A   1      25.030  14.170   6.997  1.00  0.00    +0.000 H 
BRANCH   12   11
ATOM     11  C9  UNL A   1      24.362  14.263   5.027  1.00  0.00    +0.000 C 
ATOM    108  H17 UNL A   1      23.542  13.772   4.547  1.00  0.00    +0.000 H 
ATOM    107  H16 UNL A   1      25.299  13.843   4.729  1.00  0.00    +0.000 H 
BRANCH   11   10
ATOM    105  H14 UNL A   1      24.844  15.828   3.684  1.00  0.00    +0.000 H 
ATOM     10  C8  UNL A   1      24.329  15.731   4.617  1.00  0.00    +0.000 C 
ATOM    106  H15 UNL A   1      23.297  16.006   4.558  1.00  0.00    +0.000 H 
BRANCH   10    9
ATOM      9  C7  UNL A   1      24.976  16.687   5.620  1.00  0.00    +0.000 C 
ATOM    103  H12 UNL A   1      24.279  17.473   5.825  1.00  0.00    +0.000 H 
ATOM    104  H13 UNL A   1      25.217  16.098   6.480  1.00  0.00    +0.000 H 
BRANCH    9    8
ATOM    101  H10 UNL A   1      27.085  16.885   5.721  1.00  0.00    +0.000 H 
ATOM    102  H11 UNL A   1      26.353  17.136   4.106  1.00  0.00    +0.000 H 
ATOM      8  C6  UNL A   1      26.289  17.323   5.156  1.00  0.00    +0.000 C 
BRANCH    8    7
ATOM     99  H8  UNL A   1      25.740  19.300   4.588  1.00  0.00    +0.000 H 
ATOM    100  H9  UNL A   1      26.077  19.065   6.325  1.00  0.00    +0.000 H 
ATOM      7  C5  UNL A   1      26.376  18.848   5.320  1.00  0.00    +0.000 C 
BRANCH    7    6
ATOM     97  H6  UNL A   1      28.281  18.911   4.351  1.00  0.00    +0.000 H 
ATOM     98  H7  UNL A   1      27.709  20.468   4.927  1.00  0.00    +0.000 H 
ATOM      6  C4  UNL A   1      27.787  19.424   5.150  1.00  0.00    +0.000 C 
BRANCH    6    5
ATOM      5  N1  UNL A   1      28.555  19.262   6.368  1.00  0.00    +0.000 N 
ATOM     96  H5  UNL A   1      29.463  18.902   6.255  1.00  0.00    +0.000 H 
BRANCH    5    3
ATOM      3  C3  UNL A   1      28.183  19.543   7.653  1.00  0.00    +0.000 C 
ATOM      4  O1  UNL A   1      27.902  20.717   7.903  1.00  0.00    +0.000 O 
BRANCH    3    2
ATOM      2  C2  UNL A   1      28.197  18.428   8.722  1.00  0.00    +0.000 C 
ATOM     95  H4  UNL A   1      28.899  18.681   9.490  1.00  0.00    +0.000 H 
BRANCH    2    1
ATOM      1  C1  UNL A   1      28.671  17.112   8.095  1.00  0.00    +0.000 C 
ATOM     92  H1  UNL A   1      29.734  17.138   7.974  1.00  0.00    +0.000 H 
ATOM     93  H2  UNL A   1      28.206  16.985   7.140  1.00  0.00    +0.000 H 
ATOM     94  H3  UNL A   1      28.404  16.297   8.733  1.00  0.00    +0.000 H 
ENDBRANCH    2    1
BRANCH    2   78
ATOM    132  H41 UNL A   1      27.489  19.378  11.153  1.00  0.00    +0.000 H 
ATOM     78  C55 UNL A   1      26.842  18.317   9.440  1.00  0.00    +0.000 C 
ATOM     79  C56 UNL A   1      25.746  17.623   8.905  1.00  0.00    +0.000 C 
ATOM     80  C57 UNL A   1      24.513  17.610   9.561  1.00  0.00    +0.000 C 
ATOM     81  C58 UNL A   1      24.348  18.305  10.756  1.00  0.00    +0.000 C 
ATOM     82  C59 UNL A   1      25.424  18.991  11.325  1.00  0.00    +0.000 C 
ATOM     91  C67 UNL A   1      26.675  18.945  10.692  1.00  0.00    +0.000 C 
ATOM    124  H33 UNL A   1      25.853  17.116   8.013  1.00  0.00    +0.000 H 
ATOM    125  H34 UNL A   1      23.722  17.084   9.158  1.00  0.00    +0.000 H 
ATOM    126  H35 UNL A   1      23.428  18.314  11.224  1.00  0.00    +0.000 H 
BRANCH   82   83
ATOM     83  C60 UNL A   1      25.195  19.727  12.600  1.00  0.00    +0.000 C 
ATOM     84  O3  UNL A   1      25.410  19.164  13.673  1.00  0.00    +0.000 O 
BRANCH   83   85
ATOM    129  H38 UNL A   1      23.741  24.830  12.657  1.00  0.00    +0.000 H 
ATOM    130  H39 UNL A   1      22.033  23.109  12.681  1.00  0.00    +0.000 H 
ATOM    131  H40 UNL A   1      22.667  20.762  12.687  1.00  0.00    +0.000 H 
ATOM     85  C61 UNL A   1      24.748  21.141  12.631  1.00  0.00    +0.000 C 
ATOM     86  C62 UNL A   1      25.730  22.138  12.655  1.00  0.00    +0.000 C 
ATOM     87  C63 UNL A   1      25.362  23.482  12.664  1.00  0.00    +0.000 C 
ATOM     88  C64 UNL A   1      24.013  23.835  12.664  1.00  0.00    +0.000 C 
ATOM     89  C65 UNL A   1      23.030  22.844  12.672  1.00  0.00    +0.000 C 
ATOM     90  C66 UNL A   1      23.393  21.495  12.666  1.00  0.00    +0.000 C 
ATOM    127  H36 UNL A   1      26.729  21.876  12.666  1.00  0.00    +0.000 H 
ATOM    128  H37 UNL A   1      26.087  24.216  12.670  1.00  0.00    +0.000 H 
ENDBRANCH   83   85
ENDBRANCH   82   83
ENDBRANCH    2   78
ENDBRANCH    3    2
ENDBRANCH    5    3
ENDBRANCH    6    5
ENDBRANCH    7    6
ENDBRANCH    8    7
ENDBRANCH    9    8
ENDBRANCH   10    9
ENDBRANCH   11   10
ENDBRANCH   12   11
ENDBRANCH   13   12
ENDBRANCH   15   13
ENDBRANCH   19   18
BRANCH   23   24
ATOM     33  C24 UNL A   1      18.875  22.915   3.360  1.00  0.00    +0.000 C 
ATOM     34  F5  UNL A   1      19.075  23.324   4.621  1.00  0.00    +0.000 F 
ATOM     24  C19 UNL A   1      18.003  21.847   3.092  1.00  0.00    +0.000 C 
ATOM     25  C20 UNL A   1      17.827  21.464   1.754  1.00  0.00    +0.000 C 
ATOM     26  F1  UNL A   1      17.016  20.441   1.446  1.00  0.00    +0.000 F 
ATOM     27  C21 UNL A   1      18.527  22.097   0.729  1.00  0.00    +0.000 C 
ATOM     28  F2  UNL A   1      18.390  21.671  -0.535  1.00  0.00    +0.000 F 
ATOM     29  C22 UNL A   1      19.384  23.148   1.018  1.00  0.00    +0.000 C 
ATOM     30  F3  UNL A   1      20.059  23.754   0.031  1.00  0.00    +0.000 F 
ATOM     31  C23 UNL A   1      19.549  23.565   2.330  1.00  0.00    +0.000 C 
ATOM     32  F4  UNL A   1      20.368  24.589   2.609  1.00  0.00    +0.000 F 
ENDBRANCH   23   24
BRANCH   40   41
ATOM     41  C30 UNL A   1      12.087  22.714   7.110  1.00  0.00    +0.000 C 
ATOM     42  C31 UNL A   1      10.850  22.378   6.544  1.00  0.00    +0.000 C 
ATOM     43  F6  UNL A   1      10.712  21.239   5.849  1.00  0.00    +0.000 F 
ATOM     44  C32 UNL A   1       9.752  23.224   6.678  1.00  0.00    +0.000 C 
ATOM     45  F7  UNL A   1       8.583  22.897   6.111  1.00  0.00    +0.000 F 
ATOM     46  C33 UNL A   1       9.866  24.405   7.397  1.00  0.00    +0.000 C 
ATOM     47  F8  UNL A   1       8.803  25.210   7.539  1.00  0.00    +0.000 F 
ATOM     48  C34 UNL A   1      11.081  24.754   7.967  1.00  0.00    +0.000 C 
ATOM     49  F9  UNL A   1      11.190  25.890   8.671  1.00  0.00    +0.000 F 
ATOM     50  C35 UNL A   1      12.186  23.923   7.816  1.00  0.00    +0.000 C 
ATOM     51  F10 UNL A   1      13.349  24.283   8.379  1.00  0.00    +0.000 F 
ENDBRANCH   40   41
BRANCH   55   56
ATOM     65  C44 UNL A   1      12.927  16.183  10.809  1.00  0.00    +0.000 C 
ATOM     66  F15 UNL A   1      12.465  15.805   9.608  1.00  0.00    +0.000 F 
ATOM     56  C39 UNL A   1      13.937  17.150  10.902  1.00  0.00    +0.000 C 
ATOM     57  C40 UNL A   1      14.377  17.518  12.180  1.00  0.00    +0.000 C 
ATOM     58  F11 UNL A   1      15.354  18.427  12.314  1.00  0.00    +0.000 F 
ATOM     59  C41 UNL A   1      13.831  16.938  13.322  1.00  0.00    +0.000 C 
ATOM     60  F12 UNL A   1      14.286  17.290  14.533  1.00  0.00    +0.000 F 
ATOM     61  C42 UNL A   1      12.820  15.995  13.209  1.00  0.00    +0.000 C 
ATOM     62  F13 UNL A   1      12.284  15.450  14.310  1.00  0.00    +0.000 F 
ATOM     63  C43 UNL A   1      12.365  15.620  11.953  1.00  0.00    +0.000 C 
ATOM     64  F14 UNL A   1      11.378  14.721  11.841  1.00  0.00    +0.000 F 
ENDBRANCH   55   56
TORSDOF 19
ENDMDL
MODEL 8
REMARK VINA RESULT:      -9.1     37.119     41.996
ROOT
ATOM     19  C15 UNL A   1      26.056  35.393  45.883  1.00  0.00    +0.000 C 
ATOM     20  C16 UNL A   1      25.860  36.540  46.831  1.00  0.00    +0.000 C 
ATOM     21  N3  UNL A   1      26.645  37.558  47.077  1.00  0.00    +0.000 N 
ATOM     22  C17 UNL A   1      25.947  38.362  47.968  1.00  0.00    +0.000 C 
ATOM     23  C18 UNL A   1      26.347  39.514  48.554  1.00  0.00    +0.000 C 
ATOM     35  C25 UNL A   1      27.642  40.110  48.362  1.00  0.00    +0.000 C 
ATOM     36  C26 UNL A   1      28.173  41.236  48.966  1.00  0.00    +0.000 C 
ATOM     37  C27 UNL A   1      29.452  41.450  48.440  1.00  0.00    +0.000 C 
ATOM     38  C28 UNL A   1      29.734  40.433  47.540  1.00  0.00    +0.000 C 
ATOM     39  N4  UNL A   1      28.613  39.621  47.499  1.00  0.00    +0.000 N 
ATOM     40  C29 UNL A   1      30.936  40.219  46.777  1.00  0.00    +0.000 C 
ATOM     52  C36 UNL A   1      31.139  39.200  45.908  1.00  0.00    +0.000 C 
ATOM     53  N5  UNL A   1      30.286  38.155  45.577  1.00  0.00    +0.000 N 
ATOM     54  C37 UNL A   1      30.934  37.423  44.703  1.00  0.00    +0.000 C 
ATOM     55  C38 UNL A   1      30.495  36.156  44.023  1.00  0.00    +0.000 C 
ATOM     67  C45 UNL A   1      29.318  35.596  44.361  1.00  0.00    +0.000 C 
ATOM     68  C46 UNL A   1      28.757  34.384  43.771  1.00  0.00    +0.000 C 
ATOM     69  C47 UNL A   1      27.522  34.188  44.264  1.00  0.00    +0.000 C 
ATOM     70  C48 UNL A   1      27.225  35.241  45.234  1.00  0.00    +0.000 C 
ATOM     71  N6  UNL A   1      28.370  35.999  45.269  1.00  0.00    +0.000 N 
ATOM     72  C49 UNL A   1      32.264  37.941  44.355  1.00  0.00    +0.000 C 
ATOM     73  C50 UNL A   1      32.351  39.010  45.137  1.00  0.00    +0.000 C 
ATOM     74  C51 UNL A   1      24.662  37.732  48.191  1.00  0.00    +0.000 C 
ATOM     75  C52 UNL A   1      24.589  36.565  47.570  1.00  0.00    +0.000 C 
ATOM    112  H21 UNL A   1      27.707  41.817  49.680  1.00  0.00    +0.000 H 
ATOM    113  H22 UNL A   1      30.080  42.233  48.680  1.00  0.00    +0.000 H 
ATOM    114  H23 UNL A   1      28.518  38.816  46.939  1.00  0.00    +0.000 H 
ATOM    115  H24 UNL A   1      29.231  33.774  43.087  1.00  0.00    +0.000 H 
ATOM    116  H25 UNL A   1      26.887  33.419  44.000  1.00  0.00    +0.000 H 
ATOM    117  H26 UNL A   1      28.497  36.758  45.884  1.00  0.00    +0.000 H 
ATOM    118  H27 UNL A   1      32.951  37.570  43.680  1.00  0.00    +0.000 H 
ATOM    119  H28 UNL A   1      33.176  39.626  45.189  1.00  0.00    +0.000 H 
ATOM    120  H29 UNL A   1      23.903  38.140  48.760  1.00  0.00    +0.000 H 
ATOM    121  H30 UNL A   1      23.836  35.859  47.596  1.00  0.00    +0.000 H 
ENDROOT
BRANCH   19   18
ATOM     76  C53 UNL A   1      24.744  33.335  46.340  1.00  0.00    +0.000 C 
ATOM     77  C54 UNL A   1      23.698  32.460  46.069  1.00  0.00    +0.000 C 
ATOM    110  H19 UNL A   1      22.252  34.147  43.550  1.00  0.00    +0.000 H 
ATOM     15  C11 UNL A   1      22.756  32.792  45.092  1.00  0.00    +0.000 C 
ATOM     16  C12 UNL A   1      22.926  33.932  44.302  1.00  0.00    +0.000 C 
ATOM     17  C13 UNL A   1      24.013  34.779  44.534  1.00  0.00    +0.000 C 
ATOM    111  H20 UNL A   1      24.154  35.610  43.939  1.00  0.00    +0.000 H 
ATOM     18  C14 UNL A   1      24.911  34.501  45.575  1.00  0.00    +0.000 C 
ATOM    122  H31 UNL A   1      25.403  33.125  47.106  1.00  0.00    +0.000 H 
ATOM    123  H32 UNL A   1      23.618  31.571  46.587  1.00  0.00    +0.000 H 
BRANCH   15   13
ATOM     13  C10 UNL A   1      21.556  31.953  44.901  1.00  0.00    +0.000 C 
ATOM     14  O2  UNL A   1      21.670  30.806  44.479  1.00  0.00    +0.000 O 
BRANCH   13   12
ATOM     12  N2  UNL A   1      20.319  32.479  45.181  1.00  0.00    +0.000 N 
ATOM    109  H18 UNL A   1      20.011  32.381  46.112  1.00  0.00    +0.000 H 
BRANCH   12   11
ATOM     11  C9  UNL A   1      19.401  33.161  44.280  1.00  0.00    +0.000 C 
ATOM    108  H17 UNL A   1      19.931  33.975  43.831  1.00  0.00    +0.000 H 
ATOM    107  H16 UNL A   1      18.559  33.506  44.844  1.00  0.00    +0.000 H 
BRANCH   11   10
ATOM    105  H14 UNL A   1      19.700  32.127  42.456  1.00  0.00    +0.000 H 
ATOM     10  C8  UNL A   1      18.904  32.254  43.161  1.00  0.00    +0.000 C 
ATOM    106  H15 UNL A   1      18.605  31.337  43.625  1.00  0.00    +0.000 H 
BRANCH   10    9
ATOM      9  C7  UNL A   1      17.681  32.780  42.410  1.00  0.00    +0.000 C 
ATOM    103  H12 UNL A   1      17.137  33.422  43.071  1.00  0.00    +0.000 H 
ATOM    104  H13 UNL A   1      18.057  33.283  41.543  1.00  0.00    +0.000 H 
BRANCH    9    8
ATOM    101  H10 UNL A   1      16.309  32.045  40.969  1.00  0.00    +0.000 H 
ATOM    102  H11 UNL A   1      17.303  30.810  41.804  1.00  0.00    +0.000 H 
ATOM      8  C6  UNL A   1      16.722  31.703  41.895  1.00  0.00    +0.000 C 
BRANCH    8    7
ATOM     99  H8  UNL A   1      14.859  32.168  42.816  1.00  0.00    +0.000 H 
ATOM    100  H9  UNL A   1      15.139  30.438  42.476  1.00  0.00    +0.000 H 
ATOM      7  C5  UNL A   1      15.557  31.356  42.834  1.00  0.00    +0.000 C 
BRANCH    7    6
ATOM     97  H6  UNL A   1      16.993  31.389  44.417  1.00  0.00    +0.000 H 
ATOM     98  H7  UNL A   1      15.343  31.700  44.930  1.00  0.00    +0.000 H 
ATOM      6  C4  UNL A   1      15.968  31.110  44.291  1.00  0.00    +0.000 C 
BRANCH    6    5
ATOM      5  N1  UNL A   1      15.806  29.713  44.638  1.00  0.00    +0.000 N 
ATOM     96  H5  UNL A   1      15.242  29.531  45.423  1.00  0.00    +0.000 H 
BRANCH    5    3
ATOM      3  C3  UNL A   1      16.336  28.615  44.020  1.00  0.00    +0.000 C 
ATOM      4  O1  UNL A   1      17.538  28.662  43.744  1.00  0.00    +0.000 O 
BRANCH    3    2
ATOM      2  C2  UNL A   1      15.426  27.427  43.639  1.00  0.00    +0.000 C 
ATOM     95  H4  UNL A   1      14.420  27.639  43.938  1.00  0.00    +0.000 H 
BRANCH    2    1
ATOM      1  C1  UNL A   1      15.866  26.171  44.400  1.00  0.00    +0.000 C 
ATOM     92  H1  UNL A   1      16.235  25.446  43.706  1.00  0.00    +0.000 H 
ATOM     93  H2  UNL A   1      15.030  25.764  44.930  1.00  0.00    +0.000 H 
ATOM     94  H3  UNL A   1      16.638  26.427  45.094  1.00  0.00    +0.000 H 
ENDBRANCH    2    1
BRANCH    2   78
ATOM    132  H41 UNL A   1      14.989  25.154  42.242  1.00  0.00    +0.000 H 
ATOM     78  C55 UNL A   1      15.358  27.233  42.116  1.00  0.00    +0.000 C 
ATOM     79  C56 UNL A   1      15.573  28.275  41.200  1.00  0.00    +0.000 C 
ATOM     80  C57 UNL A   1      15.431  28.067  39.826  1.00  0.00    +0.000 C 
ATOM     81  C58 UNL A   1      15.052  26.817  39.343  1.00  0.00    +0.000 C 
ATOM     82  C59 UNL A   1      14.847  25.754  40.226  1.00  0.00    +0.000 C 
ATOM     91  C67 UNL A   1      15.056  25.956  41.598  1.00  0.00    +0.000 C 
ATOM    124  H33 UNL A   1      15.841  29.209  41.548  1.00  0.00    +0.000 H 
ATOM    125  H34 UNL A   1      15.606  28.842  39.168  1.00  0.00    +0.000 H 
ATOM    126  H35 UNL A   1      14.923  26.676  38.329  1.00  0.00    +0.000 H 
BRANCH   82   83
ATOM     83  C60 UNL A   1      14.435  24.438  39.662  1.00  0.00    +0.000 C 
ATOM     84  O3  UNL A   1      13.592  23.763  40.251  1.00  0.00    +0.000 O 
BRANCH   83   85
ATOM    129  H38 UNL A   1      16.339  22.717  35.018  1.00  0.00    +0.000 H 
ATOM    130  H39 UNL A   1      17.019  21.607  37.064  1.00  0.00    +0.000 H 
ATOM    131  H40 UNL A   1      16.140  22.351  39.205  1.00  0.00    +0.000 H 
ATOM     85  C61 UNL A   1      14.978  23.918  38.384  1.00  0.00    +0.000 C 
ATOM     86  C62 UNL A   1      14.560  24.531  37.197  1.00  0.00    +0.000 C 
ATOM     87  C63 UNL A   1      15.057  24.093  35.970  1.00  0.00    +0.000 C 
ATOM     88  C64 UNL A   1      15.961  23.032  35.925  1.00  0.00    +0.000 C 
ATOM     89  C65 UNL A   1      16.357  22.397  37.103  1.00  0.00    +0.000 C 
ATOM     90  C66 UNL A   1      15.859  22.831  38.335  1.00  0.00    +0.000 C 
ATOM    127  H36 UNL A   1      13.882  25.309  37.230  1.00  0.00    +0.000 H 
ATOM    128  H37 UNL A   1      14.756  24.553  35.097  1.00  0.00    +0.000 H 
ENDBRANCH   83   85
ENDBRANCH   82   83
ENDBRANCH    2   78
ENDBRANCH    3    2
ENDBRANCH    5    3
ENDBRANCH    6    5
ENDBRANCH    7    6
ENDBRANCH    8    7
ENDBRANCH    9    8
ENDBRANCH   10    9
ENDBRANCH   11   10
ENDBRANCH   12   11
ENDBRANCH   13   12
ENDBRANCH   15   13
ENDBRANCH   19   18
BRANCH   23   24
ATOM     33  C24 UNL A   1      25.305  39.894  50.817  1.00  0.00    +0.000 C 
ATOM     34  F5  UNL A   1      26.125  38.967  51.333  1.00  0.00    +0.000 F 
ATOM     24  C19 UNL A   1      25.364  40.209  49.450  1.00  0.00    +0.000 C 
ATOM     25  C20 UNL A   1      24.478  41.182  48.962  1.00  0.00    +0.000 C 
ATOM     26  F1  UNL A   1      24.504  41.528  47.667  1.00  0.00    +0.000 F 
ATOM     27  C21 UNL A   1      23.600  41.844  49.816  1.00  0.00    +0.000 C 
ATOM     28  F2  UNL A   1      22.809  42.815  49.339  1.00  0.00    +0.000 F 
ATOM     29  C22 UNL A   1      23.562  41.518  51.164  1.00  0.00    +0.000 C 
ATOM     30  F3  UNL A   1      22.718  42.158  51.986  1.00  0.00    +0.000 F 
ATOM     31  C23 UNL A   1      24.404  40.536  51.662  1.00  0.00    +0.000 C 
ATOM     32  F4  UNL A   1      24.360  40.212  52.962  1.00  0.00    +0.000 F 
ENDBRANCH   23   24
BRANCH   40   41
ATOM     41  C30 UNL A   1      32.060  41.191  46.980  1.00  0.00    +0.000 C 
ATOM     42  C31 UNL A   1      33.227  40.830  47.666  1.00  0.00    +0.000 C 
ATOM     43  F6  UNL A   1      33.326  39.622  48.242  1.00  0.00    +0.000 F 
ATOM     44  C32 UNL A   1      34.293  41.720  47.777  1.00  0.00    +0.000 C 
ATOM     45  F7  UNL A   1      35.392  41.365  48.456  1.00  0.00    +0.000 F 
ATOM     46  C33 UNL A   1      34.219  42.972  47.186  1.00  0.00    +0.000 C 
ATOM     47  F8  UNL A   1      35.252  43.821  47.279  1.00  0.00    +0.000 F 
ATOM     48  C34 UNL A   1      33.073  43.348  46.500  1.00  0.00    +0.000 C 
ATOM     49  F9  UNL A   1      33.004  44.554  45.920  1.00  0.00    +0.000 F 
ATOM     50  C35 UNL A   1      31.998  42.470  46.407  1.00  0.00    +0.000 C 
ATOM     51  F10 UNL A   1      30.903  42.858  45.736  1.00  0.00    +0.000 F 
ENDBRANCH   40   41
BRANCH   55   56
ATOM     65  C44 UNL A   1      31.316  35.891  41.658  1.00  0.00    +0.000 C 
ATOM     66  F15 UNL A   1      30.529  36.907  41.274  1.00  0.00    +0.000 F 
ATOM     56  C39 UNL A   1      31.348  35.496  43.003  1.00  0.00    +0.000 C 
ATOM     57  C40 UNL A   1      32.179  34.423  43.350  1.00  0.00    +0.000 C 
ATOM     58  F11 UNL A   1      32.254  34.023  44.628  1.00  0.00    +0.000 F 
ATOM     59  C41 UNL A   1      32.951  33.773  42.391  1.00  0.00    +0.000 C 
ATOM     60  F12 UNL A   1      33.756  32.764  42.753  1.00  0.00    +0.000 F 
ATOM     61  C42 UNL A   1      32.891  34.168  41.063  1.00  0.00    +0.000 C 
ATOM     62  F13 UNL A   1      33.622  33.531  40.138  1.00  0.00    +0.000 F 
ATOM     63  C43 UNL A   1      32.072  35.226  40.695  1.00  0.00    +0.000 C 
ATOM     64  F14 UNL A   1      31.999  35.600  39.411  1.00  0.00    +0.000 F 
ENDBRANCH   55   56
TORSDOF 19
ENDMDL
MODEL 9
REMARK VINA RESULT:      -9.1     40.398     45.132
ROOT
ATOM     19  C15 UNL A   1      17.904  37.508  48.648  1.00  0.00    +0.000 C 
ATOM     20  C16 UNL A   1      18.941  38.584  48.782  1.00  0.00    +0.000 C 
ATOM     21  N3  UNL A   1      19.135  39.434  49.758  1.00  0.00    +0.000 N 
ATOM     22  C17 UNL A   1      20.276  40.147  49.413  1.00  0.00    +0.000 C 
ATOM     23  C18 UNL A   1      20.866  41.166  50.079  1.00  0.00    +0.000 C 
ATOM     35  C25 UNL A   1      20.363  41.727  51.304  1.00  0.00    +0.000 C 
ATOM     36  C26 UNL A   1      20.845  42.809  52.020  1.00  0.00    +0.000 C 
ATOM     37  C27 UNL A   1      20.052  42.963  53.163  1.00  0.00    +0.000 C 
ATOM     38  C28 UNL A   1      19.052  42.003  53.137  1.00  0.00    +0.000 C 
ATOM     39  N4  UNL A   1      19.258  41.250  51.994  1.00  0.00    +0.000 N 
ATOM     40  C29 UNL A   1      17.988  41.791  54.084  1.00  0.00    +0.000 C 
ATOM     52  C36 UNL A   1      17.043  40.824  53.995  1.00  0.00    +0.000 C 
ATOM     53  N5  UNL A   1      16.870  39.865  53.006  1.00  0.00    +0.000 N 
ATOM     54  C37 UNL A   1      15.817  39.168  53.360  1.00  0.00    +0.000 C 
ATOM     55  C38 UNL A   1      15.165  38.017  52.646  1.00  0.00    +0.000 C 
ATOM     67  C45 UNL A   1      15.623  37.640  51.438  1.00  0.00    +0.000 C 
ATOM     68  C46 UNL A   1      15.103  36.532  50.642  1.00  0.00    +0.000 C 
ATOM     69  C47 UNL A   1      15.874  36.374  49.554  1.00  0.00    +0.000 C 
ATOM     70  C48 UNL A   1      16.918  37.399  49.557  1.00  0.00    +0.000 C 
ATOM     71  N6  UNL A   1      16.657  38.141  50.683  1.00  0.00    +0.000 N 
ATOM     72  C49 UNL A   1      15.221  39.587  54.635  1.00  0.00    +0.000 C 
ATOM     73  C50 UNL A   1      15.989  40.617  54.967  1.00  0.00    +0.000 C 
ATOM     74  C51 UNL A   1      20.750  39.605  48.157  1.00  0.00    +0.000 C 
ATOM     75  C52 UNL A   1      19.917  38.689  47.687  1.00  0.00    +0.000 C 
ATOM    112  H21 UNL A   1      21.648  43.400  51.757  1.00  0.00    +0.000 H 
ATOM    113  H22 UNL A   1      20.190  43.670  53.902  1.00  0.00    +0.000 H 
ATOM    114  H23 UNL A   1      18.702  40.487  51.711  1.00  0.00    +0.000 H 
ATOM    115  H24 UNL A   1      14.276  35.962  50.877  1.00  0.00    +0.000 H 
ATOM    116  H25 UNL A   1      15.750  35.648  48.831  1.00  0.00    +0.000 H 
ATOM    117  H26 UNL A   1      17.162  38.950  50.927  1.00  0.00    +0.000 H 
ATOM    118  H27 UNL A   1      14.414  39.187  55.140  1.00  0.00    +0.000 H 
ATOM    119  H28 UNL A   1      15.853  41.196  55.810  1.00  0.00    +0.000 H 
ATOM    120  H29 UNL A   1      21.623  39.896  47.688  1.00  0.00    +0.000 H 
ATOM    121  H30 UNL A   1      19.946  38.180  46.789  1.00  0.00    +0.000 H 
ENDROOT
BRANCH   19   18
ATOM     76  C53 UNL A   1      18.923  35.415  47.784  1.00  0.00    +0.000 C 
ATOM     77  C54 UNL A   1      19.103  34.454  46.797  1.00  0.00    +0.000 C 
ATOM    110  H19 UNL A   1      16.955  35.653  44.509  1.00  0.00    +0.000 H 
ATOM     15  C11 UNL A   1      18.336  34.511  45.630  1.00  0.00    +0.000 C 
ATOM     16  C12 UNL A   1      17.483  35.592  45.394  1.00  0.00    +0.000 C 
ATOM     17  C13 UNL A   1      17.350  36.591  46.362  1.00  0.00    +0.000 C 
ATOM    111  H20 UNL A   1      16.738  37.402  46.183  1.00  0.00    +0.000 H 
ATOM     18  C14 UNL A   1      18.045  36.492  47.576  1.00  0.00    +0.000 C 
ATOM    122  H31 UNL A   1      19.438  35.338  48.676  1.00  0.00    +0.000 H 
ATOM    123  H32 UNL A   1      19.798  33.702  46.926  1.00  0.00    +0.000 H 
BRANCH   15   13
ATOM     13  C10 UNL A   1      18.402  33.413  44.643  1.00  0.00    +0.000 C 
ATOM     14  O2  UNL A   1      17.373  32.847  44.287  1.00  0.00    +0.000 O 
BRANCH   13   12
ATOM     12  N2  UNL A   1      19.624  33.027  44.150  1.00  0.00    +0.000 N 
ATOM    109  H18 UNL A   1      20.225  33.757  43.874  1.00  0.00    +0.000 H 
BRANCH   12   11
ATOM     11  C9  UNL A   1      20.145  31.680  43.981  1.00  0.00    +0.000 C 
ATOM    108  H17 UNL A   1      21.106  31.758  43.516  1.00  0.00    +0.000 H 
ATOM    107  H16 UNL A   1      19.462  31.121  43.376  1.00  0.00    +0.000 H 
BRANCH   11   10
ATOM    105  H14 UNL A   1      19.360  30.772  45.726  1.00  0.00    +0.000 H 
ATOM     10  C8  UNL A   1      20.329  30.957  45.310  1.00  0.00    +0.000 C 
ATOM    106  H15 UNL A   1      20.871  30.060  45.094  1.00  0.00    +0.000 H 
BRANCH   10    9
ATOM      9  C7  UNL A   1      21.153  31.724  46.344  1.00  0.00    +0.000 C 
ATOM    103  H12 UNL A   1      21.120  32.763  46.090  1.00  0.00    +0.000 H 
ATOM    104  H13 UNL A   1      20.716  31.505  47.296  1.00  0.00    +0.000 H 
BRANCH    9    8
ATOM    101  H10 UNL A   1      22.689  30.500  47.145  1.00  0.00    +0.000 H 
ATOM    102  H11 UNL A   1      22.921  31.038  45.452  1.00  0.00    +0.000 H 
ATOM      8  C6  UNL A   1      22.622  31.305  46.443  1.00  0.00    +0.000 C 
BRANCH    8    7
ATOM     99  H8  UNL A   1      23.017  33.217  47.292  1.00  0.00    +0.000 H 
ATOM    100  H9  UNL A   1      24.246  31.963  47.617  1.00  0.00    +0.000 H 
ATOM      7  C5  UNL A   1      23.593  32.408  46.894  1.00  0.00    +0.000 C 
BRANCH    7    6
ATOM     97  H6  UNL A   1      25.107  33.737  46.177  1.00  0.00    +0.000 H 
ATOM     98  H7  UNL A   1      25.092  32.165  45.394  1.00  0.00    +0.000 H 
ATOM      6  C4  UNL A   1      24.487  32.961  45.778  1.00  0.00    +0.000 C 
BRANCH    6    5
ATOM      5  N1  UNL A   1      23.683  33.499  44.700  1.00  0.00    +0.000 N 
ATOM     96  H5  UNL A   1      23.324  32.839  44.064  1.00  0.00    +0.000 H 
BRANCH    5    3
ATOM      3  C3  UNL A   1      23.359  34.802  44.448  1.00  0.00    +0.000 C 
ATOM      4  O1  UNL A   1      24.058  35.397  43.623  1.00  0.00    +0.000 O 
BRANCH    3    2
ATOM      2  C2  UNL A   1      22.213  35.480  45.231  1.00  0.00    +0.000 C 
ATOM     95  H4  UNL A   1      21.607  34.731  45.696  1.00  0.00    +0.000 H 
BRANCH    2    1
ATOM      1  C1  UNL A   1      21.310  36.254  44.265  1.00  0.00    +0.000 C 
ATOM     92  H1  UNL A   1      20.719  36.956  44.815  1.00  0.00    +0.000 H 
ATOM     93  H2  UNL A   1      20.666  35.570  43.754  1.00  0.00    +0.000 H 
ATOM     94  H3  UNL A   1      21.913  36.777  43.553  1.00  0.00    +0.000 H 
ENDBRANCH    2    1
BRANCH    2   78
ATOM    132  H41 UNL A   1      21.862  35.135  47.890  1.00  0.00    +0.000 H 
ATOM     78  C55 UNL A   1      22.751  36.335  46.391  1.00  0.00    +0.000 C 
ATOM     79  C56 UNL A   1      23.504  37.504  46.197  1.00  0.00    +0.000 C 
ATOM     80  C57 UNL A   1      24.031  38.208  47.282  1.00  0.00    +0.000 C 
ATOM     81  C58 UNL A   1      23.832  37.747  48.581  1.00  0.00    +0.000 C 
ATOM     82  C59 UNL A   1      23.072  36.596  48.809  1.00  0.00    +0.000 C 
ATOM     91  C67 UNL A   1      22.492  35.933  47.718  1.00  0.00    +0.000 C 
ATOM    124  H33 UNL A   1      23.670  37.847  45.239  1.00  0.00    +0.000 H 
ATOM    125  H34 UNL A   1      24.571  39.072  47.120  1.00  0.00    +0.000 H 
ATOM    126  H35 UNL A   1      24.246  38.256  49.377  1.00  0.00    +0.000 H 
BRANCH   82   83
ATOM     83  C60 UNL A   1      22.894  36.138  50.216  1.00  0.00    +0.000 C 
ATOM     84  O3  UNL A   1      23.622  35.251  50.662  1.00  0.00    +0.000 O 
BRANCH   83   85
ATOM    129  H38 UNL A   1      19.385  38.411  53.482  1.00  0.00    +0.000 H 
ATOM    130  H39 UNL A   1      18.667  36.590  52.050  1.00  0.00    +0.000 H 
ATOM    131  H40 UNL A   1      20.257  35.507  50.566  1.00  0.00    +0.000 H 
ATOM     85  C61 UNL A   1      21.886  36.736  51.124  1.00  0.00    +0.000 C 
ATOM     86  C62 UNL A   1      22.305  37.763  51.979  1.00  0.00    +0.000 C 
ATOM     87  C63 UNL A   1      21.392  38.373  52.838  1.00  0.00    +0.000 C 
ATOM     88  C64 UNL A   1      20.063  37.951  52.856  1.00  0.00    +0.000 C 
ATOM     89  C65 UNL A   1      19.648  36.906  52.028  1.00  0.00    +0.000 C 
ATOM     90  C66 UNL A   1      20.560  36.289  51.167  1.00  0.00    +0.000 C 
ATOM    127  H36 UNL A   1      23.291  38.068  51.973  1.00  0.00    +0.000 H 
ATOM    128  H37 UNL A   1      21.699  39.137  53.460  1.00  0.00    +0.000 H 
ENDBRANCH   83   85
ENDBRANCH   82   83
ENDBRANCH    2   78
ENDBRANCH    3    2
ENDBRANCH    5    3
ENDBRANCH    6    5
ENDBRANCH    7    6
ENDBRANCH    8    7
ENDBRANCH    9    8
ENDBRANCH   10    9
ENDBRANCH   11   10
ENDBRANCH   12   11
ENDBRANCH   13   12
ENDBRANCH   15   13
ENDBRANCH   19   18
BRANCH   23   24
ATOM     33  C24 UNL A   1      23.375  41.193  49.859  1.00  0.00    +0.000 C 
ATOM     34  F5  UNL A   1      23.448  40.178  50.731  1.00  0.00    +0.000 F 
ATOM     24  C19 UNL A   1      22.129  41.729  49.497  1.00  0.00    +0.000 C 
ATOM     25  C20 UNL A   1      22.113  42.795  48.585  1.00  0.00    +0.000 C 
ATOM     26  F1  UNL A   1      20.948  43.332  48.196  1.00  0.00    +0.000 F 
ATOM     27  C21 UNL A   1      23.294  43.276  48.025  1.00  0.00    +0.000 C 
ATOM     28  F2  UNL A   1      23.248  44.252  47.108  1.00  0.00    +0.000 F 
ATOM     29  C22 UNL A   1      24.513  42.730  48.396  1.00  0.00    +0.000 C 
ATOM     30  F3  UNL A   1      25.649  43.192  47.854  1.00  0.00    +0.000 F 
ATOM     31  C23 UNL A   1      24.556  41.698  49.321  1.00  0.00    +0.000 C 
ATOM     32  F4  UNL A   1      25.735  41.177  49.689  1.00  0.00    +0.000 F 
ENDBRANCH   23   24
BRANCH   40   41
ATOM     41  C30 UNL A   1      17.908  42.733  55.248  1.00  0.00    +0.000 C 
ATOM     42  C31 UNL A   1      18.605  42.489  56.439  1.00  0.00    +0.000 C 
ATOM     43  F6  UNL A   1      19.293  41.349  56.597  1.00  0.00    +0.000 F 
ATOM     44  C32 UNL A   1      18.582  43.414  57.481  1.00  0.00    +0.000 C 
ATOM     45  F7  UNL A   1      19.236  43.152  58.620  1.00  0.00    +0.000 F 
ATOM     46  C33 UNL A   1      17.883  44.604  57.341  1.00  0.00    +0.000 C 
ATOM     47  F8  UNL A   1      17.876  45.500  58.337  1.00  0.00    +0.000 F 
ATOM     48  C34 UNL A   1      17.189  44.865  56.169  1.00  0.00    +0.000 C 
ATOM     49  F9  UNL A   1      16.522  46.019  56.028  1.00  0.00    +0.000 F 
ATOM     50  C35 UNL A   1      17.190  43.934  55.135  1.00  0.00    +0.000 C 
ATOM     51  F10 UNL A   1      16.512  44.213  54.012  1.00  0.00    +0.000 F 
ENDBRANCH   40   41
BRANCH   55   56
ATOM     65  C44 UNL A   1      12.690  37.729  53.006  1.00  0.00    +0.000 C 
ATOM     66  F15 UNL A   1      12.454  38.779  52.207  1.00  0.00    +0.000 F 
ATOM     56  C39 UNL A   1      14.005  37.303  53.239  1.00  0.00    +0.000 C 
ATOM     57  C40 UNL A   1      14.198  36.208  54.091  1.00  0.00    +0.000 C 
ATOM     58  F11 UNL A   1      15.438  35.756  54.327  1.00  0.00    +0.000 F 
ATOM     59  C41 UNL A   1      13.117  35.559  54.683  1.00  0.00    +0.000 C 
ATOM     60  F12 UNL A   1      13.328  34.499  55.475  1.00  0.00    +0.000 F 
ATOM     61  C42 UNL A   1      11.825  36.007  54.454  1.00  0.00    +0.000 C 
ATOM     62  F13 UNL A   1      10.787  35.393  55.037  1.00  0.00    +0.000 F 
ATOM     63  C43 UNL A   1      11.611  37.094  53.618  1.00  0.00    +0.000 C 
ATOM     64  F14 UNL A   1      10.365  37.539  53.406  1.00  0.00    +0.000 F 
ENDBRANCH   55   56
TORSDOF 19
ENDMDL
MODEL 10
REMARK VINA RESULT:      -9.1      4.630     10.461
ROOT
ATOM     19  C15 UNL A   1      12.158  10.698  19.786  1.00  0.00    +0.000 C 
ATOM     20  C16 UNL A   1      11.865  11.011  21.224  1.00  0.00    +0.000 C 
ATOM     21  N3  UNL A   1      11.521  12.147  21.773  1.00  0.00    +0.000 N 
ATOM     22  C17 UNL A   1      11.289  11.860  23.112  1.00  0.00    +0.000 C 
ATOM     23  C18 UNL A   1      10.945  12.710  24.108  1.00  0.00    +0.000 C 
ATOM     35  C25 UNL A   1      10.784  14.129  23.938  1.00  0.00    +0.000 C 
ATOM     36  C26 UNL A   1      10.509  15.088  24.898  1.00  0.00    +0.000 C 
ATOM     37  C27 UNL A   1      10.411  16.329  24.258  1.00  0.00    +0.000 C 
ATOM     38  C28 UNL A   1      10.665  16.148  22.907  1.00  0.00    +0.000 C 
ATOM     39  N4  UNL A   1      10.888  14.794  22.725  1.00  0.00    +0.000 N 
ATOM     40  C29 UNL A   1      10.703  17.138  21.861  1.00  0.00    +0.000 C 
ATOM     52  C36 UNL A   1      10.956  16.886  20.554  1.00  0.00    +0.000 C 
ATOM     53  N5  UNL A   1      11.245  15.673  19.942  1.00  0.00    +0.000 N 
ATOM     54  C37 UNL A   1      11.421  15.944  18.671  1.00  0.00    +0.000 C 
ATOM     55  C38 UNL A   1      11.777  15.010  17.548  1.00  0.00    +0.000 C 
ATOM     67  C45 UNL A   1      12.038  13.717  17.819  1.00  0.00    +0.000 C 
ATOM     68  C46 UNL A   1      12.375  12.696  16.831  1.00  0.00    +0.000 C 
ATOM     69  C47 UNL A   1      12.453  11.503  17.443  1.00  0.00    +0.000 C 
ATOM     70  C48 UNL A   1      12.212  11.685  18.874  1.00  0.00    +0.000 C 
ATOM     71  N6  UNL A   1      12.031  13.040  19.014  1.00  0.00    +0.000 N 
ATOM     72  C49 UNL A   1      11.229  17.359  18.327  1.00  0.00    +0.000 C 
ATOM     73  C50 UNL A   1      10.974  17.894  19.514  1.00  0.00    +0.000 C 
ATOM     74  C51 UNL A   1      11.496  10.438  23.283  1.00  0.00    +0.000 C 
ATOM     75  C52 UNL A   1      11.927   9.880  22.162  1.00  0.00    +0.000 C 
ATOM    112  H21 UNL A   1      10.398  14.918  25.909  1.00  0.00    +0.000 H 
ATOM    113  H22 UNL A   1      10.185  17.226  24.714  1.00  0.00    +0.000 H 
ATOM    114  H23 UNL A   1      11.090  14.364  21.861  1.00  0.00    +0.000 H 
ATOM    115  H24 UNL A   1      12.529  12.863  15.824  1.00  0.00    +0.000 H 
ATOM    116  H25 UNL A   1      12.652  10.603  16.979  1.00  0.00    +0.000 H 
ATOM    117  H26 UNL A   1      11.907  13.482  19.885  1.00  0.00    +0.000 H 
ATOM    118  H27 UNL A   1      11.281  17.818  17.404  1.00  0.00    +0.000 H 
ATOM    119  H28 UNL A   1      10.810  18.899  19.676  1.00  0.00    +0.000 H 
ATOM    120  H29 UNL A   1      11.330   9.926  24.165  1.00  0.00    +0.000 H 
ATOM    121  H30 UNL A   1      12.227   8.907  21.992  1.00  0.00    +0.000 H 
ENDROOT
BRANCH   19   18
ATOM     76  C53 UNL A   1      11.091   8.601  18.992  1.00  0.00    +0.000 C 
ATOM     77  C54 UNL A   1      11.142   7.267  18.607  1.00  0.00    +0.000 C 
ATOM    110  H19 UNL A   1      14.459   6.787  18.844  1.00  0.00    +0.000 H 
ATOM     15  C11 UNL A   1      12.380   6.628  18.494  1.00  0.00    +0.000 C 
ATOM     16  C12 UNL A   1      13.553   7.281  18.884  1.00  0.00    +0.000 C 
ATOM     17  C13 UNL A   1      13.492   8.603  19.331  1.00  0.00    +0.000 C 
ATOM    111  H20 UNL A   1      14.352   9.081  19.640  1.00  0.00    +0.000 H 
ATOM     18  C14 UNL A   1      12.264   9.281  19.357  1.00  0.00    +0.000 C 
ATOM    122  H31 UNL A   1      10.184   9.095  19.011  1.00  0.00    +0.000 H 
ATOM    123  H32 UNL A   1      10.271   6.751  18.404  1.00  0.00    +0.000 H 
BRANCH   15   13
ATOM     13  C10 UNL A   1      12.464   5.262  17.937  1.00  0.00    +0.000 C 
ATOM     14  O2  UNL A   1      12.561   5.100  16.725  1.00  0.00    +0.000 O 
BRANCH   13   12
ATOM     12  N2  UNL A   1      12.413   4.187  18.789  1.00  0.00    +0.000 N 
ATOM    109  H18 UNL A   1      13.266   3.932  19.212  1.00  0.00    +0.000 H 
BRANCH   12   11
ATOM     11  C9  UNL A   1      11.262   3.373  19.149  1.00  0.00    +0.000 C 
ATOM    108  H17 UNL A   1      11.525   2.348  18.991  1.00  0.00    +0.000 H 
ATOM    107  H16 UNL A   1      10.432   3.661  18.537  1.00  0.00    +0.000 H 
BRANCH   11   10
ATOM    105  H14 UNL A   1      11.470   4.314  21.034  1.00  0.00    +0.000 H 
ATOM     10  C8  UNL A   1      10.871   3.534  20.613  1.00  0.00    +0.000 C 
ATOM    106  H15 UNL A   1       9.824   3.755  20.624  1.00  0.00    +0.000 H 
BRANCH   10    9
ATOM      9  C7  UNL A   1      11.058   2.277  21.464  1.00  0.00    +0.000 C 
ATOM    103  H12 UNL A   1      10.850   2.532  22.482  1.00  0.00    +0.000 H 
ATOM    104  H13 UNL A   1      10.389   1.544  21.064  1.00  0.00    +0.000 H 
BRANCH    9    8
ATOM    101  H10 UNL A   1      12.457   0.920  20.627  1.00  0.00    +0.000 H 
ATOM    102  H11 UNL A   1      13.132   2.465  21.232  1.00  0.00    +0.000 H 
ATOM      8  C6  UNL A   1      12.456   1.655  21.404  1.00  0.00    +0.000 C 
BRANCH    8    7
ATOM     99  H8  UNL A   1      13.998   0.906  22.667  1.00  0.00    +0.000 H 
ATOM    100  H9  UNL A   1      12.575   1.580  23.508  1.00  0.00    +0.000 H 
ATOM      7  C5  UNL A   1      12.931   0.976  22.698  1.00  0.00    +0.000 C 
BRANCH    7    6
ATOM     97  H6  UNL A   1      12.034  -0.828  21.982  1.00  0.00    +0.000 H 
ATOM     98  H7  UNL A   1      13.134  -1.051  23.333  1.00  0.00    +0.000 H 
ATOM      6  C4  UNL A   1      12.365  -0.431  22.920  1.00  0.00    +0.000 C 
BRANCH    6    5
ATOM      5  N1  UNL A   1      11.248  -0.393  23.842  1.00  0.00    +0.000 N 
ATOM     96  H5  UNL A   1      10.369  -0.210  23.440  1.00  0.00    +0.000 H 
BRANCH    5    3
ATOM      3  C3  UNL A   1      11.255  -0.576  25.196  1.00  0.00    +0.000 C 
ATOM      4  O1  UNL A   1      11.133  -1.736  25.598  1.00  0.00    +0.000 O 
BRANCH    3    2
ATOM      2  C2  UNL A   1      11.340   0.643  26.141  1.00  0.00    +0.000 C 
ATOM     95  H4  UNL A   1      10.848   0.414  27.064  1.00  0.00    +0.000 H 
BRANCH    2    1
ATOM      1  C1  UNL A   1      10.601   1.834  25.520  1.00  0.00    +0.000 C 
ATOM     92  H1  UNL A   1      11.284   2.407  24.929  1.00  0.00    +0.000 H 
ATOM     93  H2  UNL A   1      10.200   2.449  26.298  1.00  0.00    +0.000 H 
ATOM     94  H3  UNL A   1       9.806   1.477  24.901  1.00  0.00    +0.000 H 
ENDBRANCH    2    1
BRANCH    2   78
ATOM    132  H41 UNL A   1      12.340   2.876  27.293  1.00  0.00    +0.000 H 
ATOM     78  C55 UNL A   1      12.794   0.955  26.532  1.00  0.00    +0.000 C 
ATOM     79  C56 UNL A   1      13.860   0.077  26.280  1.00  0.00    +0.000 C 
ATOM     80  C57 UNL A   1      15.154   0.372  26.716  1.00  0.00    +0.000 C 
ATOM     81  C58 UNL A   1      15.403   1.542  27.429  1.00  0.00    +0.000 C 
ATOM     82  C59 UNL A   1      14.367   2.445  27.681  1.00  0.00    +0.000 C 
ATOM     91  C67 UNL A   1      13.085   2.171  27.182  1.00  0.00    +0.000 C 
ATOM    124  H33 UNL A   1      13.685  -0.800  25.765  1.00  0.00    +0.000 H 
ATOM    125  H34 UNL A   1      15.927  -0.280  26.511  1.00  0.00    +0.000 H 
ATOM    126  H35 UNL A   1      16.355   1.743  27.772  1.00  0.00    +0.000 H 
BRANCH   82   83
ATOM     83  C60 UNL A   1      14.681   3.679  28.455  1.00  0.00    +0.000 C 
ATOM     84  O3  UNL A   1      15.467   4.504  27.990  1.00  0.00    +0.000 O 
BRANCH   83   85
ATOM    129  H38 UNL A   1      12.317   4.834  33.063  1.00  0.00    +0.000 H 
ATOM    130  H39 UNL A   1      13.804   2.922  32.938  1.00  0.00    +0.000 H 
ATOM    131  H40 UNL A   1      14.926   2.385  30.850  1.00  0.00    +0.000 H 
ATOM     85  C61 UNL A   1      14.052   3.976  29.765  1.00  0.00    +0.000 C 
ATOM     86  C62 UNL A   1      13.222   5.101  29.851  1.00  0.00    +0.000 C 
ATOM     87  C63 UNL A   1      12.590   5.412  31.054  1.00  0.00    +0.000 C 
ATOM     88  C64 UNL A   1      12.796   4.611  32.177  1.00  0.00    +0.000 C 
ATOM     89  C65 UNL A   1      13.647   3.507  32.103  1.00  0.00    +0.000 C 
ATOM     90  C66 UNL A   1      14.285   3.192  30.901  1.00  0.00    +0.000 C 
ATOM    127  H36 UNL A   1      13.078   5.700  29.023  1.00  0.00    +0.000 H 
ATOM    128  H37 UNL A   1      11.969   6.235  31.114  1.00  0.00    +0.000 H 
ENDBRANCH   83   85
ENDBRANCH   82   83
ENDBRANCH    2   78
ENDBRANCH    3    2
ENDBRANCH    5    3
ENDBRANCH    6    5
ENDBRANCH    7    6
ENDBRANCH    8    7
ENDBRANCH    9    8
ENDBRANCH   10    9
ENDBRANCH   11   10
ENDBRANCH   12   11
ENDBRANCH   13   12
ENDBRANCH   15   13
ENDBRANCH   19   18
BRANCH   23   24
ATOM     33  C24 UNL A   1      11.776  11.965  26.367  1.00  0.00    +0.000 C 
ATOM     34  F5  UNL A   1      13.015  12.341  26.019  1.00  0.00    +0.000 F 
ATOM     24  C19 UNL A   1      10.709  12.118  25.466  1.00  0.00    +0.000 C 
ATOM     25  C20 UNL A   1       9.435  11.702  25.881  1.00  0.00    +0.000 C 
ATOM     26  F1  UNL A   1       8.381  11.840  25.063  1.00  0.00    +0.000 F 
ATOM     27  C21 UNL A   1       9.229  11.192  27.161  1.00  0.00    +0.000 C 
ATOM     28  F2  UNL A   1       7.992  10.860  27.556  1.00  0.00    +0.000 F 
ATOM     29  C22 UNL A   1      10.298  11.051  28.034  1.00  0.00    +0.000 C 
ATOM     30  F3  UNL A   1      10.097  10.563  29.266  1.00  0.00    +0.000 F 
ATOM     31  C23 UNL A   1      11.571  11.425  27.635  1.00  0.00    +0.000 C 
ATOM     32  F4  UNL A   1      12.606  11.279  28.473  1.00  0.00    +0.000 F 
ENDBRANCH   23   24
BRANCH   40   41
ATOM     41  C30 UNL A   1      10.467  18.565  22.259  1.00  0.00    +0.000 C 
ATOM     42  C31 UNL A   1      11.527  19.419  22.590  1.00  0.00    +0.000 C 
ATOM     43  F6  UNL A   1      12.782  18.948  22.648  1.00  0.00    +0.000 F 
ATOM     44  C32 UNL A   1      11.297  20.762  22.880  1.00  0.00    +0.000 C 
ATOM     45  F7  UNL A   1      12.320  21.558  23.216  1.00  0.00    +0.000 F 
ATOM     46  C33 UNL A   1      10.010  21.276  22.821  1.00  0.00    +0.000 C 
ATOM     47  F8  UNL A   1       9.792  22.572  23.084  1.00  0.00    +0.000 F 
ATOM     48  C34 UNL A   1       8.947  20.447  22.493  1.00  0.00    +0.000 C 
ATOM     49  F9  UNL A   1       7.704  20.945  22.426  1.00  0.00    +0.000 F 
ATOM     50  C35 UNL A   1       9.171  19.101  22.225  1.00  0.00    +0.000 C 
ATOM     51  F10 UNL A   1       8.126  18.322  21.908  1.00  0.00    +0.000 F 
ENDBRANCH   40   41
BRANCH   55   56
ATOM     65  C44 UNL A   1      10.742  15.545  15.316  1.00  0.00    +0.000 C 
ATOM     66  F15 UNL A   1       9.540  15.188  15.791  1.00  0.00    +0.000 F 
ATOM     56  C39 UNL A   1      11.870  15.493  16.147  1.00  0.00    +0.000 C 
ATOM     57  C40 UNL A   1      13.104  15.867  15.600  1.00  0.00    +0.000 C 
ATOM     58  F11 UNL A   1      14.207  15.849  16.364  1.00  0.00    +0.000 F 
ATOM     59  C41 UNL A   1      13.207  16.282  14.275  1.00  0.00    +0.000 C 
ATOM     60  F12 UNL A   1      14.396  16.658  13.783  1.00  0.00    +0.000 F 
ATOM     61  C42 UNL A   1      12.081  16.311  13.465  1.00  0.00    +0.000 C 
ATOM     62  F13 UNL A   1      12.184  16.694  12.185  1.00  0.00    +0.000 F 
ATOM     63  C43 UNL A   1      10.850  15.939  13.984  1.00  0.00    +0.000 C 
ATOM     64  F14 UNL A   1       9.763  15.950  13.201  1.00  0.00    +0.000 F 
ENDBRANCH   55   56
TORSDOF 19
ENDMDL
