MODEL 1
REMARK VINA RESULT:      -8.4      0.000      0.000
ROOT
ATOM    129  H31 UNL A   1      27.241 -12.125  27.609  1.00  0.00    +0.000 H 
ATOM    130  H32 UNL A   1      29.179 -13.553  28.424  1.00  0.00    +0.000 H 
ATOM    131  H33 UNL A   1      26.835 -12.587  31.720  1.00  0.00    +0.000 H 
ATOM    132  H34 UNL A   1      23.006  -9.851  29.909  1.00  0.00    +0.000 H 
ATOM    133  H35 UNL A   1      22.125  -9.707  32.310  1.00  0.00    +0.000 H 
ATOM    134  H36 UNL A   1      29.800 -15.334  35.532  1.00  0.00    +0.000 H 
ATOM    135  H37 UNL A   1      30.793 -15.353  33.170  1.00  0.00    +0.000 H 
ATOM     40  C27 UNL A   1      29.164 -14.050  31.232  1.00  0.00    +0.000 C 
ATOM     41  C28 UNL A   1      28.915 -14.169  32.706  1.00  0.00    +0.000 C 
ATOM     42  N5  UNL A   1      27.916 -13.706  33.415  1.00  0.00    +0.000 N 
ATOM     43  C29 UNL A   1      28.147 -14.127  34.716  1.00  0.00    +0.000 C 
ATOM     44  C30 UNL A   1      27.398 -13.905  35.821  1.00  0.00    +0.000 C 
ATOM     56  C37 UNL A   1      26.188 -13.129  35.856  1.00  0.00    +0.000 C 
ATOM     57  C38 UNL A   1      25.384 -12.827  36.943  1.00  0.00    +0.000 C 
ATOM     58  C39 UNL A   1      24.315 -12.042  36.493  1.00  0.00    +0.000 C 
ATOM     59  C40 UNL A   1      24.462 -11.848  35.131  1.00  0.00    +0.000 C 
ATOM     60  N6  UNL A   1      25.612 -12.521  34.752  1.00  0.00    +0.000 N 
ATOM     61  C41 UNL A   1      23.620 -11.104  34.233  1.00  0.00    +0.000 C 
ATOM     73  C48 UNL A   1      23.831 -10.968  32.903  1.00  0.00    +0.000 C 
ATOM     74  N7  UNL A   1      24.858 -11.489  32.130  1.00  0.00    +0.000 N 
ATOM     75  C49 UNL A   1      24.623 -11.091  30.906  1.00  0.00    +0.000 C 
ATOM     76  C50 UNL A   1      25.410 -11.361  29.658  1.00  0.00    +0.000 C 
ATOM     88  C57 UNL A   1      26.547 -12.078  29.722  1.00  0.00    +0.000 C 
ATOM     89  C58 UNL A   1      27.401 -12.416  28.586  1.00  0.00    +0.000 C 
ATOM     90  C59 UNL A   1      28.428 -13.166  29.017  1.00  0.00    +0.000 C 
ATOM     91  C60 UNL A   1      28.311 -13.346  30.464  1.00  0.00    +0.000 C 
ATOM     92  N8  UNL A   1      27.171 -12.658  30.798  1.00  0.00    +0.000 N 
ATOM     93  C61 UNL A   1      23.409 -10.273  30.760  1.00  0.00    +0.000 C 
ATOM     94  C62 UNL A   1      22.971 -10.218  32.011  1.00  0.00    +0.000 C 
ATOM     95  C63 UNL A   1      29.385 -14.882  34.702  1.00  0.00    +0.000 C 
ATOM     96  C64 UNL A   1      29.912 -14.916  33.485  1.00  0.00    +0.000 C 
ATOM    126  H28 UNL A   1      25.544 -13.130  37.916  1.00  0.00    +0.000 H 
ATOM    127  H29 UNL A   1      23.549 -11.671  37.078  1.00  0.00    +0.000 H 
ATOM    128  H30 UNL A   1      25.967 -12.563  33.835  1.00  0.00    +0.000 H 
ENDROOT
BRANCH   40   39
ATOM     97  C65 UNL A   1      30.199 -16.033  30.108  1.00  0.00    +0.000 C 
ATOM     98  C66 UNL A   1      31.287 -16.668  29.503  1.00  0.00    +0.000 C 
ATOM     36  C23 UNL A   1      32.498 -15.984  29.347  1.00  0.00    +0.000 C 
ATOM     37  C24 UNL A   1      32.639 -14.693  29.867  1.00  0.00    +0.000 C 
ATOM     38  C25 UNL A   1      31.559 -14.066  30.494  1.00  0.00    +0.000 C 
ATOM     39  C26 UNL A   1      30.326 -14.725  30.605  1.00  0.00    +0.000 C 
ATOM    136  H38 UNL A   1      29.297 -16.526  30.190  1.00  0.00    +0.000 H 
ATOM    137  H39 UNL A   1      31.198 -17.642  29.172  1.00  0.00    +0.000 H 
ATOM    124  H26 UNL A   1      33.543 -14.202  29.787  1.00  0.00    +0.000 H 
ATOM    125  H27 UNL A   1      31.670 -13.114  30.877  1.00  0.00    +0.000 H 
BRANCH   36   34
ATOM     34  C22 UNL A   1      33.677 -16.611  28.707  1.00  0.00    +0.000 C 
ATOM     35  O6  UNL A   1      34.559 -17.087  29.417  1.00  0.00    +0.000 O 
BRANCH   34   33
ATOM     33  N4  UNL A   1      33.812 -16.646  27.342  1.00  0.00    +0.000 N 
ATOM    123  H25 UNL A   1      33.590 -15.804  26.882  1.00  0.00    +0.000 H 
BRANCH   33   32
ATOM    121  H23 UNL A   1      34.836 -18.406  27.031  1.00  0.00    +0.000 H 
ATOM    122  H24 UNL A   1      33.347 -18.199  26.094  1.00  0.00    +0.000 H 
ATOM     32  C21 UNL A   1      34.230 -17.727  26.468  1.00  0.00    +0.000 C 
BRANCH   32   31
ATOM    119  H21 UNL A   1      35.517 -18.089  24.828  1.00  0.00    +0.000 H 
ATOM     31  C20 UNL A   1      35.037 -17.238  25.263  1.00  0.00    +0.000 C 
ATOM    120  H22 UNL A   1      34.326 -16.752  24.628  1.00  0.00    +0.000 H 
BRANCH   31   30
ATOM    118  H20 UNL A   1      37.021 -16.586  25.127  1.00  0.00    +0.000 H 
ATOM    117  H19 UNL A   1      36.150 -16.014  26.594  1.00  0.00    +0.000 H 
ATOM     30  C19 UNL A   1      36.120 -16.182  25.538  1.00  0.00    +0.000 C 
BRANCH   30   29
ATOM    115  H17 UNL A   1      36.881 -14.326  24.842  1.00  0.00    +0.000 H 
ATOM    116  H18 UNL A   1      35.550 -15.028  23.878  1.00  0.00    +0.000 H 
ATOM     29  C18 UNL A   1      35.934 -14.824  24.855  1.00  0.00    +0.000 C 
BRANCH   29   28
ATOM    113  H15 UNL A   1      34.841 -14.187  26.559  1.00  0.00    +0.000 H 
ATOM    114  H16 UNL A   1      35.285 -12.903  25.399  1.00  0.00    +0.000 H 
ATOM     28  C17 UNL A   1      34.920 -13.900  25.531  1.00  0.00    +0.000 C 
BRANCH   28   27
ATOM     27  C16 UNL A   1      33.512 -13.930  24.918  1.00  0.00    +0.000 C 
ATOM    111  H13 UNL A   1      33.582 -13.839  23.854  1.00  0.00    +0.000 H 
ATOM    112  H14 UNL A   1      33.033 -14.855  25.160  1.00  0.00    +0.000 H 
BRANCH   27   26
ATOM     26  N3  UNL A   1      32.736 -12.821  25.453  1.00  0.00    +0.000 N 
ATOM    110  H12 UNL A   1      33.120 -11.932  25.275  1.00  0.00    +0.000 H 
BRANCH   26   24
ATOM     25  O5  UNL A   1      31.244 -13.777  26.836  1.00  0.00    +0.000 O 
ATOM     24  C15 UNL A   1      31.565 -12.799  26.161  1.00  0.00    +0.000 C 
BRANCH   24   23
ATOM    103  H5  UNL A   1      29.435  -8.703  26.894  1.00  0.00    +0.000 H 
ATOM      8  C3  UNL A   1      30.512 -10.513  26.669  1.00  0.00    +0.000 C 
ATOM      9  C4  UNL A   1      29.420  -9.648  26.477  1.00  0.00    +0.000 C 
ATOM     10  C5  UNL A   1      28.314 -10.058  25.726  1.00  0.00    +0.000 C 
ATOM    104  H6  UNL A   1      27.510  -9.422  25.611  1.00  0.00    +0.000 H 
ATOM     11  C6  UNL A   1      28.292 -11.324  25.133  1.00  0.00    +0.000 C 
ATOM    109  H11 UNL A   1      29.465 -13.027  24.730  1.00  0.00    +0.000 H 
ATOM     22  C13 UNL A   1      29.438 -12.125  25.231  1.00  0.00    +0.000 C 
ATOM     23  C14 UNL A   1      30.556 -11.734  25.998  1.00  0.00    +0.000 C 
BRANCH    8    5
ATOM      5  S1  UNL A   1      31.689 -10.079  27.910  1.00  0.00    +0.000 S 
ATOM      6  O2  UNL A   1      32.957  -9.913  27.233  1.00  0.00    +0.000 O 
ATOM      7  O3  UNL A   1      31.546 -10.942  29.055  1.00  0.00    +0.000 O 
BRANCH    5    4
ATOM      4  N1  UNL A   1      31.231  -8.559  28.391  1.00  0.00    +0.000 N 
ATOM    102  H4  UNL A   1      30.416  -8.201  27.971  1.00  0.00    +0.000 H 
BRANCH    4    2
ATOM      2  C2  UNL A   1      31.861  -7.721  29.321  1.00  0.00    +0.000 C 
ATOM      3  O1  UNL A   1      31.465  -7.740  30.479  1.00  0.00    +0.000 O 
BRANCH    2    1
ATOM      1  C1  UNL A   1      33.087  -6.956  28.911  1.00  0.00    +0.000 C 
ATOM     99  H1  UNL A   1      33.959  -7.460  29.271  1.00  0.00    +0.000 H 
ATOM    100  H2  UNL A   1      33.048  -5.971  29.324  1.00  0.00    +0.000 H 
ATOM    101  H3  UNL A   1      33.128  -6.894  27.843  1.00  0.00    +0.000 H 
ENDBRANCH    2    1
ENDBRANCH    4    2
ENDBRANCH    5    4
ENDBRANCH    8    5
BRANCH   11   12
ATOM    105  H7  UNL A   1      26.776 -13.468  25.999  1.00  0.00    +0.000 H 
ATOM    106  H8  UNL A   1      24.718 -14.243  25.163  1.00  0.00    +0.000 H 
ATOM    108  H10 UNL A   1      26.965 -10.526  23.011  1.00  0.00    +0.000 H 
ATOM     12  C7  UNL A   1      27.043 -11.882  24.557  1.00  0.00    +0.000 C 
ATOM     13  C8  UNL A   1      26.355 -13.005  25.178  1.00  0.00    +0.000 C 
ATOM     14  C9  UNL A   1      25.187 -13.448  24.702  1.00  0.00    +0.000 C 
ATOM     15  N2  UNL A   1      24.598 -12.856  23.603  1.00  0.00    +0.000 N 
ATOM     19  C11 UNL A   1      25.173 -11.785  22.940  1.00  0.00    +0.000 C 
ATOM     20  O4  UNL A   1      24.693 -11.199  21.975  1.00  0.00    +0.000 O 
ATOM     21  C12 UNL A   1      26.482 -11.310  23.477  1.00  0.00    +0.000 C 
BRANCH   15   16
ATOM     17  F1  UNL A   1      22.829 -14.295  23.927  1.00  0.00    +0.000 F 
ATOM     18  F2  UNL A   1      22.408 -12.295  23.129  1.00  0.00    +0.000 F 
ATOM    107  H9  UNL A   1      23.452 -13.668  22.139  1.00  0.00    +0.000 H 
ATOM     16  C10 UNL A   1      23.310 -13.305  23.136  1.00  0.00    +0.000 C 
ENDBRANCH   15   16
ENDBRANCH   11   12
ENDBRANCH   24   23
ENDBRANCH   26   24
ENDBRANCH   27   26
ENDBRANCH   28   27
ENDBRANCH   29   28
ENDBRANCH   30   29
ENDBRANCH   31   30
ENDBRANCH   32   31
ENDBRANCH   33   32
ENDBRANCH   34   33
ENDBRANCH   36   34
ENDBRANCH   40   39
BRANCH   44   45
ATOM     45  C31 UNL A   1      27.865 -14.528  37.098  1.00  0.00    +0.000 C 
ATOM     46  C32 UNL A   1      28.822 -13.899  37.905  1.00  0.00    +0.000 C 
ATOM     47  F3  UNL A   1      29.374 -12.740  37.519  1.00  0.00    +0.000 F 
ATOM     48  C33 UNL A   1      29.229 -14.475  39.106  1.00  0.00    +0.000 C 
ATOM     49  F4  UNL A   1      30.159 -13.869  39.856  1.00  0.00    +0.000 F 
ATOM     50  C34 UNL A   1      28.677 -15.678  39.523  1.00  0.00    +0.000 C 
ATOM     51  F5  UNL A   1      29.068 -16.230  40.679  1.00  0.00    +0.000 F 
ATOM     52  C35 UNL A   1      27.724 -16.311  38.739  1.00  0.00    +0.000 C 
ATOM     53  F6  UNL A   1      27.191 -17.474  39.142  1.00  0.00    +0.000 F 
ATOM     54  C36 UNL A   1      27.322 -15.744  37.533  1.00  0.00    +0.000 C 
ATOM     55  F7  UNL A   1      26.404 -16.379  36.790  1.00  0.00    +0.000 F 
ENDBRANCH   44   45
BRANCH   61   62
ATOM     65  C44 UNL A   1      20.071 -10.441  35.419  1.00  0.00    +0.000 C 
ATOM     66  F9  UNL A   1      18.888 -11.070  35.450  1.00  0.00    +0.000 F 
ATOM     67  C45 UNL A   1      20.186  -9.157  35.935  1.00  0.00    +0.000 C 
ATOM     68  F10 UNL A   1      19.116  -8.551  36.469  1.00  0.00    +0.000 F 
ATOM     69  C46 UNL A   1      21.406  -8.499  35.889  1.00  0.00    +0.000 C 
ATOM     70  F11 UNL A   1      21.516  -7.259  36.382  1.00  0.00    +0.000 F 
ATOM     71  C47 UNL A   1      22.515  -9.124  35.326  1.00  0.00    +0.000 C 
ATOM     72  F12 UNL A   1      23.682  -8.465  35.285  1.00  0.00    +0.000 F 
ATOM     62  C42 UNL A   1      22.419 -10.421  34.805  1.00  0.00    +0.000 C 
ATOM     63  C43 UNL A   1      21.178 -11.071  34.862  1.00  0.00    +0.000 C 
ATOM     64  F8  UNL A   1      21.041 -12.307  34.361  1.00  0.00    +0.000 F 
ENDBRANCH   61   62
BRANCH   76   77
ATOM     77  C51 UNL A   1      24.955 -10.836  28.352  1.00  0.00    +0.000 C 
ATOM     78  C52 UNL A   1      23.898 -11.446  27.664  1.00  0.00    +0.000 C 
ATOM     79  F13 UNL A   1      23.311 -12.538  28.174  1.00  0.00    +0.000 F 
ATOM     80  C53 UNL A   1      23.459 -10.947  26.442  1.00  0.00    +0.000 C 
ATOM     81  F14 UNL A   1      22.457 -11.556  25.792  1.00  0.00    +0.000 F 
ATOM     82  C54 UNL A   1      24.062  -9.826  25.891  1.00  0.00    +0.000 C 
ATOM     83  F15 UNL A   1      23.637  -9.345  24.714  1.00  0.00    +0.000 F 
ATOM     84  C55 UNL A   1      25.109  -9.206  26.558  1.00  0.00    +0.000 C 
ATOM     85  F16 UNL A   1      25.692  -8.122  26.029  1.00  0.00    +0.000 F 
ATOM     86  C56 UNL A   1      25.556  -9.709  27.776  1.00  0.00    +0.000 C 
ATOM     87  F17 UNL A   1      26.573  -9.098  28.402  1.00  0.00    +0.000 F 
ENDBRANCH   76   77
TORSDOF 21
ENDMDL
MODEL 2
REMARK VINA RESULT:      -8.2     42.450     48.813
ROOT
ATOM    129  H31 UNL A   1      47.664  30.021  26.326  1.00  0.00    +0.000 H 
ATOM    130  H32 UNL A   1      46.863  32.122  27.511  1.00  0.00    +0.000 H 
ATOM    131  H33 UNL A   1      43.882  29.246  27.866  1.00  0.00    +0.000 H 
ATOM    132  H34 UNL A   1      45.674  25.138  25.556  1.00  0.00    +0.000 H 
ATOM    133  H35 UNL A   1      43.483  23.969  26.187  1.00  0.00    +0.000 H 
ATOM    134  H36 UNL A   1      40.314  32.285  30.850  1.00  0.00    +0.000 H 
ATOM    135  H37 UNL A   1      42.420  33.529  30.089  1.00  0.00    +0.000 H 
ATOM     40  C27 UNL A   1      44.275  31.888  28.684  1.00  0.00    +0.000 C 
ATOM     41  C28 UNL A   1      42.926  31.500  29.212  1.00  0.00    +0.000 C 
ATOM     42  N5  UNL A   1      42.313  30.345  29.141  1.00  0.00    +0.000 N 
ATOM     43  C29 UNL A   1      41.115  30.510  29.820  1.00  0.00    +0.000 C 
ATOM     44  C30 UNL A   1      40.130  29.605  30.029  1.00  0.00    +0.000 C 
ATOM     56  C37 UNL A   1      40.133  28.254  29.534  1.00  0.00    +0.000 C 
ATOM     57  C38 UNL A   1      39.158  27.280  29.673  1.00  0.00    +0.000 C 
ATOM     58  C39 UNL A   1      39.600  26.121  29.021  1.00  0.00    +0.000 C 
ATOM     59  C40 UNL A   1      40.843  26.381  28.470  1.00  0.00    +0.000 C 
ATOM     60  N6  UNL A   1      41.159  27.690  28.793  1.00  0.00    +0.000 N 
ATOM     61  C41 UNL A   1      41.687  25.505  27.703  1.00  0.00    +0.000 C 
ATOM     73  C48 UNL A   1      42.900  25.835  27.202  1.00  0.00    +0.000 C 
ATOM     74  N7  UNL A   1      43.582  27.038  27.306  1.00  0.00    +0.000 N 
ATOM     75  C49 UNL A   1      44.712  26.865  26.669  1.00  0.00    +0.000 C 
ATOM     76  C50 UNL A   1      45.837  27.836  26.464  1.00  0.00    +0.000 C 
ATOM     88  C57 UNL A   1      45.740  29.089  26.941  1.00  0.00    +0.000 C 
ATOM     89  C58 UNL A   1      46.761  30.126  26.814  1.00  0.00    +0.000 C 
ATOM     90  C59 UNL A   1      46.336  31.239  27.436  1.00  0.00    +0.000 C 
ATOM     91  C60 UNL A   1      45.005  30.995  27.989  1.00  0.00    +0.000 C 
ATOM     92  N8  UNL A   1      44.726  29.697  27.639  1.00  0.00    +0.000 N 
ATOM     93  C61 UNL A   1      44.880  25.523  26.090  1.00  0.00    +0.000 C 
ATOM     94  C62 UNL A   1      43.739  24.939  26.434  1.00  0.00    +0.000 C 
ATOM     95  C63 UNL A   1      41.083  31.879  30.295  1.00  0.00    +0.000 C 
ATOM     96  C64 UNL A   1      42.171  32.541  29.923  1.00  0.00    +0.000 C 
ATOM    126  H28 UNL A   1      38.261  27.388  30.171  1.00  0.00    +0.000 H 
ATOM    127  H29 UNL A   1      39.087  25.227  28.963  1.00  0.00    +0.000 H 
ATOM    128  H30 UNL A   1      41.989  28.152  28.536  1.00  0.00    +0.000 H 
ENDROOT
BRANCH   40   39
ATOM     97  C65 UNL A   1      45.674  33.456  30.046  1.00  0.00    +0.000 C 
ATOM     98  C66 UNL A   1      46.209  34.724  30.288  1.00  0.00    +0.000 C 
ATOM     36  C23 UNL A   1      45.943  35.775  29.404  1.00  0.00    +0.000 C 
ATOM     37  C24 UNL A   1      45.078  35.574  28.323  1.00  0.00    +0.000 C 
ATOM     38  C25 UNL A   1      44.522  34.312  28.095  1.00  0.00    +0.000 C 
ATOM     39  C26 UNL A   1      44.828  33.240  28.945  1.00  0.00    +0.000 C 
ATOM    136  H38 UNL A   1      45.900  32.673  30.679  1.00  0.00    +0.000 H 
ATOM    137  H39 UNL A   1      46.801  34.884  31.119  1.00  0.00    +0.000 H 
ATOM    124  H26 UNL A   1      44.851  36.358  27.693  1.00  0.00    +0.000 H 
ATOM    125  H27 UNL A   1      43.883  34.169  27.297  1.00  0.00    +0.000 H 
BRANCH   36   34
ATOM     34  C22 UNL A   1      46.492  37.135  29.613  1.00  0.00    +0.000 C 
ATOM     35  O6  UNL A   1      47.710  37.293  29.611  1.00  0.00    +0.000 O 
BRANCH   34   33
ATOM     33  N4  UNL A   1      45.668  38.209  29.835  1.00  0.00    +0.000 N 
ATOM    123  H25 UNL A   1      45.369  38.317  30.767  1.00  0.00    +0.000 H 
BRANCH   33   32
ATOM    121  H23 UNL A   1      45.612  40.154  29.159  1.00  0.00    +0.000 H 
ATOM    122  H24 UNL A   1      45.426  38.899  27.924  1.00  0.00    +0.000 H 
ATOM     32  C21 UNL A   1      45.168  39.213  28.913  1.00  0.00    +0.000 C 
BRANCH   32   31
ATOM    119  H21 UNL A   1      43.355  39.343  29.996  1.00  0.00    +0.000 H 
ATOM     31  C20 UNL A   1      43.645  39.363  28.967  1.00  0.00    +0.000 C 
ATOM    120  H22 UNL A   1      43.436  40.281  28.459  1.00  0.00    +0.000 H 
BRANCH   31   30
ATOM    118  H20 UNL A   1      42.043  38.018  28.910  1.00  0.00    +0.000 H 
ATOM    117  H19 UNL A   1      43.481  37.501  27.960  1.00  0.00    +0.000 H 
ATOM     30  C19 UNL A   1      42.819  38.298  28.229  1.00  0.00    +0.000 C 
BRANCH   30   29
ATOM    115  H17 UNL A   1      42.820  38.813  26.169  1.00  0.00    +0.000 H 
ATOM    116  H18 UNL A   1      41.328  38.037  26.773  1.00  0.00    +0.000 H 
ATOM     29  C18 UNL A   1      42.099  38.755  26.958  1.00  0.00    +0.000 C 
BRANCH   29   28
ATOM    113  H15 UNL A   1      40.351  39.944  27.141  1.00  0.00    +0.000 H 
ATOM    114  H16 UNL A   1      41.815  40.594  27.931  1.00  0.00    +0.000 H 
ATOM     28  C17 UNL A   1      41.404  40.113  27.068  1.00  0.00    +0.000 C 
BRANCH   28   27
ATOM     27  C16 UNL A   1      41.653  41.061  25.884  1.00  0.00    +0.000 C 
ATOM    111  H13 UNL A   1      40.995  40.810  25.079  1.00  0.00    +0.000 H 
ATOM    112  H14 UNL A   1      41.470  42.071  26.186  1.00  0.00    +0.000 H 
BRANCH   27   26
ATOM     26  N3  UNL A   1      43.035  40.923  25.447  1.00  0.00    +0.000 N 
ATOM    110  H12 UNL A   1      43.171  40.260  24.732  1.00  0.00    +0.000 H 
BRANCH   26   24
ATOM     25  O5  UNL A   1      44.112  42.426  26.724  1.00  0.00    +0.000 O 
ATOM     24  C15 UNL A   1      44.177  41.555  25.857  1.00  0.00    +0.000 C 
BRANCH   24   23
ATOM    103  H5  UNL A   1      47.543  42.362  22.715  1.00  0.00    +0.000 H 
ATOM      8  C3  UNL A   1      45.935  42.117  24.071  1.00  0.00    +0.000 C 
ATOM      9  C4  UNL A   1      47.150  41.764  23.459  1.00  0.00    +0.000 C 
ATOM     10  C5  UNL A   1      47.830  40.606  23.850  1.00  0.00    +0.000 C 
ATOM    104  H6  UNL A   1      48.709  40.344  23.378  1.00  0.00    +0.000 H 
ATOM     11  C6  UNL A   1      47.324  39.800  24.875  1.00  0.00    +0.000 C 
ATOM    109  H11 UNL A   1      45.841  39.690  26.368  1.00  0.00    +0.000 H 
ATOM     22  C13 UNL A   1      46.178  40.233  25.557  1.00  0.00    +0.000 C 
ATOM     23  C14 UNL A   1      45.471  41.389  25.166  1.00  0.00    +0.000 C 
BRANCH    8    5
ATOM      5  S1  UNL A   1      44.962  43.366  23.292  1.00  0.00    +0.000 S 
ATOM      6  O2  UNL A   1      44.893  44.473  24.221  1.00  0.00    +0.000 O 
ATOM      7  O3  UNL A   1      43.777  42.784  22.714  1.00  0.00    +0.000 O 
BRANCH    5    4
ATOM      4  N1  UNL A   1      45.905  43.890  22.033  1.00  0.00    +0.000 N 
ATOM    102  H4  UNL A   1      46.803  44.216  22.272  1.00  0.00    +0.000 H 
BRANCH    4    2
ATOM      2  C2  UNL A   1      45.583  43.926  20.669  1.00  0.00    +0.000 C 
ATOM      3  O1  UNL A   1      44.654  44.639  20.312  1.00  0.00    +0.000 O 
BRANCH    2    1
ATOM      1  C1  UNL A   1      46.473  43.225  19.683  1.00  0.00    +0.000 C 
ATOM     99  H1  UNL A   1      46.061  43.319  18.701  1.00  0.00    +0.000 H 
ATOM    100  H2  UNL A   1      46.546  42.190  19.942  1.00  0.00    +0.000 H 
ATOM    101  H3  UNL A   1      47.447  43.667  19.705  1.00  0.00    +0.000 H 
ENDBRANCH    2    1
ENDBRANCH    4    2
ENDBRANCH    5    4
ENDBRANCH    8    5
BRANCH   11   12
ATOM    105  H7  UNL A   1      46.197  37.693  26.266  1.00  0.00    +0.000 H 
ATOM    106  H8  UNL A   1      47.018  35.505  26.535  1.00  0.00    +0.000 H 
ATOM    108  H10 UNL A   1      49.636  38.801  24.131  1.00  0.00    +0.000 H 
ATOM     12  C7  UNL A   1      47.874  38.446  25.133  1.00  0.00    +0.000 C 
ATOM     13  C8  UNL A   1      47.113  37.441  25.862  1.00  0.00    +0.000 C 
ATOM     14  C9  UNL A   1      47.580  36.198  26.017  1.00  0.00    +0.000 C 
ATOM     15  N2  UNL A   1      48.802  35.829  25.494  1.00  0.00    +0.000 N 
ATOM     19  C11 UNL A   1      49.604  36.711  24.788  1.00  0.00    +0.000 C 
ATOM     20  O4  UNL A   1      50.686  36.442  24.277  1.00  0.00    +0.000 O 
ATOM     21  C12 UNL A   1      49.072  38.097  24.633  1.00  0.00    +0.000 C 
BRANCH   15   16
ATOM     17  F1  UNL A   1      50.182  34.362  26.611  1.00  0.00    +0.000 F 
ATOM     18  F2  UNL A   1      48.247  33.623  25.891  1.00  0.00    +0.000 F 
ATOM    107  H9  UNL A   1      49.711  34.209  24.680  1.00  0.00    +0.000 H 
ATOM     16  C10 UNL A   1      49.267  34.470  25.618  1.00  0.00    +0.000 C 
ENDBRANCH   15   16
ENDBRANCH   11   12
ENDBRANCH   24   23
ENDBRANCH   26   24
ENDBRANCH   27   26
ENDBRANCH   28   27
ENDBRANCH   29   28
ENDBRANCH   30   29
ENDBRANCH   31   30
ENDBRANCH   32   31
ENDBRANCH   33   32
ENDBRANCH   34   33
ENDBRANCH   36   34
ENDBRANCH   40   39
BRANCH   44   45
ATOM     45  C31 UNL A   1      38.960  30.047  30.847  1.00  0.00    +0.000 C 
ATOM     46  C32 UNL A   1      38.964  29.929  32.243  1.00  0.00    +0.000 C 
ATOM     47  F3  UNL A   1      40.009  29.370  32.871  1.00  0.00    +0.000 F 
ATOM     48  C33 UNL A   1      37.879  30.370  32.996  1.00  0.00    +0.000 C 
ATOM     49  F4  UNL A   1      37.891  30.233  34.330  1.00  0.00    +0.000 F 
ATOM     50  C34 UNL A   1      36.783  30.945  32.369  1.00  0.00    +0.000 C 
ATOM     51  F5  UNL A   1      35.741  31.371  33.096  1.00  0.00    +0.000 F 
ATOM     52  C35 UNL A   1      36.765  31.075  30.988  1.00  0.00    +0.000 C 
ATOM     53  F6  UNL A   1      35.706  31.631  30.382  1.00  0.00    +0.000 F 
ATOM     54  C36 UNL A   1      37.843  30.626  30.230  1.00  0.00    +0.000 C 
ATOM     55  F7  UNL A   1      37.799  30.756  28.896  1.00  0.00    +0.000 F 
ENDBRANCH   44   45
BRANCH   61   62
ATOM     65  C44 UNL A   1      41.312  21.723  27.790  1.00  0.00    +0.000 C 
ATOM     66  F9  UNL A   1      41.912  20.667  28.357  1.00  0.00    +0.000 F 
ATOM     67  C45 UNL A   1      40.217  21.534  26.957  1.00  0.00    +0.000 C 
ATOM     68  F10 UNL A   1      39.757  20.296  26.727  1.00  0.00    +0.000 F 
ATOM     69  C46 UNL A   1      39.606  22.625  26.357  1.00  0.00    +0.000 C 
ATOM     70  F11 UNL A   1      38.553  22.441  25.551  1.00  0.00    +0.000 F 
ATOM     71  C47 UNL A   1      40.089  23.910  26.588  1.00  0.00    +0.000 C 
ATOM     72  F12 UNL A   1      39.488  24.948  25.990  1.00  0.00    +0.000 F 
ATOM     62  C42 UNL A   1      41.191  24.120  27.428  1.00  0.00    +0.000 C 
ATOM     63  C43 UNL A   1      41.794  23.006  28.028  1.00  0.00    +0.000 C 
ATOM     64  F8  UNL A   1      42.859  23.164  28.827  1.00  0.00    +0.000 F 
ENDBRANCH   61   62
BRANCH   76   77
ATOM     77  C51 UNL A   1      47.056  27.431  25.728  1.00  0.00    +0.000 C 
ATOM     78  C52 UNL A   1      47.181  27.686  24.356  1.00  0.00    +0.000 C 
ATOM     79  F13 UNL A   1      46.176  28.273  23.691  1.00  0.00    +0.000 F 
ATOM     80  C53 UNL A   1      48.330  27.318  23.664  1.00  0.00    +0.000 C 
ATOM     81  F14 UNL A   1      48.423  27.556  22.348  1.00  0.00    +0.000 F 
ATOM     82  C54 UNL A   1      49.376  26.697  24.331  1.00  0.00    +0.000 C 
ATOM     83  F15 UNL A   1      50.484  26.345  23.664  1.00  0.00    +0.000 F 
ATOM     84  C55 UNL A   1      49.272  26.438  25.690  1.00  0.00    +0.000 C 
ATOM     85  F16 UNL A   1      50.281  25.840  26.338  1.00  0.00    +0.000 F 
ATOM     86  C56 UNL A   1      48.119  26.797  26.383  1.00  0.00    +0.000 C 
ATOM     87  F17 UNL A   1      48.036  26.532  27.695  1.00  0.00    +0.000 F 
ENDBRANCH   76   77
TORSDOF 21
ENDMDL
MODEL 3
REMARK VINA RESULT:      -8.2     48.963     54.391
ROOT
ATOM    129  H31 UNL A   1      21.663  39.387  51.947  1.00  0.00    +0.000 H 
ATOM    130  H32 UNL A   1      24.108  40.079  51.983  1.00  0.00    +0.000 H 
ATOM    131  H33 UNL A   1      23.646  37.187  49.032  1.00  0.00    +0.000 H 
ATOM    132  H34 UNL A   1      18.743  36.012  49.036  1.00  0.00    +0.000 H 
ATOM    133  H35 UNL A   1      19.252  34.376  47.131  1.00  0.00    +0.000 H 
ATOM    134  H36 UNL A   1      28.922  37.097  47.292  1.00  0.00    +0.000 H 
ATOM    135  H37 UNL A   1      28.474  38.614  49.307  1.00  0.00    +0.000 H 
ATOM     40  C27 UNL A   1      25.733  38.728  50.068  1.00  0.00    +0.000 C 
ATOM     41  C28 UNL A   1      26.347  37.899  48.979  1.00  0.00    +0.000 C 
ATOM     42  N5  UNL A   1      25.771  37.057  48.158  1.00  0.00    +0.000 N 
ATOM     43  C29 UNL A   1      26.778  36.590  47.327  1.00  0.00    +0.000 C 
ATOM     44  C30 UNL A   1      26.690  35.702  46.309  1.00  0.00    +0.000 C 
ATOM     56  C37 UNL A   1      25.487  35.024  45.908  1.00  0.00    +0.000 C 
ATOM     57  C38 UNL A   1      25.316  34.082  44.906  1.00  0.00    +0.000 C 
ATOM     58  C39 UNL A   1      23.969  33.703  44.885  1.00  0.00    +0.000 C 
ATOM     59  C40 UNL A   1      23.306  34.401  45.880  1.00  0.00    +0.000 C 
ATOM     60  N6  UNL A   1      24.246  35.208  46.498  1.00  0.00    +0.000 N 
ATOM     61  C41 UNL A   1      21.916  34.340  46.247  1.00  0.00    +0.000 C 
ATOM     73  C48 UNL A   1      21.341  35.066  47.234  1.00  0.00    +0.000 C 
ATOM     74  N7  UNL A   1      21.927  35.993  48.082  1.00  0.00    +0.000 N 
ATOM     75  C49 UNL A   1      20.965  36.431  48.855  1.00  0.00    +0.000 C 
ATOM     76  C50 UNL A   1      21.027  37.447  49.956  1.00  0.00    +0.000 C 
ATOM     88  C57 UNL A   1      22.203  38.014  50.282  1.00  0.00    +0.000 C 
ATOM     89  C58 UNL A   1      22.399  39.016  51.327  1.00  0.00    +0.000 C 
ATOM     90  C59 UNL A   1      23.693  39.378  51.350  1.00  0.00    +0.000 C 
ATOM     91  C60 UNL A   1      24.417  38.619  50.332  1.00  0.00    +0.000 C 
ATOM     92  N8  UNL A   1      23.456  37.827  49.754  1.00  0.00    +0.000 N 
ATOM     93  C61 UNL A   1      19.650  35.832  48.579  1.00  0.00    +0.000 C 
ATOM     94  C62 UNL A   1      19.939  34.996  47.589  1.00  0.00    +0.000 C 
ATOM     95  C63 UNL A   1      28.005  37.240  47.744  1.00  0.00    +0.000 C 
ATOM     96  C64 UNL A   1      27.796  38.041  48.780  1.00  0.00    +0.000 C 
ATOM    126  H28 UNL A   1      26.056  33.723  44.283  1.00  0.00    +0.000 H 
ATOM    127  H29 UNL A   1      23.543  33.019  44.239  1.00  0.00    +0.000 H 
ATOM    128  H30 UNL A   1      24.062  35.823  47.244  1.00  0.00    +0.000 H 
ENDROOT
BRANCH   40   39
ATOM     97  C65 UNL A   1      27.283  39.263  51.960  1.00  0.00    +0.000 C 
ATOM     98  C66 UNL A   1      28.071  40.164  52.681  1.00  0.00    +0.000 C 
ATOM     36  C23 UNL A   1      28.177  41.493  52.257  1.00  0.00    +0.000 C 
ATOM     37  C24 UNL A   1      27.431  41.935  51.159  1.00  0.00    +0.000 C 
ATOM     38  C25 UNL A   1      26.623  41.040  50.453  1.00  0.00    +0.000 C 
ATOM     39  C26 UNL A   1      26.555  39.693  50.839  1.00  0.00    +0.000 C 
ATOM    136  H38 UNL A   1      27.235  38.274  52.254  1.00  0.00    +0.000 H 
ATOM    137  H39 UNL A   1      28.575  39.849  53.525  1.00  0.00    +0.000 H 
ATOM    124  H26 UNL A   1      27.478  42.924  50.868  1.00  0.00    +0.000 H 
ATOM    125  H27 UNL A   1      26.074  41.371  49.644  1.00  0.00    +0.000 H 
BRANCH   36   34
ATOM     34  C22 UNL A   1      29.004  42.485  52.982  1.00  0.00    +0.000 C 
ATOM     35  O6  UNL A   1      28.590  42.946  54.043  1.00  0.00    +0.000 O 
BRANCH   34   33
ATOM     33  N4  UNL A   1      30.206  42.914  52.477  1.00  0.00    +0.000 N 
ATOM    123  H25 UNL A   1      30.404  43.866  52.633  1.00  0.00    +0.000 H 
BRANCH   33   32
ATOM    121  H23 UNL A   1      32.177  42.650  51.940  1.00  0.00    +0.000 H 
ATOM    122  H24 UNL A   1      31.210  41.173  52.093  1.00  0.00    +0.000 H 
ATOM     32  C21 UNL A   1      31.231  42.186  51.752  1.00  0.00    +0.000 C 
BRANCH   32   31
ATOM    119  H21 UNL A   1      30.206  42.865  50.030  1.00  0.00    +0.000 H 
ATOM     31  C20 UNL A   1      30.989  42.168  50.240  1.00  0.00    +0.000 C 
ATOM    120  H22 UNL A   1      31.934  42.410  49.802  1.00  0.00    +0.000 H 
BRANCH   31   30
ATOM    118  H20 UNL A   1      30.152  41.060  48.674  1.00  0.00    +0.000 H 
ATOM    117  H19 UNL A   1      29.929  40.330  50.304  1.00  0.00    +0.000 H 
ATOM     30  C19 UNL A   1      30.590  40.820  49.620  1.00  0.00    +0.000 C 
BRANCH   30   29
ATOM    115  H17 UNL A   1      32.531  40.412  48.861  1.00  0.00    +0.000 H 
ATOM    116  H18 UNL A   1      32.006  39.393  50.233  1.00  0.00    +0.000 H 
ATOM     29  C18 UNL A   1      31.734  39.852  49.305  1.00  0.00    +0.000 C 
BRANCH   29   28
ATOM    113  H15 UNL A   1      31.166  37.840  48.940  1.00  0.00    +0.000 H 
ATOM    114  H16 UNL A   1      30.519  39.048  47.793  1.00  0.00    +0.000 H 
ATOM     28  C17 UNL A   1      31.366  38.712  48.353  1.00  0.00    +0.000 C 
BRANCH   28   27
ATOM     27  C16 UNL A   1      32.451  38.356  47.325  1.00  0.00    +0.000 C 
ATOM    111  H13 UNL A   1      33.203  37.755  47.792  1.00  0.00    +0.000 H 
ATOM    112  H14 UNL A   1      32.016  37.809  46.516  1.00  0.00    +0.000 H 
BRANCH   27   26
ATOM     26  N3  UNL A   1      33.051  39.584  46.822  1.00  0.00    +0.000 N 
ATOM    110  H12 UNL A   1      33.879  39.851  47.283  1.00  0.00    +0.000 H 
BRANCH   26   24
ATOM     25  O5  UNL A   1      33.030  40.218  44.666  1.00  0.00    +0.000 O 
ATOM     24  C15 UNL A   1      32.662  40.431  45.820  1.00  0.00    +0.000 C 
BRANCH   24   23
ATOM    103  H5  UNL A   1      32.218  44.937  46.985  1.00  0.00    +0.000 H 
ATOM      8  C3  UNL A   1      32.578  42.913  46.477  1.00  0.00    +0.000 C 
ATOM      9  C4  UNL A   1      31.776  44.024  46.792  1.00  0.00    +0.000 C 
ATOM     10  C5  UNL A   1      30.384  43.900  46.847  1.00  0.00    +0.000 C 
ATOM    104  H6  UNL A   1      29.807  44.717  47.101  1.00  0.00    +0.000 H 
ATOM     11  C6  UNL A   1      29.771  42.676  46.562  1.00  0.00    +0.000 C 
ATOM    109  H11 UNL A   1      30.128  40.730  45.838  1.00  0.00    +0.000 H 
ATOM     22  C13 UNL A   1      30.576  41.613  46.130  1.00  0.00    +0.000 C 
ATOM     23  C14 UNL A   1      31.983  41.715  46.084  1.00  0.00    +0.000 C 
BRANCH    8    5
ATOM      5  S1  UNL A   1      34.311  43.045  46.781  1.00  0.00    +0.000 S 
ATOM      6  O2  UNL A   1      34.968  42.839  45.508  1.00  0.00    +0.000 O 
ATOM      7  O3  UNL A   1      34.670  42.286  47.953  1.00  0.00    +0.000 O 
BRANCH    5    4
ATOM      4  N1  UNL A   1      34.538  44.645  47.154  1.00  0.00    +0.000 N 
ATOM    102  H4  UNL A   1      34.184  44.940  48.024  1.00  0.00    +0.000 H 
BRANCH    4    2
ATOM      2  C2  UNL A   1      35.171  45.630  46.383  1.00  0.00    +0.000 C 
ATOM      3  O1  UNL A   1      36.394  45.685  46.405  1.00  0.00    +0.000 O 
BRANCH    2    1
ATOM      1  C1  UNL A   1      34.352  46.471  45.446  1.00  0.00    +0.000 C 
ATOM     99  H1  UNL A   1      35.001  47.090  44.862  1.00  0.00    +0.000 H 
ATOM    100  H2  UNL A   1      33.684  47.086  46.010  1.00  0.00    +0.000 H 
ATOM    101  H3  UNL A   1      33.788  45.834  44.796  1.00  0.00    +0.000 H 
ENDBRANCH    2    1
ENDBRANCH    4    2
ENDBRANCH    5    4
ENDBRANCH    8    5
BRANCH   11   12
ATOM    105  H7  UNL A   1      27.947  44.368  47.767  1.00  0.00    +0.000 H 
ATOM    106  H8  UNL A   1      25.640  44.045  48.095  1.00  0.00    +0.000 H 
ATOM    108  H10 UNL A   1      28.318  40.540  46.087  1.00  0.00    +0.000 H 
ATOM     12  C7  UNL A   1      28.335  42.446  46.861  1.00  0.00    +0.000 C 
ATOM     13  C8  UNL A   1      27.511  43.479  47.473  1.00  0.00    +0.000 C 
ATOM     14  C9  UNL A   1      26.201  43.296  47.662  1.00  0.00    +0.000 C 
ATOM     15  N2  UNL A   1      25.587  42.118  47.286  1.00  0.00    +0.000 N 
ATOM     19  C11 UNL A   1      26.283  41.074  46.698  1.00  0.00    +0.000 C 
ATOM     20  O4  UNL A   1      25.796  40.014  46.319  1.00  0.00    +0.000 O 
ATOM     21  C12 UNL A   1      27.747  41.291  46.504  1.00  0.00    +0.000 C 
BRANCH   15   16
ATOM     17  F1  UNL A   1      23.879  41.211  48.536  1.00  0.00    +0.000 F 
ATOM     18  F2  UNL A   1      23.543  43.153  47.574  1.00  0.00    +0.000 F 
ATOM    107  H9  UNL A   1      23.810  41.465  46.559  1.00  0.00    +0.000 H 
ATOM     16  C10 UNL A   1      24.163  41.957  47.441  1.00  0.00    +0.000 C 
ENDBRANCH   15   16
ENDBRANCH   11   12
ENDBRANCH   24   23
ENDBRANCH   26   24
ENDBRANCH   27   26
ENDBRANCH   28   27
ENDBRANCH   29   28
ENDBRANCH   30   29
ENDBRANCH   31   30
ENDBRANCH   32   31
ENDBRANCH   33   32
ENDBRANCH   34   33
ENDBRANCH   36   34
ENDBRANCH   40   39
BRANCH   44   45
ATOM     45  C31 UNL A   1      27.941  35.418  45.542  1.00  0.00    +0.000 C 
ATOM     46  C32 UNL A   1      28.640  34.216  45.712  1.00  0.00    +0.000 C 
ATOM     47  F3  UNL A   1      28.220  33.312  46.608  1.00  0.00    +0.000 F 
ATOM     48  C33 UNL A   1      29.789  33.951  44.970  1.00  0.00    +0.000 C 
ATOM     49  F4  UNL A   1      30.456  32.804  45.159  1.00  0.00    +0.000 F 
ATOM     50  C34 UNL A   1      30.246  34.874  44.041  1.00  0.00    +0.000 C 
ATOM     51  F5  UNL A   1      31.351  34.617  43.327  1.00  0.00    +0.000 F 
ATOM     52  C35 UNL A   1      29.563  36.067  43.856  1.00  0.00    +0.000 C 
ATOM     53  F6  UNL A   1      30.006  36.960  42.958  1.00  0.00    +0.000 F 
ATOM     54  C36 UNL A   1      28.420  36.341  44.602  1.00  0.00    +0.000 C 
ATOM     55  F7  UNL A   1      27.781  37.504  44.409  1.00  0.00    +0.000 F 
ENDBRANCH   44   45
BRANCH   61   62
ATOM     65  C44 UNL A   1      20.144  31.176  45.112  1.00  0.00    +0.000 C 
ATOM     66  F9  UNL A   1      20.126  29.870  45.415  1.00  0.00    +0.000 F 
ATOM     67  C45 UNL A   1      19.328  31.663  44.100  1.00  0.00    +0.000 C 
ATOM     68  F10 UNL A   1      18.519  30.828  43.432  1.00  0.00    +0.000 F 
ATOM     69  C46 UNL A   1      19.358  33.011  43.774  1.00  0.00    +0.000 C 
ATOM     70  F11 UNL A   1      18.574  33.479  42.794  1.00  0.00    +0.000 F 
ATOM     71  C47 UNL A   1      20.205  33.876  44.460  1.00  0.00    +0.000 C 
ATOM     72  F12 UNL A   1      20.224  35.173  44.122  1.00  0.00    +0.000 F 
ATOM     62  C42 UNL A   1      21.033  33.403  45.488  1.00  0.00    +0.000 C 
ATOM     63  C43 UNL A   1      20.987  32.038  45.805  1.00  0.00    +0.000 C 
ATOM     64  F8  UNL A   1      21.774  31.544  46.771  1.00  0.00    +0.000 F 
ENDBRANCH   61   62
BRANCH   76   77
ATOM     77  C51 UNL A   1      19.806  37.826  50.701  1.00  0.00    +0.000 C 
ATOM     78  C52 UNL A   1      18.932  38.796  50.195  1.00  0.00    +0.000 C 
ATOM     79  F13 UNL A   1      19.216  39.415  49.040  1.00  0.00    +0.000 F 
ATOM     80  C53 UNL A   1      17.776  39.146  50.886  1.00  0.00    +0.000 C 
ATOM     81  F14 UNL A   1      16.961  40.089  50.392  1.00  0.00    +0.000 F 
ATOM     82  C54 UNL A   1      17.470  38.527  52.089  1.00  0.00    +0.000 C 
ATOM     83  F15 UNL A   1      16.356  38.863  52.753  1.00  0.00    +0.000 F 
ATOM     84  C55 UNL A   1      18.322  37.561  52.606  1.00  0.00    +0.000 C 
ATOM     85  F16 UNL A   1      18.028  36.960  53.766  1.00  0.00    +0.000 F 
ATOM     86  C56 UNL A   1      19.484  37.216  51.920  1.00  0.00    +0.000 C 
ATOM     87  F17 UNL A   1      20.297  36.285  52.440  1.00  0.00    +0.000 F 
ENDBRANCH   76   77
TORSDOF 21
ENDMDL
MODEL 4
REMARK VINA RESULT:      -8.1      0.689      2.012
ROOT
ATOM    129  H31 UNL A   1      27.202 -12.072  27.326  1.00  0.00    +0.000 H 
ATOM    130  H32 UNL A   1      29.176 -13.468  28.111  1.00  0.00    +0.000 H 
ATOM    131  H33 UNL A   1      26.870 -12.537  31.443  1.00  0.00    +0.000 H 
ATOM    132  H34 UNL A   1      22.970  -9.864  29.694  1.00  0.00    +0.000 H 
ATOM    133  H35 UNL A   1      22.126  -9.731  32.110  1.00  0.00    +0.000 H 
ATOM    134  H36 UNL A   1      29.940 -15.235  35.208  1.00  0.00    +0.000 H 
ATOM    135  H37 UNL A   1      30.895 -15.240  32.831  1.00  0.00    +0.000 H 
ATOM     40  C27 UNL A   1      29.215 -13.964  30.918  1.00  0.00    +0.000 C 
ATOM     41  C28 UNL A   1      28.991 -14.086  32.397  1.00  0.00    +0.000 C 
ATOM     42  N5  UNL A   1      27.996 -13.638  33.121  1.00  0.00    +0.000 N 
ATOM     43  C29 UNL A   1      28.256 -14.054  34.419  1.00  0.00    +0.000 C 
ATOM     44  C30 UNL A   1      27.521 -13.844  35.536  1.00  0.00    +0.000 C 
ATOM     56  C37 UNL A   1      26.300 -13.087  35.590  1.00  0.00    +0.000 C 
ATOM     57  C38 UNL A   1      25.509 -12.797  36.690  1.00  0.00    +0.000 C 
ATOM     58  C39 UNL A   1      24.421 -12.029  36.257  1.00  0.00    +0.000 C 
ATOM     59  C40 UNL A   1      24.542 -11.833  34.892  1.00  0.00    +0.000 C 
ATOM     60  N6  UNL A   1      25.696 -12.488  34.495  1.00  0.00    +0.000 N 
ATOM     61  C41 UNL A   1      23.674 -11.103  34.008  1.00  0.00    +0.000 C 
ATOM     73  C48 UNL A   1      23.861 -10.965  32.675  1.00  0.00    +0.000 C 
ATOM     74  N7  UNL A   1      24.884 -11.470  31.886  1.00  0.00    +0.000 N 
ATOM     75  C49 UNL A   1      24.622 -11.077  30.665  1.00  0.00    +0.000 C 
ATOM     76  C50 UNL A   1      25.394 -11.336  29.405  1.00  0.00    +0.000 C 
ATOM     88  C57 UNL A   1      26.542 -12.034  29.451  1.00  0.00    +0.000 C 
ATOM     89  C58 UNL A   1      27.383 -12.359  28.301  1.00  0.00    +0.000 C 
ATOM     90  C59 UNL A   1      28.429 -13.093  28.716  1.00  0.00    +0.000 C 
ATOM     91  C60 UNL A   1      28.338 -13.274  30.164  1.00  0.00    +0.000 C 
ATOM     92  N8  UNL A   1      27.193 -12.604  30.516  1.00  0.00    +0.000 N 
ATOM     93  C61 UNL A   1      23.394 -10.278  30.538  1.00  0.00    +0.000 C 
ATOM     94  C62 UNL A   1      22.975 -10.229  31.797  1.00  0.00    +0.000 C 
ATOM     95  C63 UNL A   1      29.504 -14.790  34.385  1.00  0.00    +0.000 C 
ATOM     96  C64 UNL A   1      30.012 -14.817  33.160  1.00  0.00    +0.000 C 
ATOM    126  H28 UNL A   1      25.690 -13.096  37.661  1.00  0.00    +0.000 H 
ATOM    127  H29 UNL A   1      23.658 -11.669  36.854  1.00  0.00    +0.000 H 
ATOM    128  H30 UNL A   1      26.037 -12.525  33.573  1.00  0.00    +0.000 H 
ENDROOT
BRANCH   40   39
ATOM     97  C65 UNL A   1      30.264 -15.933  29.783  1.00  0.00    +0.000 C 
ATOM     98  C66 UNL A   1      31.352 -16.552  29.161  1.00  0.00    +0.000 C 
ATOM     36  C23 UNL A   1      32.547 -15.847  28.981  1.00  0.00    +0.000 C 
ATOM     37  C24 UNL A   1      32.675 -14.552  29.493  1.00  0.00    +0.000 C 
ATOM     38  C25 UNL A   1      31.596 -13.941  30.137  1.00  0.00    +0.000 C 
ATOM     39  C26 UNL A   1      30.377 -14.622  30.273  1.00  0.00    +0.000 C 
ATOM    136  H38 UNL A   1      29.372 -16.442  29.883  1.00  0.00    +0.000 H 
ATOM    137  H39 UNL A   1      31.273 -17.528  28.835  1.00  0.00    +0.000 H 
ATOM    124  H26 UNL A   1      33.569 -14.045  29.394  1.00  0.00    +0.000 H 
ATOM    125  H27 UNL A   1      31.696 -12.986  30.515  1.00  0.00    +0.000 H 
BRANCH   36   34
ATOM     34  C22 UNL A   1      33.725 -16.456  28.321  1.00  0.00    +0.000 C 
ATOM     35  O6  UNL A   1      34.555 -17.046  29.009  1.00  0.00    +0.000 O 
BRANCH   34   33
ATOM     33  N4  UNL A   1      33.917 -16.350  26.966  1.00  0.00    +0.000 N 
ATOM    123  H25 UNL A   1      33.636 -15.492  26.574  1.00  0.00    +0.000 H 
BRANCH   33   32
ATOM    121  H23 UNL A   1      35.169 -17.928  26.535  1.00  0.00    +0.000 H 
ATOM    122  H24 UNL A   1      33.655 -17.867  25.618  1.00  0.00    +0.000 H 
ATOM     32  C21 UNL A   1      34.469 -17.303  26.021  1.00  0.00    +0.000 C 
BRANCH   32   31
ATOM    119  H21 UNL A   1      35.627 -17.399  24.252  1.00  0.00    +0.000 H 
ATOM     31  C20 UNL A   1      35.187 -16.628  24.849  1.00  0.00    +0.000 C 
ATOM    120  H22 UNL A   1      34.433 -16.053  24.353  1.00  0.00    +0.000 H 
BRANCH   31   30
ATOM    118  H20 UNL A   1      37.170 -15.976  24.700  1.00  0.00    +0.000 H 
ATOM    117  H19 UNL A   1      36.376 -15.591  26.268  1.00  0.00    +0.000 H 
ATOM     30  C19 UNL A   1      36.294 -15.623  25.202  1.00  0.00    +0.000 C 
BRANCH   30   29
ATOM    115  H17 UNL A   1      37.022 -13.667  24.810  1.00  0.00    +0.000 H 
ATOM    116  H18 UNL A   1      35.760 -14.263  23.693  1.00  0.00    +0.000 H 
ATOM     29  C18 UNL A   1      36.092 -14.188  24.708  1.00  0.00    +0.000 C 
BRANCH   29   28
ATOM    113  H15 UNL A   1      34.908 -13.823  26.430  1.00  0.00    +0.000 H 
ATOM    114  H16 UNL A   1      35.351 -12.380  25.475  1.00  0.00    +0.000 H 
ATOM     28  C17 UNL A   1      35.018 -13.396  25.456  1.00  0.00    +0.000 C 
BRANCH   28   27
ATOM     27  C16 UNL A   1      33.638 -13.387  24.780  1.00  0.00    +0.000 C 
ATOM    111  H13 UNL A   1      33.747 -13.131  23.747  1.00  0.00    +0.000 H 
ATOM    112  H14 UNL A   1      33.193 -14.357  24.857  1.00  0.00    +0.000 H 
BRANCH   27   26
ATOM     26  N3  UNL A   1      32.792 -12.404  25.441  1.00  0.00    +0.000 N 
ATOM    110  H12 UNL A   1      33.189 -11.506  25.511  1.00  0.00    +0.000 H 
BRANCH   26   24
ATOM     25  O5  UNL A   1      31.209 -13.554  26.547  1.00  0.00    +0.000 O 
ATOM     24  C15 UNL A   1      31.540 -12.512  25.983  1.00  0.00    +0.000 C 
BRANCH   24   23
ATOM    103  H5  UNL A   1      29.223  -8.476  26.425  1.00  0.00    +0.000 H 
ATOM      8  C3  UNL A   1      30.382 -10.246  26.328  1.00  0.00    +0.000 C 
ATOM      9  C4  UNL A   1      29.251  -9.448  26.079  1.00  0.00    +0.000 C 
ATOM     10  C5  UNL A   1      28.164  -9.963  25.366  1.00  0.00    +0.000 C 
ATOM    104  H6  UNL A   1      27.330  -9.376  25.209  1.00  0.00    +0.000 H 
ATOM     11  C6  UNL A   1      28.199 -11.270  24.867  1.00  0.00    +0.000 C 
ATOM    109  H11 UNL A   1      29.449 -12.941  24.584  1.00  0.00    +0.000 H 
ATOM     22  C13 UNL A   1      29.382 -12.007  25.018  1.00  0.00    +0.000 C 
ATOM     23  C14 UNL A   1      30.482 -11.510  25.748  1.00  0.00    +0.000 C 
BRANCH    8    5
ATOM      5  S1  UNL A   1      31.541  -9.668  27.527  1.00  0.00    +0.000 S 
ATOM      6  O2  UNL A   1      32.679  -9.165  26.789  1.00  0.00    +0.000 O 
ATOM      7  O3  UNL A   1      31.688 -10.637  28.583  1.00  0.00    +0.000 O 
BRANCH    5    4
ATOM      4  N1  UNL A   1      30.808  -8.336  28.191  1.00  0.00    +0.000 N 
ATOM    102  H4  UNL A   1      31.225  -7.468  27.987  1.00  0.00    +0.000 H 
BRANCH    4    2
ATOM      2  C2  UNL A   1      29.669  -8.294  29.007  1.00  0.00    +0.000 C 
ATOM      3  O1  UNL A   1      28.923  -7.328  28.912  1.00  0.00    +0.000 O 
BRANCH    2    1
ATOM      1  C1  UNL A   1      29.320  -9.491  29.845  1.00  0.00    +0.000 C 
ATOM     99  H1  UNL A   1      29.102 -10.322  29.207  1.00  0.00    +0.000 H 
ATOM    100  H2  UNL A   1      28.464  -9.268  30.446  1.00  0.00    +0.000 H 
ATOM    101  H3  UNL A   1      30.147  -9.736  30.479  1.00  0.00    +0.000 H 
ENDBRANCH    2    1
ENDBRANCH    4    2
ENDBRANCH    5    4
ENDBRANCH    8    5
BRANCH   11   12
ATOM    105  H7  UNL A   1      26.884 -13.516  25.799  1.00  0.00    +0.000 H 
ATOM    106  H8  UNL A   1      24.863 -14.452  25.043  1.00  0.00    +0.000 H 
ATOM    108  H10 UNL A   1      26.738 -10.590  22.793  1.00  0.00    +0.000 H 
ATOM     12  C7  UNL A   1      26.977 -11.925  24.340  1.00  0.00    +0.000 C 
ATOM     13  C8  UNL A   1      26.399 -13.093  24.992  1.00  0.00    +0.000 C 
ATOM     14  C9  UNL A   1      25.252 -13.627  24.561  1.00  0.00    +0.000 C 
ATOM     15  N2  UNL A   1      24.580 -13.090  23.483  1.00  0.00    +0.000 N 
ATOM     19  C11 UNL A   1      25.047 -11.983  22.794  1.00  0.00    +0.000 C 
ATOM     20  O4  UNL A   1      24.487 -11.442  21.845  1.00  0.00    +0.000 O 
ATOM     21  C12 UNL A   1      26.334 -11.405  23.280  1.00  0.00    +0.000 C 
BRANCH   15   16
ATOM     17  F1  UNL A   1      23.467 -14.435  21.980  1.00  0.00    +0.000 F 
ATOM     18  F2  UNL A   1      22.748 -14.377  24.051  1.00  0.00    +0.000 F 
ATOM    107  H9  UNL A   1      22.680 -12.811  22.828  1.00  0.00    +0.000 H 
ATOM     16  C10 UNL A   1      23.314 -13.640  23.066  1.00  0.00    +0.000 C 
ENDBRANCH   15   16
ENDBRANCH   11   12
ENDBRANCH   24   23
ENDBRANCH   26   24
ENDBRANCH   27   26
ENDBRANCH   28   27
ENDBRANCH   29   28
ENDBRANCH   30   29
ENDBRANCH   31   30
ENDBRANCH   32   31
ENDBRANCH   33   32
ENDBRANCH   34   33
ENDBRANCH   36   34
ENDBRANCH   40   39
BRANCH   44   45
ATOM     45  C31 UNL A   1      28.019 -14.458  36.805  1.00  0.00    +0.000 C 
ATOM     46  C32 UNL A   1      27.573 -15.717  37.226  1.00  0.00    +0.000 C 
ATOM     47  F3  UNL A   1      26.648 -16.378  36.515  1.00  0.00    +0.000 F 
ATOM     48  C33 UNL A   1      28.065 -16.291  38.396  1.00  0.00    +0.000 C 
ATOM     49  F4  UNL A   1      27.613 -17.488  38.794  1.00  0.00    +0.000 F 
ATOM     50  C34 UNL A   1      29.017 -15.623  39.152  1.00  0.00    +0.000 C 
ATOM     51  F5  UNL A   1      29.491 -16.177  40.277  1.00  0.00    +0.000 F 
ATOM     52  C35 UNL A   1      29.474 -14.377  38.747  1.00  0.00    +0.000 C 
ATOM     53  F6  UNL A   1      30.394 -13.731  39.478  1.00  0.00    +0.000 F 
ATOM     54  C36 UNL A   1      28.978 -13.796  37.584  1.00  0.00    +0.000 C 
ATOM     55  F7  UNL A   1      29.431 -12.588  37.216  1.00  0.00    +0.000 F 
ENDBRANCH   44   45
BRANCH   61   62
ATOM     65  C44 UNL A   1      21.441  -8.550  35.722  1.00  0.00    +0.000 C 
ATOM     66  F9  UNL A   1      21.553  -7.349  36.306  1.00  0.00    +0.000 F 
ATOM     67  C45 UNL A   1      20.202  -9.174  35.652  1.00  0.00    +0.000 C 
ATOM     68  F10 UNL A   1      19.119  -8.571  36.161  1.00  0.00    +0.000 F 
ATOM     69  C46 UNL A   1      20.089 -10.424  35.061  1.00  0.00    +0.000 C 
ATOM     70  F11 UNL A   1      18.894 -11.027  34.997  1.00  0.00    +0.000 F 
ATOM     71  C47 UNL A   1      21.214 -11.055  34.540  1.00  0.00    +0.000 C 
ATOM     72  F12 UNL A   1      21.082 -12.267  33.983  1.00  0.00    +0.000 F 
ATOM     62  C42 UNL A   1      22.472 -10.439  34.599  1.00  0.00    +0.000 C 
ATOM     63  C43 UNL A   1      22.567  -9.175  35.197  1.00  0.00    +0.000 C 
ATOM     64  F8  UNL A   1      23.755  -8.559  35.286  1.00  0.00    +0.000 F 
ENDBRANCH   61   62
BRANCH   76   77
ATOM     77  C51 UNL A   1      24.909 -10.818  28.106  1.00  0.00    +0.000 C 
ATOM     78  C52 UNL A   1      25.472  -9.669  27.539  1.00  0.00    +0.000 C 
ATOM     79  F13 UNL A   1      26.439  -9.006  28.190  1.00  0.00    +0.000 F 
ATOM     80  C53 UNL A   1      25.028  -9.186  26.311  1.00  0.00    +0.000 C 
ATOM     81  F14 UNL A   1      25.569  -8.074  25.794  1.00  0.00    +0.000 F 
ATOM     82  C54 UNL A   1      24.019  -9.850  25.627  1.00  0.00    +0.000 C 
ATOM     83  F15 UNL A   1      23.593  -9.386  24.445  1.00  0.00    +0.000 F 
ATOM     84  C55 UNL A   1      23.450 -10.992  26.172  1.00  0.00    +0.000 C 
ATOM     85  F16 UNL A   1      22.477 -11.635  25.512  1.00  0.00    +0.000 F 
ATOM     86  C56 UNL A   1      23.887 -11.471  27.404  1.00  0.00    +0.000 C 
ATOM     87  F17 UNL A   1      23.320 -12.573  27.915  1.00  0.00    +0.000 F 
ENDBRANCH   76   77
TORSDOF 21
ENDMDL
MODEL 5
REMARK VINA RESULT:      -8.1     22.113     28.333
ROOT
ATOM    129  H31 UNL A   1       8.120   4.703  24.398  1.00  0.00    +0.000 H 
ATOM    130  H32 UNL A   1       9.611   2.770  23.689  1.00  0.00    +0.000 H 
ATOM    131  H33 UNL A   1       9.598   5.562  20.609  1.00  0.00    +0.000 H 
ATOM    132  H34 UNL A   1       6.686   9.350  22.221  1.00  0.00    +0.000 H 
ATOM    133  H35 UNL A   1       7.179  10.522  19.996  1.00  0.00    +0.000 H 
ATOM    134  H36 UNL A   1      13.053   2.868  17.192  1.00  0.00    +0.000 H 
ATOM    135  H37 UNL A   1      12.444   1.600  19.333  1.00  0.00    +0.000 H 
ATOM     40  C27 UNL A   1      10.783   3.082  21.109  1.00  0.00    +0.000 C 
ATOM     41  C28 UNL A   1      11.273   3.497  19.753  1.00  0.00    +0.000 C 
ATOM     42  N5  UNL A   1      11.046   4.608  19.097  1.00  0.00    +0.000 N 
ATOM     43  C29 UNL A   1      11.763   4.501  17.914  1.00  0.00    +0.000 C 
ATOM     44  C30 UNL A   1      11.856   5.393  16.900  1.00  0.00    +0.000 C 
ATOM     56  C37 UNL A   1      11.170   6.657  16.847  1.00  0.00    +0.000 C 
ATOM     57  C38 UNL A   1      11.183   7.607  15.839  1.00  0.00    +0.000 C 
ATOM     58  C39 UNL A   1      10.363   8.672  16.230  1.00  0.00    +0.000 C 
ATOM     59  C40 UNL A   1       9.834   8.379  17.475  1.00  0.00    +0.000 C 
ATOM     60  N6  UNL A   1      10.337   7.142  17.842  1.00  0.00    +0.000 N 
ATOM     61  C41 UNL A   1       8.933   9.163  18.276  1.00  0.00    +0.000 C 
ATOM     73  C48 UNL A   1       8.464   8.805  19.494  1.00  0.00    +0.000 C 
ATOM     74  N7  UNL A   1       8.729   7.655  20.221  1.00  0.00    +0.000 N 
ATOM     75  C49 UNL A   1       8.054   7.772  21.337  1.00  0.00    +0.000 C 
ATOM     76  C50 UNL A   1       7.972   6.821  22.494  1.00  0.00    +0.000 C 
ATOM     88  C57 UNL A   1       8.628   5.647  22.448  1.00  0.00    +0.000 C 
ATOM     89  C58 UNL A   1       8.635   4.639  23.505  1.00  0.00    +0.000 C 
ATOM     90  C59 UNL A   1       9.418   3.614  23.129  1.00  0.00    +0.000 C 
ATOM     91  C60 UNL A   1       9.954   3.890  21.797  1.00  0.00    +0.000 C 
ATOM     92  N8  UNL A   1       9.424   5.112  21.466  1.00  0.00    +0.000 N 
ATOM     93  C61 UNL A   1       7.284   9.020  21.447  1.00  0.00    +0.000 C 
ATOM     94  C62 UNL A   1       7.560   9.608  20.290  1.00  0.00    +0.000 C 
ATOM     95  C63 UNL A   1      12.431   3.215  17.939  1.00  0.00    +0.000 C 
ATOM     96  C64 UNL A   1      12.141   2.545  19.046  1.00  0.00    +0.000 C 
ATOM    126  H28 UNL A   1      11.708   7.541  14.953  1.00  0.00    +0.000 H 
ATOM    127  H29 UNL A   1      10.184   9.530  15.684  1.00  0.00    +0.000 H 
ATOM    128  H30 UNL A   1      10.135   6.677  18.686  1.00  0.00    +0.000 H 
ENDROOT
BRANCH   40   39
ATOM     97  C65 UNL A   1      10.352   0.708  21.774  1.00  0.00    +0.000 C 
ATOM     98  C66 UNL A   1      10.771  -0.504  22.331  1.00  0.00    +0.000 C 
ATOM     36  C23 UNL A   1      12.086  -0.645  22.788  1.00  0.00    +0.000 C 
ATOM     37  C24 UNL A   1      12.954   0.452  22.758  1.00  0.00    +0.000 C 
ATOM     38  C25 UNL A   1      12.528   1.671  22.225  1.00  0.00    +0.000 C 
ATOM     39  C26 UNL A   1      11.228   1.804  21.715  1.00  0.00    +0.000 C 
ATOM    136  H38 UNL A   1       9.393   0.798  21.405  1.00  0.00    +0.000 H 
ATOM    137  H39 UNL A   1      10.111  -1.294  22.404  1.00  0.00    +0.000 H 
ATOM    124  H26 UNL A   1      13.912   0.360  23.131  1.00  0.00    +0.000 H 
ATOM    125  H27 UNL A   1      13.172   2.478  22.207  1.00  0.00    +0.000 H 
BRANCH   36   34
ATOM     34  C22 UNL A   1      12.580  -1.910  23.379  1.00  0.00    +0.000 C 
ATOM     35  O6  UNL A   1      12.062  -2.970  23.039  1.00  0.00    +0.000 O 
BRANCH   34   33
ATOM     33  N4  UNL A   1      13.585  -1.913  24.314  1.00  0.00    +0.000 N 
ATOM    123  H25 UNL A   1      14.487  -2.072  23.953  1.00  0.00    +0.000 H 
BRANCH   33   32
ATOM    121  H23 UNL A   1      12.600  -2.111  26.113  1.00  0.00    +0.000 H 
ATOM    122  H24 UNL A   1      14.367  -2.226  26.179  1.00  0.00    +0.000 H 
ATOM     32  C21 UNL A   1      13.528  -1.719  25.752  1.00  0.00    +0.000 C 
BRANCH   32   31
ATOM    119  H21 UNL A   1      14.383  -0.166  26.907  1.00  0.00    +0.000 H 
ATOM     31  C20 UNL A   1      13.625  -0.246  26.156  1.00  0.00    +0.000 C 
ATOM    120  H22 UNL A   1      13.837   0.280  25.248  1.00  0.00    +0.000 H 
BRANCH   31   30
ATOM    118  H20 UNL A   1      12.604   0.739  27.695  1.00  0.00    +0.000 H 
ATOM    117  H19 UNL A   1      11.570  -0.328  26.680  1.00  0.00    +0.000 H 
ATOM     30  C19 UNL A   1      12.349   0.405  26.711  1.00  0.00    +0.000 C 
BRANCH   30   29
ATOM    115  H17 UNL A   1      11.951   2.489  26.633  1.00  0.00    +0.000 H 
ATOM    116  H18 UNL A   1      12.434   1.734  25.087  1.00  0.00    +0.000 H 
ATOM     29  C18 UNL A   1      11.845   1.650  25.977  1.00  0.00    +0.000 C 
BRANCH   29   28
ATOM    113  H15 UNL A   1      10.169   2.468  24.964  1.00  0.00    +0.000 H 
ATOM    114  H16 UNL A   1      10.290   0.685  24.947  1.00  0.00    +0.000 H 
ATOM     28  C17 UNL A   1      10.386   1.582  25.523  1.00  0.00    +0.000 C 
BRANCH   28   27
ATOM     27  C16 UNL A   1       9.362   1.476  26.664  1.00  0.00    +0.000 C 
ATOM    111  H13 UNL A   1       9.221   0.447  26.924  1.00  0.00    +0.000 H 
ATOM    112  H14 UNL A   1       9.718   2.010  27.519  1.00  0.00    +0.000 H 
BRANCH   27   26
ATOM     26  N3  UNL A   1       8.097   2.045  26.222  1.00  0.00    +0.000 N 
ATOM    110  H12 UNL A   1       8.083   3.028  26.187  1.00  0.00    +0.000 H 
BRANCH   26   24
ATOM     25  O5  UNL A   1       6.007   1.345  26.661  1.00  0.00    +0.000 O 
ATOM     24  C15 UNL A   1       6.923   1.449  25.847  1.00  0.00    +0.000 C 
BRANCH   24   23
ATOM    103  H5  UNL A   1       6.846  -2.167  22.886  1.00  0.00    +0.000 H 
ATOM      8  C3  UNL A   1       6.915  -0.635  24.345  1.00  0.00    +0.000 C 
ATOM      9  C4  UNL A   1       6.838  -1.146  23.038  1.00  0.00    +0.000 C 
ATOM     10  C5  UNL A   1       6.752  -0.282  21.942  1.00  0.00    +0.000 C 
ATOM    104  H6  UNL A   1       6.718  -0.669  20.986  1.00  0.00    +0.000 H 
ATOM     11  C6  UNL A   1       6.712   1.103  22.135  1.00  0.00    +0.000 C 
ATOM    109  H11 UNL A   1       6.553   2.605  23.603  1.00  0.00    +0.000 H 
ATOM     22  C13 UNL A   1       6.665   1.591  23.448  1.00  0.00    +0.000 C 
ATOM     23  C14 UNL A   1       6.768   0.735  24.565  1.00  0.00    +0.000 C 
BRANCH    8    5
ATOM      5  S1  UNL A   1       7.386  -1.747  25.631  1.00  0.00    +0.000 S 
ATOM      6  O2  UNL A   1       7.016  -3.073  25.183  1.00  0.00    +0.000 O 
ATOM      7  O3  UNL A   1       6.968  -1.233  26.911  1.00  0.00    +0.000 O 
BRANCH    5    4
ATOM      4  N1  UNL A   1       9.044  -1.710  25.614  1.00  0.00    +0.000 N 
ATOM    102  H4  UNL A   1       9.455  -1.048  25.012  1.00  0.00    +0.000 H 
BRANCH    4    2
ATOM      2  C2  UNL A   1       9.933  -2.504  26.351  1.00  0.00    +0.000 C 
ATOM      3  O1  UNL A   1      10.472  -3.448  25.786  1.00  0.00    +0.000 O 
BRANCH    2    1
ATOM      1  C1  UNL A   1      10.313  -2.087  27.743  1.00  0.00    +0.000 C 
ATOM     99  H1  UNL A   1      10.244  -1.023  27.827  1.00  0.00    +0.000 H 
ATOM    100  H2  UNL A   1      11.316  -2.397  27.947  1.00  0.00    +0.000 H 
ATOM    101  H3  UNL A   1       9.648  -2.544  28.446  1.00  0.00    +0.000 H 
ENDBRANCH    2    1
ENDBRANCH    4    2
ENDBRANCH    5    4
ENDBRANCH    8    5
BRANCH   11   12
ATOM    105  H7  UNL A   1       8.148   0.774  19.796  1.00  0.00    +0.000 H 
ATOM    106  H8  UNL A   1       8.281   2.213  17.940  1.00  0.00    +0.000 H 
ATOM    108  H10 UNL A   1       5.725   3.520  21.845  1.00  0.00    +0.000 H 
ATOM     12  C7  UNL A   1       6.881   2.043  20.999  1.00  0.00    +0.000 C 
ATOM     13  C8  UNL A   1       7.653   1.679  19.819  1.00  0.00    +0.000 C 
ATOM     14  C9  UNL A   1       7.730   2.497  18.765  1.00  0.00    +0.000 C 
ATOM     15  N2  UNL A   1       7.084   3.716  18.763  1.00  0.00    +0.000 N 
ATOM     19  C11 UNL A   1       6.327   4.156  19.837  1.00  0.00    +0.000 C 
ATOM     20  O4  UNL A   1       5.709   5.214  19.891  1.00  0.00    +0.000 O 
ATOM     21  C12 UNL A   1       6.259   3.235  21.010  1.00  0.00    +0.000 C 
BRANCH   15   16
ATOM     17  F1  UNL A   1       5.900   4.668  17.031  1.00  0.00    +0.000 F 
ATOM     18  F2  UNL A   1       7.557   5.809  17.908  1.00  0.00    +0.000 F 
ATOM    107  H9  UNL A   1       7.811   4.108  16.911  1.00  0.00    +0.000 H 
ATOM     16  C10 UNL A   1       7.127   4.563  17.597  1.00  0.00    +0.000 C 
ENDBRANCH   15   16
ENDBRANCH   11   12
ENDBRANCH   24   23
ENDBRANCH   26   24
ENDBRANCH   27   26
ENDBRANCH   28   27
ENDBRANCH   29   28
ENDBRANCH   30   29
ENDBRANCH   31   30
ENDBRANCH   32   31
ENDBRANCH   33   32
ENDBRANCH   34   33
ENDBRANCH   36   34
ENDBRANCH   40   39
BRANCH   44   45
ATOM     45  C31 UNL A   1      12.750   5.035  15.757  1.00  0.00    +0.000 C 
ATOM     46  C32 UNL A   1      14.102   5.399  15.751  1.00  0.00    +0.000 C 
ATOM     47  F3  UNL A   1      14.612   6.121  16.759  1.00  0.00    +0.000 F 
ATOM     48  C33 UNL A   1      14.932   5.035  14.693  1.00  0.00    +0.000 C 
ATOM     49  F4  UNL A   1      16.219   5.407  14.695  1.00  0.00    +0.000 F 
ATOM     50  C34 UNL A   1      14.426   4.293  13.635  1.00  0.00    +0.000 C 
ATOM     51  F5  UNL A   1      15.226   3.942  12.619  1.00  0.00    +0.000 F 
ATOM     52  C35 UNL A   1      13.090   3.919  13.628  1.00  0.00    +0.000 C 
ATOM     53  F6  UNL A   1      12.601   3.202  12.605  1.00  0.00    +0.000 F 
ATOM     54  C36 UNL A   1      12.255   4.289  14.678  1.00  0.00    +0.000 C 
ATOM     55  F7  UNL A   1      10.966   3.922  14.644  1.00  0.00    +0.000 F 
ENDBRANCH   44   45
BRANCH   61   62
ATOM     65  C44 UNL A   1       8.775  12.863  17.421  1.00  0.00    +0.000 C 
ATOM     66  F9  UNL A   1       9.472  13.981  17.666  1.00  0.00    +0.000 F 
ATOM     67  C45 UNL A   1       7.628  12.919  16.642  1.00  0.00    +0.000 C 
ATOM     68  F10 UNL A   1       7.222  14.089  16.129  1.00  0.00    +0.000 F 
ATOM     69  C46 UNL A   1       6.897  11.765  16.401  1.00  0.00    +0.000 C 
ATOM     70  F11 UNL A   1       5.787  11.820  15.653  1.00  0.00    +0.000 F 
ATOM     71  C47 UNL A   1       7.311  10.550  16.940  1.00  0.00    +0.000 C 
ATOM     72  F12 UNL A   1       6.584   9.450  16.702  1.00  0.00    +0.000 F 
ATOM     62  C42 UNL A   1       8.469  10.474  17.726  1.00  0.00    +0.000 C 
ATOM     63  C43 UNL A   1       9.197  11.650  17.957  1.00  0.00    +0.000 C 
ATOM     64  F8  UNL A   1      10.302  11.622  18.716  1.00  0.00    +0.000 F 
ENDBRANCH   61   62
BRANCH   76   77
ATOM     77  C51 UNL A   1       7.164   7.156  23.687  1.00  0.00    +0.000 C 
ATOM     78  C52 UNL A   1       5.850   6.688  23.816  1.00  0.00    +0.000 C 
ATOM     79  F13 UNL A   1       5.302   5.956  22.836  1.00  0.00    +0.000 F 
ATOM     80  C53 UNL A   1       5.091   6.991  24.943  1.00  0.00    +0.000 C 
ATOM     81  F14 UNL A   1       3.830   6.547  25.038  1.00  0.00    +0.000 F 
ATOM     82  C54 UNL A   1       5.636   7.758  25.962  1.00  0.00    +0.000 C 
ATOM     83  F15 UNL A   1       4.906   8.048  27.048  1.00  0.00    +0.000 F 
ATOM     84  C55 UNL A   1       6.937   8.229  25.854  1.00  0.00    +0.000 C 
ATOM     85  F16 UNL A   1       7.465   8.969  26.838  1.00  0.00    +0.000 F 
ATOM     86  C56 UNL A   1       7.694   7.935  24.724  1.00  0.00    +0.000 C 
ATOM     87  F17 UNL A   1       8.947   8.405  24.637  1.00  0.00    +0.000 F 
ENDBRANCH   76   77
TORSDOF 21
ENDMDL
MODEL 6
REMARK VINA RESULT:      -8.1     49.020     54.533
ROOT
ATOM    129  H31 UNL A   1      25.856  35.030  45.288  1.00  0.00    +0.000 H 
ATOM    130  H32 UNL A   1      27.362  37.074  45.400  1.00  0.00    +0.000 H 
ATOM    131  H33 UNL A   1      23.647  38.144  46.933  1.00  0.00    +0.000 H 
ATOM    132  H34 UNL A   1      20.837  33.963  46.724  1.00  0.00    +0.000 H 
ATOM    133  H35 UNL A   1      18.934  35.329  47.762  1.00  0.00    +0.000 H 
ATOM    134  H36 UNL A   1      24.884  43.414  48.183  1.00  0.00    +0.000 H 
ATOM    135  H37 UNL A   1      26.748  42.120  46.994  1.00  0.00    +0.000 H 
ATOM     40  C27 UNL A   1      26.111  39.388  46.501  1.00  0.00    +0.000 C 
ATOM     41  C28 UNL A   1      25.233  40.436  47.119  1.00  0.00    +0.000 C 
ATOM     42  N5  UNL A   1      24.003  40.330  47.555  1.00  0.00    +0.000 N 
ATOM     43  C29 UNL A   1      23.674  41.577  48.065  1.00  0.00    +0.000 C 
ATOM     44  C30 UNL A   1      22.512  41.977  48.634  1.00  0.00    +0.000 C 
ATOM     56  C37 UNL A   1      21.343  41.154  48.790  1.00  0.00    +0.000 C 
ATOM     57  C38 UNL A   1      20.112  41.492  49.327  1.00  0.00    +0.000 C 
ATOM     58  C39 UNL A   1      19.282  40.365  49.266  1.00  0.00    +0.000 C 
ATOM     59  C40 UNL A   1      19.996  39.332  48.683  1.00  0.00    +0.000 C 
ATOM     60  N6  UNL A   1      21.257  39.828  48.398  1.00  0.00    +0.000 N 
ATOM     61  C41 UNL A   1      19.565  37.989  48.402  1.00  0.00    +0.000 C 
ATOM     73  C48 UNL A   1      20.332  37.030  47.832  1.00  0.00    +0.000 C 
ATOM     74  N7  UNL A   1      21.648  37.113  47.406  1.00  0.00    +0.000 N 
ATOM     75  C49 UNL A   1      21.948  35.929  46.935  1.00  0.00    +0.000 C 
ATOM     76  C50 UNL A   1      23.240  35.448  46.343  1.00  0.00    +0.000 C 
ATOM     88  C57 UNL A   1      24.276  36.295  46.212  1.00  0.00    +0.000 C 
ATOM     89  C58 UNL A   1      25.585  35.954  45.660  1.00  0.00    +0.000 C 
ATOM     90  C59 UNL A   1      26.379  37.036  45.714  1.00  0.00    +0.000 C 
ATOM     91  C60 UNL A   1      25.628  38.149  46.290  1.00  0.00    +0.000 C 
ATOM     92  N8  UNL A   1      24.387  37.621  46.547  1.00  0.00    +0.000 N 
ATOM     93  C61 UNL A   1      20.851  34.953  47.015  1.00  0.00    +0.000 C 
ATOM     94  C62 UNL A   1      19.884  35.681  47.559  1.00  0.00    +0.000 C 
ATOM     95  C63 UNL A   1      24.833  42.428  47.882  1.00  0.00    +0.000 C 
ATOM     96  C64 UNL A   1      25.817  41.775  47.278  1.00  0.00    +0.000 C 
ATOM    126  H28 UNL A   1      19.850  42.416  49.707  1.00  0.00    +0.000 H 
ATOM    127  H29 UNL A   1      18.307  40.314  49.600  1.00  0.00    +0.000 H 
ATOM    128  H30 UNL A   1      21.986  39.315  47.980  1.00  0.00    +0.000 H 
ENDROOT
BRANCH   40   39
ATOM     97  C65 UNL A   1      27.809  40.462  45.008  1.00  0.00    +0.000 C 
ATOM     98  C66 UNL A   1      29.134  40.766  44.679  1.00  0.00    +0.000 C 
ATOM     36  C23 UNL A   1      30.175  40.345  45.513  1.00  0.00    +0.000 C 
ATOM     37  C24 UNL A   1      29.894  39.555  46.632  1.00  0.00    +0.000 C 
ATOM     38  C25 UNL A   1      28.572  39.230  46.949  1.00  0.00    +0.000 C 
ATOM     39  C26 UNL A   1      27.518  39.694  46.147  1.00  0.00    +0.000 C 
ATOM    136  H38 UNL A   1      27.040  40.804  44.411  1.00  0.00    +0.000 H 
ATOM    137  H39 UNL A   1      29.342  41.301  43.821  1.00  0.00    +0.000 H 
ATOM    124  H26 UNL A   1      30.664  39.212  47.227  1.00  0.00    +0.000 H 
ATOM    125  H27 UNL A   1      28.370  38.645  47.775  1.00  0.00    +0.000 H 
BRANCH   36   34
ATOM     34  C22 UNL A   1      31.593  40.647  45.211  1.00  0.00    +0.000 C 
ATOM     35  O6  UNL A   1      32.212  39.908  44.450  1.00  0.00    +0.000 O 
BRANCH   34   33
ATOM     33  N4  UNL A   1      32.230  41.719  45.785  1.00  0.00    +0.000 N 
ATOM    123  H25 UNL A   1      32.972  42.092  45.256  1.00  0.00    +0.000 H 
BRANCH   33   32
ATOM    121  H23 UNL A   1      31.547  41.686  47.728  1.00  0.00    +0.000 H 
ATOM    122  H24 UNL A   1      32.921  42.758  47.407  1.00  0.00    +0.000 H 
ATOM     32  C21 UNL A   1      31.983  42.389  47.049  1.00  0.00    +0.000 C 
BRANCH   32   31
ATOM    119  H21 UNL A   1      31.640  44.468  46.859  1.00  0.00    +0.000 H 
ATOM     31  C20 UNL A   1      31.038  43.585  46.912  1.00  0.00    +0.000 C 
ATOM    120  H22 UNL A   1      30.458  43.385  46.035  1.00  0.00    +0.000 H 
BRANCH   31   30
ATOM    118  H20 UNL A   1      29.380  44.586  47.706  1.00  0.00    +0.000 H 
ATOM    117  H19 UNL A   1      30.552  43.996  48.937  1.00  0.00    +0.000 H 
ATOM     30  C19 UNL A   1      30.012  43.789  48.037  1.00  0.00    +0.000 C 
BRANCH   30   29
ATOM    115  H17 UNL A   1      28.067  42.940  48.132  1.00  0.00    +0.000 H 
ATOM    116  H18 UNL A   1      29.381  41.818  47.676  1.00  0.00    +0.000 H 
ATOM     29  C18 UNL A   1      29.070  42.615  48.318  1.00  0.00    +0.000 C 
BRANCH   29   28
ATOM    113  H15 UNL A   1      29.526  41.072  49.703  1.00  0.00    +0.000 H 
ATOM    114  H16 UNL A   1      29.756  42.741  50.299  1.00  0.00    +0.000 H 
ATOM     28  C17 UNL A   1      29.135  42.068  49.745  1.00  0.00    +0.000 C 
BRANCH   28   27
ATOM     27  C16 UNL A   1      27.786  42.020  50.479  1.00  0.00    +0.000 C 
ATOM    111  H13 UNL A   1      27.947  42.118  51.532  1.00  0.00    +0.000 H 
ATOM    112  H14 UNL A   1      27.163  42.821  50.141  1.00  0.00    +0.000 H 
BRANCH   27   26
ATOM     26  N3  UNL A   1      27.139  40.745  50.201  1.00  0.00    +0.000 N 
ATOM    110  H12 UNL A   1      26.536  40.756  49.423  1.00  0.00    +0.000 H 
BRANCH   26   24
ATOM     25  O5  UNL A   1      27.763  39.463  51.938  1.00  0.00    +0.000 O 
ATOM     24  C15 UNL A   1      27.223  39.535  50.836  1.00  0.00    +0.000 C 
BRANCH   24   23
ATOM    103  H5  UNL A   1      24.614  35.847  49.635  1.00  0.00    +0.000 H 
ATOM      8  C3  UNL A   1      25.670  37.571  50.265  1.00  0.00    +0.000 C 
ATOM      9  C4  UNL A   1      25.535  36.313  49.652  1.00  0.00    +0.000 C 
ATOM     10  C5  UNL A   1      26.640  35.688  49.067  1.00  0.00    +0.000 C 
ATOM    104  H6  UNL A   1      26.534  34.755  48.640  1.00  0.00    +0.000 H 
ATOM     11  C6  UNL A   1      27.889  36.319  49.058  1.00  0.00    +0.000 C 
ATOM    109  H11 UNL A   1      28.873  38.131  49.488  1.00  0.00    +0.000 H 
ATOM     22  C13 UNL A   1      27.977  37.624  49.563  1.00  0.00    +0.000 C 
ATOM     23  C14 UNL A   1      26.877  38.264  50.172  1.00  0.00    +0.000 C 
BRANCH    8    5
ATOM      5  S1  UNL A   1      24.345  38.127  51.288  1.00  0.00    +0.000 S 
ATOM      6  O2  UNL A   1      24.044  39.480  50.873  1.00  0.00    +0.000 O 
ATOM      7  O3  UNL A   1      24.608  37.795  52.666  1.00  0.00    +0.000 O 
BRANCH    5    4
ATOM      4  N1  UNL A   1      23.049  37.208  50.810  1.00  0.00    +0.000 N 
ATOM    102  H4  UNL A   1      23.155  36.722  49.961  1.00  0.00    +0.000 H 
BRANCH    4    2
ATOM      2  C2  UNL A   1      21.822  37.038  51.466  1.00  0.00    +0.000 C 
ATOM      3  O1  UNL A   1      21.353  37.992  52.074  1.00  0.00    +0.000 O 
BRANCH    2    1
ATOM      1  C1  UNL A   1      21.056  35.760  51.275  1.00  0.00    +0.000 C 
ATOM     99  H1  UNL A   1      21.563  34.962  51.775  1.00  0.00    +0.000 H 
ATOM    100  H2  UNL A   1      20.986  35.540  50.231  1.00  0.00    +0.000 H 
ATOM    101  H3  UNL A   1      20.073  35.869  51.684  1.00  0.00    +0.000 H 
ENDBRANCH    2    1
ENDBRANCH    4    2
ENDBRANCH    5    4
ENDBRANCH    8    5
BRANCH   11   12
ATOM    105  H7  UNL A   1      29.183  36.213  46.617  1.00  0.00    +0.000 H 
ATOM    106  H8  UNL A   1      31.218  35.164  46.080  1.00  0.00    +0.000 H 
ATOM    108  H10 UNL A   1      29.391  34.768  50.552  1.00  0.00    +0.000 H 
ATOM     12  C7  UNL A   1      29.121  35.583  48.682  1.00  0.00    +0.000 C 
ATOM     13  C8  UNL A   1      29.685  35.676  47.342  1.00  0.00    +0.000 C 
ATOM     14  C9  UNL A   1      30.840  35.078  47.036  1.00  0.00    +0.000 C 
ATOM     15  N2  UNL A   1      31.534  34.349  47.979  1.00  0.00    +0.000 N 
ATOM     19  C11 UNL A   1      31.082  34.198  49.280  1.00  0.00    +0.000 C 
ATOM     20  O4  UNL A   1      31.660  33.585  50.172  1.00  0.00    +0.000 O 
ATOM     21  C12 UNL A   1      29.785  34.863  49.603  1.00  0.00    +0.000 C 
BRANCH   15   16
ATOM     17  F1  UNL A   1      32.769  33.175  46.429  1.00  0.00    +0.000 F 
ATOM     18  F2  UNL A   1      33.794  34.687  47.644  1.00  0.00    +0.000 F 
ATOM    107  H9  UNL A   1      33.011  33.025  48.403  1.00  0.00    +0.000 H 
ATOM     16  C10 UNL A   1      32.808  33.759  47.652  1.00  0.00    +0.000 C 
ENDBRANCH   15   16
ENDBRANCH   11   12
ENDBRANCH   24   23
ENDBRANCH   26   24
ENDBRANCH   27   26
ENDBRANCH   28   27
ENDBRANCH   29   28
ENDBRANCH   30   29
ENDBRANCH   31   30
ENDBRANCH   32   31
ENDBRANCH   33   32
ENDBRANCH   34   33
ENDBRANCH   36   34
ENDBRANCH   40   39
BRANCH   44   45
ATOM     45  C31 UNL A   1      22.452  43.380  49.147  1.00  0.00    +0.000 C 
ATOM     46  C32 UNL A   1      22.827  43.690  50.460  1.00  0.00    +0.000 C 
ATOM     47  F3  UNL A   1      23.206  42.717  51.301  1.00  0.00    +0.000 F 
ATOM     48  C33 UNL A   1      22.793  45.005  50.917  1.00  0.00    +0.000 C 
ATOM     49  F4  UNL A   1      23.138  45.282  52.183  1.00  0.00    +0.000 F 
ATOM     50  C34 UNL A   1      22.398  46.028  50.068  1.00  0.00    +0.000 C 
ATOM     51  F5  UNL A   1      22.367  47.293  50.509  1.00  0.00    +0.000 F 
ATOM     52  C35 UNL A   1      22.028  45.740  48.762  1.00  0.00    +0.000 C 
ATOM     53  F6  UNL A   1      21.646  46.728  47.941  1.00  0.00    +0.000 F 
ATOM     54  C36 UNL A   1      22.051  44.426  48.304  1.00  0.00    +0.000 C 
ATOM     55  F7  UNL A   1      21.683  44.172  47.040  1.00  0.00    +0.000 F 
ENDBRANCH   44   45
BRANCH   61   62
ATOM     65  C44 UNL A   1      16.425  37.279  50.422  1.00  0.00    +0.000 C 
ATOM     66  F9  UNL A   1      16.040  37.253  51.705  1.00  0.00    +0.000 F 
ATOM     67  C45 UNL A   1      15.514  36.973  49.420  1.00  0.00    +0.000 C 
ATOM     68  F10 UNL A   1      14.249  36.660  49.736  1.00  0.00    +0.000 F 
ATOM     69  C46 UNL A   1      15.915  36.984  48.092  1.00  0.00    +0.000 C 
ATOM     70  F11 UNL A   1      15.037  36.685  47.126  1.00  0.00    +0.000 F 
ATOM     71  C47 UNL A   1      17.230  37.301  47.762  1.00  0.00    +0.000 C 
ATOM     72  F12 UNL A   1      17.597  37.296  46.473  1.00  0.00    +0.000 F 
ATOM     62  C42 UNL A   1      18.162  37.616  48.760  1.00  0.00    +0.000 C 
ATOM     63  C43 UNL A   1      17.738  37.602  50.096  1.00  0.00    +0.000 C 
ATOM     64  F8  UNL A   1      18.603  37.883  51.081  1.00  0.00    +0.000 F 
ENDBRANCH   61   62
BRANCH   76   77
ATOM     77  C51 UNL A   1      23.384  34.047  45.889  1.00  0.00    +0.000 C 
ATOM     78  C52 UNL A   1      24.080  33.112  46.664  1.00  0.00    +0.000 C 
ATOM     79  F13 UNL A   1      24.654  33.491  47.815  1.00  0.00    +0.000 F 
ATOM     80  C53 UNL A   1      24.207  31.790  46.246  1.00  0.00    +0.000 C 
ATOM     81  F14 UNL A   1      24.893  30.915  46.995  1.00  0.00    +0.000 F 
ATOM     82  C54 UNL A   1      23.633  31.380  45.052  1.00  0.00    +0.000 C 
ATOM     83  F15 UNL A   1      23.753  30.107  44.651  1.00  0.00    +0.000 F 
ATOM     84  C55 UNL A   1      22.936  32.292  44.271  1.00  0.00    +0.000 C 
ATOM     85  F16 UNL A   1      22.379  31.898  43.118  1.00  0.00    +0.000 F 
ATOM     86  C56 UNL A   1      22.816  33.616  44.683  1.00  0.00    +0.000 C 
ATOM     87  F17 UNL A   1      22.144  34.482  43.911  1.00  0.00    +0.000 F 
ENDBRANCH   76   77
TORSDOF 21
ENDMDL
MODEL 7
REMARK VINA RESULT:      -8.1     65.376     70.657
ROOT
ATOM    129  H31 UNL A   1      16.489  56.768   2.742  1.00  0.00    +0.000 H 
ATOM    130  H32 UNL A   1      14.917  56.534   4.725  1.00  0.00    +0.000 H 
ATOM    131  H33 UNL A   1      15.173  52.827   2.858  1.00  0.00    +0.000 H 
ATOM    132  H34 UNL A   1      18.391  53.454  -0.972  1.00  0.00    +0.000 H 
ATOM    133  H35 UNL A   1      18.043  50.975  -1.518  1.00  0.00    +0.000 H 
ATOM    134  H36 UNL A   1      11.814  50.058   6.312  1.00  0.00    +0.000 H 
ATOM    135  H37 UNL A   1      12.012  52.570   6.778  1.00  0.00    +0.000 H 
ATOM     40  C27 UNL A   1      13.850  53.912   5.067  1.00  0.00    +0.000 C 
ATOM     41  C28 UNL A   1      13.452  52.466   5.029  1.00  0.00    +0.000 C 
ATOM     42  N5  UNL A   1      13.850  51.521   4.214  1.00  0.00    +0.000 N 
ATOM     43  C29 UNL A   1      13.210  50.365   4.635  1.00  0.00    +0.000 C 
ATOM     44  C30 UNL A   1      13.295  49.117   4.118  1.00  0.00    +0.000 C 
ATOM     56  C37 UNL A   1      14.074  48.753   2.964  1.00  0.00    +0.000 C 
ATOM     57  C38 UNL A   1      14.189  47.515   2.353  1.00  0.00    +0.000 C 
ATOM     58  C39 UNL A   1      15.056  47.644   1.261  1.00  0.00    +0.000 C 
ATOM     59  C40 UNL A   1      15.470  48.963   1.189  1.00  0.00    +0.000 C 
ATOM     60  N6  UNL A   1      14.863  49.631   2.239  1.00  0.00    +0.000 N 
ATOM     61  C41 UNL A   1      16.353  49.577   0.234  1.00  0.00    +0.000 C 
ATOM     73  C48 UNL A   1      16.716  50.881   0.237  1.00  0.00    +0.000 C 
ATOM     74  N7  UNL A   1      16.340  51.883   1.118  1.00  0.00    +0.000 N 
ATOM     75  C49 UNL A   1      16.956  52.965   0.714  1.00  0.00    +0.000 C 
ATOM     76  C50 UNL A   1      16.915  54.347   1.297  1.00  0.00    +0.000 C 
ATOM     88  C57 UNL A   1      16.138  54.604   2.365  1.00  0.00    +0.000 C 
ATOM     89  C58 UNL A   1      16.013  55.899   3.029  1.00  0.00    +0.000 C 
ATOM     90  C59 UNL A   1      15.178  55.777   4.074  1.00  0.00    +0.000 C 
ATOM     91  C60 UNL A   1      14.698  54.397   4.141  1.00  0.00    +0.000 C 
ATOM     92  N8  UNL A   1      15.312  53.775   3.082  1.00  0.00    +0.000 N 
ATOM     93  C61 UNL A   1      17.803  52.770  -0.472  1.00  0.00    +0.000 C 
ATOM     94  C62 UNL A   1      17.610  51.483  -0.730  1.00  0.00    +0.000 C 
ATOM     95  C63 UNL A   1      12.394  50.725   5.777  1.00  0.00    +0.000 C 
ATOM     96  C64 UNL A   1      12.490  52.020   6.046  1.00  0.00    +0.000 C 
ATOM    126  H28 UNL A   1      13.718  46.647   2.652  1.00  0.00    +0.000 H 
ATOM    127  H29 UNL A   1      15.339  46.885   0.620  1.00  0.00    +0.000 H 
ATOM    128  H30 UNL A   1      14.975  50.588   2.441  1.00  0.00    +0.000 H 
ENDROOT
BRANCH   40   39
ATOM     97  C65 UNL A   1      12.110  55.463   5.980  1.00  0.00    +0.000 C 
ATOM     98  C66 UNL A   1      11.619  56.296   6.989  1.00  0.00    +0.000 C 
ATOM     36  C23 UNL A   1      12.335  56.443   8.182  1.00  0.00    +0.000 C 
ATOM     37  C24 UNL A   1      13.577  55.817   8.331  1.00  0.00    +0.000 C 
ATOM     38  C25 UNL A   1      14.080  55.004   7.311  1.00  0.00    +0.000 C 
ATOM     39  C26 UNL A   1      13.342  54.808   6.135  1.00  0.00    +0.000 C 
ATOM    136  H38 UNL A   1      11.563  55.327   5.115  1.00  0.00    +0.000 H 
ATOM    137  H39 UNL A   1      10.730  56.802   6.854  1.00  0.00    +0.000 H 
ATOM    124  H26 UNL A   1      14.124  55.956   9.195  1.00  0.00    +0.000 H 
ATOM    125  H27 UNL A   1      14.998  54.545   7.425  1.00  0.00    +0.000 H 
BRANCH   36   34
ATOM     34  C22 UNL A   1      11.855  57.309   9.284  1.00  0.00    +0.000 C 
ATOM     35  O6  UNL A   1      12.056  58.519   9.223  1.00  0.00    +0.000 O 
BRANCH   34   33
ATOM     33  N4  UNL A   1      11.216  56.780  10.378  1.00  0.00    +0.000 N 
ATOM    123  H25 UNL A   1      10.739  57.436  10.936  1.00  0.00    +0.000 H 
BRANCH   33   32
ATOM    121  H23 UNL A   1      10.105  55.107  10.832  1.00  0.00    +0.000 H 
ATOM    122  H24 UNL A   1      11.727  54.809  10.185  1.00  0.00    +0.000 H 
ATOM     32  C21 UNL A   1      11.132  55.407  10.841  1.00  0.00    +0.000 C 
BRANCH   32   31
ATOM    119  H21 UNL A   1      12.126  56.151  12.555  1.00  0.00    +0.000 H 
ATOM     31  C20 UNL A   1      11.682  55.224  12.258  1.00  0.00    +0.000 C 
ATOM    120  H22 UNL A   1      10.843  54.920  12.848  1.00  0.00    +0.000 H 
BRANCH   31   30
ATOM    118  H20 UNL A   1      12.228  53.204  12.234  1.00  0.00    +0.000 H 
ATOM    117  H19 UNL A   1      13.100  54.194  13.456  1.00  0.00    +0.000 H 
ATOM     30  C19 UNL A   1      12.733  54.121  12.454  1.00  0.00    +0.000 C 
BRANCH   30   29
ATOM    115  H17 UNL A   1      13.801  54.962  10.823  1.00  0.00    +0.000 H 
ATOM    116  H18 UNL A   1      14.803  54.276  12.134  1.00  0.00    +0.000 H 
ATOM     29  C18 UNL A   1      13.940  54.156  11.513  1.00  0.00    +0.000 C 
BRANCH   29   28
ATOM    113  H15 UNL A   1      13.562  52.927   9.825  1.00  0.00    +0.000 H 
ATOM    114  H16 UNL A   1      15.212  52.826  10.502  1.00  0.00    +0.000 H 
ATOM     28  C17 UNL A   1      14.164  52.875  10.708  1.00  0.00    +0.000 C 
BRANCH   28   27
ATOM     27  C16 UNL A   1      13.808  51.577  11.451  1.00  0.00    +0.000 C 
ATOM    111  H13 UNL A   1      14.655  50.923  11.456  1.00  0.00    +0.000 H 
ATOM    112  H14 UNL A   1      13.532  51.803  12.459  1.00  0.00    +0.000 H 
BRANCH   27   26
ATOM     26  N3  UNL A   1      12.696  50.930  10.771  1.00  0.00    +0.000 N 
ATOM    110  H12 UNL A   1      11.809  51.278  11.018  1.00  0.00    +0.000 H 
BRANCH   26   24
ATOM     25  O5  UNL A   1      13.501  49.902   8.941  1.00  0.00    +0.000 O 
ATOM     24  C15 UNL A   1      12.669  49.919   9.848  1.00  0.00    +0.000 C 
BRANCH   24   23
ATOM    103  H5  UNL A   1      10.269  46.000  10.701  1.00  0.00    +0.000 H 
ATOM      8  C3  UNL A   1      11.469  47.721  10.416  1.00  0.00    +0.000 C 
ATOM      9  C4  UNL A   1      10.390  46.862  10.145  1.00  0.00    +0.000 C 
ATOM     10  C5  UNL A   1       9.482  47.164   9.126  1.00  0.00    +0.000 C 
ATOM    104  H6  UNL A   1       8.707  46.515   8.921  1.00  0.00    +0.000 H 
ATOM     11  C6  UNL A   1       9.618  48.342   8.383  1.00  0.00    +0.000 C 
ATOM    109  H11 UNL A   1      10.685  50.154   8.261  1.00  0.00    +0.000 H 
ATOM     22  C13 UNL A   1      10.625  49.246   8.748  1.00  0.00    +0.000 C 
ATOM     23  C14 UNL A   1      11.561  48.949   9.762  1.00  0.00    +0.000 C 
BRANCH    8    5
ATOM      5  S1  UNL A   1      12.763  47.107  11.447  1.00  0.00    +0.000 S 
ATOM      6  O2  UNL A   1      14.004  47.379  10.753  1.00  0.00    +0.000 O 
ATOM      7  O3  UNL A   1      12.433  45.789  11.926  1.00  0.00    +0.000 O 
BRANCH    5    4
ATOM      4  N1  UNL A   1      12.749  48.117  12.762  1.00  0.00    +0.000 N 
ATOM    102  H4  UNL A   1      13.349  48.897  12.714  1.00  0.00    +0.000 H 
BRANCH    4    2
ATOM      2  C2  UNL A   1      11.989  47.999  13.934  1.00  0.00    +0.000 C 
ATOM      3  O1  UNL A   1      12.479  47.403  14.885  1.00  0.00    +0.000 O 
BRANCH    2    1
ATOM      1  C1  UNL A   1      10.682  48.732  14.040  1.00  0.00    +0.000 C 
ATOM     99  H1  UNL A   1      10.323  48.676  15.047  1.00  0.00    +0.000 H 
ATOM    100  H2  UNL A   1       9.968  48.285  13.382  1.00  0.00    +0.000 H 
ATOM    101  H3  UNL A   1      10.826  49.757  13.769  1.00  0.00    +0.000 H 
ENDBRANCH    2    1
ENDBRANCH    4    2
ENDBRANCH    5    4
ENDBRANCH    8    5
BRANCH   11   12
ATOM    105  H7  UNL A   1       7.389  46.992   7.461  1.00  0.00    +0.000 H 
ATOM    106  H8  UNL A   1       6.073  47.454   5.567  1.00  0.00    +0.000 H 
ATOM    108  H10 UNL A   1      10.016  50.117   6.489  1.00  0.00    +0.000 H 
ATOM     12  C7  UNL A   1       8.836  48.562   7.141  1.00  0.00    +0.000 C 
ATOM     13  C8  UNL A   1       7.654  47.769   6.835  1.00  0.00    +0.000 C 
ATOM     14  C9  UNL A   1       6.907  48.029   5.758  1.00  0.00    +0.000 C 
ATOM     15  N2  UNL A   1       7.235  49.057   4.898  1.00  0.00    +0.000 N 
ATOM     19  C11 UNL A   1       8.340  49.868   5.098  1.00  0.00    +0.000 C 
ATOM     20  O4  UNL A   1       8.674  50.811   4.389  1.00  0.00    +0.000 O 
ATOM     21  C12 UNL A   1       9.170  49.557   6.300  1.00  0.00    +0.000 C 
BRANCH   15   16
ATOM     17  F1  UNL A   1       6.871  48.803   2.638  1.00  0.00    +0.000 F 
ATOM     18  F2  UNL A   1       5.127  48.908   3.965  1.00  0.00    +0.000 F 
ATOM    107  H9  UNL A   1       6.374  50.430   3.679  1.00  0.00    +0.000 H 
ATOM     16  C10 UNL A   1       6.388  49.365   3.773  1.00  0.00    +0.000 C 
ENDBRANCH   15   16
ENDBRANCH   11   12
ENDBRANCH   24   23
ENDBRANCH   26   24
ENDBRANCH   27   26
ENDBRANCH   28   27
ENDBRANCH   29   28
ENDBRANCH   30   29
ENDBRANCH   31   30
ENDBRANCH   32   31
ENDBRANCH   33   32
ENDBRANCH   34   33
ENDBRANCH   36   34
ENDBRANCH   40   39
BRANCH   44   45
ATOM     45  C31 UNL A   1      12.527  48.037   4.811  1.00  0.00    +0.000 C 
ATOM     46  C32 UNL A   1      11.331  47.541   4.278  1.00  0.00    +0.000 C 
ATOM     47  F3  UNL A   1      10.826  48.062   3.150  1.00  0.00    +0.000 F 
ATOM     48  C33 UNL A   1      10.639  46.516   4.918  1.00  0.00    +0.000 C 
ATOM     49  F4  UNL A   1       9.487  46.065   4.404  1.00  0.00    +0.000 F 
ATOM     50  C34 UNL A   1      11.138  45.965   6.089  1.00  0.00    +0.000 C 
ATOM     51  F5  UNL A   1      10.472  44.977   6.703  1.00  0.00    +0.000 F 
ATOM     52  C35 UNL A   1      12.324  46.441   6.628  1.00  0.00    +0.000 C 
ATOM     53  F6  UNL A   1      12.806  45.908   7.761  1.00  0.00    +0.000 F 
ATOM     54  C36 UNL A   1      13.014  47.472   5.997  1.00  0.00    +0.000 C 
ATOM     55  F7  UNL A   1      14.155  47.919   6.541  1.00  0.00    +0.000 F 
ENDBRANCH   44   45
BRANCH   61   62
ATOM     65  C44 UNL A   1      16.793  47.792  -3.092  1.00  0.00    +0.000 C 
ATOM     66  F9  UNL A   1      16.135  47.651  -4.252  1.00  0.00    +0.000 F 
ATOM     67  C45 UNL A   1      18.009  47.149  -2.904  1.00  0.00    +0.000 C 
ATOM     68  F10 UNL A   1      18.527  46.395  -3.883  1.00  0.00    +0.000 F 
ATOM     69  C46 UNL A   1      18.683  47.281  -1.699  1.00  0.00    +0.000 C 
ATOM     70  F11 UNL A   1      19.854  46.658  -1.515  1.00  0.00    +0.000 F 
ATOM     71  C47 UNL A   1      18.141  48.057  -0.678  1.00  0.00    +0.000 C 
ATOM     72  F12 UNL A   1      18.806  48.163   0.482  1.00  0.00    +0.000 F 
ATOM     62  C42 UNL A   1      16.917  48.716  -0.851  1.00  0.00    +0.000 C 
ATOM     63  C43 UNL A   1      16.252  48.573  -2.077  1.00  0.00    +0.000 C 
ATOM     64  F8  UNL A   1      15.070  49.175  -2.277  1.00  0.00    +0.000 F 
ENDBRANCH   61   62
BRANCH   76   77
ATOM     77  C51 UNL A   1      17.715  55.439   0.700  1.00  0.00    +0.000 C 
ATOM     78  C52 UNL A   1      17.220  56.180  -0.380  1.00  0.00    +0.000 C 
ATOM     79  F13 UNL A   1      16.024  55.880  -0.905  1.00  0.00    +0.000 F 
ATOM     80  C53 UNL A   1      17.965  57.216  -0.936  1.00  0.00    +0.000 C 
ATOM     81  F14 UNL A   1      17.480  57.902  -1.981  1.00  0.00    +0.000 F 
ATOM     82  C54 UNL A   1      19.211  57.534  -0.416  1.00  0.00    +0.000 C 
ATOM     83  F15 UNL A   1      19.927  58.533  -0.951  1.00  0.00    +0.000 F 
ATOM     84  C55 UNL A   1      19.718  56.813   0.656  1.00  0.00    +0.000 C 
ATOM     85  F16 UNL A   1      20.920  57.119   1.161  1.00  0.00    +0.000 F 
ATOM     86  C56 UNL A   1      18.978  55.770   1.207  1.00  0.00    +0.000 C 
ATOM     87  F17 UNL A   1      19.489  55.082   2.239  1.00  0.00    +0.000 F 
ENDBRANCH   76   77
TORSDOF 21
ENDMDL
MODEL 8
REMARK VINA RESULT:      -8.0     39.070     44.465
ROOT
ATOM    129  H31 UNL A   1      13.966  23.393   4.287  1.00  0.00    +0.000 H 
ATOM    130  H32 UNL A   1      15.702  22.846   2.514  1.00  0.00    +0.000 H 
ATOM    131  H33 UNL A   1      16.037  20.014   5.540  1.00  0.00    +0.000 H 
ATOM    132  H34 UNL A   1      12.470  21.193   8.904  1.00  0.00    +0.000 H 
ATOM    133  H35 UNL A   1      13.256  19.173  10.272  1.00  0.00    +0.000 H 
ATOM    134  H36 UNL A   1      20.133  17.025   3.269  1.00  0.00    +0.000 H 
ATOM    135  H37 UNL A   1      19.482  19.133   1.966  1.00  0.00    +0.000 H 
ATOM     40  C27 UNL A   1      17.288  20.550   3.101  1.00  0.00    +0.000 C 
ATOM     41  C28 UNL A   1      17.958  19.319   3.636  1.00  0.00    +0.000 C 
ATOM     42  N5  UNL A   1      17.692  18.641   4.724  1.00  0.00    +0.000 N 
ATOM     43  C29 UNL A   1      18.578  17.573   4.730  1.00  0.00    +0.000 C 
ATOM     44  C30 UNL A   1      18.700  16.583   5.645  1.00  0.00    +0.000 C 
ATOM     56  C37 UNL A   1      17.921  16.470   6.849  1.00  0.00    +0.000 C 
ATOM     57  C38 UNL A   1      18.005  15.514   7.848  1.00  0.00    +0.000 C 
ATOM     58  C39 UNL A   1      17.047  15.815   8.824  1.00  0.00    +0.000 C 
ATOM     59  C40 UNL A   1      16.377  16.963   8.436  1.00  0.00    +0.000 C 
ATOM     60  N6  UNL A   1      16.921  17.353   7.224  1.00  0.00    +0.000 N 
ATOM     61  C41 UNL A   1      15.319  17.660   9.116  1.00  0.00    +0.000 C 
ATOM     73  C48 UNL A   1      14.708  18.779   8.663  1.00  0.00    +0.000 C 
ATOM     74  N7  UNL A   1      14.947  19.484   7.493  1.00  0.00    +0.000 N 
ATOM     75  C49 UNL A   1      14.101  20.482   7.497  1.00  0.00    +0.000 C 
ATOM     76  C50 UNL A   1      13.914  21.564   6.475  1.00  0.00    +0.000 C 
ATOM     88  C57 UNL A   1      14.705  21.607   5.387  1.00  0.00    +0.000 C 
ATOM     89  C58 UNL A   1      14.625  22.599   4.319  1.00  0.00    +0.000 C 
ATOM     90  C59 UNL A   1      15.546  22.314   3.384  1.00  0.00    +0.000 C 
ATOM     91  C60 UNL A   1      16.291  21.126   3.799  1.00  0.00    +0.000 C 
ATOM     92  N8  UNL A   1      15.732  20.780   5.004  1.00  0.00    +0.000 N 
ATOM     93  C61 UNL A   1      13.219  20.521   8.673  1.00  0.00    +0.000 C 
ATOM     94  C62 UNL A   1      13.640  19.467   9.359  1.00  0.00    +0.000 C 
ATOM     95  C63 UNL A   1      19.394  17.693   3.538  1.00  0.00    +0.000 C 
ATOM     96  C64 UNL A   1      19.066  18.772   2.839  1.00  0.00    +0.000 C 
ATOM    126  H28 UNL A   1      18.660  14.717   7.869  1.00  0.00    +0.000 H 
ATOM    127  H29 UNL A   1      16.870  15.274   9.686  1.00  0.00    +0.000 H 
ATOM    128  H30 UNL A   1      16.639  18.140   6.704  1.00  0.00    +0.000 H 
ENDROOT
BRANCH   40   39
ATOM     97  C65 UNL A   1      18.669  22.128   1.733  1.00  0.00    +0.000 C 
ATOM     98  C66 UNL A   1      19.063  22.659   0.502  1.00  0.00    +0.000 C 
ATOM     36  C23 UNL A   1      18.517  22.156  -0.683  1.00  0.00    +0.000 C 
ATOM     37  C24 UNL A   1      17.521  21.175  -0.629  1.00  0.00    +0.000 C 
ATOM     38  C25 UNL A   1      17.109  20.660   0.603  1.00  0.00    +0.000 C 
ATOM     39  C26 UNL A   1      17.691  21.122   1.793  1.00  0.00    +0.000 C 
ATOM    136  H38 UNL A   1      19.099  22.476   2.604  1.00  0.00    +0.000 H 
ATOM    137  H39 UNL A   1      19.757  23.423   0.468  1.00  0.00    +0.000 H 
ATOM    124  H26 UNL A   1      17.090  20.829  -1.500  1.00  0.00    +0.000 H 
ATOM    125  H27 UNL A   1      16.372  19.938   0.638  1.00  0.00    +0.000 H 
BRANCH   36   34
ATOM     34  C22 UNL A   1      18.907  22.680  -2.012  1.00  0.00    +0.000 C 
ATOM     35  O6  UNL A   1      19.484  21.937  -2.802  1.00  0.00    +0.000 O 
BRANCH   34   33
ATOM     33  N4  UNL A   1      18.658  23.984  -2.364  1.00  0.00    +0.000 N 
ATOM    123  H25 UNL A   1      17.926  24.106  -3.010  1.00  0.00    +0.000 H 
BRANCH   33   32
ATOM    121  H23 UNL A   1      18.857  26.032  -2.451  1.00  0.00    +0.000 H 
ATOM    122  H24 UNL A   1      19.173  25.289  -0.875  1.00  0.00    +0.000 H 
ATOM     32  C21 UNL A   1      19.305  25.210  -1.933  1.00  0.00    +0.000 C 
BRANCH   32   31
ATOM    119  H21 UNL A   1      21.314  25.191  -1.269  1.00  0.00    +0.000 H 
ATOM     31  C20 UNL A   1      20.810  25.217  -2.212  1.00  0.00    +0.000 C 
ATOM    120  H22 UNL A   1      20.983  24.366  -2.837  1.00  0.00    +0.000 H 
BRANCH   31   30
ATOM    118  H20 UNL A   1      20.931  27.281  -2.542  1.00  0.00    +0.000 H 
ATOM    117  H19 UNL A   1      21.093  26.280  -4.028  1.00  0.00    +0.000 H 
ATOM     30  C19 UNL A   1      21.361  26.416  -3.001  1.00  0.00    +0.000 C 
BRANCH   30   29
ATOM    115  H17 UNL A   1      23.203  26.410  -1.945  1.00  0.00    +0.000 H 
ATOM    116  H18 UNL A   1      23.302  25.987  -3.678  1.00  0.00    +0.000 H 
ATOM     29  C18 UNL A   1      22.875  26.633  -2.939  1.00  0.00    +0.000 C 
BRANCH   29   28
ATOM    113  H15 UNL A   1      23.922  27.999  -4.180  1.00  0.00    +0.000 H 
ATOM    114  H16 UNL A   1      22.447  28.637  -3.397  1.00  0.00    +0.000 H 
ATOM     28  C17 UNL A   1      23.335  28.049  -3.287  1.00  0.00    +0.000 C 
BRANCH   28   27
ATOM     27  C16 UNL A   1      24.176  28.737  -2.201  1.00  0.00    +0.000 C 
ATOM    111  H13 UNL A   1      24.800  28.014  -1.718  1.00  0.00    +0.000 H 
ATOM    112  H14 UNL A   1      24.792  29.491  -2.645  1.00  0.00    +0.000 H 
BRANCH   27   26
ATOM     26  N3  UNL A   1      23.286  29.344  -1.222  1.00  0.00    +0.000 N 
ATOM    110  H12 UNL A   1      22.791  30.128  -1.553  1.00  0.00    +0.000 H 
BRANCH   26   24
ATOM     25  O5  UNL A   1      23.704  29.491   0.981  1.00  0.00    +0.000 O 
ATOM     24  C15 UNL A   1      23.018  29.014   0.079  1.00  0.00    +0.000 C 
BRANCH   24   23
ATOM    103  H5  UNL A   1      18.943  27.074   1.299  1.00  0.00    +0.000 H 
ATOM      8  C3  UNL A   1      20.712  28.095   0.740  1.00  0.00    +0.000 C 
ATOM      9  C4  UNL A   1      19.965  26.988   1.180  1.00  0.00    +0.000 C 
ATOM     10  C5  UNL A   1      20.597  25.773   1.461  1.00  0.00    +0.000 C 
ATOM    104  H6  UNL A   1      20.041  24.975   1.805  1.00  0.00    +0.000 H 
ATOM     11  C6  UNL A   1      21.977  25.634   1.279  1.00  0.00    +0.000 C 
ATOM    109  H11 UNL A   1      23.688  26.590   0.508  1.00  0.00    +0.000 H 
ATOM     22  C13 UNL A   1      22.686  26.708   0.722  1.00  0.00    +0.000 C 
ATOM     23  C14 UNL A   1      22.068  27.946   0.449  1.00  0.00    +0.000 C 
BRANCH    8    5
ATOM      5  S1  UNL A   1      19.923  29.673   0.758  1.00  0.00    +0.000 S 
ATOM      6  O2  UNL A   1      20.753  30.538   1.569  1.00  0.00    +0.000 O 
ATOM      7  O3  UNL A   1      18.512  29.520   1.009  1.00  0.00    +0.000 O 
BRANCH    5    4
ATOM      4  N1  UNL A   1      20.080  30.224  -0.798  1.00  0.00    +0.000 N 
ATOM    102  H4  UNL A   1      20.470  31.123  -0.900  1.00  0.00    +0.000 H 
BRANCH    4    2
ATOM      2  C2  UNL A   1      19.727  29.569  -1.986  1.00  0.00    +0.000 C 
ATOM      3  O1  UNL A   1      18.821  28.747  -1.947  1.00  0.00    +0.000 O 
BRANCH    2    1
ATOM      1  C1  UNL A   1      20.352  30.005  -3.280  1.00  0.00    +0.000 C 
ATOM     99  H1  UNL A   1      21.202  30.622  -3.076  1.00  0.00    +0.000 H 
ATOM    100  H2  UNL A   1      19.639  30.558  -3.853  1.00  0.00    +0.000 H 
ATOM    101  H3  UNL A   1      20.663  29.143  -3.834  1.00  0.00    +0.000 H 
ENDBRANCH    2    1
ENDBRANCH    4    2
ENDBRANCH    5    4
ENDBRANCH    8    5
BRANCH   11   12
ATOM    105  H7  UNL A   1      24.159  25.550   2.974  1.00  0.00    +0.000 H 
ATOM    106  H8  UNL A   1      25.210  23.670   3.921  1.00  0.00    +0.000 H 
ATOM    108  H10 UNL A   1      21.527  23.087   0.825  1.00  0.00    +0.000 H 
ATOM     12  C7  UNL A   1      22.708  24.456   1.807  1.00  0.00    +0.000 C 
ATOM     13  C8  UNL A   1      23.825  24.604   2.730  1.00  0.00    +0.000 C 
ATOM     14  C9  UNL A   1      24.423  23.537   3.267  1.00  0.00    +0.000 C 
ATOM     15  N2  UNL A   1      24.004  22.258   2.960  1.00  0.00    +0.000 N 
ATOM     19  C11 UNL A   1      22.954  22.010   2.092  1.00  0.00    +0.000 C 
ATOM     20  O4  UNL A   1      22.517  20.903   1.796  1.00  0.00    +0.000 O 
ATOM     21  C12 UNL A   1      22.303  23.212   1.493  1.00  0.00    +0.000 C 
BRANCH   15   16
ATOM     17  F1  UNL A   1      25.943  21.334   3.792  1.00  0.00    +0.000 F 
ATOM     18  F2  UNL A   1      24.051  20.850   4.791  1.00  0.00    +0.000 F 
ATOM    107  H9  UNL A   1      24.479  20.286   2.933  1.00  0.00    +0.000 H 
ATOM     16  C10 UNL A   1      24.620  21.118   3.592  1.00  0.00    +0.000 C 
ENDBRANCH   15   16
ENDBRANCH   11   12
ENDBRANCH   24   23
ENDBRANCH   26   24
ENDBRANCH   27   26
ENDBRANCH   28   27
ENDBRANCH   29   28
ENDBRANCH   30   29
ENDBRANCH   31   30
ENDBRANCH   32   31
ENDBRANCH   33   32
ENDBRANCH   34   33
ENDBRANCH   36   34
ENDBRANCH   40   39
BRANCH   44   45
ATOM     45  C31 UNL A   1      19.717  15.522   5.369  1.00  0.00    +0.000 C 
ATOM     46  C32 UNL A   1      19.394  14.383   4.620  1.00  0.00    +0.000 C 
ATOM     47  F3  UNL A   1      18.144  14.202   4.172  1.00  0.00    +0.000 F 
ATOM     48  C33 UNL A   1      20.358  13.416   4.347  1.00  0.00    +0.000 C 
ATOM     49  F4  UNL A   1      20.028  12.324   3.643  1.00  0.00    +0.000 F 
ATOM     50  C34 UNL A   1      21.657  13.578   4.805  1.00  0.00    +0.000 C 
ATOM     51  F5  UNL A   1      22.584  12.647   4.540  1.00  0.00    +0.000 F 
ATOM     52  C35 UNL A   1      21.996  14.702   5.544  1.00  0.00    +0.000 C 
ATOM     53  F6  UNL A   1      23.251  14.859   5.988  1.00  0.00    +0.000 F 
ATOM     54  C36 UNL A   1      21.033  15.667   5.829  1.00  0.00    +0.000 C 
ATOM     55  F7  UNL A   1      21.383  16.741   6.550  1.00  0.00    +0.000 F 
ENDBRANCH   44   45
BRANCH   61   62
ATOM     65  C44 UNL A   1      13.576  15.496  11.710  1.00  0.00    +0.000 C 
ATOM     66  F9  UNL A   1      12.731  14.456  11.747  1.00  0.00    +0.000 F 
ATOM     67  C45 UNL A   1      14.034  16.058  12.894  1.00  0.00    +0.000 C 
ATOM     68  F10 UNL A   1      13.636  15.557  14.072  1.00  0.00    +0.000 F 
ATOM     69  C46 UNL A   1      14.896  17.145  12.856  1.00  0.00    +0.000 C 
ATOM     70  F11 UNL A   1      15.334  17.690  13.998  1.00  0.00    +0.000 F 
ATOM     71  C47 UNL A   1      15.302  17.672  11.634  1.00  0.00    +0.000 C 
ATOM     72  F12 UNL A   1      16.129  18.727  11.622  1.00  0.00    +0.000 F 
ATOM     62  C42 UNL A   1      14.854  17.114  10.429  1.00  0.00    +0.000 C 
ATOM     63  C43 UNL A   1      13.985  16.015  10.486  1.00  0.00    +0.000 C 
ATOM     64  F8  UNL A   1      13.522  15.462   9.356  1.00  0.00    +0.000 F 
ENDBRANCH   61   62
BRANCH   76   77
ATOM     77  C51 UNL A   1      12.870  22.597   6.655  1.00  0.00    +0.000 C 
ATOM     78  C52 UNL A   1      13.069  23.668   7.535  1.00  0.00    +0.000 C 
ATOM     79  F13 UNL A   1      14.200  23.745   8.250  1.00  0.00    +0.000 F 
ATOM     80  C53 UNL A   1      12.095  24.649   7.698  1.00  0.00    +0.000 C 
ATOM     81  F14 UNL A   1      12.298  25.656   8.559  1.00  0.00    +0.000 F 
ATOM     82  C54 UNL A   1      10.911  24.581   6.978  1.00  0.00    +0.000 C 
ATOM     83  F15 UNL A   1       9.975  25.526   7.134  1.00  0.00    +0.000 F 
ATOM     84  C55 UNL A   1      10.697  23.528   6.099  1.00  0.00    +0.000 C 
ATOM     85  F16 UNL A   1       9.556  23.461   5.400  1.00  0.00    +0.000 F 
ATOM     86  C56 UNL A   1      11.666  22.542   5.941  1.00  0.00    +0.000 C 
ATOM     87  F17 UNL A   1      11.437  21.530   5.091  1.00  0.00    +0.000 F 
ENDBRANCH   76   77
TORSDOF 21
ENDMDL
MODEL 9
REMARK VINA RESULT:      -7.9     20.025     26.657
ROOT
ATOM    129  H31 UNL A   1      12.259   1.874  23.844  1.00  0.00    +0.000 H 
ATOM    130  H32 UNL A   1      10.681   3.348  22.504  1.00  0.00    +0.000 H 
ATOM    131  H33 UNL A   1       8.815  -0.323  23.078  1.00  0.00    +0.000 H 
ATOM    132  H34 UNL A   1      12.032  -3.068  25.824  1.00  0.00    +0.000 H 
ATOM    133  H35 UNL A   1      10.298  -4.953  25.759  1.00  0.00    +0.000 H 
ATOM    134  H36 UNL A   1       4.071   0.870  20.442  1.00  0.00    +0.000 H 
ATOM    135  H37 UNL A   1       5.852   2.708  20.347  1.00  0.00    +0.000 H 
ATOM     40  C27 UNL A   1       8.207   2.100  21.828  1.00  0.00    +0.000 C 
ATOM     41  C28 UNL A   1       7.003   1.229  21.624  1.00  0.00    +0.000 C 
ATOM     42  N5  UNL A   1       6.776   0.018  22.068  1.00  0.00    +0.000 N 
ATOM     43  C29 UNL A   1       5.503  -0.313  21.628  1.00  0.00    +0.000 C 
ATOM     44  C30 UNL A   1       4.811  -1.459  21.830  1.00  0.00    +0.000 C 
ATOM     56  C37 UNL A   1       5.305  -2.607  22.542  1.00  0.00    +0.000 C 
ATOM     57  C38 UNL A   1       4.679  -3.823  22.764  1.00  0.00    +0.000 C 
ATOM     58  C39 UNL A   1       5.549  -4.634  23.504  1.00  0.00    +0.000 C 
ATOM     59  C40 UNL A   1       6.716  -3.926  23.731  1.00  0.00    +0.000 C 
ATOM     60  N6  UNL A   1       6.553  -2.685  23.139  1.00  0.00    +0.000 N 
ATOM     61  C41 UNL A   1       7.899  -4.344  24.435  1.00  0.00    +0.000 C 
ATOM     73  C48 UNL A   1       9.002  -3.583  24.621  1.00  0.00    +0.000 C 
ATOM     74  N7  UNL A   1       9.242  -2.285  24.196  1.00  0.00    +0.000 N 
ATOM     75  C49 UNL A   1      10.441  -1.983  24.625  1.00  0.00    +0.000 C 
ATOM     76  C50 UNL A   1      11.210  -0.707  24.454  1.00  0.00    +0.000 C 
ATOM     88  C57 UNL A   1      10.680   0.310  23.750  1.00  0.00    +0.000 C 
ATOM     89  C58 UNL A   1      11.319   1.602  23.515  1.00  0.00    +0.000 C 
ATOM     90  C59 UNL A   1      10.488   2.379  22.802  1.00  0.00    +0.000 C 
ATOM     91  C60 UNL A   1       9.264   1.631  22.518  1.00  0.00    +0.000 C 
ATOM     92  N8  UNL A   1       9.471   0.410  23.110  1.00  0.00    +0.000 N 
ATOM     93  C61 UNL A   1      11.101  -3.060  25.379  1.00  0.00    +0.000 C 
ATOM     94  C62 UNL A   1      10.184  -4.018  25.336  1.00  0.00    +0.000 C 
ATOM     95  C63 UNL A   1       5.006   0.823  20.878  1.00  0.00    +0.000 C 
ATOM     96  C64 UNL A   1       5.907   1.795  20.825  1.00  0.00    +0.000 C 
ATOM    126  H28 UNL A   1       3.735  -4.085  22.441  1.00  0.00    +0.000 H 
ATOM    127  H29 UNL A   1       5.352  -5.596  23.825  1.00  0.00    +0.000 H 
ATOM    128  H30 UNL A   1       7.223  -1.964  23.141  1.00  0.00    +0.000 H 
ENDROOT
BRANCH   40   39
ATOM     97  C65 UNL A   1       7.786   4.553  22.104  1.00  0.00    +0.000 C 
ATOM     98  C66 UNL A   1       7.822   5.864  21.621  1.00  0.00    +0.000 C 
ATOM     36  C23 UNL A   1       8.350   6.126  20.353  1.00  0.00    +0.000 C 
ATOM     37  C24 UNL A   1       8.769   5.067  19.540  1.00  0.00    +0.000 C 
ATOM     38  C25 UNL A   1       8.710   3.754  20.013  1.00  0.00    +0.000 C 
ATOM     39  C26 UNL A   1       8.233   3.488  21.305  1.00  0.00    +0.000 C 
ATOM    136  H38 UNL A   1       7.428   4.365  23.054  1.00  0.00    +0.000 H 
ATOM    137  H39 UNL A   1       7.458   6.637  22.200  1.00  0.00    +0.000 H 
ATOM    124  H26 UNL A   1       9.124   5.256  18.590  1.00  0.00    +0.000 H 
ATOM    125  H27 UNL A   1       9.019   2.976  19.409  1.00  0.00    +0.000 H 
BRANCH   36   34
ATOM     34  C22 UNL A   1       8.416   7.499  19.799  1.00  0.00    +0.000 C 
ATOM     35  O6  UNL A   1       8.931   7.673  18.697  1.00  0.00    +0.000 O 
BRANCH   34   33
ATOM     33  N4  UNL A   1       7.939   8.575  20.504  1.00  0.00    +0.000 N 
ATOM    123  H25 UNL A   1       8.538   8.905  21.211  1.00  0.00    +0.000 H 
BRANCH   33   32
ATOM    121  H23 UNL A   1       6.898  10.351  20.434  1.00  0.00    +0.000 H 
ATOM    122  H24 UNL A   1       6.263   9.040  19.426  1.00  0.00    +0.000 H 
ATOM     32  C21 UNL A   1       6.691   9.303  20.370  1.00  0.00    +0.000 C 
BRANCH   32   31
ATOM    119  H21 UNL A   1       4.843   9.608  21.356  1.00  0.00    +0.000 H 
ATOM     31  C20 UNL A   1       5.672   8.940  21.454  1.00  0.00    +0.000 C 
ATOM    120  H22 UNL A   1       5.439   7.909  21.286  1.00  0.00    +0.000 H 
BRANCH   31   30
ATOM    118  H20 UNL A   1       6.572   9.991  23.025  1.00  0.00    +0.000 H 
ATOM    117  H19 UNL A   1       6.856   8.215  23.060  1.00  0.00    +0.000 H 
ATOM     30  C19 UNL A   1       6.158   9.011  22.910  1.00  0.00    +0.000 C 
BRANCH   30   29
ATOM    115  H17 UNL A   1       4.761   9.884  24.251  1.00  0.00    +0.000 H 
ATOM    116  H18 UNL A   1       4.299   8.295  23.577  1.00  0.00    +0.000 H 
ATOM     29  C18 UNL A   1       5.081   8.896  23.992  1.00  0.00    +0.000 C 
BRANCH   29   28
ATOM    113  H15 UNL A   1       5.699   8.938  26.022  1.00  0.00    +0.000 H 
ATOM    114  H16 UNL A   1       4.753   7.504  25.530  1.00  0.00    +0.000 H 
ATOM     28  C17 UNL A   1       5.531   8.192  25.273  1.00  0.00    +0.000 C 
BRANCH   28   27
ATOM     27  C16 UNL A   1       6.815   7.360  25.133  1.00  0.00    +0.000 C 
ATOM    111  H13 UNL A   1       7.289   7.587  24.201  1.00  0.00    +0.000 H 
ATOM    112  H14 UNL A   1       7.485   7.592  25.934  1.00  0.00    +0.000 H 
BRANCH   27   26
ATOM     26  N3  UNL A   1       6.472   5.945  25.174  1.00  0.00    +0.000 N 
ATOM    110  H12 UNL A   1       6.276   5.548  24.295  1.00  0.00    +0.000 H 
BRANCH   26   24
ATOM     25  O5  UNL A   1       5.553   5.283  27.115  1.00  0.00    +0.000 O 
ATOM     24  C15 UNL A   1       6.374   5.073  26.224  1.00  0.00    +0.000 C 
BRANCH   24   23
ATOM    103  H5  UNL A   1       8.099   0.728  26.224  1.00  0.00    +0.000 H 
ATOM      8  C3  UNL A   1       7.185   2.637  26.154  1.00  0.00    +0.000 C 
ATOM      9  C4  UNL A   1       8.173   1.711  26.531  1.00  0.00    +0.000 C 
ATOM     10  C5  UNL A   1       9.256   2.111  27.321  1.00  0.00    +0.000 C 
ATOM    104  H6  UNL A   1       9.963   1.418  27.610  1.00  0.00    +0.000 H 
ATOM     11  C6  UNL A   1       9.384   3.446  27.721  1.00  0.00    +0.000 C 
ATOM    109  H11 UNL A   1       8.588   5.378  27.456  1.00  0.00    +0.000 H 
ATOM     22  C13 UNL A   1       8.457   4.378  27.234  1.00  0.00    +0.000 C 
ATOM     23  C14 UNL A   1       7.350   3.989  26.451  1.00  0.00    +0.000 C 
BRANCH    8    5
ATOM      5  S1  UNL A   1       5.683   1.999  25.482  1.00  0.00    +0.000 S 
ATOM      6  O2  UNL A   1       5.517   2.620  24.186  1.00  0.00    +0.000 O 
ATOM      7  O3  UNL A   1       4.641   2.028  26.478  1.00  0.00    +0.000 O 
BRANCH    5    4
ATOM      4  N1  UNL A   1       6.018   0.403  25.181  1.00  0.00    +0.000 N 
ATOM    102  H4  UNL A   1       6.655   0.226  24.451  1.00  0.00    +0.000 H 
BRANCH    4    2
ATOM      2  C2  UNL A   1       5.507  -0.725  25.836  1.00  0.00    +0.000 C 
ATOM      3  O1  UNL A   1       4.365  -1.081  25.574  1.00  0.00    +0.000 O 
BRANCH    2    1
ATOM      1  C1  UNL A   1       6.415  -1.545  26.708  1.00  0.00    +0.000 C 
ATOM     99  H1  UNL A   1       6.844  -0.920  27.463  1.00  0.00    +0.000 H 
ATOM    100  H2  UNL A   1       7.194  -1.969  26.112  1.00  0.00    +0.000 H 
ATOM    101  H3  UNL A   1       5.853  -2.328  27.172  1.00  0.00    +0.000 H 
ENDBRANCH    2    1
ENDBRANCH    4    2
ENDBRANCH    5    4
ENDBRANCH    8    5
BRANCH   11   12
ATOM    105  H7  UNL A   1       8.930   4.499  30.237  1.00  0.00    +0.000 H 
ATOM    106  H8  UNL A   1      10.492   4.986  31.927  1.00  0.00    +0.000 H 
ATOM    108  H10 UNL A   1      12.006   3.343  27.626  1.00  0.00    +0.000 H 
ATOM     12  C7  UNL A   1      10.365   3.846  28.760  1.00  0.00    +0.000 C 
ATOM     13  C8  UNL A   1       9.936   4.353  30.057  1.00  0.00    +0.000 C 
ATOM     14  C9  UNL A   1      10.823   4.632  31.017  1.00  0.00    +0.000 C 
ATOM     15  N2  UNL A   1      12.175   4.452  30.808  1.00  0.00    +0.000 N 
ATOM     19  C11 UNL A   1      12.685   3.978  29.611  1.00  0.00    +0.000 C 
ATOM     20  O4  UNL A   1      13.870   3.773  29.368  1.00  0.00    +0.000 O 
ATOM     21  C12 UNL A   1      11.682   3.682  28.545  1.00  0.00    +0.000 C 
BRANCH   15   16
ATOM     17  F1  UNL A   1      12.574   5.508  32.816  1.00  0.00    +0.000 F 
ATOM     18  F2  UNL A   1      13.498   3.549  32.472  1.00  0.00    +0.000 F 
ATOM    107  H9  UNL A   1      13.966   5.174  31.428  1.00  0.00    +0.000 H 
ATOM     16  C10 UNL A   1      13.116   4.701  31.872  1.00  0.00    +0.000 C 
ENDBRANCH   15   16
ENDBRANCH   11   12
ENDBRANCH   24   23
ENDBRANCH   26   24
ENDBRANCH   27   26
ENDBRANCH   28   27
ENDBRANCH   29   28
ENDBRANCH   30   29
ENDBRANCH   31   30
ENDBRANCH   32   31
ENDBRANCH   33   32
ENDBRANCH   34   33
ENDBRANCH   36   34
ENDBRANCH   40   39
BRANCH   44   45
ATOM     45  C31 UNL A   1       3.423  -1.524  21.278  1.00  0.00    +0.000 C 
ATOM     46  C32 UNL A   1       2.328  -1.039  22.006  1.00  0.00    +0.000 C 
ATOM     47  F3  UNL A   1       2.503  -0.547  23.240  1.00  0.00    +0.000 F 
ATOM     48  C33 UNL A   1       1.044  -1.080  21.468  1.00  0.00    +0.000 C 
ATOM     49  F4  UNL A   1       0.005  -0.629  22.185  1.00  0.00    +0.000 F 
ATOM     50  C34 UNL A   1       0.837  -1.591  20.195  1.00  0.00    +0.000 C 
ATOM     51  F5  UNL A   1      -0.399  -1.628  19.680  1.00  0.00    +0.000 F 
ATOM     52  C35 UNL A   1       1.911  -2.070  19.459  1.00  0.00    +0.000 C 
ATOM     53  F6  UNL A   1       1.711  -2.564  18.228  1.00  0.00    +0.000 F 
ATOM     54  C36 UNL A   1       3.195  -2.040  19.995  1.00  0.00    +0.000 C 
ATOM     55  F7  UNL A   1       4.215  -2.515  19.266  1.00  0.00    +0.000 F 
ENDBRANCH   44   45
BRANCH   61   62
ATOM     65  C44 UNL A   1       8.362  -8.101  24.774  1.00  0.00    +0.000 C 
ATOM     66  F9  UNL A   1       8.727  -9.141  24.011  1.00  0.00    +0.000 F 
ATOM     67  C45 UNL A   1       8.016  -8.305  26.103  1.00  0.00    +0.000 C 
ATOM     68  F10 UNL A   1       8.056  -9.539  26.624  1.00  0.00    +0.000 F 
ATOM     69  C46 UNL A   1       7.622  -7.231  26.888  1.00  0.00    +0.000 C 
ATOM     70  F11 UNL A   1       7.284  -7.429  28.169  1.00  0.00    +0.000 F 
ATOM     71  C47 UNL A   1       7.571  -5.951  26.346  1.00  0.00    +0.000 C 
ATOM     72  F12 UNL A   1       7.178  -4.930  27.121  1.00  0.00    +0.000 F 
ATOM     62  C42 UNL A   1       7.920  -5.726  25.007  1.00  0.00    +0.000 C 
ATOM     63  C43 UNL A   1       8.319  -6.822  24.229  1.00  0.00    +0.000 C 
ATOM     64  F8  UNL A   1       8.646  -6.651  22.940  1.00  0.00    +0.000 F 
ENDBRANCH   61   62
BRANCH   76   77
ATOM     77  C51 UNL A   1      12.559  -0.556  25.045  1.00  0.00    +0.000 C 
ATOM     78  C52 UNL A   1      13.655  -1.243  24.510  1.00  0.00    +0.000 C 
ATOM     79  F13 UNL A   1      13.482  -2.074  23.472  1.00  0.00    +0.000 F 
ATOM     80  C53 UNL A   1      14.927  -1.094  25.055  1.00  0.00    +0.000 C 
ATOM     81  F14 UNL A   1      15.960  -1.774  24.538  1.00  0.00    +0.000 F 
ATOM     82  C54 UNL A   1      15.125  -0.250  26.138  1.00  0.00    +0.000 C 
ATOM     83  F15 UNL A   1      16.350  -0.105  26.661  1.00  0.00    +0.000 F 
ATOM     84  C55 UNL A   1      14.051   0.442  26.681  1.00  0.00    +0.000 C 
ATOM     85  F16 UNL A   1      14.240   1.259  27.725  1.00  0.00    +0.000 F 
ATOM     86  C56 UNL A   1      12.777   0.287  26.142  1.00  0.00    +0.000 C 
ATOM     87  F17 UNL A   1      11.752   0.960  26.686  1.00  0.00    +0.000 F 
ENDBRANCH   76   77
TORSDOF 21
ENDMDL
MODEL 10
REMARK VINA RESULT:      -7.9     35.817     41.406
ROOT
ATOM    129  H31 UNL A   1      13.587  23.561   5.006  1.00  0.00    +0.000 H 
ATOM    130  H32 UNL A   1      15.544  23.305   3.405  1.00  0.00    +0.000 H 
ATOM    131  H33 UNL A   1      15.839  20.302   6.266  1.00  0.00    +0.000 H 
ATOM    132  H34 UNL A   1      11.843  20.902   9.282  1.00  0.00    +0.000 H 
ATOM    133  H35 UNL A   1      12.677  18.868  10.598  1.00  0.00    +0.000 H 
ATOM    134  H36 UNL A   1      20.424  17.873   4.278  1.00  0.00    +0.000 H 
ATOM    135  H37 UNL A   1      19.707  20.002   3.046  1.00  0.00    +0.000 H 
ATOM     40  C27 UNL A   1      17.279  21.126   4.018  1.00  0.00    +0.000 C 
ATOM     41  C28 UNL A   1      18.007  19.926   4.545  1.00  0.00    +0.000 C 
ATOM     42  N5  UNL A   1      17.697  19.148   5.552  1.00  0.00    +0.000 N 
ATOM     43  C29 UNL A   1      18.678  18.168   5.589  1.00  0.00    +0.000 C 
ATOM     44  C30 UNL A   1      18.802  17.129   6.448  1.00  0.00    +0.000 C 
ATOM     56  C37 UNL A   1      17.917  16.858   7.549  1.00  0.00    +0.000 C 
ATOM     57  C38 UNL A   1      17.989  15.843   8.489  1.00  0.00    +0.000 C 
ATOM     58  C39 UNL A   1      16.910  15.984   9.370  1.00  0.00    +0.000 C 
ATOM     59  C40 UNL A   1      16.175  17.091   8.984  1.00  0.00    +0.000 C 
ATOM     60  N6  UNL A   1      16.801  17.617   7.866  1.00  0.00    +0.000 N 
ATOM     61  C41 UNL A   1      14.988  17.637   9.585  1.00  0.00    +0.000 C 
ATOM     73  C48 UNL A   1      14.320  18.726   9.138  1.00  0.00    +0.000 C 
ATOM     74  N7  UNL A   1      14.610  19.533   8.049  1.00  0.00    +0.000 N 
ATOM     75  C49 UNL A   1      13.673  20.447   8.021  1.00  0.00    +0.000 C 
ATOM     76  C50 UNL A   1      13.488  21.579   7.055  1.00  0.00    +0.000 C 
ATOM     88  C57 UNL A   1      14.380  21.773   6.067  1.00  0.00    +0.000 C 
ATOM     89  C58 UNL A   1      14.314  22.830   5.061  1.00  0.00    +0.000 C 
ATOM     90  C59 UNL A   1      15.351  22.699   4.217  1.00  0.00    +0.000 C 
ATOM     91  C60 UNL A   1      16.163  21.557   4.636  1.00  0.00    +0.000 C 
ATOM     92  N8  UNL A   1      15.517  21.074   5.748  1.00  0.00    +0.000 N 
ATOM     93  C61 UNL A   1      12.674  20.320   9.093  1.00  0.00    +0.000 C 
ATOM     94  C62 UNL A   1      13.123  19.261   9.754  1.00  0.00    +0.000 C 
ATOM     95  C63 UNL A   1      19.598  18.449   4.505  1.00  0.00    +0.000 C 
ATOM     96  C64 UNL A   1      19.240  19.542   3.843  1.00  0.00    +0.000 C 
ATOM    126  H28 UNL A   1      18.714  15.110   8.532  1.00  0.00    +0.000 H 
ATOM    127  H29 UNL A   1      16.699  15.367  10.171  1.00  0.00    +0.000 H 
ATOM    128  H30 UNL A   1      16.498  18.410   7.368  1.00  0.00    +0.000 H 
ENDROOT
BRANCH   40   39
ATOM     97  C65 UNL A   1      18.543  22.985   2.916  1.00  0.00    +0.000 C 
ATOM     98  C66 UNL A   1      19.010  23.640   1.773  1.00  0.00    +0.000 C 
ATOM     36  C23 UNL A   1      18.734  23.115   0.506  1.00  0.00    +0.000 C 
ATOM     37  C24 UNL A   1      17.927  21.979   0.384  1.00  0.00    +0.000 C 
ATOM     38  C25 UNL A   1      17.440  21.338   1.526  1.00  0.00    +0.000 C 
ATOM     39  C26 UNL A   1      17.757  21.827   2.801  1.00  0.00    +0.000 C 
ATOM    136  H38 UNL A   1      18.778  23.354   3.851  1.00  0.00    +0.000 H 
ATOM    137  H39 UNL A   1      19.557  24.511   1.864  1.00  0.00    +0.000 H 
ATOM    124  H26 UNL A   1      17.691  21.613  -0.552  1.00  0.00    +0.000 H 
ATOM    125  H27 UNL A   1      16.843  20.501   1.430  1.00  0.00    +0.000 H 
BRANCH   36   34
ATOM     34  C22 UNL A   1      19.211  23.768  -0.735  1.00  0.00    +0.000 C 
ATOM     35  O6  UNL A   1      18.500  23.738  -1.737  1.00  0.00    +0.000 O 
BRANCH   34   33
ATOM     33  N4  UNL A   1      20.438  24.380  -0.791  1.00  0.00    +0.000 N 
ATOM    123  H25 UNL A   1      20.410  25.349  -0.962  1.00  0.00    +0.000 H 
BRANCH   33   32
ATOM    121  H23 UNL A   1      22.423  24.305  -1.336  1.00  0.00    +0.000 H 
ATOM    122  H24 UNL A   1      22.075  23.994   0.373  1.00  0.00    +0.000 H 
ATOM     32  C21 UNL A   1      21.770  23.825  -0.637  1.00  0.00    +0.000 C 
BRANCH   32   31
ATOM    119  H21 UNL A   1      20.873  22.026  -1.299  1.00  0.00    +0.000 H 
ATOM     31  C20 UNL A   1      21.816  22.315  -0.885  1.00  0.00    +0.000 C 
ATOM    120  H22 UNL A   1      22.654  22.162  -1.532  1.00  0.00    +0.000 H 
BRANCH   31   30
ATOM    118  H20 UNL A   1      22.885  20.777   0.049  1.00  0.00    +0.000 H 
ATOM    117  H19 UNL A   1      21.169  20.914   0.574  1.00  0.00    +0.000 H 
ATOM     30  C19 UNL A   1      22.081  21.421   0.337  1.00  0.00    +0.000 C 
BRANCH   30   29
ATOM    115  H17 UNL A   1      23.633  22.152   1.589  1.00  0.00    +0.000 H 
ATOM    116  H18 UNL A   1      22.120  23.104   1.593  1.00  0.00    +0.000 H 
ATOM     29  C18 UNL A   1      22.563  22.130   1.606  1.00  0.00    +0.000 C 
BRANCH   29   28
ATOM    113  H15 UNL A   1      21.535  22.181   3.461  1.00  0.00    +0.000 H 
ATOM    114  H16 UNL A   1      21.576  20.594   2.642  1.00  0.00    +0.000 H 
ATOM     28  C17 UNL A   1      22.121  21.473   2.915  1.00  0.00    +0.000 C 
BRANCH   28   27
ATOM     27  C16 UNL A   1      23.272  21.007   3.820  1.00  0.00    +0.000 C 
ATOM    111  H13 UNL A   1      24.208  21.249   3.364  1.00  0.00    +0.000 H 
ATOM    112  H14 UNL A   1      23.205  21.497   4.769  1.00  0.00    +0.000 H 
BRANCH   27   26
ATOM     26  N3  UNL A   1      23.177  19.566   4.005  1.00  0.00    +0.000 N 
ATOM    110  H12 UNL A   1      22.422  19.143   3.535  1.00  0.00    +0.000 H 
BRANCH   26   24
ATOM     25  O5  UNL A   1      23.665  17.501   4.748  1.00  0.00    +0.000 O 
ATOM     24  C15 UNL A   1      23.955  18.696   4.721  1.00  0.00    +0.000 C 
BRANCH   24   23
ATOM    103  H5  UNL A   1      28.226  20.034   6.072  1.00  0.00    +0.000 H 
ATOM      8  C3  UNL A   1      26.349  19.416   5.310  1.00  0.00    +0.000 C 
ATOM      9  C4  UNL A   1      27.268  19.741   6.323  1.00  0.00    +0.000 C 
ATOM     10  C5  UNL A   1      26.894  19.669   7.668  1.00  0.00    +0.000 C 
ATOM    104  H6  UNL A   1      27.584  19.888   8.404  1.00  0.00    +0.000 H 
ATOM     11  C6  UNL A   1      25.592  19.300   8.023  1.00  0.00    +0.000 C 
ATOM    109  H11 UNL A   1      23.674  18.906   7.248  1.00  0.00    +0.000 H 
ATOM     22  C13 UNL A   1      24.656  19.099   6.998  1.00  0.00    +0.000 C 
ATOM     23  C14 UNL A   1      25.020  19.151   5.636  1.00  0.00    +0.000 C 
BRANCH    8    5
ATOM      5  S1  UNL A   1      26.982  19.175   3.680  1.00  0.00    +0.000 S 
ATOM      6  O2  UNL A   1      26.824  20.436   2.988  1.00  0.00    +0.000 O 
ATOM      7  O3  UNL A   1      26.485  17.939   3.131  1.00  0.00    +0.000 O 
BRANCH    5    4
ATOM      4  N1  UNL A   1      28.615  18.983   3.903  1.00  0.00    +0.000 N 
ATOM    102  H4  UNL A   1      29.152  19.808   3.888  1.00  0.00    +0.000 H 
BRANCH    4    2
ATOM      2  C2  UNL A   1      29.324  17.792   4.110  1.00  0.00    +0.000 C 
ATOM      3  O1  UNL A   1      29.464  17.028   3.163  1.00  0.00    +0.000 O 
BRANCH    2    1
ATOM      1  C1  UNL A   1      30.015  17.566   5.424  1.00  0.00    +0.000 C 
ATOM     99  H1  UNL A   1      29.952  18.454   6.017  1.00  0.00    +0.000 H 
ATOM    100  H2  UNL A   1      31.042  17.325   5.250  1.00  0.00    +0.000 H 
ATOM    101  H3  UNL A   1      29.541  16.758   5.941  1.00  0.00    +0.000 H 
ENDBRANCH    2    1
ENDBRANCH    4    2
ENDBRANCH    5    4
ENDBRANCH    8    5
BRANCH   11   12
ATOM    105  H7  UNL A   1      27.088  19.636  10.323  1.00  0.00    +0.000 H 
ATOM    106  H8  UNL A   1      26.458  19.241  12.554  1.00  0.00    +0.000 H 
ATOM    108  H10 UNL A   1      23.385  18.220   8.948  1.00  0.00    +0.000 H 
ATOM     12  C7  UNL A   1      25.242  18.965   9.425  1.00  0.00    +0.000 C 
ATOM     13  C8  UNL A   1      26.152  19.252  10.526  1.00  0.00    +0.000 C 
ATOM     14  C9  UNL A   1      25.795  19.026  11.794  1.00  0.00    +0.000 C 
ATOM     15  N2  UNL A   1      24.553  18.509  12.101  1.00  0.00    +0.000 N 
ATOM     19  C11 UNL A   1      23.617  18.200  11.127  1.00  0.00    +0.000 C 
ATOM     20  O4  UNL A   1      22.490  17.762  11.332  1.00  0.00    +0.000 O 
ATOM     21  C12 UNL A   1      24.035  18.449   9.716  1.00  0.00    +0.000 C 
BRANCH   15   16
ATOM     17  F1  UNL A   1      25.245  18.176  14.272  1.00  0.00    +0.000 F 
ATOM     18  F2  UNL A   1      23.446  19.383  13.930  1.00  0.00    +0.000 F 
ATOM    107  H9  UNL A   1      23.555  17.443  13.508  1.00  0.00    +0.000 H 
ATOM     16  C10 UNL A   1      24.160  18.325  13.475  1.00  0.00    +0.000 C 
ENDBRANCH   15   16
ENDBRANCH   11   12
ENDBRANCH   24   23
ENDBRANCH   26   24
ENDBRANCH   27   26
ENDBRANCH   28   27
ENDBRANCH   29   28
ENDBRANCH   30   29
ENDBRANCH   31   30
ENDBRANCH   32   31
ENDBRANCH   33   32
ENDBRANCH   34   33
ENDBRANCH   36   34
ENDBRANCH   40   39
BRANCH   44   45
ATOM     45  C31 UNL A   1      19.941  16.188   6.221  1.00  0.00    +0.000 C 
ATOM     46  C32 UNL A   1      21.167  16.362   6.875  1.00  0.00    +0.000 C 
ATOM     47  F3  UNL A   1      21.356  17.410   7.689  1.00  0.00    +0.000 F 
ATOM     48  C33 UNL A   1      22.212  15.462   6.677  1.00  0.00    +0.000 C 
ATOM     49  F4  UNL A   1      23.385  15.653   7.297  1.00  0.00    +0.000 F 
ATOM     50  C34 UNL A   1      22.043  14.373   5.834  1.00  0.00    +0.000 C 
ATOM     51  F5  UNL A   1      23.049  13.508   5.646  1.00  0.00    +0.000 F 
ATOM     52  C35 UNL A   1      20.834  14.183   5.182  1.00  0.00    +0.000 C 
ATOM     53  F6  UNL A   1      20.670  13.131   4.367  1.00  0.00    +0.000 F 
ATOM     54  C36 UNL A   1      19.790  15.085   5.370  1.00  0.00    +0.000 C 
ATOM     55  F7  UNL A   1      18.633  14.883   4.723  1.00  0.00    +0.000 F 
ENDBRANCH   44   45
BRANCH   61   62
ATOM     65  C44 UNL A   1      14.294  16.748  13.215  1.00  0.00    +0.000 C 
ATOM     66  F9  UNL A   1      14.680  17.140  14.437  1.00  0.00    +0.000 F 
ATOM     67  C45 UNL A   1      13.375  15.716  13.077  1.00  0.00    +0.000 C 
ATOM     68  F10 UNL A   1      12.869  15.120  14.165  1.00  0.00    +0.000 F 
ATOM     69  C46 UNL A   1      12.987  15.299  11.812  1.00  0.00    +0.000 C 
ATOM     70  F11 UNL A   1      12.103  14.301  11.679  1.00  0.00    +0.000 F 
ATOM     71  C47 UNL A   1      13.518  15.911  10.681  1.00  0.00    +0.000 C 
ATOM     72  F12 UNL A   1      13.136  15.485   9.469  1.00  0.00    +0.000 F 
ATOM     62  C42 UNL A   1      14.444  16.956  10.801  1.00  0.00    +0.000 C 
ATOM     63  C43 UNL A   1      14.822  17.367  12.087  1.00  0.00    +0.000 C 
ATOM     64  F8  UNL A   1      15.717  18.353  12.244  1.00  0.00    +0.000 F 
ENDBRANCH   61   62
BRANCH   76   77
ATOM     77  C51 UNL A   1      12.335  22.498   7.183  1.00  0.00    +0.000 C 
ATOM     78  C52 UNL A   1      12.460  23.712   7.870  1.00  0.00    +0.000 C 
ATOM     79  F13 UNL A   1      13.626  24.037   8.447  1.00  0.00    +0.000 F 
ATOM     80  C53 UNL A   1      11.382  24.584   7.982  1.00  0.00    +0.000 C 
ATOM     81  F14 UNL A   1      11.518  25.734   8.658  1.00  0.00    +0.000 F 
ATOM     82  C54 UNL A   1      10.163  24.261   7.403  1.00  0.00    +0.000 C 
ATOM     83  F15 UNL A   1       9.125  25.102   7.509  1.00  0.00    +0.000 F 
ATOM     84  C55 UNL A   1      10.019  23.063   6.717  1.00  0.00    +0.000 C 
ATOM     85  F16 UNL A   1       8.844  22.750   6.155  1.00  0.00    +0.000 F 
ATOM     86  C56 UNL A   1      11.095  22.186   6.611  1.00  0.00    +0.000 C 
ATOM     87  F17 UNL A   1      10.933  21.031   5.949  1.00  0.00    +0.000 F 
ENDBRANCH   76   77
TORSDOF 21
ENDMDL
