MODEL 1
REMARK VINA RESULT:     -11.6      0.000      0.000
ROOT
ATOM     19  C15 UNL A   1      25.778  35.275  45.140  1.00  0.00    +0.000 C 
ATOM     20  C16 UNL A   1      27.130  35.300  44.487  1.00  0.00    +0.000 C 
ATOM     21  N3  UNL A   1      28.116  36.143  44.663  1.00  0.00    +0.000 N 
ATOM     22  C17 UNL A   1      29.150  35.687  43.857  1.00  0.00    +0.000 C 
ATOM     23  C18 UNL A   1      30.372  36.239  43.667  1.00  0.00    +0.000 C 
ATOM     35  C25 UNL A   1      30.812  37.469  44.270  1.00  0.00    +0.000 C 
ATOM     36  C26 UNL A   1      31.981  38.173  44.036  1.00  0.00    +0.000 C 
ATOM     37  C27 UNL A   1      32.004  39.277  44.895  1.00  0.00    +0.000 C 
ATOM     38  C28 UNL A   1      30.834  39.280  45.635  1.00  0.00    +0.000 C 
ATOM     39  N4  UNL A   1      30.105  38.172  45.233  1.00  0.00    +0.000 N 
ATOM     40  C29 UNL A   1      30.414  40.214  46.646  1.00  0.00    +0.000 C 
ATOM     52  C36 UNL A   1      29.209  40.197  47.265  1.00  0.00    +0.000 C 
ATOM     53  N5  UNL A   1      28.153  39.314  47.090  1.00  0.00    +0.000 N 
ATOM     54  C37 UNL A   1      27.220  39.699  47.925  1.00  0.00    +0.000 C 
ATOM     55  C38 UNL A   1      25.856  39.112  48.158  1.00  0.00    +0.000 C 
ATOM     67  C45 UNL A   1      25.459  38.053  47.426  1.00  0.00    +0.000 C 
ATOM     68  C46 UNL A   1      24.176  37.370  47.559  1.00  0.00    +0.000 C 
ATOM     69  C47 UNL A   1      24.166  36.299  46.749  1.00  0.00    +0.000 C 
ATOM     70  C48 UNL A   1      25.429  36.243  46.010  1.00  0.00    +0.000 C 
ATOM     71  N6  UNL A   1      26.115  37.352  46.444  1.00  0.00    +0.000 N 
ATOM     72  C49 UNL A   1      27.589  40.868  48.738  1.00  0.00    +0.000 C 
ATOM     73  C50 UNL A   1      28.798  41.150  48.273  1.00  0.00    +0.000 C 
ATOM     74  C51 UNL A   1      28.685  34.478  43.213  1.00  0.00    +0.000 C 
ATOM     75  C52 UNL A   1      27.422  34.222  43.529  1.00  0.00    +0.000 C 
ATOM    111  H21 UNL A   1      32.708  37.926  43.348  1.00  0.00    +0.000 H 
ATOM    112  H22 UNL A   1      32.765  39.970  44.964  1.00  0.00    +0.000 H 
ATOM    113  H23 UNL A   1      29.218  37.923  45.580  1.00  0.00    +0.000 H 
ATOM    114  H24 UNL A   1      23.403  37.662  48.177  1.00  0.00    +0.000 H 
ATOM    115  H25 UNL A   1      23.391  35.623  46.661  1.00  0.00    +0.000 H 
ATOM    116  H26 UNL A   1      26.993  37.617  46.086  1.00  0.00    +0.000 H 
ATOM    117  H27 UNL A   1      27.048  41.343  49.477  1.00  0.00    +0.000 H 
ATOM    118  H28 UNL A   1      29.372  41.948  48.590  1.00  0.00    +0.000 H 
ATOM    119  H29 UNL A   1      29.261  33.890  42.590  1.00  0.00    +0.000 H 
ATOM    120  H30 UNL A   1      26.807  33.467  43.192  1.00  0.00    +0.000 H 
ENDROOT
BRANCH   19   18
ATOM     76  C53 UNL A   1      24.937  33.013  45.769  1.00  0.00    +0.000 C 
ATOM    109  H19 UNL A   1      22.197  33.177  43.099  1.00  0.00    +0.000 H 
ATOM     77  C54 UNL A   1      24.029  31.966  45.639  1.00  0.00    +0.000 C 
ATOM     15  C11 UNL A   1      22.986  32.063  44.714  1.00  0.00    +0.000 C 
ATOM     16  C12 UNL A   1      22.932  33.140  43.824  1.00  0.00    +0.000 C 
ATOM     17  C13 UNL A   1      23.878  34.163  43.918  1.00  0.00    +0.000 C 
ATOM    110  H20 UNL A   1      23.854  34.948  43.248  1.00  0.00    +0.000 H 
ATOM     18  C14 UNL A   1      24.859  34.130  44.922  1.00  0.00    +0.000 C 
ATOM    121  H31 UNL A   1      25.673  32.969  46.492  1.00  0.00    +0.000 H 
ATOM    122  H32 UNL A   1      24.126  31.121  46.223  1.00  0.00    +0.000 H 
BRANCH   15   13
ATOM     13  C10 UNL A   1      21.914  31.045  44.669  1.00  0.00    +0.000 C 
ATOM     14  O2  UNL A   1      22.161  29.886  44.991  1.00  0.00    +0.000 O 
BRANCH   13   12
ATOM    108  H18 UNL A   1      20.396  31.050  43.361  1.00  0.00    +0.000 H 
ATOM     12  N2  UNL A   1      20.657  31.397  44.244  1.00  0.00    +0.000 N 
BRANCH   12   11
ATOM    106  H16 UNL A   1      18.943  31.564  45.383  1.00  0.00    +0.000 H 
ATOM     11  C9  UNL A   1      19.656  32.212  44.916  1.00  0.00    +0.000 C 
ATOM    107  H17 UNL A   1      20.161  32.823  45.635  1.00  0.00    +0.000 H 
BRANCH   11   10
ATOM    105  H15 UNL A   1      19.101  32.758  42.971  1.00  0.00    +0.000 H 
ATOM     10  C8  UNL A   1      18.920  33.139  43.954  1.00  0.00    +0.000 C 
ATOM    104  H14 UNL A   1      19.292  34.132  44.098  1.00  0.00    +0.000 H 
BRANCH   10    9
ATOM      9  C7  UNL A   1      17.399  33.171  44.127  1.00  0.00    +0.000 C 
ATOM    102  H12 UNL A   1      17.164  32.719  45.068  1.00  0.00    +0.000 H 
ATOM    103  H13 UNL A   1      17.114  34.201  44.065  1.00  0.00    +0.000 H 
BRANCH    9    8
ATOM    100  H10 UNL A   1      15.574  32.443  43.328  1.00  0.00    +0.000 H 
ATOM    101  H11 UNL A   1      16.795  32.974  42.129  1.00  0.00    +0.000 H 
ATOM      8  C6  UNL A   1      16.604  32.443  43.039  1.00  0.00    +0.000 C 
BRANCH    8    7
ATOM     98  H8  UNL A   1      16.792  30.753  41.761  1.00  0.00    +0.000 H 
ATOM     99  H9  UNL A   1      18.070  30.932  42.992  1.00  0.00    +0.000 H 
ATOM      7  C5  UNL A   1      17.023  30.990  42.778  1.00  0.00    +0.000 C 
BRANCH    7    6
ATOM     97  H7  UNL A   1      15.287  30.171  43.701  1.00  0.00    +0.000 H 
ATOM      6  C4  UNL A   1      16.336  29.961  43.678  1.00  0.00    +0.000 C 
ATOM     96  H6  UNL A   1      16.750  30.025  44.663  1.00  0.00    +0.000 H 
BRANCH    6    5
ATOM      5  N1  UNL A   1      16.529  28.619  43.169  1.00  0.00    +0.000 N 
ATOM     95  H5  UNL A   1      17.465  28.317  43.128  1.00  0.00    +0.000 H 
BRANCH    5    3
ATOM      3  C3  UNL A   1      15.605  27.715  42.736  1.00  0.00    +0.000 C 
ATOM      4  O1  UNL A   1      15.095  27.929  41.633  1.00  0.00    +0.000 O 
BRANCH    3    2
ATOM      2  C2  UNL A   1      15.232  26.517  43.621  1.00  0.00    +0.000 C 
ATOM     94  H4  UNL A   1      14.577  26.897  44.375  1.00  0.00    +0.000 H 
BRANCH    2    1
ATOM      1  C1  UNL A   1      16.450  25.913  44.325  1.00  0.00    +0.000 C 
ATOM     91  H1  UNL A   1      16.997  25.307  43.634  1.00  0.00    +0.000 H 
ATOM     92  H2  UNL A   1      16.124  25.311  45.148  1.00  0.00    +0.000 H 
ATOM     93  H3  UNL A   1      17.079  26.700  44.687  1.00  0.00    +0.000 H 
ENDBRANCH    2    1
BRANCH    2   78
ATOM    134  H44 UNL A   1      11.379  24.214  42.447  1.00  0.00    +0.000 H 
ATOM     78  C55 UNL A   1      14.487  25.447  42.838  1.00  0.00    +0.000 C 
ATOM     79  C56 UNL A   1      15.141  24.608  41.925  1.00  0.00    +0.000 C 
ATOM     80  C57 UNL A   1      14.431  23.626  41.231  1.00  0.00    +0.000 C 
ATOM     81  C58 UNL A   1      13.059  23.453  41.433  1.00  0.00    +0.000 C 
ATOM     88  C64 UNL A   1      12.397  24.305  42.309  1.00  0.00    +0.000 C 
ATOM     89  C65 UNL A   1      13.109  25.284  43.001  1.00  0.00    +0.000 C 
ATOM     90  F16 UNL A   1      12.440  26.075  43.853  1.00  0.00    +0.000 F 
ATOM    123  H33 UNL A   1      16.155  24.717  41.765  1.00  0.00    +0.000 H 
ATOM    124  H34 UNL A   1      14.926  23.020  40.559  1.00  0.00    +0.000 H 
BRANCH   81   82
ATOM     82  O3  UNL A   1      12.516  22.440  40.703  1.00  0.00    +0.000 O 
BRANCH   82   83
ATOM    129  H39 UNL A   1      14.202  18.577  41.019  1.00  0.00    +0.000 H 
ATOM    130  H40 UNL A   1      12.409  18.796  38.653  1.00  0.00    +0.000 H 
ATOM    131  H41 UNL A   1      14.138  18.765  38.680  1.00  0.00    +0.000 H 
ATOM    132  H42 UNL A   1      14.209  21.052  38.662  1.00  0.00    +0.000 H 
ATOM    133  H43 UNL A   1      12.501  21.083  38.465  1.00  0.00    +0.000 H 
ATOM     83  C59 UNL A   1      13.151  21.184  40.529  1.00  0.00    +0.000 C 
ATOM     84  C60 UNL A   1      12.612  20.004  41.334  1.00  0.00    +0.000 C 
ATOM     85  C61 UNL A   1      13.230  18.804  40.635  1.00  0.00    +0.000 C 
ATOM     86  C62 UNL A   1      13.273  19.180  39.155  1.00  0.00    +0.000 C 
ATOM     87  C63 UNL A   1      13.289  20.706  39.084  1.00  0.00    +0.000 C 
ATOM    125  H35 UNL A   1      14.109  21.451  40.925  1.00  0.00    +0.000 H 
ATOM    126  H36 UNL A   1      11.543  19.967  41.291  1.00  0.00    +0.000 H 
ATOM    127  H37 UNL A   1      12.853  20.058  42.375  1.00  0.00    +0.000 H 
ATOM    128  H38 UNL A   1      12.626  17.933  40.783  1.00  0.00    +0.000 H 
ENDBRANCH   82   83
ENDBRANCH   81   82
ENDBRANCH    2   78
ENDBRANCH    3    2
ENDBRANCH    5    3
ENDBRANCH    6    5
ENDBRANCH    7    6
ENDBRANCH    8    7
ENDBRANCH    9    8
ENDBRANCH   10    9
ENDBRANCH   11   10
ENDBRANCH   12   11
ENDBRANCH   13   12
ENDBRANCH   15   13
ENDBRANCH   19   18
BRANCH   23   24
ATOM     33  C24 UNL A   1      31.411  35.883  41.403  1.00  0.00    +0.000 C 
ATOM     34  F5  UNL A   1      30.688  36.907  40.927  1.00  0.00    +0.000 F 
ATOM     24  C19 UNL A   1      31.331  35.530  42.759  1.00  0.00    +0.000 C 
ATOM     25  C20 UNL A   1      32.103  34.448  43.204  1.00  0.00    +0.000 C 
ATOM     26  F1  UNL A   1      32.064  34.077  44.493  1.00  0.00    +0.000 F 
ATOM     27  C21 UNL A   1      32.929  33.750  42.328  1.00  0.00    +0.000 C 
ATOM     28  F2  UNL A   1      33.676  32.733  42.780  1.00  0.00    +0.000 F 
ATOM     29  C22 UNL A   1      32.983  34.106  40.988  1.00  0.00    +0.000 C 
ATOM     30  F3  UNL A   1      33.766  33.422  40.143  1.00  0.00    +0.000 F 
ATOM     31  C23 UNL A   1      32.223  35.170  40.525  1.00  0.00    +0.000 C 
ATOM     32  F4  UNL A   1      32.264  35.507  39.229  1.00  0.00    +0.000 F 
ENDBRANCH   23   24
BRANCH   40   41
ATOM     41  C30 UNL A   1      31.374  41.295  47.041  1.00  0.00    +0.000 C 
ATOM     42  C31 UNL A   1      32.497  41.017  47.834  1.00  0.00    +0.000 C 
ATOM     43  F6  UNL A   1      32.695  39.778  48.310  1.00  0.00    +0.000 F 
ATOM     44  C32 UNL A   1      33.403  42.019  48.165  1.00  0.00    +0.000 C 
ATOM     45  F7  UNL A   1      34.450  41.738  48.953  1.00  0.00    +0.000 F 
ATOM     46  C33 UNL A   1      33.220  43.309  47.689  1.00  0.00    +0.000 C 
ATOM     47  F8  UNL A   1      34.101  44.270  48.001  1.00  0.00    +0.000 F 
ATOM     48  C34 UNL A   1      32.121  43.603  46.895  1.00  0.00    +0.000 C 
ATOM     49  F9  UNL A   1      31.949  44.847  46.427  1.00  0.00    +0.000 F 
ATOM     50  C35 UNL A   1      31.199  42.609  46.582  1.00  0.00    +0.000 C 
ATOM     51  F10 UNL A   1      30.143  42.923  45.818  1.00  0.00    +0.000 F 
ENDBRANCH   40   41
BRANCH   55   56
ATOM     65  C44 UNL A   1      24.049  40.707  48.883  1.00  0.00    +0.000 C 
ATOM     66  F15 UNL A   1      23.999  41.208  47.640  1.00  0.00    +0.000 F 
ATOM     56  C39 UNL A   1      24.954  39.682  49.192  1.00  0.00    +0.000 C 
ATOM     57  C40 UNL A   1      24.969  39.197  50.507  1.00  0.00    +0.000 C 
ATOM     58  F11 UNL A   1      25.802  38.201  50.843  1.00  0.00    +0.000 F 
ATOM     59  C41 UNL A   1      24.095  39.700  51.470  1.00  0.00    +0.000 C 
ATOM     60  F12 UNL A   1      24.096  39.185  52.706  1.00  0.00    +0.000 F 
ATOM     61  C42 UNL A   1      23.211  40.718  51.142  1.00  0.00    +0.000 C 
ATOM     62  F13 UNL A   1      22.372  41.201  52.067  1.00  0.00    +0.000 F 
ATOM     63  C43 UNL A   1      23.195  41.228  49.852  1.00  0.00    +0.000 C 
ATOM     64  F14 UNL A   1      22.350  42.220  49.537  1.00  0.00    +0.000 F 
ENDBRANCH   55   56
TORSDOF 19
ENDMDL
MODEL 2
REMARK VINA RESULT:     -11.4     40.380     48.420
ROOT
ATOM     19  C15 UNL A   1      52.484  20.274  11.588  1.00  0.00    +0.000 C 
ATOM     20  C16 UNL A   1      52.390  20.844  12.974  1.00  0.00    +0.000 C 
ATOM     21  N3  UNL A   1      53.283  20.840  13.931  1.00  0.00    +0.000 N 
ATOM     22  C17 UNL A   1      52.711  21.540  14.984  1.00  0.00    +0.000 C 
ATOM     23  C18 UNL A   1      53.229  21.779  16.212  1.00  0.00    +0.000 C 
ATOM     35  C25 UNL A   1      54.507  21.296  16.665  1.00  0.00    +0.000 C 
ATOM     36  C26 UNL A   1      55.058  21.378  17.932  1.00  0.00    +0.000 C 
ATOM     37  C27 UNL A   1      56.342  20.824  17.885  1.00  0.00    +0.000 C 
ATOM     38  C28 UNL A   1      56.574  20.366  16.599  1.00  0.00    +0.000 C 
ATOM     39  N4  UNL A   1      55.434  20.650  15.863  1.00  0.00    +0.000 N 
ATOM     40  C29 UNL A   1      57.751  19.728  16.072  1.00  0.00    +0.000 C 
ATOM     52  C36 UNL A   1      57.867  19.227  14.818  1.00  0.00    +0.000 C 
ATOM     53  N5  UNL A   1      56.931  19.221  13.794  1.00  0.00    +0.000 N 
ATOM     54  C37 UNL A   1      57.517  18.642  12.775  1.00  0.00    +0.000 C 
ATOM     55  C38 UNL A   1      56.971  18.359  11.403  1.00  0.00    +0.000 C 
ATOM     67  C45 UNL A   1      55.700  18.699  11.116  1.00  0.00    +0.000 C 
ATOM     68  C46 UNL A   1      55.047  18.504   9.826  1.00  0.00    +0.000 C 
ATOM     69  C47 UNL A   1      53.823  19.055   9.868  1.00  0.00    +0.000 C 
ATOM     70  C48 UNL A   1      53.591  19.608  11.204  1.00  0.00    +0.000 C 
ATOM     71  N6  UNL A   1      54.742  19.309  11.891  1.00  0.00    +0.000 N 
ATOM     72  C49 UNL A   1      58.904  18.228  13.038  1.00  0.00    +0.000 C 
ATOM     73  C50 UNL A   1      59.055  18.579  14.307  1.00  0.00    +0.000 C 
ATOM     74  C51 UNL A   1      51.406  21.980  14.542  1.00  0.00    +0.000 C 
ATOM     75  C52 UNL A   1      51.137  21.532  13.323  1.00  0.00    +0.000 C 
ATOM    111  H21 UNL A   1      54.602  21.777  18.766  1.00  0.00    +0.000 H 
ATOM    112  H22 UNL A   1      57.004  20.769  18.675  1.00  0.00    +0.000 H 
ATOM    113  H23 UNL A   1      55.304  20.426  14.913  1.00  0.00    +0.000 H 
ATOM    114  H24 UNL A   1      55.459  18.022   9.012  1.00  0.00    +0.000 H 
ATOM    115  H25 UNL A   1      53.152  19.084   9.084  1.00  0.00    +0.000 H 
ATOM    116  H26 UNL A   1      54.870  19.512  12.846  1.00  0.00    +0.000 H 
ATOM    117  H27 UNL A   1      59.581  17.781  12.400  1.00  0.00    +0.000 H 
ATOM    118  H28 UNL A   1      59.911  18.411  14.859  1.00  0.00    +0.000 H 
ATOM    119  H29 UNL A   1      50.768  22.568  15.102  1.00  0.00    +0.000 H 
ATOM    120  H30 UNL A   1      50.275  21.637  12.766  1.00  0.00    +0.000 H 
ENDROOT
BRANCH   19   18
ATOM     76  C53 UNL A   1      51.448  21.708   9.831  1.00  0.00    +0.000 C 
ATOM    109  H19 UNL A   1      48.735  19.094   9.149  1.00  0.00    +0.000 H 
ATOM     77  C54 UNL A   1      50.502  21.930   8.833  1.00  0.00    +0.000 C 
ATOM     15  C11 UNL A   1      49.561  20.941   8.537  1.00  0.00    +0.000 C 
ATOM     16  C12 UNL A   1      49.474  19.793   9.330  1.00  0.00    +0.000 C 
ATOM     17  C13 UNL A   1      50.388  19.597  10.367  1.00  0.00    +0.000 C 
ATOM    110  H20 UNL A   1      50.312  18.761  10.968  1.00  0.00    +0.000 H 
ATOM     18  C14 UNL A   1      51.411  20.531  10.595  1.00  0.00    +0.000 C 
ATOM    121  H31 UNL A   1      52.181  22.413  10.011  1.00  0.00    +0.000 H 
ATOM    122  H32 UNL A   1      50.497  22.823   8.314  1.00  0.00    +0.000 H 
BRANCH   15   13
ATOM     13  C10 UNL A   1      48.654  21.080   7.378  1.00  0.00    +0.000 C 
ATOM     14  O2  UNL A   1      48.205  22.184   7.084  1.00  0.00    +0.000 O 
BRANCH   13   12
ATOM    108  H18 UNL A   1      47.795  19.284   7.148  1.00  0.00    +0.000 H 
ATOM     12  N2  UNL A   1      48.300  19.968   6.654  1.00  0.00    +0.000 N 
BRANCH   12   11
ATOM    106  H16 UNL A   1      47.743  19.097   4.866  1.00  0.00    +0.000 H 
ATOM     11  C9  UNL A   1      48.565  19.661   5.256  1.00  0.00    +0.000 C 
ATOM    107  H17 UNL A   1      48.686  20.588   4.736  1.00  0.00    +0.000 H 
BRANCH   11   10
ATOM    105  H15 UNL A   1      49.862  18.545   4.047  1.00  0.00    +0.000 H 
ATOM     10  C8  UNL A   1      49.846  18.854   5.071  1.00  0.00    +0.000 C 
ATOM    104  H14 UNL A   1      49.825  18.035   5.760  1.00  0.00    +0.000 H 
BRANCH   10    9
ATOM      9  C7  UNL A   1      51.141  19.638   5.304  1.00  0.00    +0.000 C 
ATOM    102  H12 UNL A   1      51.778  19.481   4.459  1.00  0.00    +0.000 H 
ATOM    103  H13 UNL A   1      50.850  20.659   5.436  1.00  0.00    +0.000 H 
BRANCH    9    8
ATOM    100  H10 UNL A   1      51.437  19.709   7.403  1.00  0.00    +0.000 H 
ATOM    101  H11 UNL A   1      51.912  18.180   6.598  1.00  0.00    +0.000 H 
ATOM      8  C6  UNL A   1      51.919  19.250   6.565  1.00  0.00    +0.000 C 
BRANCH    8    7
ATOM     98  H8  UNL A   1      53.460  20.656   6.979  1.00  0.00    +0.000 H 
ATOM     99  H9  UNL A   1      53.909  18.942   7.181  1.00  0.00    +0.000 H 
ATOM      7  C5  UNL A   1      53.396  19.666   6.582  1.00  0.00    +0.000 C 
BRANCH    7    6
ATOM     97  H7  UNL A   1      54.328  20.660   4.945  1.00  0.00    +0.000 H 
ATOM      6  C4  UNL A   1      54.073  19.655   5.209  1.00  0.00    +0.000 C 
ATOM     96  H6  UNL A   1      53.399  19.240   4.489  1.00  0.00    +0.000 H 
BRANCH    6    5
ATOM      5  N1  UNL A   1      55.284  18.862   5.238  1.00  0.00    +0.000 N 
ATOM     95  H5  UNL A   1      56.105  19.358   5.456  1.00  0.00    +0.000 H 
BRANCH    5    3
ATOM      3  C3  UNL A   1      55.453  17.528   5.007  1.00  0.00    +0.000 C 
ATOM      4  O1  UNL A   1      55.987  17.215   3.941  1.00  0.00    +0.000 O 
BRANCH    3    2
ATOM      2  C2  UNL A   1      54.965  16.503   6.041  1.00  0.00    +0.000 C 
ATOM     94  H4  UNL A   1      54.971  17.008   6.984  1.00  0.00    +0.000 H 
BRANCH    2    1
ATOM      1  C1  UNL A   1      55.903  15.298   6.153  1.00  0.00    +0.000 C 
ATOM     91  H1  UNL A   1      55.789  14.847   7.117  1.00  0.00    +0.000 H 
ATOM     92  H2  UNL A   1      56.915  15.621   6.028  1.00  0.00    +0.000 H 
ATOM     93  H3  UNL A   1      55.659  14.585   5.393  1.00  0.00    +0.000 H 
ENDBRANCH    2    1
BRANCH    2   78
ATOM    134  H44 UNL A   1      50.750  15.099   7.377  1.00  0.00    +0.000 H 
ATOM     78  C55 UNL A   1      53.544  16.045   5.755  1.00  0.00    +0.000 C 
ATOM     79  C56 UNL A   1      53.055  15.926   4.446  1.00  0.00    +0.000 C 
ATOM     80  C57 UNL A   1      51.748  15.489   4.217  1.00  0.00    +0.000 C 
ATOM     81  C58 UNL A   1      50.903  15.157   5.279  1.00  0.00    +0.000 C 
ATOM     88  C64 UNL A   1      51.369  15.309   6.579  1.00  0.00    +0.000 C 
ATOM     89  C65 UNL A   1      52.674  15.743   6.806  1.00  0.00    +0.000 C 
ATOM     90  F16 UNL A   1      53.096  15.858   8.074  1.00  0.00    +0.000 F 
ATOM    123  H33 UNL A   1      53.664  16.161   3.649  1.00  0.00    +0.000 H 
ATOM    124  H34 UNL A   1      51.401  15.412   3.248  1.00  0.00    +0.000 H 
BRANCH   81   82
ATOM     82  O3  UNL A   1      49.671  14.726   4.892  1.00  0.00    +0.000 O 
BRANCH   82   83
ATOM    129  H39 UNL A   1      46.661  17.018   3.004  1.00  0.00    +0.000 H 
ATOM    130  H40 UNL A   1      45.645  15.700   5.472  1.00  0.00    +0.000 H 
ATOM    131  H41 UNL A   1      46.046  17.366   5.242  1.00  0.00    +0.000 H 
ATOM    132  H42 UNL A   1      48.143  17.008   6.084  1.00  0.00    +0.000 H 
ATOM    133  H43 UNL A   1      47.691  15.394   6.468  1.00  0.00    +0.000 H 
ATOM     83  C59 UNL A   1      48.622  15.608   4.524  1.00  0.00    +0.000 C 
ATOM     84  C60 UNL A   1      47.680  15.156   3.411  1.00  0.00    +0.000 C 
ATOM     85  C61 UNL A   1      46.506  16.111   3.551  1.00  0.00    +0.000 C 
ATOM     86  C62 UNL A   1      46.371  16.364   5.051  1.00  0.00    +0.000 C 
ATOM     87  C63 UNL A   1      47.743  16.105   5.671  1.00  0.00    +0.000 C 
ATOM    125  H35 UNL A   1      49.230  16.405   4.148  1.00  0.00    +0.000 H 
ATOM    126  H36 UNL A   1      47.373  14.142   3.556  1.00  0.00    +0.000 H 
ATOM    127  H37 UNL A   1      48.131  15.181   2.441  1.00  0.00    +0.000 H 
ATOM    128  H38 UNL A   1      45.613  15.665   3.164  1.00  0.00    +0.000 H 
ENDBRANCH   82   83
ENDBRANCH   81   82
ENDBRANCH    2   78
ENDBRANCH    3    2
ENDBRANCH    5    3
ENDBRANCH    6    5
ENDBRANCH    7    6
ENDBRANCH    8    7
ENDBRANCH    9    8
ENDBRANCH   10    9
ENDBRANCH   11   10
ENDBRANCH   12   11
ENDBRANCH   13   12
ENDBRANCH   15   13
ENDBRANCH   19   18
BRANCH   23   24
ATOM     33  C24 UNL A   1      51.578  21.961  18.103  1.00  0.00    +0.000 C 
ATOM     34  F5  UNL A   1      51.558  20.622  18.192  1.00  0.00    +0.000 F 
ATOM     24  C19 UNL A   1      52.416  22.594  17.172  1.00  0.00    +0.000 C 
ATOM     25  C20 UNL A   1      52.396  23.994  17.115  1.00  0.00    +0.000 C 
ATOM     26  F1  UNL A   1      53.184  24.646  16.246  1.00  0.00    +0.000 F 
ATOM     27  C21 UNL A   1      51.574  24.733  17.963  1.00  0.00    +0.000 C 
ATOM     28  F2  UNL A   1      51.588  26.072  17.907  1.00  0.00    +0.000 F 
ATOM     29  C22 UNL A   1      50.743  24.086  18.865  1.00  0.00    +0.000 C 
ATOM     30  F3  UNL A   1      49.940  24.798  19.667  1.00  0.00    +0.000 F 
ATOM     31  C23 UNL A   1      50.743  22.701  18.934  1.00  0.00    +0.000 C 
ATOM     32  F4  UNL A   1      49.931  22.074  19.796  1.00  0.00    +0.000 F 
ENDBRANCH   23   24
BRANCH   40   41
ATOM     41  C30 UNL A   1      58.939  19.597  16.977  1.00  0.00    +0.000 C 
ATOM     42  C31 UNL A   1      59.306  18.356  17.519  1.00  0.00    +0.000 C 
ATOM     43  F6  UNL A   1      58.555  17.269  17.284  1.00  0.00    +0.000 F 
ATOM     44  C32 UNL A   1      60.431  18.236  18.329  1.00  0.00    +0.000 C 
ATOM     45  F7  UNL A   1      60.744  17.048  18.865  1.00  0.00    +0.000 F 
ATOM     46  C33 UNL A   1      61.223  19.345  18.591  1.00  0.00    +0.000 C 
ATOM     47  F8  UNL A   1      62.311  19.224  19.363  1.00  0.00    +0.000 F 
ATOM     48  C34 UNL A   1      60.882  20.579  18.057  1.00  0.00    +0.000 C 
ATOM     49  F9  UNL A   1      61.652  21.649  18.301  1.00  0.00    +0.000 F 
ATOM     50  C35 UNL A   1      59.744  20.708  17.267  1.00  0.00    +0.000 C 
ATOM     51  F10 UNL A   1      59.435  21.915  16.768  1.00  0.00    +0.000 F 
ENDBRANCH   40   41
BRANCH   55   56
ATOM     65  C44 UNL A   1      57.908  16.326  10.253  1.00  0.00    +0.000 C 
ATOM     66  F15 UNL A   1      57.230  15.539  11.101  1.00  0.00    +0.000 F 
ATOM     56  C39 UNL A   1      57.823  17.721  10.367  1.00  0.00    +0.000 C 
ATOM     57  C40 UNL A   1      58.555  18.497   9.459  1.00  0.00    +0.000 C 
ATOM     58  F11 UNL A   1      58.486  19.835   9.515  1.00  0.00    +0.000 F 
ATOM     59  C41 UNL A   1      59.323  17.903   8.459  1.00  0.00    +0.000 C 
ATOM     60  F12 UNL A   1      59.973  18.668   7.573  1.00  0.00    +0.000 F 
ATOM     61  C42 UNL A   1      59.396  16.520   8.368  1.00  0.00    +0.000 C 
ATOM     62  F13 UNL A   1      60.133  15.949   7.407  1.00  0.00    +0.000 F 
ATOM     63  C43 UNL A   1      58.697  15.732   9.270  1.00  0.00    +0.000 C 
ATOM     64  F14 UNL A   1      58.775  14.396   9.193  1.00  0.00    +0.000 F 
ENDBRANCH   55   56
TORSDOF 19
ENDMDL
MODEL 3
REMARK VINA RESULT:     -11.3      4.386      6.238
ROOT
ATOM     19  C15 UNL A   1      25.804  35.357  45.114  1.00  0.00    +0.000 C 
ATOM     20  C16 UNL A   1      27.154  35.387  44.458  1.00  0.00    +0.000 C 
ATOM     21  N3  UNL A   1      28.130  36.244  44.619  1.00  0.00    +0.000 N 
ATOM     22  C17 UNL A   1      29.168  35.788  43.818  1.00  0.00    +0.000 C 
ATOM     23  C18 UNL A   1      30.383  36.352  43.616  1.00  0.00    +0.000 C 
ATOM     35  C25 UNL A   1      30.810  37.596  44.201  1.00  0.00    +0.000 C 
ATOM     36  C26 UNL A   1      31.970  38.310  43.954  1.00  0.00    +0.000 C 
ATOM     37  C27 UNL A   1      31.982  39.426  44.796  1.00  0.00    +0.000 C 
ATOM     38  C28 UNL A   1      30.814  39.427  45.539  1.00  0.00    +0.000 C 
ATOM     39  N4  UNL A   1      30.097  38.305  45.154  1.00  0.00    +0.000 N 
ATOM     40  C29 UNL A   1      30.385  40.370  46.537  1.00  0.00    +0.000 C 
ATOM     52  C36 UNL A   1      29.181  40.348  47.159  1.00  0.00    +0.000 C 
ATOM     53  N5  UNL A   1      28.136  39.451  46.999  1.00  0.00    +0.000 N 
ATOM     54  C37 UNL A   1      27.199  39.837  47.831  1.00  0.00    +0.000 C 
ATOM     55  C38 UNL A   1      25.843  39.238  48.076  1.00  0.00    +0.000 C 
ATOM     67  C45 UNL A   1      25.457  38.164  47.360  1.00  0.00    +0.000 C 
ATOM     68  C46 UNL A   1      24.183  37.468  47.506  1.00  0.00    +0.000 C 
ATOM     69  C47 UNL A   1      24.183  36.385  46.712  1.00  0.00    +0.000 C 
ATOM     70  C48 UNL A   1      25.445  36.333  45.970  1.00  0.00    +0.000 C 
ATOM     71  N6  UNL A   1      26.119  37.455  46.386  1.00  0.00    +0.000 N 
ATOM     72  C49 UNL A   1      27.557  41.022  48.626  1.00  0.00    +0.000 C 
ATOM     73  C50 UNL A   1      28.761  41.311  48.153  1.00  0.00    +0.000 C 
ATOM     74  C51 UNL A   1      28.716  34.565  43.192  1.00  0.00    +0.000 C 
ATOM     75  C52 UNL A   1      27.457  34.299  43.515  1.00  0.00    +0.000 C 
ATOM    111  H21 UNL A   1      32.698  38.061  43.267  1.00  0.00    +0.000 H 
ATOM    112  H22 UNL A   1      32.736  40.129  44.854  1.00  0.00    +0.000 H 
ATOM    113  H23 UNL A   1      29.213  38.050  45.507  1.00  0.00    +0.000 H 
ATOM    114  H24 UNL A   1      23.407  37.760  48.120  1.00  0.00    +0.000 H 
ATOM    115  H25 UNL A   1      23.416  35.699  46.635  1.00  0.00    +0.000 H 
ATOM    116  H26 UNL A   1      26.993  37.726  46.022  1.00  0.00    +0.000 H 
ATOM    117  H27 UNL A   1      27.012  41.502  49.359  1.00  0.00    +0.000 H 
ATOM    118  H28 UNL A   1      29.326  42.120  48.457  1.00  0.00    +0.000 H 
ATOM    119  H29 UNL A   1      29.298  33.975  42.577  1.00  0.00    +0.000 H 
ATOM    120  H30 UNL A   1      26.849  33.532  43.190  1.00  0.00    +0.000 H 
ENDROOT
BRANCH   19   18
ATOM     76  C53 UNL A   1      25.045  33.061  45.725  1.00  0.00    +0.000 C 
ATOM    109  H19 UNL A   1      22.160  33.235  43.213  1.00  0.00    +0.000 H 
ATOM     77  C54 UNL A   1      24.152  31.998  45.616  1.00  0.00    +0.000 C 
ATOM     15  C11 UNL A   1      23.058  32.097  44.752  1.00  0.00    +0.000 C 
ATOM     16  C12 UNL A   1      22.934  33.195  43.896  1.00  0.00    +0.000 C 
ATOM     17  C13 UNL A   1      23.862  34.236  43.967  1.00  0.00    +0.000 C 
ATOM    110  H20 UNL A   1      23.786  35.037  43.320  1.00  0.00    +0.000 H 
ATOM     18  C14 UNL A   1      24.897  34.197  44.915  1.00  0.00    +0.000 C 
ATOM    121  H31 UNL A   1      25.820  33.014  46.405  1.00  0.00    +0.000 H 
ATOM    122  H32 UNL A   1      24.298  31.140  46.171  1.00  0.00    +0.000 H 
BRANCH   15   13
ATOM     13  C10 UNL A   1      22.007  31.057  44.738  1.00  0.00    +0.000 C 
ATOM     14  O2  UNL A   1      22.274  29.914  45.098  1.00  0.00    +0.000 O 
BRANCH   13   12
ATOM    108  H18 UNL A   1      20.705  31.966  43.514  1.00  0.00    +0.000 H 
ATOM     12  N2  UNL A   1      20.745  31.370  44.297  1.00  0.00    +0.000 N 
BRANCH   12   11
ATOM    106  H16 UNL A   1      18.825  30.666  44.006  1.00  0.00    +0.000 H 
ATOM     11  C9  UNL A   1      19.457  30.945  44.825  1.00  0.00    +0.000 C 
ATOM    107  H17 UNL A   1      19.631  30.121  45.484  1.00  0.00    +0.000 H 
BRANCH   11   10
ATOM    105  H15 UNL A   1      18.606  31.647  46.606  1.00  0.00    +0.000 H 
ATOM     10  C8  UNL A   1      18.765  32.044  45.626  1.00  0.00    +0.000 C 
ATOM    104  H14 UNL A   1      17.858  32.303  45.121  1.00  0.00    +0.000 H 
BRANCH   10    9
ATOM      9  C7  UNL A   1      19.588  33.322  45.809  1.00  0.00    +0.000 C 
ATOM    102  H12 UNL A   1      20.438  33.264  45.161  1.00  0.00    +0.000 H 
ATOM    103  H13 UNL A   1      18.931  34.134  45.580  1.00  0.00    +0.000 H 
BRANCH    9    8
ATOM    100  H10 UNL A   1      19.252  33.834  47.840  1.00  0.00    +0.000 H 
ATOM    101  H11 UNL A   1      20.577  32.667  47.537  1.00  0.00    +0.000 H 
ATOM      8  C6  UNL A   1      20.094  33.572  47.233  1.00  0.00    +0.000 C 
BRANCH    8    7
ATOM     98  H8  UNL A   1      22.105  34.261  47.167  1.00  0.00    +0.000 H 
ATOM     99  H9  UNL A   1      20.868  35.452  46.684  1.00  0.00    +0.000 H 
ATOM      7  C5  UNL A   1      21.144  34.682  47.375  1.00  0.00    +0.000 C 
BRANCH    7    6
ATOM     97  H7  UNL A   1      21.693  36.277  48.676  1.00  0.00    +0.000 H 
ATOM      6  C4  UNL A   1      21.194  35.334  48.758  1.00  0.00    +0.000 C 
ATOM     96  H6  UNL A   1      21.723  34.690  49.430  1.00  0.00    +0.000 H 
BRANCH    6    5
ATOM      5  N1  UNL A   1      19.858  35.558  49.270  1.00  0.00    +0.000 N 
ATOM     95  H5  UNL A   1      19.234  34.806  49.158  1.00  0.00    +0.000 H 
BRANCH    5    3
ATOM      3  C3  UNL A   1      19.339  36.661  49.885  1.00  0.00    +0.000 C 
ATOM      4  O1  UNL A   1      19.556  36.774  51.093  1.00  0.00    +0.000 O 
BRANCH    3    2
ATOM      2  C2  UNL A   1      18.515  37.671  49.075  1.00  0.00    +0.000 C 
ATOM     94  H4  UNL A   1      19.192  38.451  48.795  1.00  0.00    +0.000 H 
BRANCH    2    1
ATOM      1  C1  UNL A   1      17.395  38.306  49.904  1.00  0.00    +0.000 C 
ATOM     91  H1  UNL A   1      17.708  39.269  50.248  1.00  0.00    +0.000 H 
ATOM     92  H2  UNL A   1      17.176  37.681  50.745  1.00  0.00    +0.000 H 
ATOM     93  H3  UNL A   1      16.518  38.409  49.298  1.00  0.00    +0.000 H 
ENDBRANCH    2    1
BRANCH    2   78
ATOM    134  H44 UNL A   1      18.668  36.749  44.531  1.00  0.00    +0.000 H 
ATOM     78  C55 UNL A   1      17.951  37.052  47.806  1.00  0.00    +0.000 C 
ATOM     79  C56 UNL A   1      16.754  36.323  47.808  1.00  0.00    +0.000 C 
ATOM     80  C57 UNL A   1      16.255  35.778  46.622  1.00  0.00    +0.000 C 
ATOM     81  C58 UNL A   1      16.931  35.950  45.411  1.00  0.00    +0.000 C 
ATOM     88  C64 UNL A   1      18.138  36.640  45.409  1.00  0.00    +0.000 C 
ATOM     89  C65 UNL A   1      18.632  37.183  46.594  1.00  0.00    +0.000 C 
ATOM     90  F16 UNL A   1      19.790  37.860  46.548  1.00  0.00    +0.000 F 
ATOM    123  H33 UNL A   1      16.237  36.189  48.690  1.00  0.00    +0.000 H 
ATOM    124  H34 UNL A   1      15.375  35.240  46.641  1.00  0.00    +0.000 H 
BRANCH   81   82
ATOM     82  O3  UNL A   1      16.307  35.381  44.343  1.00  0.00    +0.000 O 
BRANCH   82   83
ATOM    129  H39 UNL A   1      15.825  31.190  44.068  1.00  0.00    +0.000 H 
ATOM    130  H40 UNL A   1      15.895  32.461  41.377  1.00  0.00    +0.000 H 
ATOM    131  H41 UNL A   1      17.137  31.541  42.154  1.00  0.00    +0.000 H 
ATOM    132  H42 UNL A   1      18.114  33.458  42.930  1.00  0.00    +0.000 H 
ATOM    133  H43 UNL A   1      16.981  34.379  42.021  1.00  0.00    +0.000 H 
ATOM     83  C59 UNL A   1      16.366  33.992  44.062  1.00  0.00    +0.000 C 
ATOM     84  C60 UNL A   1      15.056  33.209  44.102  1.00  0.00    +0.000 C 
ATOM     85  C61 UNL A   1      15.413  31.912  43.395  1.00  0.00    +0.000 C 
ATOM     86  C62 UNL A   1      16.407  32.309  42.305  1.00  0.00    +0.000 C 
ATOM     87  C63 UNL A   1      17.069  33.609  42.760  1.00  0.00    +0.000 C 
ATOM    125  H35 UNL A   1      16.959  33.700  44.904  1.00  0.00    +0.000 H 
ATOM    126  H36 UNL A   1      14.280  33.732  43.582  1.00  0.00    +0.000 H 
ATOM    127  H37 UNL A   1      14.684  33.060  45.094  1.00  0.00    +0.000 H 
ATOM    128  H38 UNL A   1      14.539  31.469  42.962  1.00  0.00    +0.000 H 
ENDBRANCH   82   83
ENDBRANCH   81   82
ENDBRANCH    2   78
ENDBRANCH    3    2
ENDBRANCH    5    3
ENDBRANCH    6    5
ENDBRANCH    7    6
ENDBRANCH    8    7
ENDBRANCH    9    8
ENDBRANCH   10    9
ENDBRANCH   11   10
ENDBRANCH   12   11
ENDBRANCH   13   12
ENDBRANCH   15   13
ENDBRANCH   19   18
BRANCH   23   24
ATOM     33  C24 UNL A   1      31.438  35.990  41.361  1.00  0.00    +0.000 C 
ATOM     34  F5  UNL A   1      30.719  37.014  40.878  1.00  0.00    +0.000 F 
ATOM     24  C19 UNL A   1      31.348  35.641  42.717  1.00  0.00    +0.000 C 
ATOM     25  C20 UNL A   1      32.117  34.560  43.170  1.00  0.00    +0.000 C 
ATOM     26  F1  UNL A   1      32.069  34.191  44.460  1.00  0.00    +0.000 F 
ATOM     27  C21 UNL A   1      32.950  33.860  42.301  1.00  0.00    +0.000 C 
ATOM     28  F2  UNL A   1      33.693  32.844  42.760  1.00  0.00    +0.000 F 
ATOM     29  C22 UNL A   1      33.012  34.213  40.961  1.00  0.00    +0.000 C 
ATOM     30  F3  UNL A   1      33.801  33.527  40.123  1.00  0.00    +0.000 F 
ATOM     31  C23 UNL A   1      32.256  35.276  40.490  1.00  0.00    +0.000 C 
ATOM     32  F4  UNL A   1      32.306  35.611  39.193  1.00  0.00    +0.000 F 
ENDBRANCH   23   24
BRANCH   40   41
ATOM     41  C30 UNL A   1      31.333  41.468  46.913  1.00  0.00    +0.000 C 
ATOM     42  C31 UNL A   1      31.089  42.799  46.544  1.00  0.00    +0.000 C 
ATOM     43  F6  UNL A   1      30.024  43.103  45.787  1.00  0.00    +0.000 F 
ATOM     44  C32 UNL A   1      31.955  43.817  46.929  1.00  0.00    +0.000 C 
ATOM     45  F7  UNL A   1      31.721  45.077  46.536  1.00  0.00    +0.000 F 
ATOM     46  C33 UNL A   1      33.065  43.530  47.709  1.00  0.00    +0.000 C 
ATOM     47  F8  UNL A   1      33.893  44.515  48.086  1.00  0.00    +0.000 F 
ATOM     48  C34 UNL A   1      33.320  42.221  48.092  1.00  0.00    +0.000 C 
ATOM     49  F9  UNL A   1      34.388  41.944  48.855  1.00  0.00    +0.000 F 
ATOM     50  C35 UNL A   1      32.470  41.197  47.689  1.00  0.00    +0.000 C 
ATOM     51  F10 UNL A   1      32.745  39.940  48.070  1.00  0.00    +0.000 F 
ENDBRANCH   40   41
BRANCH   55   56
ATOM     65  C44 UNL A   1      24.018  40.821  48.781  1.00  0.00    +0.000 C 
ATOM     66  F15 UNL A   1      23.958  41.301  47.530  1.00  0.00    +0.000 F 
ATOM     56  C39 UNL A   1      24.937  39.812  49.103  1.00  0.00    +0.000 C 
ATOM     57  C40 UNL A   1      24.961  39.349  50.425  1.00  0.00    +0.000 C 
ATOM     58  F11 UNL A   1      25.808  38.368  50.774  1.00  0.00    +0.000 F 
ATOM     59  C41 UNL A   1      24.084  39.855  51.382  1.00  0.00    +0.000 C 
ATOM     60  F12 UNL A   1      24.095  39.360  52.626  1.00  0.00    +0.000 F 
ATOM     61  C42 UNL A   1      23.186  40.857  51.042  1.00  0.00    +0.000 C 
ATOM     62  F13 UNL A   1      22.343  41.343  51.961  1.00  0.00    +0.000 F 
ATOM     63  C43 UNL A   1      23.160  41.346  49.744  1.00  0.00    +0.000 C 
ATOM     64  F14 UNL A   1      22.302  42.322  49.415  1.00  0.00    +0.000 F 
ENDBRANCH   55   56
TORSDOF 19
ENDMDL
MODEL 4
REMARK VINA RESULT:     -11.1      1.102      2.295
ROOT
ATOM     19  C15 UNL A   1      25.768  35.355  45.165  1.00  0.00    +0.000 C 
ATOM     20  C16 UNL A   1      27.113  35.375  44.499  1.00  0.00    +0.000 C 
ATOM     21  N3  UNL A   1      28.104  36.215  44.664  1.00  0.00    +0.000 N 
ATOM     22  C17 UNL A   1      29.128  35.755  43.849  1.00  0.00    +0.000 C 
ATOM     23  C18 UNL A   1      30.350  36.304  43.645  1.00  0.00    +0.000 C 
ATOM     35  C25 UNL A   1      30.800  37.533  44.243  1.00  0.00    +0.000 C 
ATOM     36  C26 UNL A   1      31.968  38.233  43.997  1.00  0.00    +0.000 C 
ATOM     37  C27 UNL A   1      32.004  39.337  44.854  1.00  0.00    +0.000 C 
ATOM     38  C28 UNL A   1      30.841  39.345  45.606  1.00  0.00    +0.000 C 
ATOM     39  N4  UNL A   1      30.105  38.239  45.212  1.00  0.00    +0.000 N 
ATOM     40  C29 UNL A   1      30.434  40.280  46.621  1.00  0.00    +0.000 C 
ATOM     52  C36 UNL A   1      29.235  40.268  47.252  1.00  0.00    +0.000 C 
ATOM     53  N5  UNL A   1      28.175  39.388  47.088  1.00  0.00    +0.000 N 
ATOM     54  C37 UNL A   1      27.251  39.777  47.932  1.00  0.00    +0.000 C 
ATOM     55  C38 UNL A   1      25.888  39.194  48.180  1.00  0.00    +0.000 C 
ATOM     67  C45 UNL A   1      25.480  38.136  47.453  1.00  0.00    +0.000 C 
ATOM     68  C46 UNL A   1      24.197  37.457  47.599  1.00  0.00    +0.000 C 
ATOM     69  C47 UNL A   1      24.175  36.386  46.790  1.00  0.00    +0.000 C 
ATOM     70  C48 UNL A   1      25.430  36.325  46.038  1.00  0.00    +0.000 C 
ATOM     71  N6  UNL A   1      26.125  37.432  46.464  1.00  0.00    +0.000 N 
ATOM     72  C49 UNL A   1      27.632  40.946  48.741  1.00  0.00    +0.000 C 
ATOM     73  C50 UNL A   1      28.837  41.223  48.263  1.00  0.00    +0.000 C 
ATOM     74  C51 UNL A   1      28.653  34.547  43.210  1.00  0.00    +0.000 C 
ATOM     75  C52 UNL A   1      27.393  34.296  43.539  1.00  0.00    +0.000 C 
ATOM    111  H21 UNL A   1      32.687  37.983  43.302  1.00  0.00    +0.000 H 
ATOM    112  H22 UNL A   1      32.768  40.028  44.916  1.00  0.00    +0.000 H 
ATOM    113  H23 UNL A   1      29.220  37.992  45.568  1.00  0.00    +0.000 H 
ATOM    114  H24 UNL A   1      23.430  37.752  48.223  1.00  0.00    +0.000 H 
ATOM    115  H25 UNL A   1      23.397  35.712  46.710  1.00  0.00    +0.000 H 
ATOM    116  H26 UNL A   1      26.999  37.694  46.097  1.00  0.00    +0.000 H 
ATOM    117  H27 UNL A   1      27.100  41.423  49.485  1.00  0.00    +0.000 H 
ATOM    118  H28 UNL A   1      29.416  42.019  48.573  1.00  0.00    +0.000 H 
ATOM    119  H29 UNL A   1      29.221  33.957  42.582  1.00  0.00    +0.000 H 
ATOM    120  H30 UNL A   1      26.771  33.542  43.208  1.00  0.00    +0.000 H 
ENDROOT
BRANCH   19   18
ATOM     76  C53 UNL A   1      24.918  33.102  45.812  1.00  0.00    +0.000 C 
ATOM    109  H19 UNL A   1      22.173  33.259  43.148  1.00  0.00    +0.000 H 
ATOM     77  C54 UNL A   1      24.005  32.057  45.691  1.00  0.00    +0.000 C 
ATOM     15  C11 UNL A   1      22.960  32.153  44.769  1.00  0.00    +0.000 C 
ATOM     16  C12 UNL A   1      22.909  33.224  43.871  1.00  0.00    +0.000 C 
ATOM     17  C13 UNL A   1      23.859  34.244  43.956  1.00  0.00    +0.000 C 
ATOM    110  H20 UNL A   1      23.837  35.024  43.280  1.00  0.00    +0.000 H 
ATOM     18  C14 UNL A   1      24.843  34.213  44.957  1.00  0.00    +0.000 C 
ATOM    121  H31 UNL A   1      25.655  33.059  46.533  1.00  0.00    +0.000 H 
ATOM    122  H32 UNL A   1      24.100  31.216  46.281  1.00  0.00    +0.000 H 
BRANCH   15   13
ATOM     13  C10 UNL A   1      21.884  31.140  44.733  1.00  0.00    +0.000 C 
ATOM     14  O2  UNL A   1      22.171  29.947  44.705  1.00  0.00    +0.000 O 
BRANCH   13   12
ATOM    108  H18 UNL A   1      20.141  31.644  45.585  1.00  0.00    +0.000 H 
ATOM     12  N2  UNL A   1      20.571  31.541  44.706  1.00  0.00    +0.000 N 
BRANCH   12   11
ATOM    106  H16 UNL A   1      19.481  32.877  43.571  1.00  0.00    +0.000 H 
ATOM     11  C9  UNL A   1      19.725  31.835  43.559  1.00  0.00    +0.000 C 
ATOM    107  H17 UNL A   1      20.269  31.570  42.676  1.00  0.00    +0.000 H 
BRANCH   11   10
ATOM    105  H15 UNL A   1      18.108  30.966  42.550  1.00  0.00    +0.000 H 
ATOM     10  C8  UNL A   1      18.431  31.028  43.568  1.00  0.00    +0.000 C 
ATOM    104  H14 UNL A   1      17.731  31.528  44.205  1.00  0.00    +0.000 H 
BRANCH   10    9
ATOM      9  C7  UNL A   1      18.575  29.586  44.061  1.00  0.00    +0.000 C 
ATOM    102  H12 UNL A   1      19.216  29.066  43.381  1.00  0.00    +0.000 H 
ATOM    103  H13 UNL A   1      18.968  29.649  45.055  1.00  0.00    +0.000 H 
BRANCH    9    8
ATOM    100  H10 UNL A   1      17.405  28.024  44.894  1.00  0.00    +0.000 H 
ATOM    101  H11 UNL A   1      16.516  29.515  44.449  1.00  0.00    +0.000 H 
ATOM      8  C6  UNL A   1      17.264  28.802  44.172  1.00  0.00    +0.000 C 
BRANCH    8    7
ATOM     98  H8  UNL A   1      16.269  28.904  42.294  1.00  0.00    +0.000 H 
ATOM     99  H9  UNL A   1      17.637  27.762  42.379  1.00  0.00    +0.000 H 
ATOM      7  C5  UNL A   1      16.771  28.155  42.870  1.00  0.00    +0.000 C 
BRANCH    7    6
ATOM     97  H7  UNL A   1      15.361  27.065  44.037  1.00  0.00    +0.000 H 
ATOM      6  C4  UNL A   1      15.811  26.980  43.070  1.00  0.00    +0.000 C 
ATOM     96  H6  UNL A   1      16.358  26.063  42.994  1.00  0.00    +0.000 H 
BRANCH    6    5
ATOM      5  N1  UNL A   1      14.765  26.993  42.069  1.00  0.00    +0.000 N 
ATOM     95  H5  UNL A   1      14.446  27.886  41.807  1.00  0.00    +0.000 H 
BRANCH    5    3
ATOM      3  C3  UNL A   1      14.156  25.948  41.437  1.00  0.00    +0.000 C 
ATOM      4  O1  UNL A   1      12.934  25.855  41.574  1.00  0.00    +0.000 O 
BRANCH    3    2
ATOM      2  C2  UNL A   1      14.994  24.951  40.625  1.00  0.00    +0.000 C 
ATOM     94  H4  UNL A   1      15.977  24.975  41.047  1.00  0.00    +0.000 H 
BRANCH    2    1
ATOM      1  C1  UNL A   1      15.112  25.353  39.152  1.00  0.00    +0.000 C 
ATOM     91  H1  UNL A   1      16.110  25.681  38.952  1.00  0.00    +0.000 H 
ATOM     92  H2  UNL A   1      14.426  26.147  38.944  1.00  0.00    +0.000 H 
ATOM     93  H3  UNL A   1      14.881  24.510  38.534  1.00  0.00    +0.000 H 
ENDBRANCH    2    1
BRANCH    2   78
ATOM    134  H44 UNL A   1      13.945  21.148  43.067  1.00  0.00    +0.000 H 
ATOM     78  C55 UNL A   1      14.458  23.533  40.747  1.00  0.00    +0.000 C 
ATOM     79  C56 UNL A   1      13.965  22.831  39.639  1.00  0.00    +0.000 C 
ATOM     80  C57 UNL A   1      13.492  21.524  39.783  1.00  0.00    +0.000 C 
ATOM     81  C58 UNL A   1      13.505  20.886  41.026  1.00  0.00    +0.000 C 
ATOM     88  C64 UNL A   1      13.958  21.590  42.136  1.00  0.00    +0.000 C 
ATOM     89  C65 UNL A   1      14.430  22.894  41.989  1.00  0.00    +0.000 C 
ATOM     90  F16 UNL A   1      14.879  23.534  43.080  1.00  0.00    +0.000 F 
ATOM    123  H33 UNL A   1      13.952  23.282  38.712  1.00  0.00    +0.000 H 
ATOM    124  H34 UNL A   1      13.127  21.023  38.958  1.00  0.00    +0.000 H 
BRANCH   81   82
ATOM     82  O3  UNL A   1      13.035  19.609  40.998  1.00  0.00    +0.000 O 
BRANCH   82   83
ATOM    129  H39 UNL A   1       9.619  18.317  38.869  1.00  0.00    +0.000 H 
ATOM    130  H40 UNL A   1       9.647  17.243  41.645  1.00  0.00    +0.000 H 
ATOM    131  H41 UNL A   1       8.671  18.520  41.006  1.00  0.00    +0.000 H 
ATOM    132  H42 UNL A   1      10.174  20.079  41.744  1.00  0.00    +0.000 H 
ATOM    133  H43 UNL A   1      11.059  18.827  42.524  1.00  0.00    +0.000 H 
ATOM     83  C59 UNL A   1      11.744  19.270  40.518  1.00  0.00    +0.000 C 
ATOM     84  C60 UNL A   1      11.628  18.044  39.614  1.00  0.00    +0.000 C 
ATOM     85  C61 UNL A   1      10.136  17.757  39.620  1.00  0.00    +0.000 C 
ATOM     86  C62 UNL A   1       9.663  18.117  41.027  1.00  0.00    +0.000 C 
ATOM     87  C63 UNL A   1      10.656  19.137  41.583  1.00  0.00    +0.000 C 
ATOM    125  H35 UNL A   1      11.577  20.144  39.922  1.00  0.00    +0.000 H 
ATOM    126  H36 UNL A   1      12.182  17.220  40.014  1.00  0.00    +0.000 H 
ATOM    127  H37 UNL A   1      12.024  18.205  38.633  1.00  0.00    +0.000 H 
ATOM    128  H38 UNL A   1       9.953  16.722  39.416  1.00  0.00    +0.000 H 
ENDBRANCH   82   83
ENDBRANCH   81   82
ENDBRANCH    2   78
ENDBRANCH    3    2
ENDBRANCH    5    3
ENDBRANCH    6    5
ENDBRANCH    7    6
ENDBRANCH    8    7
ENDBRANCH    9    8
ENDBRANCH   10    9
ENDBRANCH   11   10
ENDBRANCH   12   11
ENDBRANCH   13   12
ENDBRANCH   15   13
ENDBRANCH   19   18
BRANCH   23   24
ATOM     33  C24 UNL A   1      31.365  35.942  41.371  1.00  0.00    +0.000 C 
ATOM     34  F5  UNL A   1      30.640  36.968  40.902  1.00  0.00    +0.000 F 
ATOM     24  C19 UNL A   1      31.297  35.591  42.729  1.00  0.00    +0.000 C 
ATOM     25  C20 UNL A   1      32.071  34.508  43.167  1.00  0.00    +0.000 C 
ATOM     26  F1  UNL A   1      32.044  34.138  44.457  1.00  0.00    +0.000 F 
ATOM     27  C21 UNL A   1      32.887  33.806  42.283  1.00  0.00    +0.000 C 
ATOM     28  F2  UNL A   1      33.635  32.788  42.729  1.00  0.00    +0.000 F 
ATOM     29  C22 UNL A   1      32.927  34.161  40.943  1.00  0.00    +0.000 C 
ATOM     30  F3  UNL A   1      33.699  33.474  40.090  1.00  0.00    +0.000 F 
ATOM     31  C23 UNL A   1      32.166  35.226  40.486  1.00  0.00    +0.000 C 
ATOM     32  F4  UNL A   1      32.193  35.561  39.189  1.00  0.00    +0.000 F 
ENDBRANCH   23   24
BRANCH   40   41
ATOM     41  C30 UNL A   1      31.401  41.359  47.005  1.00  0.00    +0.000 C 
ATOM     42  C31 UNL A   1      31.193  42.692  46.623  1.00  0.00    +0.000 C 
ATOM     43  F6  UNL A   1      30.148  43.015  45.846  1.00  0.00    +0.000 F 
ATOM     44  C32 UNL A   1      32.077  43.693  47.014  1.00  0.00    +0.000 C 
ATOM     45  F7  UNL A   1      31.878  44.955  46.609  1.00  0.00    +0.000 F 
ATOM     46  C33 UNL A   1      33.168  43.386  47.813  1.00  0.00    +0.000 C 
ATOM     47  F8  UNL A   1      34.012  44.354  48.197  1.00  0.00    +0.000 F 
ATOM     48  C34 UNL A   1      33.387  42.075  48.210  1.00  0.00    +0.000 C 
ATOM     49  F9  UNL A   1      34.435  41.779  48.991  1.00  0.00    +0.000 F 
ATOM     50  C35 UNL A   1      32.519  41.067  47.801  1.00  0.00    +0.000 C 
ATOM     51  F10 UNL A   1      32.759  39.807  48.194  1.00  0.00    +0.000 F 
ENDBRANCH   40   41
BRANCH   55   56
ATOM     65  C44 UNL A   1      25.041  39.309  50.547  1.00  0.00    +0.000 C 
ATOM     66  F15 UNL A   1      25.880  38.321  50.890  1.00  0.00    +0.000 F 
ATOM     56  C39 UNL A   1      24.998  39.767  49.222  1.00  0.00    +0.000 C 
ATOM     57  C40 UNL A   1      24.101  40.799  48.916  1.00  0.00    +0.000 C 
ATOM     58  F11 UNL A   1      24.042  41.285  47.667  1.00  0.00    +0.000 F 
ATOM     59  C41 UNL A   1      23.295  41.368  49.900  1.00  0.00    +0.000 C 
ATOM     60  F12 UNL A   1      22.482  42.386  49.590  1.00  0.00    +0.000 F 
ATOM     61  C42 UNL A   1      23.350  40.896  51.203  1.00  0.00    +0.000 C 
ATOM     62  F13 UNL A   1      22.576  41.443  52.149  1.00  0.00    +0.000 F 
ATOM     63  C43 UNL A   1      24.215  39.860  51.525  1.00  0.00    +0.000 C 
ATOM     64  F14 UNL A   1      24.262  39.394  52.780  1.00  0.00    +0.000 F 
ENDBRANCH   55   56
TORSDOF 19
ENDMDL
MODEL 5
REMARK VINA RESULT:     -10.8     40.219     47.481
ROOT
ATOM     19  C15 UNL A   1      52.747  20.237  11.608  1.00  0.00    +0.000 C 
ATOM     20  C16 UNL A   1      52.589  20.798  12.992  1.00  0.00    +0.000 C 
ATOM     21  N3  UNL A   1      53.453  20.827  13.975  1.00  0.00    +0.000 N 
ATOM     22  C17 UNL A   1      52.822  21.499  15.012  1.00  0.00    +0.000 C 
ATOM     23  C18 UNL A   1      53.293  21.755  16.256  1.00  0.00    +0.000 C 
ATOM     35  C25 UNL A   1      54.576  21.323  16.745  1.00  0.00    +0.000 C 
ATOM     36  C26 UNL A   1      55.086  21.422  18.028  1.00  0.00    +0.000 C 
ATOM     37  C27 UNL A   1      56.392  20.922  18.018  1.00  0.00    +0.000 C 
ATOM     38  C28 UNL A   1      56.680  20.478  16.738  1.00  0.00    +0.000 C 
ATOM     39  N4  UNL A   1      55.552  20.718  15.970  1.00  0.00    +0.000 N 
ATOM     40  C29 UNL A   1      57.898  19.891  16.244  1.00  0.00    +0.000 C 
ATOM     52  C36 UNL A   1      58.071  19.400  14.994  1.00  0.00    +0.000 C 
ATOM     53  N5  UNL A   1      57.167  19.360  13.943  1.00  0.00    +0.000 N 
ATOM     54  C37 UNL A   1      57.806  18.809  12.940  1.00  0.00    +0.000 C 
ATOM     55  C38 UNL A   1      57.313  18.509  11.552  1.00  0.00    +0.000 C 
ATOM     67  C45 UNL A   1      56.038  18.797  11.227  1.00  0.00    +0.000 C 
ATOM     68  C46 UNL A   1      55.432  18.580   9.918  1.00  0.00    +0.000 C 
ATOM     69  C47 UNL A   1      54.186  19.081   9.925  1.00  0.00    +0.000 C 
ATOM     70  C48 UNL A   1      53.891  19.618  11.255  1.00  0.00    +0.000 C 
ATOM     71  N6  UNL A   1      55.034  19.364  11.975  1.00  0.00    +0.000 N 
ATOM     72  C49 UNL A   1      59.201  18.451  13.242  1.00  0.00    +0.000 C 
ATOM     73  C50 UNL A   1      59.299  18.803  14.517  1.00  0.00    +0.000 C 
ATOM     74  C51 UNL A   1      51.513  21.887  14.533  1.00  0.00    +0.000 C 
ATOM     75  C52 UNL A   1      51.299  21.432  13.306  1.00  0.00    +0.000 C 
ATOM    111  H21 UNL A   1      54.589  21.799  18.849  1.00  0.00    +0.000 H 
ATOM    112  H22 UNL A   1      57.032  20.891  18.827  1.00  0.00    +0.000 H 
ATOM    113  H23 UNL A   1      55.460  20.492  15.016  1.00  0.00    +0.000 H 
ATOM    114  H24 UNL A   1      55.888  18.119   9.116  1.00  0.00    +0.000 H 
ATOM    115  H25 UNL A   1      53.538  19.085   9.122  1.00  0.00    +0.000 H 
ATOM    116  H26 UNL A   1      55.124  19.568  12.934  1.00  0.00    +0.000 H 
ATOM    117  H27 UNL A   1      59.914  18.035  12.624  1.00  0.00    +0.000 H 
ATOM    118  H28 UNL A   1      60.145  18.669  15.093  1.00  0.00    +0.000 H 
ATOM    119  H29 UNL A   1      50.836  22.445  15.075  1.00  0.00    +0.000 H 
ATOM    120  H30 UNL A   1      50.450  21.504  12.724  1.00  0.00    +0.000 H 
ENDROOT
BRANCH   19   18
ATOM     76  C53 UNL A   1      51.644  21.677   9.898  1.00  0.00    +0.000 C 
ATOM    109  H19 UNL A   1      49.238  18.860   8.929  1.00  0.00    +0.000 H 
ATOM     77  C54 UNL A   1      50.721  21.871   8.873  1.00  0.00    +0.000 C 
ATOM     15  C11 UNL A   1      49.896  20.817   8.472  1.00  0.00    +0.000 C 
ATOM     16  C12 UNL A   1      49.894  19.615   9.187  1.00  0.00    +0.000 C 
ATOM     17  C13 UNL A   1      50.781  19.440  10.251  1.00  0.00    +0.000 C 
ATOM    110  H20 UNL A   1      50.765  18.563  10.794  1.00  0.00    +0.000 H 
ATOM     18  C14 UNL A   1      51.694  20.454  10.584  1.00  0.00    +0.000 C 
ATOM    121  H31 UNL A   1      52.293  22.436  10.155  1.00  0.00    +0.000 H 
ATOM    122  H32 UNL A   1      50.646  22.791   8.411  1.00  0.00    +0.000 H 
BRANCH   15   13
ATOM     13  C10 UNL A   1      49.027  20.943   7.283  1.00  0.00    +0.000 C 
ATOM     14  O2  UNL A   1      48.236  21.878   7.202  1.00  0.00    +0.000 O 
BRANCH   13   12
ATOM    108  H18 UNL A   1      49.682  20.220   5.532  1.00  0.00    +0.000 H 
ATOM     12  N2  UNL A   1      49.093  19.998   6.288  1.00  0.00    +0.000 N 
BRANCH   12   11
ATOM    106  H16 UNL A   1      48.892  18.126   5.442  1.00  0.00    +0.000 H 
ATOM     11  C9  UNL A   1      48.413  18.715   6.196  1.00  0.00    +0.000 C 
ATOM    107  H17 UNL A   1      48.470  18.245   7.156  1.00  0.00    +0.000 H 
BRANCH   11   10
ATOM    105  H15 UNL A   1      46.849  19.786   5.304  1.00  0.00    +0.000 H 
ATOM     10  C8  UNL A   1      46.937  18.863   5.839  1.00  0.00    +0.000 C 
ATOM    104  H14 UNL A   1      46.371  18.844   6.747  1.00  0.00    +0.000 H 
BRANCH   10    9
ATOM      9  C7  UNL A   1      46.386  17.775   4.913  1.00  0.00    +0.000 C 
ATOM    102  H12 UNL A   1      46.866  16.853   5.164  1.00  0.00    +0.000 H 
ATOM    103  H13 UNL A   1      45.327  17.762   5.066  1.00  0.00    +0.000 H 
BRANCH    9    8
ATOM    100  H10 UNL A   1      47.556  18.483   3.291  1.00  0.00    +0.000 H 
ATOM    101  H11 UNL A   1      46.508  17.073   2.941  1.00  0.00    +0.000 H 
ATOM      8  C6  UNL A   1      46.596  18.027   3.416  1.00  0.00    +0.000 C 
BRANCH    8    7
ATOM     98  H8  UNL A   1      45.582  19.888   3.226  1.00  0.00    +0.000 H 
ATOM     99  H9  UNL A   1      45.809  18.977   1.709  1.00  0.00    +0.000 H 
ATOM      7  C5  UNL A   1      45.552  18.932   2.747  1.00  0.00    +0.000 C 
BRANCH    7    6
ATOM     97  H7  UNL A   1      43.696  18.683   3.763  1.00  0.00    +0.000 H 
ATOM      6  C4  UNL A   1      44.117  18.404   2.820  1.00  0.00    +0.000 C 
ATOM     96  H6  UNL A   1      44.130  17.339   2.719  1.00  0.00    +0.000 H 
BRANCH    6    5
ATOM      5  N1  UNL A   1      43.306  18.972   1.764  1.00  0.00    +0.000 N 
ATOM     95  H5  UNL A   1      43.256  18.437   0.939  1.00  0.00    +0.000 H 
BRANCH    5    3
ATOM      3  C3  UNL A   1      42.600  20.140   1.744  1.00  0.00    +0.000 C 
ATOM      4  O1  UNL A   1      43.250  21.176   1.588  1.00  0.00    +0.000 O 
BRANCH    3    2
ATOM      2  C2  UNL A   1      41.077  20.118   1.933  1.00  0.00    +0.000 C 
ATOM     94  H4  UNL A   1      40.867  20.798   2.732  1.00  0.00    +0.000 H 
BRANCH    2    1
ATOM      1  C1  UNL A   1      40.562  18.738   2.352  1.00  0.00    +0.000 C 
ATOM     91  H1  UNL A   1      40.545  18.091   1.500  1.00  0.00    +0.000 H 
ATOM     92  H2  UNL A   1      39.573  18.832   2.748  1.00  0.00    +0.000 H 
ATOM     93  H3  UNL A   1      41.209  18.328   3.100  1.00  0.00    +0.000 H 
ENDBRANCH    2    1
BRANCH    2   78
ATOM    134  H44 UNL A   1      38.444  23.174  -0.359  1.00  0.00    +0.000 H 
ATOM     78  C55 UNL A   1      40.347  20.603   0.691  1.00  0.00    +0.000 C 
ATOM     79  C56 UNL A   1      40.368  19.879  -0.509  1.00  0.00    +0.000 C 
ATOM     80  C57 UNL A   1      39.676  20.345  -1.629  1.00  0.00    +0.000 C 
ATOM     81  C58 UNL A   1      38.945  21.535  -1.581  1.00  0.00    +0.000 C 
ATOM     88  C64 UNL A   1      38.951  22.277  -0.405  1.00  0.00    +0.000 C 
ATOM     89  C65 UNL A   1      39.642  21.808   0.712  1.00  0.00    +0.000 C 
ATOM     90  F16 UNL A   1      39.607  22.542   1.835  1.00  0.00    +0.000 F 
ATOM    123  H33 UNL A   1      40.898  18.995  -0.565  1.00  0.00    +0.000 H 
ATOM    124  H34 UNL A   1      39.706  19.802  -2.507  1.00  0.00    +0.000 H 
BRANCH   81   82
ATOM     82  O3  UNL A   1      38.308  21.841  -2.743  1.00  0.00    +0.000 O 
BRANCH   82   83
ATOM    129  H39 UNL A   1      34.505  23.398  -3.738  1.00  0.00    +0.000 H 
ATOM    130  H40 UNL A   1      34.287  21.096  -1.865  1.00  0.00    +0.000 H 
ATOM    131  H41 UNL A   1      34.083  22.777  -1.515  1.00  0.00    +0.000 H 
ATOM    132  H42 UNL A   1      36.265  22.933  -0.846  1.00  0.00    +0.000 H 
ATOM    133  H43 UNL A   1      36.423  21.230  -1.033  1.00  0.00    +0.000 H 
ATOM     83  C59 UNL A   1      36.990  22.365  -2.789  1.00  0.00    +0.000 C 
ATOM     84  C60 UNL A   1      36.124  21.990  -3.989  1.00  0.00    +0.000 C 
ATOM     85  C61 UNL A   1      34.726  22.372  -3.533  1.00  0.00    +0.000 C 
ATOM     86  C62 UNL A   1      34.695  22.070  -2.036  1.00  0.00    +0.000 C 
ATOM     87  C63 UNL A   1      36.140  22.129  -1.541  1.00  0.00    +0.000 C 
ATOM    125  H35 UNL A   1      37.249  23.400  -2.872  1.00  0.00    +0.000 H 
ATOM    126  H36 UNL A   1      36.190  20.942  -4.197  1.00  0.00    +0.000 H 
ATOM    127  H37 UNL A   1      36.422  22.479  -4.893  1.00  0.00    +0.000 H 
ATOM    128  H38 UNL A   1      33.991  21.788  -4.048  1.00  0.00    +0.000 H 
ENDBRANCH   82   83
ENDBRANCH   81   82
ENDBRANCH    2   78
ENDBRANCH    3    2
ENDBRANCH    5    3
ENDBRANCH    6    5
ENDBRANCH    7    6
ENDBRANCH    8    7
ENDBRANCH    9    8
ENDBRANCH   10    9
ENDBRANCH   11   10
ENDBRANCH   12   11
ENDBRANCH   13   12
ENDBRANCH   15   13
ENDBRANCH   19   18
BRANCH   23   24
ATOM     33  C24 UNL A   1      51.601  21.861  18.115  1.00  0.00    +0.000 C 
ATOM     34  F5  UNL A   1      51.652  20.525  18.217  1.00  0.00    +0.000 F 
ATOM     24  C19 UNL A   1      52.420  22.532  17.193  1.00  0.00    +0.000 C 
ATOM     25  C20 UNL A   1      52.324  23.928  17.122  1.00  0.00    +0.000 C 
ATOM     26  F1  UNL A   1      53.090  24.615  16.261  1.00  0.00    +0.000 F 
ATOM     27  C21 UNL A   1      51.447  24.628  17.948  1.00  0.00    +0.000 C 
ATOM     28  F2  UNL A   1      51.388  25.965  17.879  1.00  0.00    +0.000 F 
ATOM     29  C22 UNL A   1      50.636  23.944  18.841  1.00  0.00    +0.000 C 
ATOM     30  F3  UNL A   1      49.781  24.618  19.623  1.00  0.00    +0.000 F 
ATOM     31  C23 UNL A   1      50.711  22.562  18.924  1.00  0.00    +0.000 C 
ATOM     32  F4  UNL A   1      49.919  21.898  19.778  1.00  0.00    +0.000 F 
ENDBRANCH   23   24
BRANCH   40   41
ATOM     41  C30 UNL A   1      59.063  19.805  17.184  1.00  0.00    +0.000 C 
ATOM     42  C31 UNL A   1      59.426  18.590  17.782  1.00  0.00    +0.000 C 
ATOM     43  F6  UNL A   1      58.691  17.488  17.570  1.00  0.00    +0.000 F 
ATOM     44  C32 UNL A   1      60.531  18.511  18.625  1.00  0.00    +0.000 C 
ATOM     45  F7  UNL A   1      60.840  17.347  19.213  1.00  0.00    +0.000 F 
ATOM     46  C33 UNL A   1      61.306  19.636  18.865  1.00  0.00    +0.000 C 
ATOM     47  F8  UNL A   1      62.375  19.555  19.669  1.00  0.00    +0.000 F 
ATOM     48  C34 UNL A   1      60.968  20.846  18.276  1.00  0.00    +0.000 C 
ATOM     49  F9  UNL A   1      61.723  21.932  18.499  1.00  0.00    +0.000 F 
ATOM     50  C35 UNL A   1      59.851  20.935  17.452  1.00  0.00    +0.000 C 
ATOM     51  F10 UNL A   1      59.545  22.119  16.901  1.00  0.00    +0.000 F 
ENDBRANCH   40   41
BRANCH   55   56
ATOM     65  C44 UNL A   1      59.014  18.713   9.708  1.00  0.00    +0.000 C 
ATOM     66  F15 UNL A   1      58.947  20.050   9.801  1.00  0.00    +0.000 F 
ATOM     56  C39 UNL A   1      58.221  17.910  10.540  1.00  0.00    +0.000 C 
ATOM     57  C40 UNL A   1      58.326  16.520  10.399  1.00  0.00    +0.000 C 
ATOM     58  F11 UNL A   1      57.604  15.711  11.189  1.00  0.00    +0.000 F 
ATOM     59  C41 UNL A   1      59.208  15.954   9.480  1.00  0.00    +0.000 C 
ATOM     60  F12 UNL A   1      59.324  14.622   9.400  1.00  0.00    +0.000 F 
ATOM     61  C42 UNL A   1      59.979  16.769   8.663  1.00  0.00    +0.000 C 
ATOM     62  F13 UNL A   1      60.827  16.224   7.781  1.00  0.00    +0.000 F 
ATOM     63  C43 UNL A   1      59.875  18.148   8.770  1.00  0.00    +0.000 C 
ATOM     64  F14 UNL A   1      60.610  18.937   7.975  1.00  0.00    +0.000 F 
ENDBRANCH   55   56
TORSDOF 19
ENDMDL
MODEL 6
REMARK VINA RESULT:     -10.8      3.550      8.679
ROOT
ATOM     19  C15 UNL A   1      25.720  38.488  48.319  1.00  0.00    +0.000 C 
ATOM     20  C16 UNL A   1      25.420  37.210  47.590  1.00  0.00    +0.000 C 
ATOM     21  N3  UNL A   1      26.166  36.548  46.743  1.00  0.00    +0.000 N 
ATOM     22  C17 UNL A   1      25.440  35.415  46.404  1.00  0.00    +0.000 C 
ATOM     23  C18 UNL A   1      25.773  34.434  45.533  1.00  0.00    +0.000 C 
ATOM     35  C25 UNL A   1      26.979  34.417  44.748  1.00  0.00    +0.000 C 
ATOM     36  C26 UNL A   1      27.342  33.534  43.746  1.00  0.00    +0.000 C 
ATOM     37  C27 UNL A   1      28.627  33.873  43.310  1.00  0.00    +0.000 C 
ATOM     38  C28 UNL A   1      29.047  34.989  44.014  1.00  0.00    +0.000 C 
ATOM     39  N4  UNL A   1      28.021  35.320  44.885  1.00  0.00    +0.000 N 
ATOM     40  C29 UNL A   1      30.297  35.696  43.915  1.00  0.00    +0.000 C 
ATOM     52  C36 UNL A   1      30.598  36.837  44.580  1.00  0.00    +0.000 C 
ATOM     53  N5  UNL A   1      29.819  37.551  45.478  1.00  0.00    +0.000 N 
ATOM     54  C37 UNL A   1      30.553  38.567  45.862  1.00  0.00    +0.000 C 
ATOM     55  C38 UNL A   1      30.214  39.672  46.823  1.00  0.00    +0.000 C 
ATOM     67  C45 UNL A   1      28.992  39.702  47.390  1.00  0.00    +0.000 C 
ATOM     68  C46 UNL A   1      28.534  40.699  48.352  1.00  0.00    +0.000 C 
ATOM     69  C47 UNL A   1      27.309  40.358  48.784  1.00  0.00    +0.000 C 
ATOM     70  C48 UNL A   1      26.880  39.138  48.098  1.00  0.00    +0.000 C 
ATOM     71  N6  UNL A   1      27.925  38.847  47.255  1.00  0.00    +0.000 N 
ATOM     72  C49 UNL A   1      31.894  38.599  45.258  1.00  0.00    +0.000 C 
ATOM     73  C50 UNL A   1      31.856  37.541  44.460  1.00  0.00    +0.000 C 
ATOM     74  C51 UNL A   1      24.205  35.462  47.157  1.00  0.00    +0.000 C 
ATOM     75  C52 UNL A   1      24.120  36.579  47.868  1.00  0.00    +0.000 C 
ATOM    111  H21 UNL A   1      26.764  32.760  43.383  1.00  0.00    +0.000 H 
ATOM    112  H22 UNL A   1      29.169  33.376  42.587  1.00  0.00    +0.000 H 
ATOM    113  H23 UNL A   1      28.032  36.084  45.507  1.00  0.00    +0.000 H 
ATOM    114  H24 UNL A   1      29.066  41.530  48.652  1.00  0.00    +0.000 H 
ATOM    115  H25 UNL A   1      26.757  40.874  49.487  1.00  0.00    +0.000 H 
ATOM    116  H26 UNL A   1      27.911  38.098  46.616  1.00  0.00    +0.000 H 
ATOM    117  H27 UNL A   1      32.662  39.270  45.414  1.00  0.00    +0.000 H 
ATOM    118  H28 UNL A   1      32.627  37.256  43.835  1.00  0.00    +0.000 H 
ATOM    119  H29 UNL A   1      23.485  34.723  47.144  1.00  0.00    +0.000 H 
ATOM    120  H30 UNL A   1      23.345  36.917  48.460  1.00  0.00    +0.000 H 
ENDROOT
BRANCH   19   18
ATOM     76  C53 UNL A   1      23.859  39.982  49.044  1.00  0.00    +0.000 C 
ATOM    109  H19 UNL A   1      23.835  38.426  52.542  1.00  0.00    +0.000 H 
ATOM     77  C54 UNL A   1      22.926  40.405  49.987  1.00  0.00    +0.000 C 
ATOM     15  C11 UNL A   1      22.872  39.783  51.237  1.00  0.00    +0.000 C 
ATOM     16  C12 UNL A   1      23.839  38.838  51.595  1.00  0.00    +0.000 C 
ATOM     17  C13 UNL A   1      24.809  38.454  50.667  1.00  0.00    +0.000 C 
ATOM    110  H20 UNL A   1      25.537  37.773  50.936  1.00  0.00    +0.000 H 
ATOM     18  C14 UNL A   1      24.797  38.990  49.369  1.00  0.00    +0.000 C 
ATOM    121  H31 UNL A   1      23.861  40.401  48.100  1.00  0.00    +0.000 H 
ATOM    122  H32 UNL A   1      22.277  41.176  49.764  1.00  0.00    +0.000 H 
BRANCH   15   13
ATOM     13  C10 UNL A   1      21.790  40.096  52.194  1.00  0.00    +0.000 C 
ATOM     14  O2  UNL A   1      22.035  40.147  53.396  1.00  0.00    +0.000 O 
BRANCH   13   12
ATOM    108  H18 UNL A   1      20.361  41.160  51.276  1.00  0.00    +0.000 H 
ATOM     12  N2  UNL A   1      20.513  40.302  51.735  1.00  0.00    +0.000 N 
BRANCH   12   11
ATOM    106  H16 UNL A   1      19.613  38.572  52.414  1.00  0.00    +0.000 H 
ATOM     11  C9  UNL A   1      19.351  39.431  51.831  1.00  0.00    +0.000 C 
ATOM    107  H17 UNL A   1      18.561  39.989  52.288  1.00  0.00    +0.000 H 
BRANCH   11   10
ATOM    105  H15 UNL A   1      18.662  39.850  49.898  1.00  0.00    +0.000 H 
ATOM     10  C8  UNL A   1      18.860  38.964  50.464  1.00  0.00    +0.000 C 
ATOM    104  H14 UNL A   1      17.994  38.354  50.612  1.00  0.00    +0.000 H 
BRANCH   10    9
ATOM      9  C7  UNL A   1      19.878  38.156  49.655  1.00  0.00    +0.000 C 
ATOM    102  H12 UNL A   1      20.753  38.030  50.258  1.00  0.00    +0.000 H 
ATOM    103  H13 UNL A   1      19.395  37.235  49.405  1.00  0.00    +0.000 H 
BRANCH    9    8
ATOM    100  H10 UNL A   1      19.558  39.506  48.050  1.00  0.00    +0.000 H 
ATOM    101  H11 UNL A   1      21.269  39.218  48.500  1.00  0.00    +0.000 H 
ATOM      8  C6  UNL A   1      20.304  38.789  48.327  1.00  0.00    +0.000 C 
BRANCH    8    7
ATOM     98  H8  UNL A   1      21.272  38.171  46.537  1.00  0.00    +0.000 H 
ATOM     99  H9  UNL A   1      20.685  36.855  47.588  1.00  0.00    +0.000 H 
ATOM      7  C5  UNL A   1      20.478  37.812  47.157  1.00  0.00    +0.000 C 
BRANCH    7    6
ATOM     97  H7  UNL A   1      18.946  38.594  45.900  1.00  0.00    +0.000 H 
ATOM      6  C4  UNL A   1      19.232  37.637  46.286  1.00  0.00    +0.000 C 
ATOM     96  H6  UNL A   1      18.443  37.226  46.881  1.00  0.00    +0.000 H 
BRANCH    6    5
ATOM      5  N1  UNL A   1      19.500  36.749  45.174  1.00  0.00    +0.000 N 
ATOM     95  H5  UNL A   1      19.501  37.176  44.288  1.00  0.00    +0.000 H 
BRANCH    5    3
ATOM      3  C3  UNL A   1      19.750  35.408  45.177  1.00  0.00    +0.000 C 
ATOM      4  O1  UNL A   1      20.646  35.011  44.428  1.00  0.00    +0.000 O 
BRANCH    3    2
ATOM      2  C2  UNL A   1      18.919  34.475  46.068  1.00  0.00    +0.000 C 
ATOM     94  H4  UNL A   1      17.989  34.976  46.237  1.00  0.00    +0.000 H 
BRANCH    2    1
ATOM      1  C1  UNL A   1      19.572  34.238  47.432  1.00  0.00    +0.000 C 
ATOM     91  H1  UNL A   1      19.003  34.734  48.190  1.00  0.00    +0.000 H 
ATOM     92  H2  UNL A   1      20.569  34.626  47.422  1.00  0.00    +0.000 H 
ATOM     93  H3  UNL A   1      19.600  33.187  47.635  1.00  0.00    +0.000 H 
ENDBRANCH    2    1
BRANCH    2   78
ATOM    134  H44 UNL A   1      19.840  30.016  45.174  1.00  0.00    +0.000 H 
ATOM     78  C55 UNL A   1      18.627  33.150  45.381  1.00  0.00    +0.000 C 
ATOM     79  C56 UNL A   1      17.531  32.988  44.522  1.00  0.00    +0.000 C 
ATOM     80  C57 UNL A   1      17.299  31.761  43.896  1.00  0.00    +0.000 C 
ATOM     81  C58 UNL A   1      18.151  30.673  44.104  1.00  0.00    +0.000 C 
ATOM     88  C64 UNL A   1      19.219  30.817  44.983  1.00  0.00    +0.000 C 
ATOM     89  C65 UNL A   1      19.449  32.043  45.606  1.00  0.00    +0.000 C 
ATOM     90  F16 UNL A   1      20.501  32.149  46.432  1.00  0.00    +0.000 F 
ATOM    123  H33 UNL A   1      16.893  33.780  44.352  1.00  0.00    +0.000 H 
ATOM    124  H34 UNL A   1      16.485  31.656  43.271  1.00  0.00    +0.000 H 
BRANCH   81   82
ATOM     82  O3  UNL A   1      17.806  29.558  43.405  1.00  0.00    +0.000 O 
BRANCH   82   83
ATOM    129  H39 UNL A   1      14.194  27.550  44.296  1.00  0.00    +0.000 H 
ATOM    130  H40 UNL A   1      16.108  25.773  42.869  1.00  0.00    +0.000 H 
ATOM    131  H41 UNL A   1      15.688  25.758  44.547  1.00  0.00    +0.000 H 
ATOM    132  H42 UNL A   1      17.494  27.071  45.042  1.00  0.00    +0.000 H 
ATOM    133  H43 UNL A   1      18.007  26.948  43.405  1.00  0.00    +0.000 H 
ATOM     83  C59 UNL A   1      16.769  28.679  43.813  1.00  0.00    +0.000 C 
ATOM     84  C60 UNL A   1      15.495  28.654  42.972  1.00  0.00    +0.000 C 
ATOM     85  C61 UNL A   1      14.806  27.382  43.435  1.00  0.00    +0.000 C 
ATOM     86  C62 UNL A   1      15.936  26.395  43.723  1.00  0.00    +0.000 C 
ATOM     87  C63 UNL A   1      17.183  27.224  44.030  1.00  0.00    +0.000 C 
ATOM    125  H35 UNL A   1      16.545  29.146  44.750  1.00  0.00    +0.000 H 
ATOM    126  H36 UNL A   1      15.725  28.610  41.927  1.00  0.00    +0.000 H 
ATOM    127  H37 UNL A   1      14.892  29.530  43.094  1.00  0.00    +0.000 H 
ATOM    128  H38 UNL A   1      14.164  27.003  42.667  1.00  0.00    +0.000 H 
ENDBRANCH   82   83
ENDBRANCH   81   82
ENDBRANCH    2   78
ENDBRANCH    3    2
ENDBRANCH    5    3
ENDBRANCH    6    5
ENDBRANCH    7    6
ENDBRANCH    8    7
ENDBRANCH    9    8
ENDBRANCH   10    9
ENDBRANCH   11   10
ENDBRANCH   12   11
ENDBRANCH   13   12
ENDBRANCH   15   13
ENDBRANCH   19   18
BRANCH   23   24
ATOM     33  C24 UNL A   1      25.014  32.097  46.077  1.00  0.00    +0.000 C 
ATOM     34  F5  UNL A   1      26.008  32.000  46.972  1.00  0.00    +0.000 F 
ATOM     24  C19 UNL A   1      24.819  33.290  45.363  1.00  0.00    +0.000 C 
ATOM     25  C20 UNL A   1      23.770  33.338  44.435  1.00  0.00    +0.000 C 
ATOM     26  F1  UNL A   1      23.541  34.458  43.733  1.00  0.00    +0.000 F 
ATOM     27  C21 UNL A   1      22.942  32.237  44.234  1.00  0.00    +0.000 C 
ATOM     28  F2  UNL A   1      21.931  32.312  43.358  1.00  0.00    +0.000 F 
ATOM     29  C22 UNL A   1      23.162  31.062  44.939  1.00  0.00    +0.000 C 
ATOM     30  F3  UNL A   1      22.375  29.998  44.731  1.00  0.00    +0.000 F 
ATOM     31  C23 UNL A   1      24.197  30.991  45.859  1.00  0.00    +0.000 C 
ATOM     32  F4  UNL A   1      24.419  29.854  46.531  1.00  0.00    +0.000 F 
ENDBRANCH   23   24
BRANCH   40   41
ATOM     41  C30 UNL A   1      31.344  35.136  42.999  1.00  0.00    +0.000 C 
ATOM     42  C31 UNL A   1      32.220  34.128  43.427  1.00  0.00    +0.000 C 
ATOM     43  F6  UNL A   1      32.176  33.690  44.695  1.00  0.00    +0.000 F 
ATOM     44  C32 UNL A   1      33.165  33.589  42.560  1.00  0.00    +0.000 C 
ATOM     45  F7  UNL A   1      34.016  32.651  42.999  1.00  0.00    +0.000 F 
ATOM     46  C33 UNL A   1      33.235  34.026  41.246  1.00  0.00    +0.000 C 
ATOM     47  F8  UNL A   1      34.139  33.497  40.410  1.00  0.00    +0.000 F 
ATOM     48  C34 UNL A   1      32.371  35.016  40.800  1.00  0.00    +0.000 C 
ATOM     49  F9  UNL A   1      32.431  35.432  39.527  1.00  0.00    +0.000 F 
ATOM     50  C35 UNL A   1      31.441  35.576  41.671  1.00  0.00    +0.000 C 
ATOM     51  F10 UNL A   1      30.622  36.535  41.214  1.00  0.00    +0.000 F 
ENDBRANCH   40   41
BRANCH   55   56
ATOM     65  C44 UNL A   1      32.167  40.517  48.166  1.00  0.00    +0.000 C 
ATOM     66  F15 UNL A   1      32.174  39.374  48.867  1.00  0.00    +0.000 F 
ATOM     56  C39 UNL A   1      31.215  40.718  47.156  1.00  0.00    +0.000 C 
ATOM     57  C40 UNL A   1      31.249  41.931  46.458  1.00  0.00    +0.000 C 
ATOM     58  F11 UNL A   1      30.372  42.158  45.468  1.00  0.00    +0.000 F 
ATOM     59  C41 UNL A   1      32.213  42.898  46.739  1.00  0.00    +0.000 C 
ATOM     60  F12 UNL A   1      32.254  44.028  46.023  1.00  0.00    +0.000 F 
ATOM     61  C42 UNL A   1      33.142  42.680  47.746  1.00  0.00    +0.000 C 
ATOM     62  F13 UNL A   1      34.069  43.608  48.016  1.00  0.00    +0.000 F 
ATOM     63  C43 UNL A   1      33.114  41.495  48.466  1.00  0.00    +0.000 C 
ATOM     64  F14 UNL A   1      34.002  41.287  49.447  1.00  0.00    +0.000 F 
ENDBRANCH   55   56
TORSDOF 19
ENDMDL
MODEL 7
REMARK VINA RESULT:     -10.8     42.893     46.302
ROOT
ATOM     19  C15 UNL A   1      14.282  53.784   5.341  1.00  0.00    +0.000 C 
ATOM     20  C16 UNL A   1      15.216  54.259   4.265  1.00  0.00    +0.000 C 
ATOM     21  N3  UNL A   1      15.701  53.601   3.243  1.00  0.00    +0.000 N 
ATOM     22  C17 UNL A   1      16.468  54.515   2.535  1.00  0.00    +0.000 C 
ATOM     23  C18 UNL A   1      17.203  54.306   1.417  1.00  0.00    +0.000 C 
ATOM     35  C25 UNL A   1      17.344  53.032   0.762  1.00  0.00    +0.000 C 
ATOM     36  C26 UNL A   1      18.168  52.696  -0.298  1.00  0.00    +0.000 C 
ATOM     37  C27 UNL A   1      17.923  51.361  -0.634  1.00  0.00    +0.000 C 
ATOM     38  C28 UNL A   1      16.976  50.856   0.240  1.00  0.00    +0.000 C 
ATOM     39  N4  UNL A   1      16.638  51.889   1.100  1.00  0.00    +0.000 N 
ATOM     40  C29 UNL A   1      16.406  49.535   0.283  1.00  0.00    +0.000 C 
ATOM     52  C36 UNL A   1      15.545  49.092   1.230  1.00  0.00    +0.000 C 
ATOM     53  N5  UNL A   1      15.023  49.775   2.319  1.00  0.00    +0.000 N 
ATOM     54  C37 UNL A   1      14.226  48.929   2.925  1.00  0.00    +0.000 C 
ATOM     55  C38 UNL A   1      13.402  49.128   4.167  1.00  0.00    +0.000 C 
ATOM     67  C45 UNL A   1      13.457  50.307   4.815  1.00  0.00    +0.000 C 
ATOM     68  C46 UNL A   1      12.699  50.646   6.014  1.00  0.00    +0.000 C 
ATOM     69  C47 UNL A   1      12.920  51.934   6.321  1.00  0.00    +0.000 C 
ATOM     70  C48 UNL A   1      13.868  52.502   5.360  1.00  0.00    +0.000 C 
ATOM     71  N6  UNL A   1      14.168  51.449   4.530  1.00  0.00    +0.000 N 
ATOM     72  C49 UNL A   1      14.142  47.613   2.274  1.00  0.00    +0.000 C 
ATOM     73  C50 UNL A   1      14.990  47.757   1.265  1.00  0.00    +0.000 C 
ATOM     74  C51 UNL A   1      16.364  55.782   3.226  1.00  0.00    +0.000 C 
ATOM     75  C52 UNL A   1      15.642  55.666   4.332  1.00  0.00    +0.000 C 
ATOM    111  H21 UNL A   1      18.845  53.322  -0.760  1.00  0.00    +0.000 H 
ATOM    112  H22 UNL A   1      18.373  50.841  -1.404  1.00  0.00    +0.000 H 
ATOM    113  H23 UNL A   1      15.993  51.820   1.841  1.00  0.00    +0.000 H 
ATOM    114  H24 UNL A   1      12.090  50.000   6.541  1.00  0.00    +0.000 H 
ATOM    115  H25 UNL A   1      12.490  52.444   7.109  1.00  0.00    +0.000 H 
ATOM    116  H26 UNL A   1      14.827  51.506   3.802  1.00  0.00    +0.000 H 
ATOM    117  H27 UNL A   1      13.572  46.794   2.534  1.00  0.00    +0.000 H 
ATOM    118  H28 UNL A   1      15.223  47.011   0.590  1.00  0.00    +0.000 H 
ATOM    119  H29 UNL A   1      16.795  56.661   2.899  1.00  0.00    +0.000 H 
ATOM    120  H30 UNL A   1      15.434  56.375   5.051  1.00  0.00    +0.000 H 
ENDROOT
BRANCH   19   18
ATOM     76  C53 UNL A   1      12.541  55.439   6.011  1.00  0.00    +0.000 C 
ATOM    109  H19 UNL A   1      14.112  55.842   9.479  1.00  0.00    +0.000 H 
ATOM     77  C54 UNL A   1      11.947  56.277   6.951  1.00  0.00    +0.000 C 
ATOM     15  C11 UNL A   1      12.481  56.363   8.240  1.00  0.00    +0.000 C 
ATOM     16  C12 UNL A   1      13.686  55.725   8.546  1.00  0.00    +0.000 C 
ATOM     17  C13 UNL A   1      14.312  54.929   7.584  1.00  0.00    +0.000 C 
ATOM    110  H20 UNL A   1      15.213  54.474   7.801  1.00  0.00    +0.000 H 
ATOM     18  C14 UNL A   1      13.719  54.743   6.325  1.00  0.00    +0.000 C 
ATOM    121  H31 UNL A   1      12.114  55.329   5.078  1.00  0.00    +0.000 H 
ATOM    122  H32 UNL A   1      11.115  56.833   6.697  1.00  0.00    +0.000 H 
BRANCH   15   13
ATOM     13  C10 UNL A   1      11.779  57.113   9.303  1.00  0.00    +0.000 C 
ATOM     14  O2  UNL A   1      11.836  58.339   9.324  1.00  0.00    +0.000 O 
BRANCH   13   12
ATOM    108  H18 UNL A   1      11.295  56.691  11.202  1.00  0.00    +0.000 H 
ATOM     12  N2  UNL A   1      11.089  56.431  10.275  1.00  0.00    +0.000 N 
BRANCH   12   11
ATOM    106  H16 UNL A   1       9.290  55.568  10.805  1.00  0.00    +0.000 H 
ATOM     11  C9  UNL A   1      10.096  55.378  10.127  1.00  0.00    +0.000 C 
ATOM    107  H17 UNL A   1       9.763  55.384   9.111  1.00  0.00    +0.000 H 
BRANCH   11   10
ATOM    105  H15 UNL A   1       9.901  53.456  10.938  1.00  0.00    +0.000 H 
ATOM     10  C8  UNL A   1      10.667  53.994  10.421  1.00  0.00    +0.000 C 
ATOM    104  H14 UNL A   1      11.560  54.119  10.998  1.00  0.00    +0.000 H 
BRANCH   10    9
ATOM      9  C7  UNL A   1      11.014  53.164   9.183  1.00  0.00    +0.000 C 
ATOM    102  H12 UNL A   1      10.430  53.530   8.365  1.00  0.00    +0.000 H 
ATOM    103  H13 UNL A   1      12.069  53.274   9.037  1.00  0.00    +0.000 H 
BRANCH    9    8
ATOM    100  H10 UNL A   1      11.690  51.153   9.183  1.00  0.00    +0.000 H 
ATOM    101  H11 UNL A   1      10.324  51.519  10.283  1.00  0.00    +0.000 H 
ATOM      8  C6  UNL A   1      10.757  51.660   9.314  1.00  0.00    +0.000 C 
BRANCH    8    7
ATOM     98  H8  UNL A   1       8.768  51.333   8.634  1.00  0.00    +0.000 H 
ATOM     99  H9  UNL A   1      10.003  51.485   7.356  1.00  0.00    +0.000 H 
ATOM      7  C5  UNL A   1       9.754  51.073   8.312  1.00  0.00    +0.000 C 
BRANCH    7    6
ATOM     97  H7  UNL A   1      10.786  49.289   7.775  1.00  0.00    +0.000 H 
ATOM      6  C4  UNL A   1       9.824  49.551   8.163  1.00  0.00    +0.000 C 
ATOM     96  H6  UNL A   1       9.053  49.228   7.495  1.00  0.00    +0.000 H 
BRANCH    6    5
ATOM      5  N1  UNL A   1       9.647  48.900   9.444  1.00  0.00    +0.000 N 
ATOM     95  H5  UNL A   1       9.164  49.428  10.119  1.00  0.00    +0.000 H 
BRANCH    5    3
ATOM      3  C3  UNL A   1      10.051  47.662   9.851  1.00  0.00    +0.000 C 
ATOM      4  O1  UNL A   1       9.269  47.032  10.567  1.00  0.00    +0.000 O 
BRANCH    3    2
ATOM      2  C2  UNL A   1      11.428  47.130   9.431  1.00  0.00    +0.000 C 
ATOM     94  H4  UNL A   1      11.419  47.093   8.362  1.00  0.00    +0.000 H 
BRANCH    2    1
ATOM      1  C1  UNL A   1      11.684  45.709   9.941  1.00  0.00    +0.000 C 
ATOM     91  H1  UNL A   1      11.805  45.048   9.109  1.00  0.00    +0.000 H 
ATOM     92  H2  UNL A   1      10.852  45.388  10.534  1.00  0.00    +0.000 H 
ATOM     93  H3  UNL A   1      12.572  45.699  10.538  1.00  0.00    +0.000 H 
ENDBRANCH    2    1
BRANCH    2   78
ATOM    134  H44 UNL A   1      13.822  49.458  12.652  1.00  0.00    +0.000 H 
ATOM     78  C55 UNL A   1      12.550  48.060   9.866  1.00  0.00    +0.000 C 
ATOM     79  C56 UNL A   1      13.456  48.606   8.947  1.00  0.00    +0.000 C 
ATOM     80  C57 UNL A   1      14.467  49.469   9.378  1.00  0.00    +0.000 C 
ATOM     81  C58 UNL A   1      14.595  49.811  10.727  1.00  0.00    +0.000 C 
ATOM     88  C64 UNL A   1      13.723  49.243  11.648  1.00  0.00    +0.000 C 
ATOM     89  C65 UNL A   1      12.714  48.384  11.215  1.00  0.00    +0.000 C 
ATOM     90  F16 UNL A   1      11.879  47.871  12.132  1.00  0.00    +0.000 F 
ATOM    123  H33 UNL A   1      13.375  48.370   7.947  1.00  0.00    +0.000 H 
ATOM    124  H34 UNL A   1      15.129  49.858   8.689  1.00  0.00    +0.000 H 
BRANCH   81   82
ATOM     82  O3  UNL A   1      15.612  50.679  10.983  1.00  0.00    +0.000 O 
BRANCH   82   83
ATOM    129  H39 UNL A   1      14.770  54.777  11.589  1.00  0.00    +0.000 H 
ATOM    130  H40 UNL A   1      13.365  53.067  13.580  1.00  0.00    +0.000 H 
ATOM    131  H41 UNL A   1      14.760  54.060  13.824  1.00  0.00    +0.000 H 
ATOM    132  H42 UNL A   1      16.136  52.268  13.465  1.00  0.00    +0.000 H 
ATOM    133  H43 UNL A   1      14.754  51.248  13.389  1.00  0.00    +0.000 H 
ATOM     83  C59 UNL A   1      15.402  51.997  11.463  1.00  0.00    +0.000 C 
ATOM     84  C60 UNL A   1      14.304  52.822  10.796  1.00  0.00    +0.000 C 
ATOM     85  C61 UNL A   1      14.097  53.967  11.774  1.00  0.00    +0.000 C 
ATOM     86  C62 UNL A   1      14.306  53.355  13.158  1.00  0.00    +0.000 C 
ATOM     87  C63 UNL A   1      15.197  52.128  12.972  1.00  0.00    +0.000 C 
ATOM    125  H35 UNL A   1      16.349  52.407  11.179  1.00  0.00    +0.000 H 
ATOM    126  H36 UNL A   1      13.409  52.247  10.680  1.00  0.00    +0.000 H 
ATOM    127  H37 UNL A   1      14.562  53.151   9.811  1.00  0.00    +0.000 H 
ATOM    128  H38 UNL A   1      13.105  54.361  11.685  1.00  0.00    +0.000 H 
ENDBRANCH   82   83
ENDBRANCH   81   82
ENDBRANCH    2   78
ENDBRANCH    3    2
ENDBRANCH    5    3
ENDBRANCH    6    5
ENDBRANCH    7    6
ENDBRANCH    8    7
ENDBRANCH    9    8
ENDBRANCH   10    9
ENDBRANCH   11   10
ENDBRANCH   12   11
ENDBRANCH   13   12
ENDBRANCH   15   13
ENDBRANCH   19   18
BRANCH   23   24
ATOM     33  C24 UNL A   1      17.396  56.140  -0.295  1.00  0.00    +0.000 C 
ATOM     34  F5  UNL A   1      16.201  55.783  -0.789  1.00  0.00    +0.000 F 
ATOM     24  C19 UNL A   1      17.927  55.476   0.822  1.00  0.00    +0.000 C 
ATOM     25  C20 UNL A   1      19.181  55.883   1.295  1.00  0.00    +0.000 C 
ATOM     26  F1  UNL A   1      19.727  55.282   2.363  1.00  0.00    +0.000 F 
ATOM     27  C21 UNL A   1      19.875  56.921   0.679  1.00  0.00    +0.000 C 
ATOM     28  F2  UNL A   1      21.063  57.310   1.162  1.00  0.00    +0.000 F 
ATOM     29  C22 UNL A   1      19.339  57.555  -0.432  1.00  0.00    +0.000 C 
ATOM     30  F3  UNL A   1      20.017  58.542  -1.034  1.00  0.00    +0.000 F 
ATOM     31  C23 UNL A   1      18.101  57.164  -0.921  1.00  0.00    +0.000 C 
ATOM     32  F4  UNL A   1      17.588  57.766  -2.002  1.00  0.00    +0.000 F 
ENDBRANCH   23   24
BRANCH   40   41
ATOM     41  C30 UNL A   1      16.802  48.569  -0.793  1.00  0.00    +0.000 C 
ATOM     42  C31 UNL A   1      16.005  48.384  -1.932  1.00  0.00    +0.000 C 
ATOM     43  F6  UNL A   1      14.833  49.028  -2.047  1.00  0.00    +0.000 F 
ATOM     44  C32 UNL A   1      16.397  47.513  -2.943  1.00  0.00    +0.000 C 
ATOM     45  F7  UNL A   1      15.604  47.325  -4.007  1.00  0.00    +0.000 F 
ATOM     46  C33 UNL A   1      17.602  46.832  -2.849  1.00  0.00    +0.000 C 
ATOM     47  F8  UNL A   1      17.982  46.002  -3.830  1.00  0.00    +0.000 F 
ATOM     48  C34 UNL A   1      18.409  47.009  -1.734  1.00  0.00    +0.000 C 
ATOM     49  F9  UNL A   1      19.578  46.359  -1.646  1.00  0.00    +0.000 F 
ATOM     50  C35 UNL A   1      18.009  47.860  -0.709  1.00  0.00    +0.000 C 
ATOM     51  F10 UNL A   1      18.806  48.007   0.359  1.00  0.00    +0.000 F 
ENDBRANCH   40   41
BRANCH   55   56
ATOM     65  C44 UNL A   1      12.998  47.087   5.584  1.00  0.00    +0.000 C 
ATOM     66  F15 UNL A   1      14.272  47.130   6.000  1.00  0.00    +0.000 F 
ATOM     56  C39 UNL A   1      12.524  48.042   4.672  1.00  0.00    +0.000 C 
ATOM     57  C40 UNL A   1      11.186  47.949   4.267  1.00  0.00    +0.000 C 
ATOM     58  F11 UNL A   1      10.681  48.854   3.415  1.00  0.00    +0.000 F 
ATOM     59  C41 UNL A   1      10.347  46.957   4.771  1.00  0.00    +0.000 C 
ATOM     60  F12 UNL A   1       9.060  46.921   4.404  1.00  0.00    +0.000 F 
ATOM     61  C42 UNL A   1      10.840  46.020   5.668  1.00  0.00    +0.000 C 
ATOM     62  F13 UNL A   1      10.034  45.067   6.153  1.00  0.00    +0.000 F 
ATOM     63  C43 UNL A   1      12.167  46.079   6.067  1.00  0.00    +0.000 C 
ATOM     64  F14 UNL A   1      12.649  45.168   6.924  1.00  0.00    +0.000 F 
ENDBRANCH   55   56
TORSDOF 19
ENDMDL
MODEL 8
REMARK VINA RESULT:     -10.7     36.354     42.193
ROOT
ATOM     19  C15 UNL A   1      10.895   2.743  21.530  1.00  0.00    +0.000 C 
ATOM     20  C16 UNL A   1       9.920   3.626  22.254  1.00  0.00    +0.000 C 
ATOM     21  N3  UNL A   1       9.405   4.769  21.878  1.00  0.00    +0.000 N 
ATOM     22  C17 UNL A   1       8.528   5.139  22.888  1.00  0.00    +0.000 C 
ATOM     23  C18 UNL A   1       7.779   6.263  22.980  1.00  0.00    +0.000 C 
ATOM     35  C25 UNL A   1       7.793   7.331  22.015  1.00  0.00    +0.000 C 
ATOM     36  C26 UNL A   1       7.168   8.564  22.087  1.00  0.00    +0.000 C 
ATOM     37  C27 UNL A   1       7.415   9.248  20.892  1.00  0.00    +0.000 C 
ATOM     38  C28 UNL A   1       8.224   8.457  20.094  1.00  0.00    +0.000 C 
ATOM     39  N4  UNL A   1       8.459   7.288  20.801  1.00  0.00    +0.000 N 
ATOM     40  C29 UNL A   1       8.735   8.735  18.778  1.00  0.00    +0.000 C 
ATOM     52  C36 UNL A   1       9.597   7.942  18.097  1.00  0.00    +0.000 C 
ATOM     53  N5  UNL A   1      10.152   6.730  18.480  1.00  0.00    +0.000 N 
ATOM     54  C37 UNL A   1      10.904   6.346  17.478  1.00  0.00    +0.000 C 
ATOM     55  C38 UNL A   1      11.748   5.109  17.346  1.00  0.00    +0.000 C 
ATOM     67  C45 UNL A   1      11.808   4.238  18.372  1.00  0.00    +0.000 C 
ATOM     68  C46 UNL A   1      12.566   2.992  18.375  1.00  0.00    +0.000 C 
ATOM     69  C47 UNL A   1      12.310   2.328  19.514  1.00  0.00    +0.000 C 
ATOM     70  C48 UNL A   1      11.398   3.123  20.339  1.00  0.00    +0.000 C 
ATOM     71  N6  UNL A   1      11.190   4.262  19.599  1.00  0.00    +0.000 N 
ATOM     72  C49 UNL A   1      10.896   7.271  16.334  1.00  0.00    +0.000 C 
ATOM     73  C50 UNL A   1      10.109   8.242  16.778  1.00  0.00    +0.000 C 
ATOM     74  C51 UNL A   1       8.556   4.086  23.880  1.00  0.00    +0.000 C 
ATOM     75  C52 UNL A   1       9.440   3.150  23.561  1.00  0.00    +0.000 C 
ATOM    111  H21 UNL A   1       6.616   8.917  22.883  1.00  0.00    +0.000 H 
ATOM    112  H22 UNL A   1       7.054  10.184  20.647  1.00  0.00    +0.000 H 
ATOM    113  H23 UNL A   1       9.016   6.539  20.486  1.00  0.00    +0.000 H 
ATOM    114  H24 UNL A   1      13.197   2.671  17.624  1.00  0.00    +0.000 H 
ATOM    115  H25 UNL A   1      12.694   1.405  19.768  1.00  0.00    +0.000 H 
ATOM    116  H26 UNL A   1      10.652   5.022  19.918  1.00  0.00    +0.000 H 
ATOM    117  H27 UNL A   1      11.377   7.187  15.426  1.00  0.00    +0.000 H 
ATOM    118  H28 UNL A   1       9.891   9.101  16.248  1.00  0.00    +0.000 H 
ATOM    119  H29 UNL A   1       7.964   4.066  24.726  1.00  0.00    +0.000 H 
ATOM    120  H30 UNL A   1       9.718   2.310  24.090  1.00  0.00    +0.000 H 
ENDROOT
BRANCH   19   18
ATOM     76  C53 UNL A   1      12.422   1.215  22.775  1.00  0.00    +0.000 C 
ATOM    109  H19 UNL A   1       9.953  -1.692  22.445  1.00  0.00    +0.000 H 
ATOM     77  C54 UNL A   1      12.715  -0.016  23.357  1.00  0.00    +0.000 C 
ATOM     15  C11 UNL A   1      11.777  -1.051  23.299  1.00  0.00    +0.000 C 
ATOM     16  C12 UNL A   1      10.613  -0.903  22.540  1.00  0.00    +0.000 C 
ATOM     17  C13 UNL A   1      10.347   0.314  21.909  1.00  0.00    +0.000 C 
ATOM    110  H20 UNL A   1       9.499   0.418  21.330  1.00  0.00    +0.000 H 
ATOM     18  C14 UNL A   1      11.228   1.397  22.061  1.00  0.00    +0.000 C 
ATOM    121  H31 UNL A   1      13.088   1.998  22.869  1.00  0.00    +0.000 H 
ATOM    122  H32 UNL A   1      13.620  -0.163  23.830  1.00  0.00    +0.000 H 
BRANCH   15   13
ATOM     13  C10 UNL A   1      11.989  -2.309  24.046  1.00  0.00    +0.000 C 
ATOM     14  O2  UNL A   1      11.306  -3.295  23.786  1.00  0.00    +0.000 O 
BRANCH   13   12
ATOM    108  H18 UNL A   1      13.843  -2.587  24.754  1.00  0.00    +0.000 H 
ATOM     12  N2  UNL A   1      12.931  -2.358  25.044  1.00  0.00    +0.000 N 
BRANCH   12   11
ATOM    106  H16 UNL A   1      11.777  -2.398  26.756  1.00  0.00    +0.000 H 
ATOM     11  C9  UNL A   1      12.770  -2.118  26.471  1.00  0.00    +0.000 C 
ATOM    107  H17 UNL A   1      13.504  -2.702  26.984  1.00  0.00    +0.000 H 
BRANCH   11   10
ATOM    105  H15 UNL A   1      12.878  -0.596  27.905  1.00  0.00    +0.000 H 
ATOM     10  C8  UNL A   1      12.994  -0.656  26.843  1.00  0.00    +0.000 C 
ATOM    104  H14 UNL A   1      12.284  -0.063  26.306  1.00  0.00    +0.000 H 
BRANCH   10    9
ATOM      9  C7  UNL A   1      14.394  -0.120  26.533  1.00  0.00    +0.000 C 
ATOM    102  H12 UNL A   1      15.027  -0.345  27.365  1.00  0.00    +0.000 H 
ATOM    103  H13 UNL A   1      14.698  -0.594  25.623  1.00  0.00    +0.000 H 
BRANCH    9    8
ATOM    100  H10 UNL A   1      14.995   1.538  25.353  1.00  0.00    +0.000 H 
ATOM    101  H11 UNL A   1      13.457   1.735  26.251  1.00  0.00    +0.000 H 
ATOM      8  C6  UNL A   1      14.469   1.388  26.273  1.00  0.00    +0.000 C 
BRANCH    8    7
ATOM     98  H8  UNL A   1      14.714   1.987  28.300  1.00  0.00    +0.000 H 
ATOM     99  H9  UNL A   1      16.209   1.932  27.329  1.00  0.00    +0.000 H 
ATOM      7  C5  UNL A   1      15.176   2.209  27.361  1.00  0.00    +0.000 C 
BRANCH    7    6
ATOM     97  H7  UNL A   1      14.255   3.957  26.565  1.00  0.00    +0.000 H 
ATOM      6  C4  UNL A   1      15.122   3.723  27.146  1.00  0.00    +0.000 C 
ATOM     96  H6  UNL A   1      16.009   4.037  26.635  1.00  0.00    +0.000 H 
BRANCH    6    5
ATOM      5  N1  UNL A   1      15.033   4.421  28.413  1.00  0.00    +0.000 N 
ATOM     95  H5  UNL A   1      15.774   5.039  28.604  1.00  0.00    +0.000 H 
BRANCH    5    3
ATOM      3  C3  UNL A   1      14.073   4.345  29.379  1.00  0.00    +0.000 C 
ATOM      4  O1  UNL A   1      14.321   3.627  30.350  1.00  0.00    +0.000 O 
BRANCH    3    2
ATOM      2  C2  UNL A   1      12.756   5.115  29.212  1.00  0.00    +0.000 C 
ATOM     94  H4  UNL A   1      12.962   5.911  28.527  1.00  0.00    +0.000 H 
BRANCH    2    1
ATOM      1  C1  UNL A   1      12.279   5.744  30.523  1.00  0.00    +0.000 C 
ATOM     91  H1  UNL A   1      11.957   4.972  31.191  1.00  0.00    +0.000 H 
ATOM     92  H2  UNL A   1      11.463   6.407  30.325  1.00  0.00    +0.000 H 
ATOM     93  H3  UNL A   1      13.083   6.291  30.970  1.00  0.00    +0.000 H 
ENDBRANCH    2    1
BRANCH    2   78
ATOM    134  H44 UNL A   1       8.434   4.410  27.679  1.00  0.00    +0.000 H 
ATOM     78  C55 UNL A   1      11.664   4.243  28.613  1.00  0.00    +0.000 C 
ATOM     79  C56 UNL A   1      11.895   2.905  28.261  1.00  0.00    +0.000 C 
ATOM     80  C57 UNL A   1      10.867   2.127  27.725  1.00  0.00    +0.000 C 
ATOM     81  C58 UNL A   1       9.588   2.656  27.533  1.00  0.00    +0.000 C 
ATOM     88  C64 UNL A   1       9.362   3.992  27.844  1.00  0.00    +0.000 C 
ATOM     89  C65 UNL A   1      10.390   4.766  28.380  1.00  0.00    +0.000 C 
ATOM     90  F16 UNL A   1      10.128   6.046  28.687  1.00  0.00    +0.000 F 
ATOM    123  H33 UNL A   1      12.831   2.494  28.400  1.00  0.00    +0.000 H 
ATOM    124  H34 UNL A   1      11.055   1.146  27.467  1.00  0.00    +0.000 H 
BRANCH   81   82
ATOM     82  O3  UNL A   1       8.691   1.766  27.026  1.00  0.00    +0.000 O 
BRANCH   82   83
ATOM    129  H39 UNL A   1      10.046  -2.190  26.403  1.00  0.00    +0.000 H 
ATOM    130  H40 UNL A   1       7.298  -1.794  25.330  1.00  0.00    +0.000 H 
ATOM    131  H41 UNL A   1       8.779  -1.917  24.446  1.00  0.00    +0.000 H 
ATOM    132  H42 UNL A   1       8.974   0.362  24.398  1.00  0.00    +0.000 H 
ATOM    133  H43 UNL A   1       7.422   0.490  25.127  1.00  0.00    +0.000 H 
ATOM     83  C59 UNL A   1       9.061   0.485  26.542  1.00  0.00    +0.000 C 
ATOM     84  C60 UNL A   1       8.950  -0.692  27.509  1.00  0.00    +0.000 C 
ATOM     85  C61 UNL A   1       9.034  -1.898  26.587  1.00  0.00    +0.000 C 
ATOM     86  C62 UNL A   1       8.319  -1.474  25.305  1.00  0.00    +0.000 C 
ATOM     87  C63 UNL A   1       8.391   0.051  25.239  1.00  0.00    +0.000 C 
ATOM    125  H35 UNL A   1      10.099   0.688  26.377  1.00  0.00    +0.000 H 
ATOM    126  H36 UNL A   1       8.017  -0.671  28.033  1.00  0.00    +0.000 H 
ATOM    127  H37 UNL A   1       9.704  -0.687  28.268  1.00  0.00    +0.000 H 
ATOM    128  H38 UNL A   1       8.543  -2.741  27.029  1.00  0.00    +0.000 H 
ENDBRANCH   82   83
ENDBRANCH   81   82
ENDBRANCH    2   78
ENDBRANCH    3    2
ENDBRANCH    5    3
ENDBRANCH    6    5
ENDBRANCH    7    6
ENDBRANCH    8    7
ENDBRANCH    9    8
ENDBRANCH   10    9
ENDBRANCH   11   10
ENDBRANCH   12   11
ENDBRANCH   13   12
ENDBRANCH   15   13
ENDBRANCH   19   18
BRANCH   23   24
ATOM     33  C24 UNL A   1       5.580   5.884  24.144  1.00  0.00    +0.000 C 
ATOM     34  F5  UNL A   1       5.163   5.170  23.087  1.00  0.00    +0.000 F 
ATOM     24  C19 UNL A   1       6.879   6.415  24.169  1.00  0.00    +0.000 C 
ATOM     25  C20 UNL A   1       7.265   7.157  25.293  1.00  0.00    +0.000 C 
ATOM     26  F1  UNL A   1       8.498   7.680  25.366  1.00  0.00    +0.000 F 
ATOM     27  C21 UNL A   1       6.387   7.354  26.356  1.00  0.00    +0.000 C 
ATOM     28  F2  UNL A   1       6.784   8.048  27.431  1.00  0.00    +0.000 F 
ATOM     29  C22 UNL A   1       5.102   6.833  26.304  1.00  0.00    +0.000 C 
ATOM     30  F3  UNL A   1       4.253   7.038  27.320  1.00  0.00    +0.000 F 
ATOM     31  C23 UNL A   1       4.698   6.099  25.198  1.00  0.00    +0.000 C 
ATOM     32  F4  UNL A   1       3.454   5.606  25.141  1.00  0.00    +0.000 F 
ENDBRANCH   23   24
BRANCH   40   41
ATOM     41  C30 UNL A   1       8.292  10.002  18.110  1.00  0.00    +0.000 C 
ATOM     42  C31 UNL A   1       7.120  10.047  17.341  1.00  0.00    +0.000 C 
ATOM     43  F6  UNL A   1       6.405   8.930  17.136  1.00  0.00    +0.000 F 
ATOM     44  C32 UNL A   1       6.696  11.235  16.755  1.00  0.00    +0.000 C 
ATOM     45  F7  UNL A   1       5.593  11.249  15.995  1.00  0.00    +0.000 F 
ATOM     46  C33 UNL A   1       7.419  12.404  16.948  1.00  0.00    +0.000 C 
ATOM     47  F8  UNL A   1       7.002  13.549  16.390  1.00  0.00    +0.000 F 
ATOM     48  C34 UNL A   1       8.575  12.383  17.713  1.00  0.00    +0.000 C 
ATOM     49  F9  UNL A   1       9.269  13.513  17.909  1.00  0.00    +0.000 F 
ATOM     50  C35 UNL A   1       9.016  11.191  18.280  1.00  0.00    +0.000 C 
ATOM     51  F10 UNL A   1      10.141  11.199  19.011  1.00  0.00    +0.000 F 
ENDBRANCH   40   41
BRANCH   55   56
ATOM     65  C44 UNL A   1      11.911   4.159  15.021  1.00  0.00    +0.000 C 
ATOM     66  F15 UNL A   1      10.648   3.720  15.117  1.00  0.00    +0.000 F 
ATOM     56  C39 UNL A   1      12.503   4.839  16.096  1.00  0.00    +0.000 C 
ATOM     57  C40 UNL A   1      13.827   5.273  15.944  1.00  0.00    +0.000 C 
ATOM     58  F11 UNL A   1      14.426   5.948  16.937  1.00  0.00    +0.000 F 
ATOM     59  C41 UNL A   1      14.524   5.058  14.758  1.00  0.00    +0.000 C 
ATOM     60  F12 UNL A   1      15.771   5.527  14.622  1.00  0.00    +0.000 F 
ATOM     61  C42 UNL A   1      13.920   4.379  13.709  1.00  0.00    +0.000 C 
ATOM     62  F13 UNL A   1      14.590   4.173  12.568  1.00  0.00    +0.000 F 
ATOM     63  C43 UNL A   1      12.618   3.921  13.844  1.00  0.00    +0.000 C 
ATOM     64  F14 UNL A   1      12.036   3.254  12.838  1.00  0.00    +0.000 F 
ENDBRANCH   55   56
TORSDOF 19
ENDMDL
MODEL 9
REMARK VINA RESULT:     -10.7     40.182     47.423
ROOT
ATOM     19  C15 UNL A   1      52.984  19.853  11.633  1.00  0.00    +0.000 C 
ATOM     20  C16 UNL A   1      52.756  20.516  12.961  1.00  0.00    +0.000 C 
ATOM     21  N3  UNL A   1      53.585  20.661  13.964  1.00  0.00    +0.000 N 
ATOM     22  C17 UNL A   1      52.893  21.387  14.923  1.00  0.00    +0.000 C 
ATOM     23  C18 UNL A   1      53.311  21.761  16.156  1.00  0.00    +0.000 C 
ATOM     35  C25 UNL A   1      54.593  21.425  16.718  1.00  0.00    +0.000 C 
ATOM     36  C26 UNL A   1      55.054  21.648  18.003  1.00  0.00    +0.000 C 
ATOM     37  C27 UNL A   1      56.379  21.205  18.074  1.00  0.00    +0.000 C 
ATOM     38  C28 UNL A   1      56.728  20.672  16.844  1.00  0.00    +0.000 C 
ATOM     39  N4  UNL A   1      55.618  20.802  16.025  1.00  0.00    +0.000 N 
ATOM     40  C29 UNL A   1      57.984  20.100  16.437  1.00  0.00    +0.000 C 
ATOM     52  C36 UNL A   1      58.219  19.517  15.237  1.00  0.00    +0.000 C 
ATOM     53  N5  UNL A   1      57.353  19.354  14.165  1.00  0.00    +0.000 N 
ATOM     54  C37 UNL A   1      58.047  18.752  13.231  1.00  0.00    +0.000 C 
ATOM     55  C38 UNL A   1      57.614  18.320  11.858  1.00  0.00    +0.000 C 
ATOM     67  C45 UNL A   1      56.340  18.528  11.472  1.00  0.00    +0.000 C 
ATOM     68  C46 UNL A   1      55.788  18.181  10.167  1.00  0.00    +0.000 C 
ATOM     69  C47 UNL A   1      54.523  18.627  10.095  1.00  0.00    +0.000 C 
ATOM     70  C48 UNL A   1      54.163  19.257  11.367  1.00  0.00    +0.000 C 
ATOM     71  N6  UNL A   1      55.289  19.110  12.140  1.00  0.00    +0.000 N 
ATOM     72  C49 UNL A   1      59.444  18.479  13.604  1.00  0.00    +0.000 C 
ATOM     73  C50 UNL A   1      59.485  18.936  14.848  1.00  0.00    +0.000 C 
ATOM     74  C51 UNL A   1      51.587  21.679  14.374  1.00  0.00    +0.000 C 
ATOM     75  C52 UNL A   1      51.432  21.119  13.182  1.00  0.00    +0.000 C 
ATOM    111  H21 UNL A   1      54.515  22.069  18.775  1.00  0.00    +0.000 H 
ATOM    112  H22 UNL A   1      56.992  21.266  18.902  1.00  0.00    +0.000 H 
ATOM    113  H23 UNL A   1      55.567  20.496  15.090  1.00  0.00    +0.000 H 
ATOM    114  H24 UNL A   1      56.288  17.676   9.419  1.00  0.00    +0.000 H 
ATOM    115  H25 UNL A   1      53.903  18.539   9.275  1.00  0.00    +0.000 H 
ATOM    116  H26 UNL A   1      55.339  19.395  13.081  1.00  0.00    +0.000 H 
ATOM    117  H27 UNL A   1      60.194  18.045  13.045  1.00  0.00    +0.000 H 
ATOM    118  H28 UNL A   1      60.316  18.884  15.459  1.00  0.00    +0.000 H 
ATOM    119  H29 UNL A   1      50.870  22.250  14.848  1.00  0.00    +0.000 H 
ATOM    120  H30 UNL A   1      50.602  21.107  12.570  1.00  0.00    +0.000 H 
ENDROOT
BRANCH   19   18
ATOM     76  C53 UNL A   1      51.842  21.126   9.819  1.00  0.00    +0.000 C 
ATOM    109  H19 UNL A   1      49.697  18.091   8.897  1.00  0.00    +0.000 H 
ATOM     77  C54 UNL A   1      50.948  21.203   8.754  1.00  0.00    +0.000 C 
ATOM     15  C11 UNL A   1      50.223  20.071   8.373  1.00  0.00    +0.000 C 
ATOM     16  C12 UNL A   1      50.283  18.905   9.142  1.00  0.00    +0.000 C 
ATOM     17  C13 UNL A   1      51.138  18.847  10.245  1.00  0.00    +0.000 C 
ATOM    110  H20 UNL A   1      51.169  17.995  10.827  1.00  0.00    +0.000 H 
ATOM     18  C14 UNL A   1      51.958  19.942  10.563  1.00  0.00    +0.000 C 
ATOM    121  H31 UNL A   1      52.421  21.945  10.063  1.00  0.00    +0.000 H 
ATOM    122  H32 UNL A   1      50.821  22.094   8.247  1.00  0.00    +0.000 H 
BRANCH   15   13
ATOM     13  C10 UNL A   1      49.394  20.077   7.149  1.00  0.00    +0.000 C 
ATOM     14  O2  UNL A   1      48.344  20.712   7.126  1.00  0.00    +0.000 O 
BRANCH   13   12
ATOM    108  H18 UNL A   1      50.267  19.859   5.358  1.00  0.00    +0.000 H 
ATOM     12  N2  UNL A   1      49.791  19.350   6.054  1.00  0.00    +0.000 N 
BRANCH   12   11
ATOM    106  H16 UNL A   1      49.844  17.750   4.750  1.00  0.00    +0.000 H 
ATOM     11  C9  UNL A   1      49.609  17.933   5.778  1.00  0.00    +0.000 C 
ATOM    107  H17 UNL A   1      50.257  17.387   6.432  1.00  0.00    +0.000 H 
BRANCH   11   10
ATOM    105  H15 UNL A   1      47.631  18.338   6.336  1.00  0.00    +0.000 H 
ATOM     10  C8  UNL A   1      48.181  17.468   6.045  1.00  0.00    +0.000 C 
ATOM    104  H14 UNL A   1      48.213  16.714   6.803  1.00  0.00    +0.000 H 
BRANCH   10    9
ATOM      9  C7  UNL A   1      47.455  16.888   4.828  1.00  0.00    +0.000 C 
ATOM    102  H12 UNL A   1      48.149  16.280   4.287  1.00  0.00    +0.000 H 
ATOM    103  H13 UNL A   1      46.618  16.343   5.213  1.00  0.00    +0.000 H 
BRANCH    9    8
ATOM    100  H10 UNL A   1      47.362  18.860   4.052  1.00  0.00    +0.000 H 
ATOM    101  H11 UNL A   1      47.058  17.543   2.876  1.00  0.00    +0.000 H 
ATOM      8  C6  UNL A   1      46.878  17.925   3.860  1.00  0.00    +0.000 C 
BRANCH    8    7
ATOM     98  H8  UNL A   1      44.872  17.327   3.478  1.00  0.00    +0.000 H 
ATOM     99  H9  UNL A   1      45.132  18.220   5.000  1.00  0.00    +0.000 H 
ATOM      7  C5  UNL A   1      45.362  18.148   3.958  1.00  0.00    +0.000 C 
BRANCH    7    6
ATOM     97  H7  UNL A   1      45.139  19.435   2.276  1.00  0.00    +0.000 H 
ATOM      6  C4  UNL A   1      44.870  19.444   3.311  1.00  0.00    +0.000 C 
ATOM     96  H6  UNL A   1      45.323  20.278   3.806  1.00  0.00    +0.000 H 
BRANCH    6    5
ATOM      5  N1  UNL A   1      43.430  19.557   3.416  1.00  0.00    +0.000 N 
ATOM     95  H5  UNL A   1      43.099  19.944   4.258  1.00  0.00    +0.000 H 
BRANCH    5    3
ATOM      3  C3  UNL A   1      42.465  19.204   2.518  1.00  0.00    +0.000 C 
ATOM      4  O1  UNL A   1      41.803  18.198   2.784  1.00  0.00    +0.000 O 
BRANCH    3    2
ATOM      2  C2  UNL A   1      42.263  20.036   1.243  1.00  0.00    +0.000 C 
ATOM     94  H4  UNL A   1      42.722  19.482   0.452  1.00  0.00    +0.000 H 
BRANCH    2    1
ATOM      1  C1  UNL A   1      42.958  21.398   1.321  1.00  0.00    +0.000 C 
ATOM     91  H1  UNL A   1      44.019  21.258   1.293  1.00  0.00    +0.000 H 
ATOM     92  H2  UNL A   1      42.687  21.885   2.234  1.00  0.00    +0.000 H 
ATOM     93  H3  UNL A   1      42.655  22.000   0.490  1.00  0.00    +0.000 H 
ENDBRANCH    2    1
BRANCH    2   78
ATOM    134  H44 UNL A   1      38.571  19.445  -1.503  1.00  0.00    +0.000 H 
ATOM     78  C55 UNL A   1      40.790  20.210   0.910  1.00  0.00    +0.000 C 
ATOM     79  C56 UNL A   1      39.909  20.872   1.777  1.00  0.00    +0.000 C 
ATOM     80  C57 UNL A   1      38.563  21.027   1.436  1.00  0.00    +0.000 C 
ATOM     81  C58 UNL A   1      38.066  20.534   0.226  1.00  0.00    +0.000 C 
ATOM     88  C64 UNL A   1      38.926  19.844  -0.621  1.00  0.00    +0.000 C 
ATOM     89  C65 UNL A   1      40.269  19.692  -0.278  1.00  0.00    +0.000 C 
ATOM     90  F16 UNL A   1      41.073  19.038  -1.130  1.00  0.00    +0.000 F 
ATOM    123  H33 UNL A   1      40.257  21.247   2.672  1.00  0.00    +0.000 H 
ATOM    124  H34 UNL A   1      37.927  21.512   2.087  1.00  0.00    +0.000 H 
BRANCH   81   82
ATOM     82  O3  UNL A   1      36.743  20.785   0.028  1.00  0.00    +0.000 O 
BRANCH   82   83
ATOM    129  H39 UNL A   1      35.982  24.442  -1.953  1.00  0.00    +0.000 H 
ATOM    130  H40 UNL A   1      36.119  22.169  -3.870  1.00  0.00    +0.000 H 
ATOM    131  H41 UNL A   1      34.715  23.011  -3.313  1.00  0.00    +0.000 H 
ATOM    132  H42 UNL A   1      34.378  21.436  -1.688  1.00  0.00    +0.000 H 
ATOM    133  H43 UNL A   1      35.672  20.511  -2.344  1.00  0.00    +0.000 H 
ATOM     83  C59 UNL A   1      36.270  21.865  -0.762  1.00  0.00    +0.000 C 
ATOM     84  C60 UNL A   1      37.300  22.875  -1.262  1.00  0.00    +0.000 C 
ATOM     85  C61 UNL A   1      36.543  23.622  -2.349  1.00  0.00    +0.000 C 
ATOM     86  C62 UNL A   1      35.642  22.576  -3.002  1.00  0.00    +0.000 C 
ATOM     87  C63 UNL A   1      35.411  21.478  -1.965  1.00  0.00    +0.000 C 
ATOM    125  H35 UNL A   1      35.670  22.339  -0.013  1.00  0.00    +0.000 H 
ATOM    126  H36 UNL A   1      38.160  22.380  -1.662  1.00  0.00    +0.000 H 
ATOM    127  H37 UNL A   1      37.672  23.515  -0.491  1.00  0.00    +0.000 H 
ATOM    128  H38 UNL A   1      37.225  24.030  -3.066  1.00  0.00    +0.000 H 
ENDBRANCH   82   83
ENDBRANCH   81   82
ENDBRANCH    2   78
ENDBRANCH    3    2
ENDBRANCH    5    3
ENDBRANCH    6    5
ENDBRANCH    7    6
ENDBRANCH    8    7
ENDBRANCH    9    8
ENDBRANCH   10    9
ENDBRANCH   11   10
ENDBRANCH   12   11
ENDBRANCH   13   12
ENDBRANCH   15   13
ENDBRANCH   19   18
BRANCH   23   24
ATOM     33  C24 UNL A   1      52.341  23.971  16.868  1.00  0.00    +0.000 C 
ATOM     34  F5  UNL A   1      53.087  24.581  15.935  1.00  0.00    +0.000 F 
ATOM     24  C19 UNL A   1      52.376  22.574  16.999  1.00  0.00    +0.000 C 
ATOM     25  C20 UNL A   1      51.583  21.987  17.994  1.00  0.00    +0.000 C 
ATOM     26  F1  UNL A   1      51.578  20.654  18.153  1.00  0.00    +0.000 F 
ATOM     27  C21 UNL A   1      50.779  22.766  18.821  1.00  0.00    +0.000 C 
ATOM     28  F2  UNL A   1      50.011  22.182  19.751  1.00  0.00    +0.000 F 
ATOM     29  C22 UNL A   1      50.771  24.147  18.685  1.00  0.00    +0.000 C 
ATOM     30  F3  UNL A   1      50.010  24.897  19.493  1.00  0.00    +0.000 F 
ATOM     31  C23 UNL A   1      51.553  24.750  17.710  1.00  0.00    +0.000 C 
ATOM     32  F4  UNL A   1      51.556  26.084  17.586  1.00  0.00    +0.000 F 
ENDBRANCH   23   24
BRANCH   40   41
ATOM     41  C30 UNL A   1      59.119  20.139  17.416  1.00  0.00    +0.000 C 
ATOM     42  C31 UNL A   1      59.837  21.321  17.650  1.00  0.00    +0.000 C 
ATOM     43  F6  UNL A   1      59.557  22.429  16.948  1.00  0.00    +0.000 F 
ATOM     44  C32 UNL A   1      60.864  21.358  18.587  1.00  0.00    +0.000 C 
ATOM     45  F7  UNL A   1      61.560  22.489  18.770  1.00  0.00    +0.000 F 
ATOM     46  C33 UNL A   1      61.176  20.225  19.325  1.00  0.00    +0.000 C 
ATOM     47  F8  UNL A   1      62.160  20.267  20.234  1.00  0.00    +0.000 F 
ATOM     48  C34 UNL A   1      60.472  19.049  19.115  1.00  0.00    +0.000 C 
ATOM     49  F9  UNL A   1      60.766  17.956  19.835  1.00  0.00    +0.000 F 
ATOM     50  C35 UNL A   1      59.460  19.000  18.162  1.00  0.00    +0.000 C 
ATOM     51  F10 UNL A   1      58.800  17.848  17.976  1.00  0.00    +0.000 F 
ENDBRANCH   40   41
BRANCH   55   56
ATOM     65  C44 UNL A   1      59.369  18.448  10.058  1.00  0.00    +0.000 C 
ATOM     66  F15 UNL A   1      59.249  19.784  10.042  1.00  0.00    +0.000 F 
ATOM     56  C39 UNL A   1      58.578  17.681  10.927  1.00  0.00    +0.000 C 
ATOM     57  C40 UNL A   1      58.741  16.290  10.900  1.00  0.00    +0.000 C 
ATOM     58  F11 UNL A   1      58.023  15.517  11.729  1.00  0.00    +0.000 F 
ATOM     59  C41 UNL A   1      59.675  15.689  10.058  1.00  0.00    +0.000 C 
ATOM     60  F12 UNL A   1      59.845  14.362  10.089  1.00  0.00    +0.000 F 
ATOM     61  C42 UNL A   1      60.443  16.468   9.204  1.00  0.00    +0.000 C 
ATOM     62  F13 UNL A   1      61.341  15.891   8.396  1.00  0.00    +0.000 F 
ATOM     63  C43 UNL A   1      60.284  17.846   9.197  1.00  0.00    +0.000 C 
ATOM     64  F14 UNL A   1      61.015  18.599   8.365  1.00  0.00    +0.000 F 
ENDBRANCH   55   56
TORSDOF 19
ENDMDL
MODEL 10
REMARK VINA RESULT:     -10.7     38.351     45.236
ROOT
ATOM     19  C15 UNL A   1      23.042  20.160   4.060  1.00  0.00    +0.000 C 
ATOM     20  C16 UNL A   1      21.929  19.296   4.582  1.00  0.00    +0.000 C 
ATOM     21  N3  UNL A   1      20.641  19.399   4.379  1.00  0.00    +0.000 N 
ATOM     22  C17 UNL A   1      20.067  18.325   5.045  1.00  0.00    +0.000 C 
ATOM     23  C18 UNL A   1      18.754  18.013   5.160  1.00  0.00    +0.000 C 
ATOM     35  C25 UNL A   1      17.680  18.799   4.614  1.00  0.00    +0.000 C 
ATOM     36  C26 UNL A   1      16.317  18.633   4.790  1.00  0.00    +0.000 C 
ATOM     37  C27 UNL A   1      15.658  19.598   4.020  1.00  0.00    +0.000 C 
ATOM     38  C28 UNL A   1      16.611  20.386   3.397  1.00  0.00    +0.000 C 
ATOM     39  N4  UNL A   1      17.848  19.892   3.780  1.00  0.00    +0.000 N 
ATOM     40  C29 UNL A   1      16.413  21.497   2.505  1.00  0.00    +0.000 C 
ATOM     52  C36 UNL A   1      17.402  22.276   2.004  1.00  0.00    +0.000 C 
ATOM     53  N5  UNL A   1      18.771  22.183   2.210  1.00  0.00    +0.000 N 
ATOM     54  C37 UNL A   1      19.308  23.144   1.499  1.00  0.00    +0.000 C 
ATOM     55  C38 UNL A   1      20.756  23.518   1.352  1.00  0.00    +0.000 C 
ATOM     67  C45 UNL A   1      21.689  22.828   2.035  1.00  0.00    +0.000 C 
ATOM     68  C46 UNL A   1      23.127  23.065   1.972  1.00  0.00    +0.000 C 
ATOM     69  C47 UNL A   1      23.758  22.125   2.695  1.00  0.00    +0.000 C 
ATOM     70  C48 UNL A   1      22.763  21.240   3.304  1.00  0.00    +0.000 C 
ATOM     71  N6  UNL A   1      21.560  21.762   2.894  1.00  0.00    +0.000 N 
ATOM     72  C49 UNL A   1      18.333  23.949   0.747  1.00  0.00    +0.000 C 
ATOM     73  C50 UNL A   1      17.185  23.397   1.116  1.00  0.00    +0.000 C 
ATOM     74  C51 UNL A   1      21.148  17.565   5.635  1.00  0.00    +0.000 C 
ATOM     75  C52 UNL A   1      22.318  18.153   5.422  1.00  0.00    +0.000 C 
ATOM    111  H21 UNL A   1      15.866  17.922   5.385  1.00  0.00    +0.000 H 
ATOM    112  H22 UNL A   1      14.635  19.703   3.932  1.00  0.00    +0.000 H 
ATOM    113  H23 UNL A   1      18.716  20.264   3.501  1.00  0.00    +0.000 H 
ATOM    114  H24 UNL A   1      23.586  23.831   1.455  1.00  0.00    +0.000 H 
ATOM    115  H25 UNL A   1      24.780  22.040   2.804  1.00  0.00    +0.000 H 
ATOM    116  H26 UNL A   1      20.689  21.408   3.187  1.00  0.00    +0.000 H 
ATOM    117  H27 UNL A   1      18.499  24.736   0.101  1.00  0.00    +0.000 H 
ATOM    118  H28 UNL A   1      16.256  23.726   0.808  1.00  0.00    +0.000 H 
ATOM    119  H29 UNL A   1      21.024  16.681   6.153  1.00  0.00    +0.000 H 
ATOM    120  H30 UNL A   1      23.254  17.880   5.757  1.00  0.00    +0.000 H 
ENDROOT
BRANCH   19   18
ATOM     76  C53 UNL A   1      25.154  20.291   5.379  1.00  0.00    +0.000 C 
ATOM    109  H19 UNL A   1      26.848  17.707   3.118  1.00  0.00    +0.000 H 
ATOM     77  C54 UNL A   1      26.455  19.875   5.651  1.00  0.00    +0.000 C 
ATOM     15  C11 UNL A   1      27.042  18.877   4.868  1.00  0.00    +0.000 C 
ATOM     16  C12 UNL A   1      26.385  18.397   3.731  1.00  0.00    +0.000 C 
ATOM     17  C13 UNL A   1      25.102  18.857   3.427  1.00  0.00    +0.000 C 
ATOM    110  H20 UNL A   1      24.624  18.521   2.576  1.00  0.00    +0.000 H 
ATOM     18  C14 UNL A   1      24.459  19.773   4.276  1.00  0.00    +0.000 C 
ATOM    121  H31 UNL A   1      24.698  20.986   5.992  1.00  0.00    +0.000 H 
ATOM    122  H32 UNL A   1      26.984  20.302   6.428  1.00  0.00    +0.000 H 
BRANCH   15   13
ATOM     13  C10 UNL A   1      28.353  18.300   5.233  1.00  0.00    +0.000 C 
ATOM     14  O2  UNL A   1      29.349  18.587   4.576  1.00  0.00    +0.000 O 
BRANCH   13   12
ATOM    108  H18 UNL A   1      28.509  16.476   6.048  1.00  0.00    +0.000 H 
ATOM     12  N2  UNL A   1      28.443  17.427   6.289  1.00  0.00    +0.000 N 
BRANCH   12   11
ATOM    106  H16 UNL A   1      29.007  16.942   8.215  1.00  0.00    +0.000 H 
ATOM     11  C9  UNL A   1      28.456  17.712   7.717  1.00  0.00    +0.000 C 
ATOM    107  H17 UNL A   1      28.910  18.671   7.854  1.00  0.00    +0.000 H 
BRANCH   11   10
ATOM    105  H15 UNL A   1      26.530  18.534   7.768  1.00  0.00    +0.000 H 
ATOM     10  C8  UNL A   1      27.051  17.773   8.309  1.00  0.00    +0.000 C 
ATOM    104  H14 UNL A   1      27.141  17.983   9.355  1.00  0.00    +0.000 H 
BRANCH   10    9
ATOM      9  C7  UNL A   1      26.229  16.492   8.150  1.00  0.00    +0.000 C 
ATOM    102  H12 UNL A   1      26.908  15.679   8.004  1.00  0.00    +0.000 H 
ATOM    103  H13 UNL A   1      25.641  16.404   9.039  1.00  0.00    +0.000 H 
BRANCH    9    8
ATOM    100  H10 UNL A   1      24.250  16.413   7.388  1.00  0.00    +0.000 H 
ATOM    101  H11 UNL A   1      25.408  17.412   6.454  1.00  0.00    +0.000 H 
ATOM      8  C6  UNL A   1      25.237  16.497   6.982  1.00  0.00    +0.000 C 
BRANCH    8    7
ATOM     98  H8  UNL A   1      26.346  15.539   5.439  1.00  0.00    +0.000 H 
ATOM     99  H9  UNL A   1      25.413  14.454   6.504  1.00  0.00    +0.000 H 
ATOM      7  C5  UNL A   1      25.423  15.372   5.955  1.00  0.00    +0.000 C 
BRANCH    7    6
ATOM     97  H7  UNL A   1      24.715  15.473   3.948  1.00  0.00    +0.000 H 
ATOM      6  C4  UNL A   1      24.305  15.272   4.916  1.00  0.00    +0.000 C 
ATOM     96  H6  UNL A   1      23.542  15.985   5.151  1.00  0.00    +0.000 H 
BRANCH    6    5
ATOM      5  N1  UNL A   1      23.726  13.945   4.907  1.00  0.00    +0.000 N 
ATOM     95  H5  UNL A   1      24.305  13.237   4.544  1.00  0.00    +0.000 H 
BRANCH    5    3
ATOM      3  C3  UNL A   1      22.496  13.532   5.329  1.00  0.00    +0.000 C 
ATOM      4  O1  UNL A   1      21.541  13.801   4.596  1.00  0.00    +0.000 O 
BRANCH    3    2
ATOM      2  C2  UNL A   1      22.353  12.792   6.666  1.00  0.00    +0.000 C 
ATOM     94  H4  UNL A   1      23.069  11.997   6.643  1.00  0.00    +0.000 H 
BRANCH    2    1
ATOM      1  C1  UNL A   1      20.967  12.164   6.838  1.00  0.00    +0.000 C 
ATOM     91  H1  UNL A   1      20.324  12.853   7.343  1.00  0.00    +0.000 H 
ATOM     92  H2  UNL A   1      21.052  11.267   7.415  1.00  0.00    +0.000 H 
ATOM     93  H3  UNL A   1      20.559  11.932   5.876  1.00  0.00    +0.000 H 
ENDBRANCH    2    1
BRANCH    2   78
ATOM    134  H44 UNL A   1      21.538  16.462   9.385  1.00  0.00    +0.000 H 
ATOM     78  C55 UNL A   1      22.678  13.693   7.847  1.00  0.00    +0.000 C 
ATOM     79  C56 UNL A   1      23.768  13.440   8.692  1.00  0.00    +0.000 C 
ATOM     80  C57 UNL A   1      24.048  14.294   9.760  1.00  0.00    +0.000 C 
ATOM     81  C58 UNL A   1      23.257  15.419  10.009  1.00  0.00    +0.000 C 
ATOM     88  C64 UNL A   1      22.153  15.655   9.198  1.00  0.00    +0.000 C 
ATOM     89  C65 UNL A   1      21.876  14.801   8.131  1.00  0.00    +0.000 C 
ATOM     90  F16 UNL A   1      20.814  15.072   7.358  1.00  0.00    +0.000 F 
ATOM    123  H33 UNL A   1      24.367  12.618   8.522  1.00  0.00    +0.000 H 
ATOM    124  H34 UNL A   1      24.850  14.092  10.376  1.00  0.00    +0.000 H 
BRANCH   81   82
ATOM     82  O3  UNL A   1      23.672  16.165  11.070  1.00  0.00    +0.000 O 
BRANCH   82   83
ATOM    129  H39 UNL A   1      21.777  15.574  14.802  1.00  0.00    +0.000 H 
ATOM    130  H40 UNL A   1      23.434  18.046  14.798  1.00  0.00    +0.000 H 
ATOM    131  H41 UNL A   1      21.711  17.918  14.718  1.00  0.00    +0.000 H 
ATOM    132  H42 UNL A   1      21.778  18.039  12.434  1.00  0.00    +0.000 H 
ATOM    133  H43 UNL A   1      23.470  18.334  12.519  1.00  0.00    +0.000 H 
ATOM     83  C59 UNL A   1      22.952  16.244  12.290  1.00  0.00    +0.000 C 
ATOM     84  C60 UNL A   1      23.467  15.417  13.465  1.00  0.00    +0.000 C 
ATOM     85  C61 UNL A   1      22.736  16.023  14.653  1.00  0.00    +0.000 C 
ATOM     86  C62 UNL A   1      22.627  17.514  14.339  1.00  0.00    +0.000 C 
ATOM     87  C63 UNL A   1      22.700  17.655  12.819  1.00  0.00    +0.000 C 
ATOM    125  H35 UNL A   1      22.038  15.806  11.946  1.00  0.00    +0.000 H 
ATOM    126  H36 UNL A   1      24.527  15.519  13.571  1.00  0.00    +0.000 H 
ATOM    127  H37 UNL A   1      23.292  14.367  13.352  1.00  0.00    +0.000 H 
ATOM    128  H38 UNL A   1      23.294  15.869  15.553  1.00  0.00    +0.000 H 
ENDBRANCH   82   83
ENDBRANCH   81   82
ENDBRANCH    2   78
ENDBRANCH    3    2
ENDBRANCH    5    3
ENDBRANCH    6    5
ENDBRANCH    7    6
ENDBRANCH    8    7
ENDBRANCH    9    8
ENDBRANCH   10    9
ENDBRANCH   11   10
ENDBRANCH   12   11
ENDBRANCH   13   12
ENDBRANCH   15   13
ENDBRANCH   19   18
BRANCH   23   24
ATOM     33  C24 UNL A   1      18.359  15.530   5.260  1.00  0.00    +0.000 C 
ATOM     34  F5  UNL A   1      18.729  15.435   3.974  1.00  0.00    +0.000 F 
ATOM     24  C19 UNL A   1      18.390  16.770   5.915  1.00  0.00    +0.000 C 
ATOM     25  C20 UNL A   1      17.988  16.816   7.257  1.00  0.00    +0.000 C 
ATOM     26  F1  UNL A   1      18.006  17.977   7.928  1.00  0.00    +0.000 F 
ATOM     27  C21 UNL A   1      17.577  15.662   7.920  1.00  0.00    +0.000 C 
ATOM     28  F2  UNL A   1      17.218  15.724   9.210  1.00  0.00    +0.000 F 
ATOM     29  C22 UNL A   1      17.539  14.449   7.249  1.00  0.00    +0.000 C 
ATOM     30  F3  UNL A   1      17.127  13.343   7.884  1.00  0.00    +0.000 F 
ATOM     31  C23 UNL A   1      17.928  14.382   5.919  1.00  0.00    +0.000 C 
ATOM     32  F4  UNL A   1      17.880  13.213   5.266  1.00  0.00    +0.000 F 
ENDBRANCH   23   24
BRANCH   40   41
ATOM     41  C30 UNL A   1      15.007  21.830   2.106  1.00  0.00    +0.000 C 
ATOM     42  C31 UNL A   1      14.453  21.337   0.916  1.00  0.00    +0.000 C 
ATOM     43  F6  UNL A   1      15.201  20.604   0.077  1.00  0.00    +0.000 F 
ATOM     44  C32 UNL A   1      13.136  21.620   0.570  1.00  0.00    +0.000 C 
ATOM     45  F7  UNL A   1      12.636  21.167  -0.588  1.00  0.00    +0.000 F 
ATOM     46  C33 UNL A   1      12.341  22.378   1.417  1.00  0.00    +0.000 C 
ATOM     47  F8  UNL A   1      11.069  22.641   1.087  1.00  0.00    +0.000 F 
ATOM     48  C34 UNL A   1      12.867  22.868   2.603  1.00  0.00    +0.000 C 
ATOM     49  F9  UNL A   1      12.097  23.593   3.428  1.00  0.00    +0.000 F 
ATOM     50  C35 UNL A   1      14.191  22.608   2.941  1.00  0.00    +0.000 C 
ATOM     51  F10 UNL A   1      14.676  23.100   4.091  1.00  0.00    +0.000 F 
ENDBRANCH   40   41
BRANCH   55   56
ATOM     65  C44 UNL A   1      21.334  24.429  -0.922  1.00  0.00    +0.000 C 
ATOM     66  F15 UNL A   1      21.152  23.211  -1.451  1.00  0.00    +0.000 F 
ATOM     56  C39 UNL A   1      21.162  24.631   0.455  1.00  0.00    +0.000 C 
ATOM     57  C40 UNL A   1      21.368  25.922   0.957  1.00  0.00    +0.000 C 
ATOM     58  F11 UNL A   1      21.193  26.167   2.264  1.00  0.00    +0.000 F 
ATOM     59  C41 UNL A   1      21.708  26.978   0.113  1.00  0.00    +0.000 C 
ATOM     60  F12 UNL A   1      21.851  28.212   0.612  1.00  0.00    +0.000 F 
ATOM     61  C42 UNL A   1      21.878  26.754  -1.246  1.00  0.00    +0.000 C 
ATOM     62  F13 UNL A   1      22.203  27.768  -2.058  1.00  0.00    +0.000 F 
ATOM     63  C43 UNL A   1      21.700  25.479  -1.762  1.00  0.00    +0.000 C 
ATOM     64  F14 UNL A   1      21.874  25.257  -3.072  1.00  0.00    +0.000 F 
ENDBRANCH   55   56
TORSDOF 19
ENDMDL
