MODEL 1
REMARK VINA RESULT:      -7.7      0.000      0.000
ROOT
ATOM    129  H26 UNL A   1      55.876  17.873   9.294  1.00  0.00    +0.000 H 
ATOM    130  H27 UNL A   1      53.550  18.892   9.279  1.00  0.00    +0.000 H 
ATOM    131  H28 UNL A   1      55.227  19.606  13.015  1.00  0.00    +0.000 H 
ATOM    132  H29 UNL A   1      59.965  17.935  12.736  1.00  0.00    +0.000 H 
ATOM    133  H30 UNL A   1      60.241  18.700  15.164  1.00  0.00    +0.000 H 
ATOM    134  H31 UNL A   1      50.976  22.585  15.085  1.00  0.00    +0.000 H 
ATOM    135  H32 UNL A   1      50.542  21.503  12.804  1.00  0.00    +0.000 H 
ATOM     27  C20 UNL A   1      52.818  20.184  11.714  1.00  0.00    +0.000 C 
ATOM     28  C21 UNL A   1      52.687  20.816  13.070  1.00  0.00    +0.000 C 
ATOM     29  N3  UNL A   1      53.569  20.898  14.033  1.00  0.00    +0.000 N 
ATOM     30  C22 UNL A   1      52.954  21.617  15.048  1.00  0.00    +0.000 C 
ATOM     31  C23 UNL A   1      53.434  21.920  16.277  1.00  0.00    +0.000 C 
ATOM     43  C30 UNL A   1      54.732  21.529  16.758  1.00  0.00    +0.000 C 
ATOM     44  C31 UNL A   1      55.284  21.727  18.012  1.00  0.00    +0.000 C 
ATOM     45  C32 UNL A   1      56.590  21.227  17.998  1.00  0.00    +0.000 C 
ATOM     46  C33 UNL A   1      56.836  20.673  16.752  1.00  0.00    +0.000 C 
ATOM     47  N4  UNL A   1      55.686  20.863  16.002  1.00  0.00    +0.000 N 
ATOM     48  C34 UNL A   1      58.033  20.028  16.276  1.00  0.00    +0.000 C 
ATOM     60  C41 UNL A   1      58.179  19.463  15.054  1.00  0.00    +0.000 C 
ATOM     61  N5  UNL A   1      57.260  19.377  14.017  1.00  0.00    +0.000 N 
ATOM     62  C42 UNL A   1      57.874  18.755  13.041  1.00  0.00    +0.000 C 
ATOM     63  C43 UNL A   1      57.352  18.374  11.682  1.00  0.00    +0.000 C 
ATOM     75  C50 UNL A   1      56.082  18.682  11.355  1.00  0.00    +0.000 C 
ATOM     76  C51 UNL A   1      55.446  18.395  10.074  1.00  0.00    +0.000 C 
ATOM     77  C52 UNL A   1      54.211  18.922  10.071  1.00  0.00    +0.000 C 
ATOM     78  C53 UNL A   1      53.951  19.542  11.371  1.00  0.00    +0.000 C 
ATOM     79  N6  UNL A   1      55.107  19.326  12.079  1.00  0.00    +0.000 N 
ATOM     80  C54 UNL A   1      59.266  18.395  13.341  1.00  0.00    +0.000 C 
ATOM     81  C55 UNL A   1      59.390  18.817  14.592  1.00  0.00    +0.000 C 
ATOM     82  C56 UNL A   1      51.640  21.990  14.566  1.00  0.00    +0.000 C 
ATOM     83  C57 UNL A   1      51.403  21.465  13.372  1.00  0.00    +0.000 C 
ATOM    126  H23 UNL A   1      54.813  22.169  18.817  1.00  0.00    +0.000 H 
ATOM    127  H24 UNL A   1      57.259  21.263  18.784  1.00  0.00    +0.000 H 
ATOM    128  H25 UNL A   1      55.564  20.569  15.071  1.00  0.00    +0.000 H 
ENDROOT
BRANCH   27   26
ATOM    136  H33 UNL A   1      52.453  22.208  10.012  1.00  0.00    +0.000 H 
ATOM    137  H34 UNL A   1      50.716  22.499   8.347  1.00  0.00    +0.000 H 
ATOM     84  C58 UNL A   1      51.732  21.481   9.887  1.00  0.00    +0.000 C 
ATOM     85  C59 UNL A   1      50.759  21.631   8.904  1.00  0.00    +0.000 C 
ATOM     23  C16 UNL A   1      49.842  20.602   8.673  1.00  0.00    +0.000 C 
ATOM     24  C17 UNL A   1      49.800  19.490   9.518  1.00  0.00    +0.000 C 
ATOM     25  C18 UNL A   1      50.737  19.370  10.547  1.00  0.00    +0.000 C 
ATOM     26  C19 UNL A   1      51.737  20.343  10.710  1.00  0.00    +0.000 C 
ATOM    124  H21 UNL A   1      49.083  18.762   9.382  1.00  0.00    +0.000 H 
ATOM    125  H22 UNL A   1      50.694  18.565  11.190  1.00  0.00    +0.000 H 
BRANCH   23   21
ATOM     21  C15 UNL A   1      48.914  20.670   7.525  1.00  0.00    +0.000 C 
ATOM     22  O4  UNL A   1      48.330  21.717   7.268  1.00  0.00    +0.000 O 
BRANCH   21   20
ATOM    123  H20 UNL A   1      48.069  18.891   7.131  1.00  0.00    +0.000 H 
ATOM     20  N2  UNL A   1      48.704  19.547   6.761  1.00  0.00    +0.000 N 
BRANCH   20   19
ATOM    121  H18 UNL A   1      48.526  19.197   4.731  1.00  0.00    +0.000 H 
ATOM    122  H19 UNL A   1      50.047  19.927   5.252  1.00  0.00    +0.000 H 
ATOM     19  C14 UNL A   1      49.295  19.200   5.476  1.00  0.00    +0.000 C 
BRANCH   19   18
ATOM     18  C13 UNL A   1      49.958  17.827   5.506  1.00  0.00    +0.000 C 
ATOM    119  H16 UNL A   1      49.207  17.088   5.317  1.00  0.00    +0.000 H 
ATOM    120  H17 UNL A   1      50.725  17.839   4.760  1.00  0.00    +0.000 H 
BRANCH   18   17
ATOM     17  C12 UNL A   1      50.641  17.488   6.833  1.00  0.00    +0.000 C 
ATOM    117  H14 UNL A   1      50.240  18.133   7.587  1.00  0.00    +0.000 H 
ATOM    118  H15 UNL A   1      50.446  16.452   7.014  1.00  0.00    +0.000 H 
BRANCH   17   16
ATOM    115  H12 UNL A   1      52.550  17.156   7.705  1.00  0.00    +0.000 H 
ATOM    116  H13 UNL A   1      52.512  17.213   5.917  1.00  0.00    +0.000 H 
ATOM     16  C11 UNL A   1      52.166  17.644   6.834  1.00  0.00    +0.000 C 
BRANCH   16   15
ATOM    113  H10 UNL A   1      51.855  19.742   7.071  1.00  0.00    +0.000 H 
ATOM    114  H11 UNL A   1      53.455  19.153   7.571  1.00  0.00    +0.000 H 
ATOM     15  C10 UNL A   1      52.675  19.096   6.840  1.00  0.00    +0.000 C 
BRANCH   15   14
ATOM     14  C9  UNL A   1      53.278  19.538   5.502  1.00  0.00    +0.000 C 
ATOM    111  H8  UNL A   1      52.490  19.798   4.825  1.00  0.00    +0.000 H 
ATOM    112  H9  UNL A   1      53.909  20.387   5.662  1.00  0.00    +0.000 H 
BRANCH   14   13
ATOM     13  N1  UNL A   1      54.061  18.457   4.938  1.00  0.00    +0.000 N 
ATOM    110  H7  UNL A   1      53.511  17.777   4.486  1.00  0.00    +0.000 H 
BRANCH   13   11
ATOM     11  C8  UNL A   1      55.390  18.180   4.898  1.00  0.00    +0.000 C 
ATOM     12  O3  UNL A   1      55.798  17.664   3.854  1.00  0.00    +0.000 O 
BRANCH   11   10
ATOM     10  C7  UNL A   1      56.320  18.360   6.079  1.00  0.00    +0.000 C 
BRANCH   10    9
ATOM      9  C6  UNL A   1      56.617  17.351   6.932  1.00  0.00    +0.000 C 
ATOM    109  H6  UNL A   1      56.481  17.564   7.932  1.00  0.00    +0.000 H 
BRANCH    9    8
ATOM      5  C2  UNL A   1      58.264  13.480   6.082  1.00  0.00    +0.000 C 
ATOM    102  C73 UNL A   1      58.178  15.866   5.725  1.00  0.00    +0.000 C 
ATOM      6  C3  UNL A   1      57.174  13.568   6.949  1.00  0.00    +0.000 C 
ATOM    103  C74 UNL A   1      58.753  14.622   5.448  1.00  0.00    +0.000 C 
ATOM      7  C4  UNL A   1      56.590  14.817   7.202  1.00  0.00    +0.000 C 
ATOM      8  C5  UNL A   1      57.111  15.986   6.632  1.00  0.00    +0.000 C 
ATOM    107  H4  UNL A   1      56.800  12.720   7.400  1.00  0.00    +0.000 H 
ATOM    108  H5  UNL A   1      55.764  14.876   7.818  1.00  0.00    +0.000 H 
ATOM    149  H46 UNL A   1      58.541  16.710   5.256  1.00  0.00    +0.000 H 
ATOM    150  H47 UNL A   1      59.536  14.550   4.778  1.00  0.00    +0.000 H 
BRANCH    5    2
ATOM      2  S1  UNL A   1      59.017  11.902   5.757  1.00  0.00    +0.000 S 
ATOM      3  O1  UNL A   1      59.098  11.750   4.317  1.00  0.00    +0.000 O 
ATOM      4  O2  UNL A   1      58.310  10.934   6.573  1.00  0.00    +0.000 O 
BRANCH    2    1
ATOM      1  C1  UNL A   1      60.678  12.038   6.367  1.00  0.00    +0.000 C 
ATOM    106  H3  UNL A   1      60.953  13.070   6.424  1.00  0.00    +0.000 H 
ATOM    105  H2  UNL A   1      60.738  11.598   7.340  1.00  0.00    +0.000 H 
ATOM    104  H1  UNL A   1      61.345  11.528   5.703  1.00  0.00    +0.000 H 
ENDBRANCH    2    1
ENDBRANCH    5    2
ENDBRANCH    9    8
ENDBRANCH   10    9
BRANCH   10   86
ATOM    101  C72 UNL A   1      56.699  20.300   7.656  1.00  0.00    +0.000 C 
ATOM    138  H35 UNL A   1      57.211  20.179   4.348  1.00  0.00    +0.000 H 
ATOM    139  H36 UNL A   1      57.725  22.515   4.709  1.00  0.00    +0.000 H 
ATOM    140  H37 UNL A   1      57.471  23.477   6.916  1.00  0.00    +0.000 H 
ATOM    148  H45 UNL A   1      56.498  19.686   8.462  1.00  0.00    +0.000 H 
ATOM     86  C60 UNL A   1      56.766  19.750   6.369  1.00  0.00    +0.000 C 
ATOM     87  C61 UNL A   1      57.141  20.576   5.297  1.00  0.00    +0.000 C 
ATOM     88  C62 UNL A   1      57.420  21.925   5.499  1.00  0.00    +0.000 C 
ATOM     89  C63 UNL A   1      57.287  22.472   6.772  1.00  0.00    +0.000 C 
ATOM     90  C64 UNL A   1      56.904  21.676   7.864  1.00  0.00    +0.000 C 
BRANCH   90   91
ATOM     99  C70 UNL A   1      54.991  23.054  10.829  1.00  0.00    +0.000 C 
ATOM    100  C71 UNL A   1      55.272  22.405   9.624  1.00  0.00    +0.000 C 
ATOM    141  H38 UNL A   1      58.607  22.735   9.627  1.00  0.00    +0.000 H 
ATOM    142  H39 UNL A   1      58.128  23.883  11.706  1.00  0.00    +0.000 H 
ATOM    146  H43 UNL A   1      54.017  23.140  11.160  1.00  0.00    +0.000 H 
ATOM    147  H44 UNL A   1      54.499  22.008   9.067  1.00  0.00    +0.000 H 
ATOM     91  C65 UNL A   1      56.592  22.284   9.164  1.00  0.00    +0.000 C 
ATOM     92  C66 UNL A   1      57.630  22.825   9.947  1.00  0.00    +0.000 C 
ATOM     93  C67 UNL A   1      57.360  23.481  11.147  1.00  0.00    +0.000 C 
ATOM     94  C68 UNL A   1      56.039  23.588  11.581  1.00  0.00    +0.000 C 
BRANCH   94   95
ATOM     97  O5  UNL A   1      56.053  23.586  14.172  1.00  0.00    +0.000 O 
ATOM     98  O6  UNL A   1      56.313  25.788  12.964  1.00  0.00    +0.000 O 
ATOM     95  S2  UNL A   1      55.706  24.475  13.083  1.00  0.00    +0.000 S 
BRANCH   95   96
ATOM    145  H42 UNL A   1      53.471  23.747  13.252  1.00  0.00    +0.000 H 
ATOM    144  H41 UNL A   1      53.663  25.387  13.825  1.00  0.00    +0.000 H 
ATOM    143  H40 UNL A   1      53.640  25.056  12.108  1.00  0.00    +0.000 H 
ATOM     96  C69 UNL A   1      53.945  24.687  13.065  1.00  0.00    +0.000 C 
ENDBRANCH   95   96
ENDBRANCH   94   95
ENDBRANCH   90   91
ENDBRANCH   10   86
ENDBRANCH   11   10
ENDBRANCH   13   11
ENDBRANCH   14   13
ENDBRANCH   15   14
ENDBRANCH   16   15
ENDBRANCH   17   16
ENDBRANCH   18   17
ENDBRANCH   19   18
ENDBRANCH   20   19
ENDBRANCH   21   20
ENDBRANCH   23   21
ENDBRANCH   27   26
BRANCH   31   32
ATOM     33  C25 UNL A   1      52.548  24.119  17.175  1.00  0.00    +0.000 C 
ATOM     34  F1  UNL A   1      53.385  24.785  16.364  1.00  0.00    +0.000 F 
ATOM     35  C26 UNL A   1      51.714  24.846  18.020  1.00  0.00    +0.000 C 
ATOM     36  F2  UNL A   1      51.765  26.185  18.020  1.00  0.00    +0.000 F 
ATOM     37  C27 UNL A   1      50.840  24.186  18.870  1.00  0.00    +0.000 C 
ATOM     38  F3  UNL A   1      50.032  24.887  19.678  1.00  0.00    +0.000 F 
ATOM     39  C28 UNL A   1      50.807  22.800  18.888  1.00  0.00    +0.000 C 
ATOM     40  F4  UNL A   1      49.954  22.162  19.700  1.00  0.00    +0.000 F 
ATOM     41  C29 UNL A   1      51.661  22.071  18.065  1.00  0.00    +0.000 C 
ATOM     42  F5  UNL A   1      51.616  20.730  18.117  1.00  0.00    +0.000 F 
ATOM     32  C24 UNL A   1      52.549  22.716  17.191  1.00  0.00    +0.000 C 
ENDBRANCH   31   32
BRANCH   48   49
ATOM     49  C35 UNL A   1      59.204  19.958  17.211  1.00  0.00    +0.000 C 
ATOM     50  C36 UNL A   1      60.029  21.070  17.434  1.00  0.00    +0.000 C 
ATOM     51  F6  UNL A   1      59.827  22.208  16.755  1.00  0.00    +0.000 F 
ATOM     52  C37 UNL A   1      61.087  21.004  18.337  1.00  0.00    +0.000 C 
ATOM     53  F7  UNL A   1      61.887  22.066  18.507  1.00  0.00    +0.000 F 
ATOM     54  C38 UNL A   1      61.321  19.840  19.054  1.00  0.00    +0.000 C 
ATOM     55  F8  UNL A   1      62.332  19.784  19.931  1.00  0.00    +0.000 F 
ATOM     56  C39 UNL A   1      60.510  18.732  18.856  1.00  0.00    +0.000 C 
ATOM     57  F9  UNL A   1      60.726  17.610  19.557  1.00  0.00    +0.000 F 
ATOM     58  C40 UNL A   1      59.469  18.785  17.934  1.00  0.00    +0.000 C 
ATOM     59  F10 UNL A   1      58.705  17.696  17.761  1.00  0.00    +0.000 F 
ENDBRANCH   48   49
BRANCH   63   64
ATOM     65  C45 UNL A   1      59.030  18.365   9.816  1.00  0.00    +0.000 C 
ATOM     66  F11 UNL A   1      59.019  19.706   9.821  1.00  0.00    +0.000 F 
ATOM     67  C46 UNL A   1      59.832  17.701   8.890  1.00  0.00    +0.000 C 
ATOM     68  F12 UNL A   1      60.571  18.403   8.021  1.00  0.00    +0.000 F 
ATOM     69  C47 UNL A   1      59.855  16.314   8.858  1.00  0.00    +0.000 C 
ATOM     70  F13 UNL A   1      60.631  15.675   7.973  1.00  0.00    +0.000 F 
ATOM     71  C48 UNL A   1      59.068  15.591   9.742  1.00  0.00    +0.000 C 
ATOM     72  F14 UNL A   1      59.100  14.252   9.725  1.00  0.00    +0.000 F 
ATOM     73  C49 UNL A   1      58.246  16.255  10.649  1.00  0.00    +0.000 C 
ATOM     74  F15 UNL A   1      57.488  15.531  11.486  1.00  0.00    +0.000 F 
ATOM     64  C44 UNL A   1      58.214  17.656  10.708  1.00  0.00    +0.000 C 
ENDBRANCH   63   64
TORSDOF 23
ENDMDL
MODEL 2
REMARK VINA RESULT:      -7.4     31.059     38.022
ROOT
ATOM    129  H26 UNL A   1      20.217  19.868   3.699  1.00  0.00    +0.000 H 
ATOM    130  H27 UNL A   1      20.638  17.788   5.094  1.00  0.00    +0.000 H 
ATOM    131  H28 UNL A   1      17.146  19.566   6.482  1.00  0.00    +0.000 H 
ATOM    132  H29 UNL A   1      16.212  23.391   3.350  1.00  0.00    +0.000 H 
ATOM    133  H30 UNL A   1      14.123  23.862   4.753  1.00  0.00    +0.000 H 
ATOM    134  H31 UNL A   1      15.924  15.698  10.326  1.00  0.00    +0.000 H 
ATOM    135  H32 UNL A   1      18.203  15.425   9.190  1.00  0.00    +0.000 H 
ATOM     27  C20 UNL A   1      18.667  17.299   7.097  1.00  0.00    +0.000 C 
ATOM     28  C21 UNL A   1      17.499  17.248   8.038  1.00  0.00    +0.000 C 
ATOM     29  N3  UNL A   1      16.457  18.037   8.108  1.00  0.00    +0.000 N 
ATOM     30  C22 UNL A   1      15.662  17.523   9.123  1.00  0.00    +0.000 C 
ATOM     31  C23 UNL A   1      14.502  18.017   9.617  1.00  0.00    +0.000 C 
ATOM     43  C30 UNL A   1      13.867  19.218   9.143  1.00  0.00    +0.000 C 
ATOM     44  C31 UNL A   1      12.727  19.839   9.623  1.00  0.00    +0.000 C 
ATOM     45  C32 UNL A   1      12.457  20.946   8.812  1.00  0.00    +0.000 C 
ATOM     46  C33 UNL A   1      13.456  21.044   7.856  1.00  0.00    +0.000 C 
ATOM     47  N4  UNL A   1      14.315  19.978   8.072  1.00  0.00    +0.000 N 
ATOM     48  C34 UNL A   1      13.609  22.029   6.815  1.00  0.00    +0.000 C 
ATOM     60  C41 UNL A   1      14.646  22.086   5.946  1.00  0.00    +0.000 C 
ATOM     61  N5  UNL A   1      15.752  21.253   5.850  1.00  0.00    +0.000 N 
ATOM     62  C42 UNL A   1      16.461  21.707   4.847  1.00  0.00    +0.000 C 
ATOM     63  C43 UNL A   1      17.770  21.201   4.304  1.00  0.00    +0.000 C 
ATOM     75  C50 UNL A   1      18.353  20.133   4.882  1.00  0.00    +0.000 C 
ATOM     76  C51 UNL A   1      19.605  19.520   4.455  1.00  0.00    +0.000 C 
ATOM     77  C52 UNL A   1      19.835  18.428   5.201  1.00  0.00    +0.000 C 
ATOM     78  C53 UNL A   1      18.768  18.293   6.193  1.00  0.00    +0.000 C 
ATOM     79  N6  UNL A   1      17.948  19.365   5.947  1.00  0.00    +0.000 N 
ATOM     80  C54 UNL A   1      15.871  22.874   4.175  1.00  0.00    +0.000 C 
ATOM     81  C55 UNL A   1      14.785  23.085   4.906  1.00  0.00    +0.000 C 
ATOM     82  C56 UNL A   1      16.317  16.327   9.609  1.00  0.00    +0.000 C 
ATOM     83  C57 UNL A   1      17.487  16.148   9.014  1.00  0.00    +0.000 C 
ATOM    126  H23 UNL A   1      12.171  19.536  10.439  1.00  0.00    +0.000 H 
ATOM    127  H24 UNL A   1      11.651  21.583   8.909  1.00  0.00    +0.000 H 
ATOM    128  H25 UNL A   1      15.125  19.789   7.545  1.00  0.00    +0.000 H 
ENDROOT
BRANCH   27   26
ATOM    136  H33 UNL A   1      18.722  15.142   5.523  1.00  0.00    +0.000 H 
ATOM    137  H34 UNL A   1      20.344  13.343   5.468  1.00  0.00    +0.000 H 
ATOM     84  C58 UNL A   1      19.532  15.158   6.163  1.00  0.00    +0.000 C 
ATOM     85  C59 UNL A   1      20.483  14.145   6.103  1.00  0.00    +0.000 C 
ATOM     23  C16 UNL A   1      21.626  14.218   6.904  1.00  0.00    +0.000 C 
ATOM     24  C17 UNL A   1      21.750  15.221   7.868  1.00  0.00    +0.000 C 
ATOM     25  C18 UNL A   1      20.761  16.203   7.973  1.00  0.00    +0.000 C 
ATOM     26  C19 UNL A   1      19.668  16.203   7.091  1.00  0.00    +0.000 C 
ATOM    124  H21 UNL A   1      22.566  15.238   8.498  1.00  0.00    +0.000 H 
ATOM    125  H22 UNL A   1      20.834  16.930   8.701  1.00  0.00    +0.000 H 
BRANCH   23   21
ATOM     21  C15 UNL A   1      22.725  13.245   6.731  1.00  0.00    +0.000 C 
ATOM     22  O4  UNL A   1      22.683  12.164   7.306  1.00  0.00    +0.000 O 
BRANCH   21   20
ATOM    123  H20 UNL A   1      24.181  12.831   5.411  1.00  0.00    +0.000 H 
ATOM     20  N2  UNL A   1      23.795  13.572   5.933  1.00  0.00    +0.000 N 
BRANCH   20   19
ATOM    121  H18 UNL A   1      24.967  14.868   4.828  1.00  0.00    +0.000 H 
ATOM    122  H19 UNL A   1      23.669  15.616   5.763  1.00  0.00    +0.000 H 
ATOM     19  C14 UNL A   1      24.433  14.868   5.756  1.00  0.00    +0.000 C 
BRANCH   19   18
ATOM     18  C13 UNL A   1      25.410  15.182   6.886  1.00  0.00    +0.000 C 
ATOM    119  H16 UNL A   1      25.026  16.014   7.439  1.00  0.00    +0.000 H 
ATOM    120  H17 UNL A   1      25.492  14.294   7.477  1.00  0.00    +0.000 H 
BRANCH   18   17
ATOM     17  C12 UNL A   1      26.824  15.530   6.415  1.00  0.00    +0.000 C 
ATOM    117  H14 UNL A   1      27.133  14.783   5.714  1.00  0.00    +0.000 H 
ATOM    118  H15 UNL A   1      26.764  16.511   5.990  1.00  0.00    +0.000 H 
BRANCH   17   16
ATOM    115  H12 UNL A   1      27.589  16.385   8.203  1.00  0.00    +0.000 H 
ATOM    116  H13 UNL A   1      27.902  14.637   7.980  1.00  0.00    +0.000 H 
ATOM     16  C11 UNL A   1      27.876  15.606   7.527  1.00  0.00    +0.000 C 
BRANCH   16   15
ATOM    113  H10 UNL A   1      29.976  15.228   7.559  1.00  0.00    +0.000 H 
ATOM    114  H11 UNL A   1      29.325  15.751   5.991  1.00  0.00    +0.000 H 
ATOM     15  C10 UNL A   1      29.310  15.893   7.052  1.00  0.00    +0.000 C 
BRANCH   15   14
ATOM     14  C9  UNL A   1      29.766  17.332   7.319  1.00  0.00    +0.000 C 
ATOM    111  H8  UNL A   1      29.541  17.594   8.332  1.00  0.00    +0.000 H 
ATOM    112  H9  UNL A   1      30.820  17.405   7.154  1.00  0.00    +0.000 H 
BRANCH   14   13
ATOM     13  N1  UNL A   1      29.076  18.238   6.423  1.00  0.00    +0.000 N 
ATOM    110  H7  UNL A   1      29.282  18.073   5.474  1.00  0.00    +0.000 H 
BRANCH   13   11
ATOM     11  C8  UNL A   1      28.207  19.265   6.609  1.00  0.00    +0.000 C 
ATOM     12  O3  UNL A   1      28.547  20.348   6.125  1.00  0.00    +0.000 O 
BRANCH   11   10
ATOM     10  C7  UNL A   1      26.956  19.162   7.455  1.00  0.00    +0.000 C 
BRANCH   10    9
ATOM      9  C6  UNL A   1      26.983  19.235   8.807  1.00  0.00    +0.000 C 
ATOM    109  H6  UNL A   1      27.635  18.585   9.272  1.00  0.00    +0.000 H 
BRANCH    9    8
ATOM      5  C2  UNL A   1      24.819  21.662  11.608  1.00  0.00    +0.000 C 
ATOM    102  C73 UNL A   1      25.484  19.505  10.750  1.00  0.00    +0.000 C 
ATOM      6  C3  UNL A   1      25.490  22.289  10.558  1.00  0.00    +0.000 C 
ATOM    103  C74 UNL A   1      24.791  20.269  11.695  1.00  0.00    +0.000 C 
ATOM      7  C4  UNL A   1      26.163  21.513   9.604  1.00  0.00    +0.000 C 
ATOM      8  C5  UNL A   1      26.208  20.117   9.712  1.00  0.00    +0.000 C 
ATOM    107  H4  UNL A   1      25.491  23.318  10.484  1.00  0.00    +0.000 H 
ATOM    108  H5  UNL A   1      26.631  21.977   8.811  1.00  0.00    +0.000 H 
ATOM    149  H46 UNL A   1      25.463  18.476  10.816  1.00  0.00    +0.000 H 
ATOM    150  H47 UNL A   1      24.262  19.806  12.451  1.00  0.00    +0.000 H 
BRANCH    5    2
ATOM      2  S1  UNL A   1      23.966  22.637  12.828  1.00  0.00    +0.000 S 
ATOM      3  O1  UNL A   1      24.966  23.415  13.535  1.00  0.00    +0.000 O 
ATOM      4  O2  UNL A   1      23.087  21.728  13.538  1.00  0.00    +0.000 O 
BRANCH    2    1
ATOM      1  C1  UNL A   1      22.967  23.775  11.906  1.00  0.00    +0.000 C 
ATOM    106  H3  UNL A   1      23.176  24.774  12.226  1.00  0.00    +0.000 H 
ATOM    105  H2  UNL A   1      23.188  23.681  10.863  1.00  0.00    +0.000 H 
ATOM    104  H1  UNL A   1      21.932  23.558  12.072  1.00  0.00    +0.000 H 
ENDBRANCH    2    1
ENDBRANCH    5    2
ENDBRANCH    9    8
ENDBRANCH   10    9
BRANCH   10   86
ATOM    101  C72 UNL A   1      25.662  18.593   5.359  1.00  0.00    +0.000 C 
ATOM    138  H35 UNL A   1      24.511  18.932   8.485  1.00  0.00    +0.000 H 
ATOM    139  H36 UNL A   1      22.399  18.584   7.357  1.00  0.00    +0.000 H 
ATOM    140  H37 UNL A   1      22.343  18.365   4.947  1.00  0.00    +0.000 H 
ATOM    148  H45 UNL A   1      26.547  18.519   4.830  1.00  0.00    +0.000 H 
ATOM     86  C60 UNL A   1      25.700  18.801   6.744  1.00  0.00    +0.000 C 
ATOM     87  C61 UNL A   1      24.494  18.797   7.463  1.00  0.00    +0.000 C 
ATOM     88  C62 UNL A   1      23.276  18.616   6.813  1.00  0.00    +0.000 C 
ATOM     89  C63 UNL A   1      23.248  18.476   5.429  1.00  0.00    +0.000 C 
ATOM     90  C64 UNL A   1      24.435  18.484   4.678  1.00  0.00    +0.000 C 
BRANCH   90   91
ATOM     99  C70 UNL A   1      24.994  17.585   1.041  1.00  0.00    +0.000 C 
ATOM    100  C71 UNL A   1      24.976  17.499   2.435  1.00  0.00    +0.000 C 
ATOM    141  H38 UNL A   1      23.386  20.371   3.108  1.00  0.00    +0.000 H 
ATOM    142  H39 UNL A   1      23.432  20.540   0.691  1.00  0.00    +0.000 H 
ATOM    146  H43 UNL A   1      25.424  16.834   0.478  1.00  0.00    +0.000 H 
ATOM    147  H44 UNL A   1      25.393  16.677   2.901  1.00  0.00    +0.000 H 
ATOM     91  C65 UNL A   1      24.396  18.515   3.210  1.00  0.00    +0.000 C 
ATOM     92  C66 UNL A   1      23.825  19.621   2.551  1.00  0.00    +0.000 C 
ATOM     93  C67 UNL A   1      23.844  19.720   1.162  1.00  0.00    +0.000 C 
ATOM     94  C68 UNL A   1      24.427  18.696   0.415  1.00  0.00    +0.000 C 
BRANCH   94   95
ATOM     97  O5  UNL A   1      24.235  17.549  -1.900  1.00  0.00    +0.000 O 
ATOM     98  O6  UNL A   1      23.676  20.005  -1.718  1.00  0.00    +0.000 O 
ATOM     95  S2  UNL A   1      24.494  18.864  -1.352  1.00  0.00    +0.000 S 
BRANCH   95   96
ATOM    145  H42 UNL A   1      26.365  20.299  -1.374  1.00  0.00    +0.000 H 
ATOM    144  H41 UNL A   1      26.828  18.634  -1.112  1.00  0.00    +0.000 H 
ATOM    143  H40 UNL A   1      26.392  19.179  -2.715  1.00  0.00    +0.000 H 
ATOM     96  C69 UNL A   1      26.188  19.286  -1.670  1.00  0.00    +0.000 C 
ENDBRANCH   95   96
ENDBRANCH   94   95
ENDBRANCH   90   91
ENDBRANCH   10   86
ENDBRANCH   11   10
ENDBRANCH   13   11
ENDBRANCH   14   13
ENDBRANCH   15   14
ENDBRANCH   16   15
ENDBRANCH   17   16
ENDBRANCH   18   17
ENDBRANCH   19   18
ENDBRANCH   20   19
ENDBRANCH   21   20
ENDBRANCH   23   21
ENDBRANCH   27   26
BRANCH   31   32
ATOM     33  C25 UNL A   1      12.904  16.244  10.473  1.00  0.00    +0.000 C 
ATOM     34  F1  UNL A   1      12.541  15.966   9.212  1.00  0.00    +0.000 F 
ATOM     35  C26 UNL A   1      12.308  15.539  11.514  1.00  0.00    +0.000 C 
ATOM     36  F2  UNL A   1      11.381  14.609  11.246  1.00  0.00    +0.000 F 
ATOM     37  C27 UNL A   1      12.662  15.805  12.827  1.00  0.00    +0.000 C 
ATOM     38  F3  UNL A   1      12.092  15.120  13.829  1.00  0.00    +0.000 F 
ATOM     39  C28 UNL A   1      13.602  16.786  13.105  1.00  0.00    +0.000 C 
ATOM     40  F4  UNL A   1      13.954  17.036  14.373  1.00  0.00    +0.000 F 
ATOM     41  C29 UNL A   1      14.179  17.514  12.067  1.00  0.00    +0.000 C 
ATOM     42  F5  UNL A   1      15.074  18.468  12.368  1.00  0.00    +0.000 F 
ATOM     32  C24 UNL A   1      13.842  17.257  10.729  1.00  0.00    +0.000 C 
ENDBRANCH   31   32
BRANCH   48   49
ATOM     49  C35 UNL A   1      12.550  23.084   6.695  1.00  0.00    +0.000 C 
ATOM     50  C36 UNL A   1      11.478  22.946   5.801  1.00  0.00    +0.000 C 
ATOM     51  F6  UNL A   1      11.417  21.889   4.978  1.00  0.00    +0.000 F 
ATOM     52  C37 UNL A   1      10.479  23.913   5.730  1.00  0.00    +0.000 C 
ATOM     53  F7  UNL A   1       9.483  23.780   4.842  1.00  0.00    +0.000 F 
ATOM     54  C38 UNL A   1      10.516  25.016   6.569  1.00  0.00    +0.000 C 
ATOM     55  F8  UNL A   1       9.546  25.939   6.506  1.00  0.00    +0.000 F 
ATOM     56  C39 UNL A   1      11.561  25.167   7.467  1.00  0.00    +0.000 C 
ATOM     57  F9  UNL A   1      11.592  26.227   8.287  1.00  0.00    +0.000 F 
ATOM     58  C40 UNL A   1      12.576  24.217   7.522  1.00  0.00    +0.000 C 
ATOM     59  F10 UNL A   1      13.578  24.392   8.397  1.00  0.00    +0.000 F 
ENDBRANCH   48   49
BRANCH   63   64
ATOM     65  C45 UNL A   1      18.184  21.435   1.839  1.00  0.00    +0.000 C 
ATOM     66  F11 UNL A   1      17.370  20.391   1.620  1.00  0.00    +0.000 F 
ATOM     67  C46 UNL A   1      18.805  22.046   0.752  1.00  0.00    +0.000 C 
ATOM     68  F12 UNL A   1      18.588  21.585  -0.487  1.00  0.00    +0.000 F 
ATOM     69  C47 UNL A   1      19.657  23.122   0.952  1.00  0.00    +0.000 C 
ATOM     70  F13 UNL A   1      20.249  23.714  -0.093  1.00  0.00    +0.000 F 
ATOM     71  C48 UNL A   1      19.899  23.579   2.239  1.00  0.00    +0.000 C 
ATOM     72  F14 UNL A   1      20.708  24.628   2.435  1.00  0.00    +0.000 F 
ATOM     73  C49 UNL A   1      19.300  22.951   3.328  1.00  0.00    +0.000 C 
ATOM     74  F15 UNL A   1      19.559  23.408   4.562  1.00  0.00    +0.000 F 
ATOM     64  C44 UNL A   1      18.425  21.869   3.150  1.00  0.00    +0.000 C 
ENDBRANCH   63   64
TORSDOF 23
ENDMDL
MODEL 3
REMARK VINA RESULT:      -7.2     31.072     37.955
ROOT
ATOM    129  H26 UNL A   1      20.321  20.059   3.754  1.00  0.00    +0.000 H 
ATOM    130  H27 UNL A   1      20.795  17.955   5.096  1.00  0.00    +0.000 H 
ATOM    131  H28 UNL A   1      17.263  19.611   6.531  1.00  0.00    +0.000 H 
ATOM    132  H29 UNL A   1      16.230  23.489   3.497  1.00  0.00    +0.000 H 
ATOM    133  H30 UNL A   1      14.132  23.872   4.914  1.00  0.00    +0.000 H 
ATOM    134  H31 UNL A   1      16.143  15.619  10.278  1.00  0.00    +0.000 H 
ATOM    135  H32 UNL A   1      18.426  15.431   9.134  1.00  0.00    +0.000 H 
ATOM     27  C20 UNL A   1      18.841  17.367   7.088  1.00  0.00    +0.000 C 
ATOM     28  C21 UNL A   1      17.676  17.264   8.029  1.00  0.00    +0.000 C 
ATOM     29  N3  UNL A   1      16.615  18.025   8.119  1.00  0.00    +0.000 N 
ATOM     30  C22 UNL A   1      15.835  17.467   9.122  1.00  0.00    +0.000 C 
ATOM     31  C23 UNL A   1      14.663  17.919   9.629  1.00  0.00    +0.000 C 
ATOM     43  C30 UNL A   1      13.997  19.115   9.186  1.00  0.00    +0.000 C 
ATOM     44  C31 UNL A   1      12.843  19.695   9.683  1.00  0.00    +0.000 C 
ATOM     45  C32 UNL A   1      12.545  20.816   8.900  1.00  0.00    +0.000 C 
ATOM     46  C33 UNL A   1      13.539  20.962   7.946  1.00  0.00    +0.000 C 
ATOM     47  N4  UNL A   1      14.425  19.913   8.134  1.00  0.00    +0.000 N 
ATOM     48  C34 UNL A   1      13.667  21.976   6.930  1.00  0.00    +0.000 C 
ATOM     60  C41 UNL A   1      14.700  22.081   6.061  1.00  0.00    +0.000 C 
ATOM     61  N5  UNL A   1      15.826  21.278   5.944  1.00  0.00    +0.000 N 
ATOM     62  C42 UNL A   1      16.523  21.775   4.951  1.00  0.00    +0.000 C 
ATOM     63  C43 UNL A   1      17.842  21.315   4.394  1.00  0.00    +0.000 C 
ATOM     75  C50 UNL A   1      18.453  20.248   4.945  1.00  0.00    +0.000 C 
ATOM     76  C51 UNL A   1      19.720  19.677   4.501  1.00  0.00    +0.000 C 
ATOM     77  C52 UNL A   1      19.978  18.572   5.220  1.00  0.00    +0.000 C 
ATOM     78  C53 UNL A   1      18.915  18.386   6.209  1.00  0.00    +0.000 C 
ATOM     79  N6  UNL A   1      18.069  19.444   5.991  1.00  0.00    +0.000 N 
ATOM     80  C54 UNL A   1      15.903  22.943   4.310  1.00  0.00    +0.000 C 
ATOM     81  C55 UNL A   1      14.813  23.108   5.047  1.00  0.00    +0.000 C 
ATOM     82  C56 UNL A   1      16.519  16.275   9.577  1.00  0.00    +0.000 C 
ATOM     83  C57 UNL A   1      17.693  16.140   8.977  1.00  0.00    +0.000 C 
ATOM    126  H23 UNL A   1      12.297  19.358  10.491  1.00  0.00    +0.000 H 
ATOM    127  H24 UNL A   1      11.723  21.430   9.014  1.00  0.00    +0.000 H 
ATOM    128  H25 UNL A   1      15.238  19.758   7.602  1.00  0.00    +0.000 H 
ENDROOT
BRANCH   27   26
ATOM    136  H33 UNL A   1      19.108  15.413   5.288  1.00  0.00    +0.000 H 
ATOM    137  H34 UNL A   1      20.778  13.661   5.185  1.00  0.00    +0.000 H 
ATOM     84  C58 UNL A   1      19.851  15.367   6.002  1.00  0.00    +0.000 C 
ATOM     85  C59 UNL A   1      20.832  14.385   5.919  1.00  0.00    +0.000 C 
ATOM     23  C16 UNL A   1      21.891  14.383   6.831  1.00  0.00    +0.000 C 
ATOM     24  C17 UNL A   1      21.894  15.267   7.912  1.00  0.00    +0.000 C 
ATOM     25  C18 UNL A   1      20.872  16.213   8.032  1.00  0.00    +0.000 C 
ATOM     26  C19 UNL A   1      19.869  16.298   7.053  1.00  0.00    +0.000 C 
ATOM    124  H21 UNL A   1      22.645  15.223   8.617  1.00  0.00    +0.000 H 
ATOM    125  H22 UNL A   1      20.855  16.850   8.843  1.00  0.00    +0.000 H 
BRANCH   23   21
ATOM     21  C15 UNL A   1      23.029  13.456   6.655  1.00  0.00    +0.000 C 
ATOM     22  O4  UNL A   1      22.836  12.246   6.625  1.00  0.00    +0.000 O 
BRANCH   21   20
ATOM    123  H20 UNL A   1      24.920  13.445   5.978  1.00  0.00    +0.000 H 
ATOM     20  N2  UNL A   1      24.301  13.964   6.542  1.00  0.00    +0.000 N 
BRANCH   20   19
ATOM    121  H18 UNL A   1      24.174  15.979   6.984  1.00  0.00    +0.000 H 
ATOM    122  H19 UNL A   1      24.994  14.981   8.188  1.00  0.00    +0.000 H 
ATOM     19  C14 UNL A   1      24.854  15.168   7.144  1.00  0.00    +0.000 C 
BRANCH   19   18
ATOM     18  C13 UNL A   1      26.209  15.535   6.544  1.00  0.00    +0.000 C 
ATOM    119  H16 UNL A   1      26.571  14.692   5.994  1.00  0.00    +0.000 H 
ATOM    120  H17 UNL A   1      26.049  16.395   5.928  1.00  0.00    +0.000 H 
BRANCH   18   17
ATOM     17  C12 UNL A   1      27.268  15.925   7.578  1.00  0.00    +0.000 C 
ATOM    117  H14 UNL A   1      27.174  16.973   7.771  1.00  0.00    +0.000 H 
ATOM    118  H15 UNL A   1      27.083  15.317   8.439  1.00  0.00    +0.000 H 
BRANCH   17   16
ATOM    115  H12 UNL A   1      29.090  14.847   7.764  1.00  0.00    +0.000 H 
ATOM    116  H13 UNL A   1      28.683  15.408   6.114  1.00  0.00    +0.000 H 
ATOM     16  C11 UNL A   1      28.716  15.645   7.157  1.00  0.00    +0.000 C 
BRANCH   16   15
ATOM    113  H10 UNL A   1      29.182  17.613   7.837  1.00  0.00    +0.000 H 
ATOM    114  H11 UNL A   1      30.551  16.481   7.799  1.00  0.00    +0.000 H 
ATOM     15  C10 UNL A   1      29.678  16.838   7.293  1.00  0.00    +0.000 C 
BRANCH   15   14
ATOM     14  C9  UNL A   1      30.138  17.407   5.947  1.00  0.00    +0.000 C 
ATOM    111  H8  UNL A   1      30.493  18.407   6.087  1.00  0.00    +0.000 H 
ATOM    112  H9  UNL A   1      30.926  16.798   5.556  1.00  0.00    +0.000 H 
BRANCH   14   13
ATOM     13  N1  UNL A   1      29.030  17.415   5.014  1.00  0.00    +0.000 N 
ATOM    110  H7  UNL A   1      28.795  16.517   4.687  1.00  0.00    +0.000 H 
BRANCH   13   11
ATOM     11  C8  UNL A   1      28.245  18.394   4.493  1.00  0.00    +0.000 C 
ATOM     12  O3  UNL A   1      28.457  18.678   3.312  1.00  0.00    +0.000 O 
BRANCH   11   10
ATOM     10  C7  UNL A   1      27.252  19.193   5.309  1.00  0.00    +0.000 C 
BRANCH   10    9
ATOM      9  C6  UNL A   1      27.574  19.763   6.495  1.00  0.00    +0.000 C 
ATOM    109  H6  UNL A   1      28.364  20.424   6.468  1.00  0.00    +0.000 H 
BRANCH    9    8
ATOM      5  C2  UNL A   1      25.913  19.367  10.433  1.00  0.00    +0.000 C 
ATOM    102  C73 UNL A   1      27.805  19.528   8.942  1.00  0.00    +0.000 C 
ATOM      6  C3  UNL A   1      25.048  19.356   9.337  1.00  0.00    +0.000 C 
ATOM    103  C74 UNL A   1      27.293  19.427  10.240  1.00  0.00    +0.000 C 
ATOM      7  C4  UNL A   1      25.573  19.435   8.040  1.00  0.00    +0.000 C 
ATOM      8  C5  UNL A   1      26.951  19.568   7.826  1.00  0.00    +0.000 C 
ATOM    107  H4  UNL A   1      24.029  19.289   9.481  1.00  0.00    +0.000 H 
ATOM    108  H5  UNL A   1      24.935  19.394   7.231  1.00  0.00    +0.000 H 
ATOM    149  H46 UNL A   1      28.826  19.573   8.801  1.00  0.00    +0.000 H 
ATOM    150  H47 UNL A   1      27.933  19.397  11.050  1.00  0.00    +0.000 H 
BRANCH    5    2
ATOM      2  S1  UNL A   1      25.258  19.273  12.085  1.00  0.00    +0.000 S 
ATOM      3  O1  UNL A   1      24.543  20.510  12.337  1.00  0.00    +0.000 O 
ATOM      4  O2  UNL A   1      26.354  18.856  12.937  1.00  0.00    +0.000 O 
BRANCH    2    1
ATOM      1  C1  UNL A   1      24.056  17.969  12.041  1.00  0.00    +0.000 C 
ATOM    106  H3  UNL A   1      24.444  17.145  11.479  1.00  0.00    +0.000 H 
ATOM    105  H2  UNL A   1      23.838  17.651  13.039  1.00  0.00    +0.000 H 
ATOM    104  H1  UNL A   1      23.160  18.325  11.576  1.00  0.00    +0.000 H 
ENDBRANCH    2    1
ENDBRANCH    5    2
ENDBRANCH    9    8
ENDBRANCH   10    9
BRANCH   10   86
ATOM    101  C72 UNL A   1      25.158  17.998   4.547  1.00  0.00    +0.000 C 
ATOM    138  H35 UNL A   1      25.708  21.294   4.761  1.00  0.00    +0.000 H 
ATOM    139  H36 UNL A   1      23.504  21.358   3.766  1.00  0.00    +0.000 H 
ATOM    140  H37 UNL A   1      22.399  19.295   3.152  1.00  0.00    +0.000 H 
ATOM    148  H45 UNL A   1      25.570  17.093   4.827  1.00  0.00    +0.000 H 
ATOM     86  C60 UNL A   1      25.842  19.187   4.834  1.00  0.00    +0.000 C 
ATOM     87  C61 UNL A   1      25.222  20.412   4.539  1.00  0.00    +0.000 C 
ATOM     88  C62 UNL A   1      23.962  20.452   3.950  1.00  0.00    +0.000 C 
ATOM     89  C63 UNL A   1      23.323  19.263   3.611  1.00  0.00    +0.000 C 
ATOM     90  C64 UNL A   1      23.918  18.020   3.883  1.00  0.00    +0.000 C 
BRANCH   90   91
ATOM     99  C70 UNL A   1      21.457  15.529   2.438  1.00  0.00    +0.000 C 
ATOM    100  C71 UNL A   1      22.026  16.736   2.851  1.00  0.00    +0.000 C 
ATOM    141  H38 UNL A   1      25.020  15.589   3.825  1.00  0.00    +0.000 H 
ATOM    142  H39 UNL A   1      24.035  13.487   3.131  1.00  0.00    +0.000 H 
ATOM    146  H43 UNL A   1      20.497  15.507   2.060  1.00  0.00    +0.000 H 
ATOM    147  H44 UNL A   1      21.480  17.609   2.774  1.00  0.00    +0.000 H 
ATOM     91  C65 UNL A   1      23.329  16.776   3.369  1.00  0.00    +0.000 C 
ATOM     92  C66 UNL A   1      24.056  15.573   3.456  1.00  0.00    +0.000 C 
ATOM     93  C67 UNL A   1      23.496  14.363   3.052  1.00  0.00    +0.000 C 
ATOM     94  C68 UNL A   1      22.198  14.350   2.542  1.00  0.00    +0.000 C 
BRANCH   94   95
ATOM     97  O5  UNL A   1      22.015  12.457   0.783  1.00  0.00    +0.000 O 
ATOM     98  O6  UNL A   1      21.626  11.891   3.213  1.00  0.00    +0.000 O 
ATOM     95  S2  UNL A   1      21.478  12.792   2.086  1.00  0.00    +0.000 S 
BRANCH   95   96
ATOM    145  H42 UNL A   1      19.360  13.491   2.848  1.00  0.00    +0.000 H 
ATOM    144  H41 UNL A   1      19.627  13.936   1.179  1.00  0.00    +0.000 H 
ATOM    143  H40 UNL A   1      19.230  12.285   1.592  1.00  0.00    +0.000 H 
ATOM     96  C69 UNL A   1      19.753  13.163   1.909  1.00  0.00    +0.000 C 
ENDBRANCH   95   96
ENDBRANCH   94   95
ENDBRANCH   90   91
ENDBRANCH   10   86
ENDBRANCH   11   10
ENDBRANCH   13   11
ENDBRANCH   14   13
ENDBRANCH   15   14
ENDBRANCH   16   15
ENDBRANCH   17   16
ENDBRANCH   18   17
ENDBRANCH   19   18
ENDBRANCH   20   19
ENDBRANCH   21   20
ENDBRANCH   23   21
ENDBRANCH   27   26
BRANCH   31   32
ATOM     33  C25 UNL A   1      13.170  16.037  10.440  1.00  0.00    +0.000 C 
ATOM     34  F1  UNL A   1      12.868  15.731   9.169  1.00  0.00    +0.000 F 
ATOM     35  C26 UNL A   1      12.593  15.292  11.464  1.00  0.00    +0.000 C 
ATOM     36  F2  UNL A   1      11.744  14.297  11.171  1.00  0.00    +0.000 F 
ATOM     37  C27 UNL A   1      12.884  15.585  12.788  1.00  0.00    +0.000 C 
ATOM     38  F3  UNL A   1      12.333  14.862  13.773  1.00  0.00    +0.000 F 
ATOM     39  C28 UNL A   1      13.742  16.632  13.091  1.00  0.00    +0.000 C 
ATOM     40  F4  UNL A   1      14.034  16.908  14.369  1.00  0.00    +0.000 F 
ATOM     41  C29 UNL A   1      14.298  17.398  12.069  1.00  0.00    +0.000 C 
ATOM     42  F5  UNL A   1      15.112  18.414  12.396  1.00  0.00    +0.000 F 
ATOM     32  C24 UNL A   1      14.024  17.115  10.723  1.00  0.00    +0.000 C 
ENDBRANCH   31   32
BRANCH   48   49
ATOM     49  C35 UNL A   1      12.581  23.007   6.837  1.00  0.00    +0.000 C 
ATOM     50  C36 UNL A   1      12.606  24.168   7.624  1.00  0.00    +0.000 C 
ATOM     51  F6  UNL A   1      13.575  24.346   8.534  1.00  0.00    +0.000 F 
ATOM     52  C37 UNL A   1      11.615  25.137   7.498  1.00  0.00    +0.000 C 
ATOM     53  F7  UNL A   1      11.636  26.221   8.286  1.00  0.00    +0.000 F 
ATOM     54  C38 UNL A   1      10.601  24.980   6.566  1.00  0.00    +0.000 C 
ATOM     55  F8  UNL A   1       9.655  25.921   6.437  1.00  0.00    +0.000 F 
ATOM     56  C39 UNL A   1      10.563  23.844   5.770  1.00  0.00    +0.000 C 
ATOM     57  F9  UNL A   1       9.590  23.697   4.859  1.00  0.00    +0.000 F 
ATOM     58  C40 UNL A   1      11.536  22.861   5.913  1.00  0.00    +0.000 C 
ATOM     59  F10 UNL A   1      11.471  21.771   5.134  1.00  0.00    +0.000 F 
ENDBRANCH   48   49
BRANCH   63   64
ATOM     65  C45 UNL A   1      19.355  23.099   3.483  1.00  0.00    +0.000 C 
ATOM     66  F11 UNL A   1      19.605  23.504   4.738  1.00  0.00    +0.000 F 
ATOM     67  C46 UNL A   1      19.946  23.782   2.423  1.00  0.00    +0.000 C 
ATOM     68  F12 UNL A   1      20.747  24.828   2.666  1.00  0.00    +0.000 F 
ATOM     69  C47 UNL A   1      19.697  23.390   1.117  1.00  0.00    +0.000 C 
ATOM     70  F13 UNL A   1      20.271  24.042   0.097  1.00  0.00    +0.000 F 
ATOM     71  C48 UNL A   1      18.847  22.322   0.869  1.00  0.00    +0.000 C 
ATOM     72  F14 UNL A   1      18.617  21.929  -0.391  1.00  0.00    +0.000 F 
ATOM     73  C49 UNL A   1      18.234  21.656   1.927  1.00  0.00    +0.000 C 
ATOM     74  F15 UNL A   1      17.409  20.633   1.658  1.00  0.00    +0.000 F 
ATOM     64  C44 UNL A   1      18.480  22.028   3.257  1.00  0.00    +0.000 C 
ENDBRANCH   63   64
TORSDOF 23
ENDMDL
MODEL 4
REMARK VINA RESULT:      -7.1     29.420     35.167
ROOT
ATOM    129  H26 UNL A   1      21.634   1.130  10.461  1.00  0.00    +0.000 H 
ATOM    130  H27 UNL A   1      23.763  -0.211  10.121  1.00  0.00    +0.000 H 
ATOM    131  H28 UNL A   1      24.135   3.332   7.979  1.00  0.00    +0.000 H 
ATOM    132  H29 UNL A   1      20.059   6.056   9.109  1.00  0.00    +0.000 H 
ATOM    133  H30 UNL A   1      21.003   7.870   7.569  1.00  0.00    +0.000 H 
ATOM    134  H31 UNL A   1      29.342   2.449   6.150  1.00  0.00    +0.000 H 
ATOM    135  H32 UNL A   1      28.265   0.472   7.371  1.00  0.00    +0.000 H 
ATOM     27  C20 UNL A   1      25.701   1.062   8.461  1.00  0.00    +0.000 C 
ATOM     28  C21 UNL A   1      26.553   1.943   7.594  1.00  0.00    +0.000 C 
ATOM     29  N3  UNL A   1      26.313   3.152   7.153  1.00  0.00    +0.000 N 
ATOM     30  C22 UNL A   1      27.441   3.522   6.434  1.00  0.00    +0.000 C 
ATOM     31  C23 UNL A   1      27.658   4.662   5.735  1.00  0.00    +0.000 C 
ATOM     43  C30 UNL A   1      26.707   5.735   5.619  1.00  0.00    +0.000 C 
ATOM     44  C31 UNL A   1      26.805   6.899   4.878  1.00  0.00    +0.000 C 
ATOM     45  C32 UNL A   1      25.662   7.669   5.119  1.00  0.00    +0.000 C 
ATOM     46  C33 UNL A   1      24.829   6.962   5.972  1.00  0.00    +0.000 C 
ATOM     47  N4  UNL A   1      25.482   5.776   6.269  1.00  0.00    +0.000 N 
ATOM     48  C34 UNL A   1      23.539   7.345   6.488  1.00  0.00    +0.000 C 
ATOM     60  C41 UNL A   1      22.759   6.574   7.283  1.00  0.00    +0.000 C 
ATOM     61  N5  UNL A   1      23.002   5.296   7.768  1.00  0.00    +0.000 N 
ATOM     62  C42 UNL A   1      21.961   4.984   8.500  1.00  0.00    +0.000 C 
ATOM     63  C43 UNL A   1      21.679   3.713   9.254  1.00  0.00    +0.000 C 
ATOM     75  C50 UNL A   1      22.579   2.711   9.216  1.00  0.00    +0.000 C 
ATOM     76  C51 UNL A   1      22.452   1.435   9.910  1.00  0.00    +0.000 C 
ATOM     77  C52 UNL A   1      23.572   0.719   9.719  1.00  0.00    +0.000 C 
ATOM     78  C53 UNL A   1      24.477   1.470   8.847  1.00  0.00    +0.000 C 
ATOM     79  N6  UNL A   1      23.791   2.628   8.576  1.00  0.00    +0.000 N 
ATOM     80  C54 UNL A   1      20.944   6.042   8.579  1.00  0.00    +0.000 C 
ATOM     81  C55 UNL A   1      21.464   6.974   7.791  1.00  0.00    +0.000 C 
ATOM     82  C56 UNL A   1      28.386   2.431   6.537  1.00  0.00    +0.000 C 
ATOM     83  C57 UNL A   1      27.861   1.405   7.191  1.00  0.00    +0.000 C 
ATOM    126  H23 UNL A   1      27.587   7.155   4.255  1.00  0.00    +0.000 H 
ATOM    127  H24 UNL A   1      25.471   8.604   4.728  1.00  0.00    +0.000 H 
ATOM    128  H25 UNL A   1      25.128   5.068   6.854  1.00  0.00    +0.000 H 
ENDROOT
BRANCH   27   26
ATOM    136  H33 UNL A   1      27.132   0.661  10.679  1.00  0.00    +0.000 H 
ATOM    137  H34 UNL A   1      28.012  -1.416  11.564  1.00  0.00    +0.000 H 
ATOM     84  C58 UNL A   1      26.955  -0.227  10.183  1.00  0.00    +0.000 C 
ATOM     85  C59 UNL A   1      27.427  -1.423  10.713  1.00  0.00    +0.000 C 
ATOM     23  C16 UNL A   1      27.106  -2.632  10.091  1.00  0.00    +0.000 C 
ATOM     24  C17 UNL A   1      26.440  -2.640   8.863  1.00  0.00    +0.000 C 
ATOM     25  C18 UNL A   1      26.023  -1.432   8.297  1.00  0.00    +0.000 C 
ATOM     26  C19 UNL A   1      26.238  -0.221   8.976  1.00  0.00    +0.000 C 
ATOM    124  H21 UNL A   1      26.258  -3.530   8.377  1.00  0.00    +0.000 H 
ATOM    125  H22 UNL A   1      25.556  -1.430   7.377  1.00  0.00    +0.000 H 
BRANCH   23   21
ATOM     21  C15 UNL A   1      27.451  -3.919  10.731  1.00  0.00    +0.000 C 
ATOM     22  O4  UNL A   1      26.566  -4.638  11.180  1.00  0.00    +0.000 O 
BRANCH   21   20
ATOM    123  H20 UNL A   1      29.114  -4.414  11.743  1.00  0.00    +0.000 H 
ATOM     20  N2  UNL A   1      28.770  -4.291  10.828  1.00  0.00    +0.000 N 
BRANCH   20   19
ATOM    121  H18 UNL A   1      30.308  -5.395   9.997  1.00  0.00    +0.000 H 
ATOM    122  H19 UNL A   1      29.179  -4.669   8.849  1.00  0.00    +0.000 H 
ATOM     19  C14 UNL A   1      29.727  -4.528   9.757  1.00  0.00    +0.000 C 
BRANCH   19   18
ATOM     18  C13 UNL A   1      30.669  -3.343   9.560  1.00  0.00    +0.000 C 
ATOM    119  H16 UNL A   1      30.645  -2.746  10.448  1.00  0.00    +0.000 H 
ATOM    120  H17 UNL A   1      31.638  -3.751   9.360  1.00  0.00    +0.000 H 
BRANCH   18   17
ATOM     17  C12 UNL A   1      30.313  -2.449   8.370  1.00  0.00    +0.000 C 
ATOM    117  H14 UNL A   1      30.177  -3.076   7.513  1.00  0.00    +0.000 H 
ATOM    118  H15 UNL A   1      29.428  -1.917   8.651  1.00  0.00    +0.000 H 
BRANCH   17   16
ATOM    115  H12 UNL A   1      30.850  -0.476   7.793  1.00  0.00    +0.000 H 
ATOM    116  H13 UNL A   1      32.005  -1.311   8.875  1.00  0.00    +0.000 H 
ATOM     16  C11 UNL A   1      31.362  -1.387   8.022  1.00  0.00    +0.000 C 
BRANCH   16   15
ATOM    113  H10 UNL A   1      32.267  -2.794   6.697  1.00  0.00    +0.000 H 
ATOM    114  H11 UNL A   1      31.888  -1.213   5.979  1.00  0.00    +0.000 H 
ATOM     15  C10 UNL A   1      32.273  -1.733   6.832  1.00  0.00    +0.000 C 
BRANCH   15   14
ATOM     14  C9  UNL A   1      33.724  -1.277   7.020  1.00  0.00    +0.000 C 
ATOM    111  H8  UNL A   1      34.353  -2.134   7.144  1.00  0.00    +0.000 H 
ATOM    112  H9  UNL A   1      34.035  -0.724   6.159  1.00  0.00    +0.000 H 
BRANCH   14   13
ATOM     13  N1  UNL A   1      33.823  -0.433   8.194  1.00  0.00    +0.000 N 
ATOM    110  H7  UNL A   1      33.816  -0.941   9.037  1.00  0.00    +0.000 H 
BRANCH   13   11
ATOM     11  C8  UNL A   1      33.924   0.909   8.382  1.00  0.00    +0.000 C 
ATOM     12  O3  UNL A   1      34.910   1.287   9.019  1.00  0.00    +0.000 O 
BRANCH   11   10
ATOM     10  C7  UNL A   1      32.855   1.896   7.964  1.00  0.00    +0.000 C 
BRANCH   10    9
ATOM      9  C6  UNL A   1      32.867   2.515   6.760  1.00  0.00    +0.000 C 
ATOM    109  H6  UNL A   1      33.211   3.487   6.766  1.00  0.00    +0.000 H 
BRANCH    9    8
ATOM      5  C2  UNL A   1      31.878   0.906   2.906  1.00  0.00    +0.000 C 
ATOM    102  C73 UNL A   1      33.385   2.075   4.386  1.00  0.00    +0.000 C 
ATOM      6  C3  UNL A   1      30.919   0.857   3.918  1.00  0.00    +0.000 C 
ATOM    103  C74 UNL A   1      33.103   1.537   3.126  1.00  0.00    +0.000 C 
ATOM      7  C4  UNL A   1      31.203   1.419   5.169  1.00  0.00    +0.000 C 
ATOM      8  C5  UNL A   1      32.453   1.994   5.435  1.00  0.00    +0.000 C 
ATOM    107  H4  UNL A   1      30.006   0.409   3.746  1.00  0.00    +0.000 H 
ATOM    108  H5  UNL A   1      30.481   1.411   5.906  1.00  0.00    +0.000 H 
ATOM    149  H46 UNL A   1      34.291   2.541   4.547  1.00  0.00    +0.000 H 
ATOM    150  H47 UNL A   1      33.797   1.605   2.365  1.00  0.00    +0.000 H 
BRANCH    5    2
ATOM      2  S1  UNL A   1      31.531   0.189   1.315  1.00  0.00    +0.000 S 
ATOM      3  O1  UNL A   1      32.126  -1.135   1.298  1.00  0.00    +0.000 O 
ATOM      4  O2  UNL A   1      31.897   1.186   0.327  1.00  0.00    +0.000 O 
BRANCH    2    1
ATOM      1  C1  UNL A   1      29.771  -0.024   1.269  1.00  0.00    +0.000 C 
ATOM    106  H3  UNL A   1      29.306   0.715   1.886  1.00  0.00    +0.000 H 
ATOM    105  H2  UNL A   1      29.425   0.082   0.262  1.00  0.00    +0.000 H 
ATOM    104  H1  UNL A   1      29.520  -0.999   1.631  1.00  0.00    +0.000 H 
ENDBRANCH    2    1
ENDBRANCH    5    2
ENDBRANCH    9    8
ENDBRANCH   10    9
BRANCH   10   86
ATOM    101  C72 UNL A   1      31.604   1.489  10.123  1.00  0.00    +0.000 C 
ATOM    138  H35 UNL A   1      31.295   4.054   7.993  1.00  0.00    +0.000 H 
ATOM    139  H36 UNL A   1      29.516   4.639   9.525  1.00  0.00    +0.000 H 
ATOM    140  H37 UNL A   1      28.980   3.164  11.367  1.00  0.00    +0.000 H 
ATOM    148  H45 UNL A   1      32.215   0.682  10.327  1.00  0.00    +0.000 H 
ATOM     86  C60 UNL A   1      31.872   2.293   9.007  1.00  0.00    +0.000 C 
ATOM     87  C61 UNL A   1      31.095   3.445   8.801  1.00  0.00    +0.000 C 
ATOM     88  C62 UNL A   1      30.060   3.774   9.671  1.00  0.00    +0.000 C 
ATOM     89  C63 UNL A   1      29.763   2.931  10.737  1.00  0.00    +0.000 C 
ATOM     90  C64 UNL A   1      30.513   1.766  10.967  1.00  0.00    +0.000 C 
BRANCH   90   91
ATOM     99  C70 UNL A   1      28.869   0.208  14.004  1.00  0.00    +0.000 C 
ATOM    100  C71 UNL A   1      29.198   1.129  13.007  1.00  0.00    +0.000 C 
ATOM    141  H38 UNL A   1      31.297  -0.774  11.217  1.00  0.00    +0.000 H 
ATOM    142  H39 UNL A   1      30.750  -2.372  12.954  1.00  0.00    +0.000 H 
ATOM    146  H43 UNL A   1      28.212   0.466  14.756  1.00  0.00    +0.000 H 
ATOM    147  H44 UNL A   1      28.777   2.072  13.025  1.00  0.00    +0.000 H 
ATOM     91  C65 UNL A   1      30.092   0.789  11.980  1.00  0.00    +0.000 C 
ATOM     92  C66 UNL A   1      30.646  -0.506  11.972  1.00  0.00    +0.000 C 
ATOM     93  C67 UNL A   1      30.330  -1.431  12.965  1.00  0.00    +0.000 C 
ATOM     94  C68 UNL A   1      29.439  -1.067  13.975  1.00  0.00    +0.000 C 
BRANCH   94   95
ATOM     97  O5  UNL A   1      30.272  -3.064  15.400  1.00  0.00    +0.000 O 
ATOM     98  O6  UNL A   1      28.556  -1.501  16.395  1.00  0.00    +0.000 O 
ATOM     95  S2  UNL A   1      29.090  -2.237  15.264  1.00  0.00    +0.000 S 
BRANCH   95   96
ATOM    145  H42 UNL A   1      28.145  -4.213  14.395  1.00  0.00    +0.000 H 
ATOM    144  H41 UNL A   1      26.975  -3.277  15.295  1.00  0.00    +0.000 H 
ATOM    143  H40 UNL A   1      27.433  -2.786  13.681  1.00  0.00    +0.000 H 
ATOM     96  C69 UNL A   1      27.781  -3.226  14.592  1.00  0.00    +0.000 C 
ENDBRANCH   95   96
ENDBRANCH   94   95
ENDBRANCH   90   91
ENDBRANCH   10   86
ENDBRANCH   11   10
ENDBRANCH   13   11
ENDBRANCH   14   13
ENDBRANCH   15   14
ENDBRANCH   16   15
ENDBRANCH   17   16
ENDBRANCH   18   17
ENDBRANCH   19   18
ENDBRANCH   20   19
ENDBRANCH   21   20
ENDBRANCH   23   21
ENDBRANCH   27   26
BRANCH   31   32
ATOM     33  C25 UNL A   1      30.079   5.413   5.668  1.00  0.00    +0.000 C 
ATOM     34  F1  UNL A   1      29.953   5.922   6.903  1.00  0.00    +0.000 F 
ATOM     35  C26 UNL A   1      31.303   5.531   5.016  1.00  0.00    +0.000 C 
ATOM     36  F2  UNL A   1      32.324   6.155   5.619  1.00  0.00    +0.000 F 
ATOM     37  C27 UNL A   1      31.463   5.016   3.739  1.00  0.00    +0.000 C 
ATOM     38  F3  UNL A   1      32.645   5.124   3.115  1.00  0.00    +0.000 F 
ATOM     39  C28 UNL A   1      30.398   4.394   3.105  1.00  0.00    +0.000 C 
ATOM     40  F4  UNL A   1      30.555   3.884   1.877  1.00  0.00    +0.000 F 
ATOM     41  C29 UNL A   1      29.164   4.300   3.744  1.00  0.00    +0.000 C 
ATOM     42  F5  UNL A   1      28.148   3.706   3.099  1.00  0.00    +0.000 F 
ATOM     32  C24 UNL A   1      28.980   4.807   5.039  1.00  0.00    +0.000 C 
ENDBRANCH   31   32
BRANCH   48   49
ATOM     49  C35 UNL A   1      23.009   8.694   6.102  1.00  0.00    +0.000 C 
ATOM     50  C36 UNL A   1      22.186   8.862   4.979  1.00  0.00    +0.000 C 
ATOM     51  F6  UNL A   1      21.913   7.820   4.180  1.00  0.00    +0.000 F 
ATOM     52  C37 UNL A   1      21.665  10.112   4.656  1.00  0.00    +0.000 C 
ATOM     53  F7  UNL A   1      20.912  10.259   3.557  1.00  0.00    +0.000 F 
ATOM     54  C38 UNL A   1      21.931  11.208   5.463  1.00  0.00    +0.000 C 
ATOM     55  F8  UNL A   1      21.419  12.408   5.157  1.00  0.00    +0.000 F 
ATOM     56  C39 UNL A   1      22.734  11.062   6.585  1.00  0.00    +0.000 C 
ATOM     57  F9  UNL A   1      22.982  12.117   7.373  1.00  0.00    +0.000 F 
ATOM     58  C40 UNL A   1      23.279   9.819   6.895  1.00  0.00    +0.000 C 
ATOM     59  F10 UNL A   1      24.056   9.709   7.983  1.00  0.00    +0.000 F 
ENDBRANCH   48   49
BRANCH   63   64
ATOM     65  C45 UNL A   1      19.255   3.076   9.406  1.00  0.00    +0.000 C 
ATOM     66  F11 UNL A   1      19.266   2.788   8.095  1.00  0.00    +0.000 F 
ATOM     67  C46 UNL A   1      18.067   2.932  10.119  1.00  0.00    +0.000 C 
ATOM     68  F12 UNL A   1      16.959   2.516   9.492  1.00  0.00    +0.000 F 
ATOM     69  C47 UNL A   1      18.027   3.231  11.472  1.00  0.00    +0.000 C 
ATOM     70  F13 UNL A   1      16.887   3.086  12.160  1.00  0.00    +0.000 F 
ATOM     71  C48 UNL A   1      19.171   3.686  12.111  1.00  0.00    +0.000 C 
ATOM     72  F14 UNL A   1      19.141   3.960  13.422  1.00  0.00    +0.000 F 
ATOM     73  C49 UNL A   1      20.352   3.856  11.393  1.00  0.00    +0.000 C 
ATOM     74  F15 UNL A   1      21.441   4.307  12.034  1.00  0.00    +0.000 F 
ATOM     64  C44 UNL A   1      20.420   3.549  10.026  1.00  0.00    +0.000 C 
ENDBRANCH   63   64
TORSDOF 23
ENDMDL
MODEL 5
REMARK VINA RESULT:      -7.0      4.636     11.054
ROOT
ATOM    129  H26 UNL A   1      59.600  23.497   8.999  1.00  0.00    +0.000 H 
ATOM    130  H27 UNL A   1      59.985  24.308  11.374  1.00  0.00    +0.000 H 
ATOM    131  H28 UNL A   1      56.195  22.608  11.209  1.00  0.00    +0.000 H 
ATOM    132  H29 UNL A   1      55.762  20.659   6.591  1.00  0.00    +0.000 H 
ATOM    133  H30 UNL A   1      53.423  19.880   7.280  1.00  0.00    +0.000 H 
ATOM    134  H31 UNL A   1      54.958  23.242  16.622  1.00  0.00    +0.000 H 
ATOM    135  H32 UNL A   1      57.133  24.360  15.863  1.00  0.00    +0.000 H 
ATOM     27  C20 UNL A   1      57.809  23.817  13.150  1.00  0.00    +0.000 C 
ATOM     28  C21 UNL A   1      56.558  23.422  13.879  1.00  0.00    +0.000 C 
ATOM     29  N3  UNL A   1      55.519  22.756  13.441  1.00  0.00    +0.000 N 
ATOM     30  C22 UNL A   1      54.667  22.627  14.528  1.00  0.00    +0.000 C 
ATOM     31  C23 UNL A   1      53.435  22.066  14.571  1.00  0.00    +0.000 C 
ATOM     43  C30 UNL A   1      52.774  21.476  13.438  1.00  0.00    +0.000 C 
ATOM     44  C31 UNL A   1      51.499  20.943  13.364  1.00  0.00    +0.000 C 
ATOM     45  C32 UNL A   1      51.312  20.435  12.074  1.00  0.00    +0.000 C 
ATOM     46  C33 UNL A   1      52.452  20.694  11.330  1.00  0.00    +0.000 C 
ATOM     47  N4  UNL A   1      53.340  21.335  12.179  1.00  0.00    +0.000 N 
ATOM     48  C34 UNL A   1      52.718  20.371   9.951  1.00  0.00    +0.000 C 
ATOM     60  C41 UNL A   1      53.844  20.704   9.277  1.00  0.00    +0.000 C 
ATOM     61  N5  UNL A   1      54.958  21.399   9.729  1.00  0.00    +0.000 N 
ATOM     62  C42 UNL A   1      55.784  21.457   8.713  1.00  0.00    +0.000 C 
ATOM     63  C43 UNL A   1      57.138  22.106   8.628  1.00  0.00    +0.000 C 
ATOM     75  C50 UNL A   1      57.635  22.736   9.710  1.00  0.00    +0.000 C 
ATOM     76  C51 UNL A   1      58.936  23.391   9.783  1.00  0.00    +0.000 C 
ATOM     77  C52 UNL A   1      59.135  23.832  11.035  1.00  0.00    +0.000 C 
ATOM     78  C53 UNL A   1      57.951  23.533  11.841  1.00  0.00    +0.000 C 
ATOM     79  N6  UNL A   1      57.101  22.907  10.964  1.00  0.00    +0.000 N 
ATOM     80  C54 UNL A   1      55.294  20.783   7.503  1.00  0.00    +0.000 C 
ATOM     81  C55 UNL A   1      54.093  20.372   7.890  1.00  0.00    +0.000 C 
ATOM     82  C56 UNL A   1      55.329  23.241  15.660  1.00  0.00    +0.000 C 
ATOM     83  C57 UNL A   1      56.473  23.802  15.297  1.00  0.00    +0.000 C 
ATOM    126  H23 UNL A   1      50.806  20.924  14.129  1.00  0.00    +0.000 H 
ATOM    127  H24 UNL A   1      50.467  19.949  11.733  1.00  0.00    +0.000 H 
ATOM    128  H25 UNL A   1      54.239  21.646  11.926  1.00  0.00    +0.000 H 
ENDROOT
BRANCH   27   26
ATOM    136  H33 UNL A   1      58.015  26.338  14.005  1.00  0.00    +0.000 H 
ATOM    137  H34 UNL A   1      59.827  27.385  15.227  1.00  0.00    +0.000 H 
ATOM     84  C58 UNL A   1      58.844  25.785  14.271  1.00  0.00    +0.000 C 
ATOM     85  C59 UNL A   1      59.866  26.378  15.006  1.00  0.00    +0.000 C 
ATOM     23  C16 UNL A   1      60.943  25.604  15.446  1.00  0.00    +0.000 C 
ATOM     24  C17 UNL A   1      61.076  24.277  15.029  1.00  0.00    +0.000 C 
ATOM     25  C18 UNL A   1      60.081  23.700  14.235  1.00  0.00    +0.000 C 
ATOM     26  C19 UNL A   1      58.937  24.438  13.888  1.00  0.00    +0.000 C 
ATOM    124  H21 UNL A   1      61.902  23.726  15.305  1.00  0.00    +0.000 H 
ATOM    125  H22 UNL A   1      60.188  22.730  13.901  1.00  0.00    +0.000 H 
BRANCH   23   21
ATOM     21  C15 UNL A   1      61.947  26.172  16.369  1.00  0.00    +0.000 C 
ATOM     22  O4  UNL A   1      63.142  26.031  16.139  1.00  0.00    +0.000 O 
BRANCH   21   20
ATOM    123  H20 UNL A   1      61.517  27.829  17.420  1.00  0.00    +0.000 H 
ATOM     20  N2  UNL A   1      61.526  26.846  17.490  1.00  0.00    +0.000 N 
BRANCH   20   19
ATOM    121  H18 UNL A   1      61.618  25.386  18.951  1.00  0.00    +0.000 H 
ATOM    122  H19 UNL A   1      61.301  27.025  19.526  1.00  0.00    +0.000 H 
ATOM     19  C14 UNL A   1      61.092  26.300  18.768  1.00  0.00    +0.000 C 
BRANCH   19   18
ATOM     18  C13 UNL A   1      59.592  26.017  18.787  1.00  0.00    +0.000 C 
ATOM    119  H16 UNL A   1      59.137  26.672  19.501  1.00  0.00    +0.000 H 
ATOM    120  H17 UNL A   1      59.236  26.178  17.791  1.00  0.00    +0.000 H 
BRANCH   18   17
ATOM     17  C12 UNL A   1      59.230  24.577  19.157  1.00  0.00    +0.000 C 
ATOM    117  H14 UNL A   1      60.055  24.155  19.692  1.00  0.00    +0.000 H 
ATOM    118  H15 UNL A   1      58.332  24.635  19.737  1.00  0.00    +0.000 H 
BRANCH   17   16
ATOM    115  H12 UNL A   1      57.975  23.186  18.154  1.00  0.00    +0.000 H 
ATOM    116  H13 UNL A   1      58.908  24.292  17.101  1.00  0.00    +0.000 H 
ATOM     16  C11 UNL A   1      58.915  23.663  17.967  1.00  0.00    +0.000 C 
BRANCH   16   15
ATOM    113  H10 UNL A   1      59.478  21.615  17.762  1.00  0.00    +0.000 H 
ATOM    114  H11 UNL A   1      60.355  22.750  16.712  1.00  0.00    +0.000 H 
ATOM     15  C10 UNL A   1      59.959  22.567  17.690  1.00  0.00    +0.000 C 
BRANCH   15   14
ATOM     14  C9  UNL A   1      61.140  22.589  18.666  1.00  0.00    +0.000 C 
ATOM    111  H8  UNL A   1      61.817  23.370  18.388  1.00  0.00    +0.000 H 
ATOM    112  H9  UNL A   1      60.778  22.762  19.657  1.00  0.00    +0.000 H 
BRANCH   14   13
ATOM     13  N1  UNL A   1      61.831  21.316  18.624  1.00  0.00    +0.000 N 
ATOM    110  H7  UNL A   1      62.743  21.383  18.258  1.00  0.00    +0.000 H 
BRANCH   13   11
ATOM     11  C8  UNL A   1      61.494  20.050  18.982  1.00  0.00    +0.000 C 
ATOM     12  O3  UNL A   1      62.026  19.149  18.329  1.00  0.00    +0.000 O 
BRANCH   11   10
ATOM     10  C7  UNL A   1      60.443  19.725  20.022  1.00  0.00    +0.000 C 
BRANCH   10    9
ATOM      9  C6  UNL A   1      60.757  19.252  21.252  1.00  0.00    +0.000 C 
ATOM    109  H6  UNL A   1      60.625  19.917  22.029  1.00  0.00    +0.000 H 
BRANCH    9    8
ATOM      5  C2  UNL A   1      62.047  15.360  22.522  1.00  0.00    +0.000 C 
ATOM    102  C73 UNL A   1      61.292  17.601  23.009  1.00  0.00    +0.000 C 
ATOM      6  C3  UNL A   1      62.075  15.663  21.160  1.00  0.00    +0.000 C 
ATOM    103  C74 UNL A   1      61.682  16.333  23.453  1.00  0.00    +0.000 C 
ATOM      7  C4  UNL A   1      61.703  16.944  20.728  1.00  0.00    +0.000 C 
ATOM      8  C5  UNL A   1      61.264  17.914  21.639  1.00  0.00    +0.000 C 
ATOM    107  H4  UNL A   1      62.366  14.949  20.476  1.00  0.00    +0.000 H 
ATOM    108  H5  UNL A   1      61.755  17.176  19.724  1.00  0.00    +0.000 H 
ATOM    149  H46 UNL A   1      61.021  18.319  23.698  1.00  0.00    +0.000 H 
ATOM    150  H47 UNL A   1      61.698  16.119  24.462  1.00  0.00    +0.000 H 
BRANCH    5    2
ATOM      2  S1  UNL A   1      62.510  13.736  23.082  1.00  0.00    +0.000 S 
ATOM      3  O1  UNL A   1      61.286  12.984  23.284  1.00  0.00    +0.000 O 
ATOM      4  O2  UNL A   1      63.456  13.929  24.164  1.00  0.00    +0.000 O 
BRANCH    2    1
ATOM      1  C1  UNL A   1      63.366  12.994  21.717  1.00  0.00    +0.000 C 
ATOM    106  H3  UNL A   1      63.367  11.931  21.832  1.00  0.00    +0.000 H 
ATOM    105  H2  UNL A   1      62.873  13.254  20.803  1.00  0.00    +0.000 H 
ATOM    104  H1  UNL A   1      64.375  13.350  21.692  1.00  0.00    +0.000 H 
ENDBRANCH    2    1
ENDBRANCH    5    2
ENDBRANCH    9    8
ENDBRANCH   10    9
BRANCH   10   86
ATOM    101  C72 UNL A   1      58.597  19.209  18.374  1.00  0.00    +0.000 C 
ATOM    138  H35 UNL A   1      58.414  20.972  21.216  1.00  0.00    +0.000 H 
ATOM    139  H36 UNL A   1      56.150  21.311  20.433  1.00  0.00    +0.000 H 
ATOM    140  H37 UNL A   1      55.472  20.421  18.286  1.00  0.00    +0.000 H 
ATOM    148  H45 UNL A   1      59.232  18.580  17.857  1.00  0.00    +0.000 H 
ATOM     86  C60 UNL A   1      59.025  19.786  19.577  1.00  0.00    +0.000 C 
ATOM     87  C61 UNL A   1      58.116  20.556  20.320  1.00  0.00    +0.000 C 
ATOM     88  C62 UNL A   1      56.818  20.768  19.863  1.00  0.00    +0.000 C 
ATOM     89  C63 UNL A   1      56.427  20.244  18.635  1.00  0.00    +0.000 C 
ATOM     90  C64 UNL A   1      57.314  19.476  17.862  1.00  0.00    +0.000 C 
BRANCH   90   91
ATOM     99  C70 UNL A   1      56.258  17.393  14.879  1.00  0.00    +0.000 C 
ATOM    100  C71 UNL A   1      56.514  17.778  16.198  1.00  0.00    +0.000 C 
ATOM    141  H38 UNL A   1      57.464  20.942  15.635  1.00  0.00    +0.000 H 
ATOM    142  H39 UNL A   1      57.045  20.277  13.343  1.00  0.00    +0.000 H 
ATOM    146  H43 UNL A   1      55.929  16.437  14.670  1.00  0.00    +0.000 H 
ATOM    147  H44 UNL A   1      56.369  17.101  16.964  1.00  0.00    +0.000 H 
ATOM     91  C65 UNL A   1      56.963  19.074  16.493  1.00  0.00    +0.000 C 
ATOM     92  C66 UNL A   1      57.144  19.982  15.432  1.00  0.00    +0.000 C 
ATOM     93  C67 UNL A   1      56.898  19.606  14.113  1.00  0.00    +0.000 C 
ATOM     94  C68 UNL A   1      56.453  18.311  13.846  1.00  0.00    +0.000 C 
BRANCH   94   95
ATOM     97  O5  UNL A   1      56.596  16.440  12.059  1.00  0.00    +0.000 O 
ATOM     98  O6  UNL A   1      54.867  18.259  11.770  1.00  0.00    +0.000 O 
ATOM     95  S2  UNL A   1      56.199  17.830  12.156  1.00  0.00    +0.000 S 
BRANCH   95   96
ATOM    145  H42 UNL A   1      56.884  19.696  10.888  1.00  0.00    +0.000 H 
ATOM    144  H41 UNL A   1      58.171  19.098  11.909  1.00  0.00    +0.000 H 
ATOM    143  H40 UNL A   1      57.757  18.251  10.437  1.00  0.00    +0.000 H 
ATOM     96  C69 UNL A   1      57.369  18.816  11.258  1.00  0.00    +0.000 C 
ENDBRANCH   95   96
ENDBRANCH   94   95
ENDBRANCH   90   91
ENDBRANCH   10   86
ENDBRANCH   11   10
ENDBRANCH   13   11
ENDBRANCH   14   13
ENDBRANCH   15   14
ENDBRANCH   16   15
ENDBRANCH   17   16
ENDBRANCH   18   17
ENDBRANCH   19   18
ENDBRANCH   20   19
ENDBRANCH   21   20
ENDBRANCH   23   21
ENDBRANCH   27   26
BRANCH   31   32
ATOM     33  C25 UNL A   1      53.030  21.128  16.892  1.00  0.00    +0.000 C 
ATOM     34  F1  UNL A   1      53.951  20.177  16.666  1.00  0.00    +0.000 F 
ATOM     35  C26 UNL A   1      52.368  21.142  18.116  1.00  0.00    +0.000 C 
ATOM     36  F2  UNL A   1      52.647  20.211  19.038  1.00  0.00    +0.000 F 
ATOM     37  C27 UNL A   1      51.411  22.110  18.378  1.00  0.00    +0.000 C 
ATOM     38  F3  UNL A   1      50.779  22.127  19.560  1.00  0.00    +0.000 F 
ATOM     39  C28 UNL A   1      51.104  23.057  17.413  1.00  0.00    +0.000 C 
ATOM     40  F4  UNL A   1      50.189  24.001  17.669  1.00  0.00    +0.000 F 
ATOM     41  C29 UNL A   1      51.744  23.027  16.176  1.00  0.00    +0.000 C 
ATOM     42  F5  UNL A   1      51.414  23.948  15.257  1.00  0.00    +0.000 F 
ATOM     32  C24 UNL A   1      52.721  22.062  15.891  1.00  0.00    +0.000 C 
ENDBRANCH   31   32
BRANCH   48   49
ATOM     49  C35 UNL A   1      51.658  19.624   9.196  1.00  0.00    +0.000 C 
ATOM     50  C36 UNL A   1      50.604  20.295   8.558  1.00  0.00    +0.000 C 
ATOM     51  F6  UNL A   1      50.484  21.625   8.671  1.00  0.00    +0.000 F 
ATOM     52  C37 UNL A   1      49.651  19.593   7.825  1.00  0.00    +0.000 C 
ATOM     53  F7  UNL A   1      48.631  20.248   7.255  1.00  0.00    +0.000 F 
ATOM     54  C38 UNL A   1      49.750  18.216   7.691  1.00  0.00    +0.000 C 
ATOM     55  F8  UNL A   1      48.838  17.544   6.974  1.00  0.00    +0.000 F 
ATOM     56  C39 UNL A   1      50.790  17.534   8.306  1.00  0.00    +0.000 C 
ATOM     57  F9  UNL A   1      50.894  16.205   8.167  1.00  0.00    +0.000 F 
ATOM     58  C40 UNL A   1      51.728  18.229   9.062  1.00  0.00    +0.000 C 
ATOM     59  F10 UNL A   1      52.720  17.543   9.649  1.00  0.00    +0.000 F 
ENDBRANCH   48   49
BRANCH   63   64
ATOM     65  C45 UNL A   1      57.753  23.056   6.387  1.00  0.00    +0.000 C 
ATOM     66  F11 UNL A   1      56.856  24.035   6.575  1.00  0.00    +0.000 F 
ATOM     67  C46 UNL A   1      58.474  23.021   5.196  1.00  0.00    +0.000 C 
ATOM     68  F12 UNL A   1      58.263  23.955   4.259  1.00  0.00    +0.000 F 
ATOM     69  C47 UNL A   1      59.401  22.014   4.973  1.00  0.00    +0.000 C 
ATOM     70  F13 UNL A   1      60.100  21.984   3.831  1.00  0.00    +0.000 F 
ATOM     71  C48 UNL A   1      59.599  21.034   5.935  1.00  0.00    +0.000 C 
ATOM     72  F14 UNL A   1      60.505  20.069   5.731  1.00  0.00    +0.000 F 
ATOM     73  C49 UNL A   1      58.858  21.053   7.114  1.00  0.00    +0.000 C 
ATOM     74  F15 UNL A   1      59.062  20.087   8.023  1.00  0.00    +0.000 F 
ATOM     64  C44 UNL A   1      57.923  22.068   7.367  1.00  0.00    +0.000 C 
ENDBRANCH   63   64
TORSDOF 23
ENDMDL
MODEL 6
REMARK VINA RESULT:      -6.9     48.618     52.891
ROOT
ATOM    129  H26 UNL A   1      17.624  51.030  -2.475  1.00  0.00    +0.000 H 
ATOM    130  H27 UNL A   1      17.853  53.558  -2.419  1.00  0.00    +0.000 H 
ATOM    131  H28 UNL A   1      16.055  52.364   1.133  1.00  0.00    +0.000 H 
ATOM    132  H29 UNL A   1      16.082  47.333   1.064  1.00  0.00    +0.000 H 
ATOM    133  H30 UNL A   1      14.951  47.424   3.360  1.00  0.00    +0.000 H 
ATOM    134  H31 UNL A   1      15.758  57.438   3.457  1.00  0.00    +0.000 H 
ATOM    135  H32 UNL A   1      16.537  57.399   1.017  1.00  0.00    +0.000 H 
ATOM     27  C20 UNL A   1      16.870  54.774  -0.034  1.00  0.00    +0.000 C 
ATOM     28  C21 UNL A   1      16.321  55.160   1.309  1.00  0.00    +0.000 C 
ATOM     29  N3  UNL A   1      15.880  54.394   2.275  1.00  0.00    +0.000 N 
ATOM     30  C22 UNL A   1      15.529  55.253   3.307  1.00  0.00    +0.000 C 
ATOM     31  C23 UNL A   1      14.969  54.950   4.502  1.00  0.00    +0.000 C 
ATOM     43  C30 UNL A   1      14.630  53.617   4.922  1.00  0.00    +0.000 C 
ATOM     44  C31 UNL A   1      13.996  53.213   6.085  1.00  0.00    +0.000 C 
ATOM     45  C32 UNL A   1      13.932  51.815   6.084  1.00  0.00    +0.000 C 
ATOM     46  C33 UNL A   1      14.481  51.350   4.900  1.00  0.00    +0.000 C 
ATOM     47  N4  UNL A   1      14.904  52.467   4.196  1.00  0.00    +0.000 N 
ATOM     48  C34 UNL A   1      14.622  49.989   4.449  1.00  0.00    +0.000 C 
ATOM     60  C41 UNL A   1      15.127  49.616   3.249  1.00  0.00    +0.000 C 
ATOM     61  N5  UNL A   1      15.609  50.412   2.219  1.00  0.00    +0.000 N 
ATOM     62  C42 UNL A   1      15.998  49.588   1.278  1.00  0.00    +0.000 C 
ATOM     63  C43 UNL A   1      16.587  49.900  -0.071  1.00  0.00    +0.000 C 
ATOM     75  C50 UNL A   1      16.767  51.186  -0.429  1.00  0.00    +0.000 C 
ATOM     76  C51 UNL A   1      17.343  51.639  -1.690  1.00  0.00    +0.000 C 
ATOM     77  C52 UNL A   1      17.452  52.977  -1.667  1.00  0.00    +0.000 C 
ATOM     78  C53 UNL A   1      16.907  53.479  -0.404  1.00  0.00    +0.000 C 
ATOM     79  N6  UNL A   1      16.498  52.347   0.255  1.00  0.00    +0.000 N 
ATOM     80  C54 UNL A   1      15.826  48.168   1.614  1.00  0.00    +0.000 C 
ATOM     81  C55 UNL A   1      15.259  48.242   2.811  1.00  0.00    +0.000 C 
ATOM     82  C56 UNL A   1      15.854  56.595   2.870  1.00  0.00    +0.000 C 
ATOM     83  C57 UNL A   1      16.287  56.597   1.618  1.00  0.00    +0.000 C 
ATOM    126  H23 UNL A   1      13.635  53.835   6.824  1.00  0.00    +0.000 H 
ATOM    127  H24 UNL A   1      13.541  51.229   6.839  1.00  0.00    +0.000 H 
ATOM    128  H25 UNL A   1      15.333  52.447   3.310  1.00  0.00    +0.000 H 
ENDROOT
BRANCH   27   26
ATOM    136  H33 UNL A   1      19.388  55.662  -0.050  1.00  0.00    +0.000 H 
ATOM    137  H34 UNL A   1      20.402  57.327  -1.491  1.00  0.00    +0.000 H 
ATOM     84  C58 UNL A   1      18.826  56.120  -0.785  1.00  0.00    +0.000 C 
ATOM     85  C59 UNL A   1      19.419  57.046  -1.636  1.00  0.00    +0.000 C 
ATOM     23  C16 UNL A   1      18.681  57.592  -2.690  1.00  0.00    +0.000 C 
ATOM     24  C17 UNL A   1      17.314  57.329  -2.805  1.00  0.00    +0.000 C 
ATOM     25  C18 UNL A   1      16.703  56.449  -1.909  1.00  0.00    +0.000 C 
ATOM     26  C19 UNL A   1      17.464  55.804  -0.920  1.00  0.00    +0.000 C 
ATOM    124  H21 UNL A   1      16.759  57.781  -3.547  1.00  0.00    +0.000 H 
ATOM    125  H22 UNL A   1      15.688  56.273  -1.973  1.00  0.00    +0.000 H 
BRANCH   23   21
ATOM     21  C15 UNL A   1      19.339  58.443  -3.704  1.00  0.00    +0.000 C 
ATOM     22  O4  UNL A   1      18.775  58.678  -4.766  1.00  0.00    +0.000 O 
BRANCH   21   20
ATOM    123  H20 UNL A   1      21.346  58.387  -3.727  1.00  0.00    +0.000 H 
ATOM     20  N2  UNL A   1      20.589  58.952  -3.448  1.00  0.00    +0.000 N 
BRANCH   20   19
ATOM    121  H18 UNL A   1      20.047  60.771  -2.628  1.00  0.00    +0.000 H 
ATOM    122  H19 UNL A   1      21.464  60.000  -1.911  1.00  0.00    +0.000 H 
ATOM     19  C14 UNL A   1      20.943  60.217  -2.819  1.00  0.00    +0.000 C 
BRANCH   19   18
ATOM     18  C13 UNL A   1      21.861  61.056  -3.703  1.00  0.00    +0.000 C 
ATOM    119  H16 UNL A   1      22.579  60.403  -4.155  1.00  0.00    +0.000 H 
ATOM    120  H17 UNL A   1      21.236  61.545  -4.419  1.00  0.00    +0.000 H 
BRANCH   18   17
ATOM     17  C12 UNL A   1      22.618  62.156  -2.955  1.00  0.00    +0.000 C 
ATOM    117  H14 UNL A   1      23.551  61.750  -2.622  1.00  0.00    +0.000 H 
ATOM    118  H15 UNL A   1      22.731  62.965  -3.647  1.00  0.00    +0.000 H 
BRANCH   17   16
ATOM    115  H12 UNL A   1      21.077  63.335  -2.090  1.00  0.00    +0.000 H 
ATOM    116  H13 UNL A   1      21.569  61.890  -1.155  1.00  0.00    +0.000 H 
ATOM     16  C11 UNL A   1      21.887  62.731  -1.736  1.00  0.00    +0.000 C 
BRANCH   16   15
ATOM    113  H10 UNL A   1      22.109  64.255  -0.260  1.00  0.00    +0.000 H 
ATOM    114  H11 UNL A   1      23.282  62.924  -0.156  1.00  0.00    +0.000 H 
ATOM     15  C10 UNL A   1      22.751  63.594  -0.802  1.00  0.00    +0.000 C 
BRANCH   15   14
ATOM     14  C9  UNL A   1      23.800  64.432  -1.540  1.00  0.00    +0.000 C 
ATOM    111  H8  UNL A   1      24.254  63.840  -2.307  1.00  0.00    +0.000 H 
ATOM    112  H9  UNL A   1      23.326  65.285  -1.978  1.00  0.00    +0.000 H 
BRANCH   14   13
ATOM     13  N1  UNL A   1      24.817  64.875  -0.607  1.00  0.00    +0.000 N 
ATOM    110  H7  UNL A   1      24.606  65.742  -0.190  1.00  0.00    +0.000 H 
BRANCH   13   11
ATOM     11  C8  UNL A   1      25.997  64.354  -0.185  1.00  0.00    +0.000 C 
ATOM     12  O3  UNL A   1      26.931  64.423  -0.988  1.00  0.00    +0.000 O 
BRANCH   11   10
ATOM     10  C7  UNL A   1      26.166  63.615   1.125  1.00  0.00    +0.000 C 
BRANCH   10    9
ATOM      9  C6  UNL A   1      27.116  63.946   2.032  1.00  0.00    +0.000 C 
ATOM    109  H6  UNL A   1      26.795  64.535   2.814  1.00  0.00    +0.000 H 
BRANCH    9    8
ATOM      5  C2  UNL A   1      31.253  62.842   2.331  1.00  0.00    +0.000 C 
ATOM    102  C73 UNL A   1      29.319  64.038   3.143  1.00  0.00    +0.000 C 
ATOM      6  C3  UNL A   1      30.526  62.418   1.218  1.00  0.00    +0.000 C 
ATOM    103  C74 UNL A   1      30.663  63.674   3.283  1.00  0.00    +0.000 C 
ATOM      7  C4  UNL A   1      29.187  62.807   1.076  1.00  0.00    +0.000 C 
ATOM      8  C5  UNL A   1      28.553  63.582   2.057  1.00  0.00    +0.000 C 
ATOM    107  H4  UNL A   1      30.971  61.821   0.505  1.00  0.00    +0.000 H 
ATOM    108  H5  UNL A   1      28.661  62.519   0.237  1.00  0.00    +0.000 H 
ATOM    149  H46 UNL A   1      28.884  64.652   3.848  1.00  0.00    +0.000 H 
ATOM    150  H47 UNL A   1      31.213  64.018   4.086  1.00  0.00    +0.000 H 
BRANCH    5    2
ATOM      2  S1  UNL A   1      32.952  62.350   2.525  1.00  0.00    +0.000 S 
ATOM      3  O1  UNL A   1      32.970  60.905   2.661  1.00  0.00    +0.000 O 
ATOM      4  O2  UNL A   1      33.512  63.204   3.554  1.00  0.00    +0.000 O 
BRANCH    2    1
ATOM      1  C1  UNL A   1      33.735  62.744   0.984  1.00  0.00    +0.000 C 
ATOM    106  H3  UNL A   1      34.493  62.019   0.772  1.00  0.00    +0.000 H 
ATOM    105  H2  UNL A   1      33.006  62.739   0.201  1.00  0.00    +0.000 H 
ATOM    104  H1  UNL A   1      34.181  63.715   1.048  1.00  0.00    +0.000 H 
ENDBRANCH    2    1
ENDBRANCH    5    2
ENDBRANCH    9    8
ENDBRANCH   10    9
BRANCH   10   86
ATOM    101  C72 UNL A   1      25.347  61.345   0.370  1.00  0.00    +0.000 C 
ATOM    138  H35 UNL A   1      24.447  63.080   3.089  1.00  0.00    +0.000 H 
ATOM    139  H36 UNL A   1      22.915  61.222   3.321  1.00  0.00    +0.000 H 
ATOM    140  H37 UNL A   1      22.839  59.504   1.618  1.00  0.00    +0.000 H 
ATOM    148  H45 UNL A   1      26.054  61.339  -0.383  1.00  0.00    +0.000 H 
ATOM     86  C60 UNL A   1      25.346  62.387   1.307  1.00  0.00    +0.000 C 
ATOM     87  C61 UNL A   1      24.446  62.328   2.383  1.00  0.00    +0.000 C 
ATOM     88  C62 UNL A   1      23.551  61.269   2.509  1.00  0.00    +0.000 C 
ATOM     89  C63 UNL A   1      23.519  60.276   1.536  1.00  0.00    +0.000 C 
ATOM     90  C64 UNL A   1      24.399  60.309   0.441  1.00  0.00    +0.000 C 
BRANCH   90   91
ATOM     99  C70 UNL A   1      24.643  58.713  -2.986  1.00  0.00    +0.000 C 
ATOM    100  C71 UNL A   1      24.861  59.584  -1.916  1.00  0.00    +0.000 C 
ATOM    141  H38 UNL A   1      22.964  58.058   0.387  1.00  0.00    +0.000 H 
ATOM    142  H39 UNL A   1      22.562  56.553  -1.470  1.00  0.00    +0.000 H 
ATOM    146  H43 UNL A   1      25.096  58.883  -3.897  1.00  0.00    +0.000 H 
ATOM    147  H44 UNL A   1      25.481  60.400  -2.041  1.00  0.00    +0.000 H 
ATOM     91  C65 UNL A   1      24.248  59.363  -0.673  1.00  0.00    +0.000 C 
ATOM     92  C66 UNL A   1      23.413  58.239  -0.525  1.00  0.00    +0.000 C 
ATOM     93  C67 UNL A   1      23.184  57.367  -1.588  1.00  0.00    +0.000 C 
ATOM     94  C68 UNL A   1      23.805  57.610  -2.813  1.00  0.00    +0.000 C 
BRANCH   94   95
ATOM     97  O5  UNL A   1      24.640  55.706  -4.359  1.00  0.00    +0.000 O 
ATOM     98  O6  UNL A   1      22.160  55.918  -3.935  1.00  0.00    +0.000 O 
ATOM     95  S2  UNL A   1      23.458  56.522  -4.173  1.00  0.00    +0.000 S 
BRANCH   95   96
ATOM    145  H42 UNL A   1      22.271  57.861  -5.706  1.00  0.00    +0.000 H 
ATOM    144  H41 UNL A   1      23.856  58.514  -5.368  1.00  0.00    +0.000 H 
ATOM    143  H40 UNL A   1      23.685  57.141  -6.436  1.00  0.00    +0.000 H 
ATOM     96  C69 UNL A   1      23.302  57.618  -5.558  1.00  0.00    +0.000 C 
ENDBRANCH   95   96
ENDBRANCH   94   95
ENDBRANCH   90   91
ENDBRANCH   10   86
ENDBRANCH   11   10
ENDBRANCH   13   11
ENDBRANCH   14   13
ENDBRANCH   15   14
ENDBRANCH   16   15
ENDBRANCH   17   16
ENDBRANCH   18   17
ENDBRANCH   19   18
ENDBRANCH   20   19
ENDBRANCH   21   20
ENDBRANCH   23   21
ENDBRANCH   27   26
BRANCH   31   32
ATOM     33  C25 UNL A   1      15.693  56.633   6.255  1.00  0.00    +0.000 C 
ATOM     34  F1  UNL A   1      16.931  56.116   6.237  1.00  0.00    +0.000 F 
ATOM     35  C26 UNL A   1      15.421  57.693   7.115  1.00  0.00    +0.000 C 
ATOM     36  F2  UNL A   1      16.386  58.170   7.914  1.00  0.00    +0.000 F 
ATOM     37  C27 UNL A   1      14.151  58.247   7.157  1.00  0.00    +0.000 C 
ATOM     38  F3  UNL A   1      13.892  59.272   7.982  1.00  0.00    +0.000 F 
ATOM     39  C28 UNL A   1      13.147  57.735   6.350  1.00  0.00    +0.000 C 
ATOM     40  F4  UNL A   1      11.922  58.278   6.380  1.00  0.00    +0.000 F 
ATOM     41  C29 UNL A   1      13.408  56.657   5.509  1.00  0.00    +0.000 C 
ATOM     42  F5  UNL A   1      12.411  56.174   4.751  1.00  0.00    +0.000 F 
ATOM     32  C24 UNL A   1      14.688  56.084   5.444  1.00  0.00    +0.000 C 
ENDBRANCH   31   32
BRANCH   48   49
ATOM     49  C35 UNL A   1      14.156  48.900   5.369  1.00  0.00    +0.000 C 
ATOM     50  C36 UNL A   1      14.986  48.391   6.379  1.00  0.00    +0.000 C 
ATOM     51  F6  UNL A   1      16.249  48.823   6.496  1.00  0.00    +0.000 F 
ATOM     52  C37 UNL A   1      14.526  47.410   7.253  1.00  0.00    +0.000 C 
ATOM     53  F7  UNL A   1      15.347  46.909   8.187  1.00  0.00    +0.000 F 
ATOM     54  C38 UNL A   1      13.224  46.943   7.155  1.00  0.00    +0.000 C 
ATOM     55  F8  UNL A   1      12.780  46.008   8.007  1.00  0.00    +0.000 F 
ATOM     56  C39 UNL A   1      12.383  47.440   6.171  1.00  0.00    +0.000 C 
ATOM     57  F9  UNL A   1      11.121  47.000   6.083  1.00  0.00    +0.000 F 
ATOM     58  C40 UNL A   1      12.848  48.401   5.278  1.00  0.00    +0.000 C 
ATOM     59  F10 UNL A   1      12.014  48.860   4.332  1.00  0.00    +0.000 F 
ENDBRANCH   48   49
BRANCH   63   64
ATOM     65  C45 UNL A   1      16.022  48.292  -1.915  1.00  0.00    +0.000 C 
ATOM     66  F11 UNL A   1      14.767  48.766  -1.920  1.00  0.00    +0.000 F 
ATOM     67  C46 UNL A   1      16.358  47.261  -2.789  1.00  0.00    +0.000 C 
ATOM     68  F12 UNL A   1      15.431  46.757  -3.615  1.00  0.00    +0.000 F 
ATOM     69  C47 UNL A   1      17.646  46.747  -2.797  1.00  0.00    +0.000 C 
ATOM     70  F13 UNL A   1      17.971  45.761  -3.642  1.00  0.00    +0.000 F 
ATOM     71  C48 UNL A   1      18.595  47.255  -1.922  1.00  0.00    +0.000 C 
ATOM     72  F14 UNL A   1      19.845  46.773  -1.938  1.00  0.00    +0.000 F 
ATOM     73  C49 UNL A   1      18.252  48.267  -1.028  1.00  0.00    +0.000 C 
ATOM     74  F15 UNL A   1      19.188  48.732  -0.187  1.00  0.00    +0.000 F 
ATOM     64  C44 UNL A   1      16.960  48.810  -1.010  1.00  0.00    +0.000 C 
ENDBRANCH   63   64
TORSDOF 23
ENDMDL
MODEL 7
REMARK VINA RESULT:      -6.7     45.167     50.791
ROOT
ATOM    129  H26 UNL A   1      14.647  27.624  -9.479  1.00  0.00    +0.000 H 
ATOM    130  H27 UNL A   1      13.058  27.158  -7.554  1.00  0.00    +0.000 H 
ATOM    131  H28 UNL A   1      12.228  30.968  -8.994  1.00  0.00    +0.000 H 
ATOM    132  H29 UNL A   1      15.129  31.563 -13.060  1.00  0.00    +0.000 H 
ATOM    133  H30 UNL A   1      14.086  33.888 -13.306  1.00  0.00    +0.000 H 
ATOM    134  H31 UNL A   1       7.925  32.032  -5.590  1.00  0.00    +0.000 H 
ATOM    135  H32 UNL A   1       9.203  29.870  -5.089  1.00  0.00    +0.000 H 
ATOM     27  C20 UNL A   1      11.242  29.283  -6.988  1.00  0.00    +0.000 C 
ATOM     28  C21 UNL A   1      10.389  30.516  -6.912  1.00  0.00    +0.000 C 
ATOM     29  N3  UNL A   1      10.391  31.573  -7.683  1.00  0.00    +0.000 N 
ATOM     30  C22 UNL A   1       9.380  32.393  -7.202  1.00  0.00    +0.000 C 
ATOM     31  C23 UNL A   1       9.024  33.629  -7.627  1.00  0.00    +0.000 C 
ATOM     43  C30 UNL A   1       9.665  34.330  -8.706  1.00  0.00    +0.000 C 
ATOM     44  C31 UNL A   1       9.423  35.613  -9.167  1.00  0.00    +0.000 C 
ATOM     45  C32 UNL A   1      10.251  35.844 -10.271  1.00  0.00    +0.000 C 
ATOM     46  C33 UNL A   1      11.044  34.725 -10.468  1.00  0.00    +0.000 C 
ATOM     47  N4  UNL A   1      10.676  33.805  -9.499  1.00  0.00    +0.000 N 
ATOM     48  C34 UNL A   1      12.054  34.505 -11.472  1.00  0.00    +0.000 C 
ATOM     60  C41 UNL A   1      12.826  33.397 -11.569  1.00  0.00    +0.000 C 
ATOM     61  N5  UNL A   1      12.829  32.263 -10.768  1.00  0.00    +0.000 N 
ATOM     62  C42 UNL A   1      13.741  31.468 -11.271  1.00  0.00    +0.000 C 
ATOM     63  C43 UNL A   1      14.182  30.110 -10.797  1.00  0.00    +0.000 C 
ATOM     75  C50 UNL A   1      13.602  29.574  -9.706  1.00  0.00    +0.000 C 
ATOM     76  C51 UNL A   1      13.910  28.264  -9.142  1.00  0.00    +0.000 C 
ATOM     77  C52 UNL A   1      13.079  28.023  -8.115  1.00  0.00    +0.000 C 
ATOM     78  C53 UNL A   1      12.211  29.185  -7.919  1.00  0.00    +0.000 C 
ATOM     79  N6  UNL A   1      12.612  30.067  -8.890  1.00  0.00    +0.000 N 
ATOM     80  C54 UNL A   1      14.408  32.001 -12.467  1.00  0.00    +0.000 C 
ATOM     81  C55 UNL A   1      13.839  33.194 -12.584  1.00  0.00    +0.000 C 
ATOM     82  C56 UNL A   1       8.752  31.691  -6.104  1.00  0.00    +0.000 C 
ATOM     83  C57 UNL A   1       9.379  30.553  -5.844  1.00  0.00    +0.000 C 
ATOM    126  H23 UNL A   1       8.747  36.282  -8.767  1.00  0.00    +0.000 H 
ATOM    127  H24 UNL A   1      10.269  36.704 -10.842  1.00  0.00    +0.000 H 
ATOM    128  H25 UNL A   1      11.072  32.911  -9.389  1.00  0.00    +0.000 H 
ENDROOT
BRANCH   27   26
ATOM    136  H33 UNL A   1      12.813  28.265  -5.083  1.00  0.00    +0.000 H 
ATOM    137  H34 UNL A   1      12.388  26.394  -3.603  1.00  0.00    +0.000 H 
ATOM     84  C58 UNL A   1      11.917  27.757  -5.139  1.00  0.00    +0.000 C 
ATOM     85  C59 UNL A   1      11.659  26.708  -4.263  1.00  0.00    +0.000 C 
ATOM     23  C16 UNL A   1      10.409  26.083  -4.278  1.00  0.00    +0.000 C 
ATOM     24  C17 UNL A   1       9.470  26.403  -5.262  1.00  0.00    +0.000 C 
ATOM     25  C18 UNL A   1       9.756  27.413  -6.184  1.00  0.00    +0.000 C 
ATOM     26  C19 UNL A   1      10.963  28.127  -6.101  1.00  0.00    +0.000 C 
ATOM    124  H21 UNL A   1       8.573  25.898  -5.307  1.00  0.00    +0.000 H 
ATOM    125  H22 UNL A   1       9.078  27.634  -6.930  1.00  0.00    +0.000 H 
BRANCH   23   21
ATOM     21  C15 UNL A   1      10.057  25.087  -3.244  1.00  0.00    +0.000 C 
ATOM     22  O4  UNL A   1      10.144  23.890  -3.491  1.00  0.00    +0.000 O 
BRANCH   21   20
ATOM    123  H20 UNL A   1       8.814  25.070  -1.666  1.00  0.00    +0.000 H 
ATOM     20  N2  UNL A   1       9.620  25.517  -2.014  1.00  0.00    +0.000 N 
BRANCH   20   19
ATOM    121  H18 UNL A   1      10.033  26.272  -0.134  1.00  0.00    +0.000 H 
ATOM    122  H19 UNL A   1      11.235  26.619  -1.380  1.00  0.00    +0.000 H 
ATOM     19  C14 UNL A   1      10.192  26.546  -1.157  1.00  0.00    +0.000 C 
BRANCH   19   18
ATOM     18  C13 UNL A   1       9.559  27.912  -1.405  1.00  0.00    +0.000 C 
ATOM    119  H16 UNL A   1       8.966  27.850  -2.295  1.00  0.00    +0.000 H 
ATOM    120  H17 UNL A   1       8.980  28.145  -0.536  1.00  0.00    +0.000 H 
BRANCH   18   17
ATOM     17  C12 UNL A   1      10.568  29.049  -1.581  1.00  0.00    +0.000 C 
ATOM    117  H14 UNL A   1      10.601  29.306  -2.619  1.00  0.00    +0.000 H 
ATOM    118  H15 UNL A   1      10.228  29.849  -0.956  1.00  0.00    +0.000 H 
BRANCH   17   16
ATOM    115  H12 UNL A   1      12.115  29.086  -0.124  1.00  0.00    +0.000 H 
ATOM    116  H13 UNL A   1      12.100  27.661  -1.207  1.00  0.00    +0.000 H 
ATOM     16  C11 UNL A   1      11.995  28.723  -1.124  1.00  0.00    +0.000 C 
BRANCH   16   15
ATOM    113  H10 UNL A   1      13.412  28.606  -2.715  1.00  0.00    +0.000 H 
ATOM    114  H11 UNL A   1      12.715  30.218  -2.439  1.00  0.00    +0.000 H 
ATOM     15  C10 UNL A   1      13.113  29.331  -1.988  1.00  0.00    +0.000 C 
BRANCH   15   14
ATOM     14  C9  UNL A   1      14.348  29.750  -1.184  1.00  0.00    +0.000 C 
ATOM    111  H8  UNL A   1      14.879  28.877  -0.866  1.00  0.00    +0.000 H 
ATOM    112  H9  UNL A   1      14.982  30.353  -1.799  1.00  0.00    +0.000 H 
BRANCH   14   13
ATOM     13  N1  UNL A   1      13.939  30.515  -0.023  1.00  0.00    +0.000 N 
ATOM    110  H7  UNL A   1      14.036  30.016   0.821  1.00  0.00    +0.000 H 
BRANCH   13   11
ATOM     11  C8  UNL A   1      13.451  31.770   0.153  1.00  0.00    +0.000 C 
ATOM     12  O3  UNL A   1      14.296  32.664   0.250  1.00  0.00    +0.000 O 
BRANCH   11   10
ATOM     10  C7  UNL A   1      11.982  32.078   0.349  1.00  0.00    +0.000 C 
BRANCH   10    9
ATOM      9  C6  UNL A   1      11.336  31.834   1.514  1.00  0.00    +0.000 C 
ATOM    109  H6  UNL A   1      11.271  32.635   2.160  1.00  0.00    +0.000 H 
BRANCH    9    8
ATOM      5  C2  UNL A   1       9.432  28.169   2.683  1.00  0.00    +0.000 C 
ATOM    102  C73 UNL A   1       9.379  30.331   1.610  1.00  0.00    +0.000 C 
ATOM      6  C3  UNL A   1      10.736  28.414   3.115  1.00  0.00    +0.000 C 
ATOM    103  C74 UNL A   1       8.739  29.135   1.953  1.00  0.00    +0.000 C 
ATOM      7  C4  UNL A   1      11.360  29.625   2.785  1.00  0.00    +0.000 C 
ATOM      8  C5  UNL A   1      10.709  30.579   1.992  1.00  0.00    +0.000 C 
ATOM    107  H4  UNL A   1      11.239  27.707   3.673  1.00  0.00    +0.000 H 
ATOM    108  H5  UNL A   1      12.312  29.817   3.132  1.00  0.00    +0.000 H 
ATOM    149  H46 UNL A   1       8.865  31.045   1.070  1.00  0.00    +0.000 H 
ATOM    150  H47 UNL A   1       7.762  28.968   1.667  1.00  0.00    +0.000 H 
BRANCH    5    2
ATOM      2  S1  UNL A   1       8.633  26.633   3.090  1.00  0.00    +0.000 S 
ATOM      3  O1  UNL A   1       8.769  25.757   1.941  1.00  0.00    +0.000 O 
ATOM      4  O2  UNL A   1       7.326  26.977   3.617  1.00  0.00    +0.000 O 
BRANCH    2    1
ATOM      1  C1  UNL A   1       9.599  25.933   4.403  1.00  0.00    +0.000 C 
ATOM    106  H3  UNL A   1      10.451  26.553   4.588  1.00  0.00    +0.000 H 
ATOM    105  H2  UNL A   1       9.003  25.870   5.290  1.00  0.00    +0.000 H 
ATOM    104  H1  UNL A   1       9.926  24.954   4.123  1.00  0.00    +0.000 H 
ENDBRANCH    2    1
ENDBRANCH    5    2
ENDBRANCH    9    8
ENDBRANCH   10    9
BRANCH   10   86
ATOM    101  C72 UNL A   1       9.831  32.644  -0.853  1.00  0.00    +0.000 C 
ATOM    138  H35 UNL A   1      12.944  32.571  -2.085  1.00  0.00    +0.000 H 
ATOM    139  H36 UNL A   1      11.752  33.039  -4.138  1.00  0.00    +0.000 H 
ATOM    140  H37 UNL A   1       9.334  33.135  -4.132  1.00  0.00    +0.000 H 
ATOM    148  H45 UNL A   1       9.320  32.614   0.044  1.00  0.00    +0.000 H 
ATOM     86  C60 UNL A   1      11.226  32.507  -0.858  1.00  0.00    +0.000 C 
ATOM     87  C61 UNL A   1      11.916  32.653  -2.072  1.00  0.00    +0.000 C 
ATOM     88  C62 UNL A   1      11.231  32.904  -3.257  1.00  0.00    +0.000 C 
ATOM     89  C63 UNL A   1       9.842  32.972  -3.248  1.00  0.00    +0.000 C 
ATOM     90  C64 UNL A   1       9.119  32.822  -2.053  1.00  0.00    +0.000 C 
BRANCH   90   91
ATOM     99  C70 UNL A   1       5.546  32.136  -0.997  1.00  0.00    +0.000 C 
ATOM    100  C71 UNL A   1       6.932  32.303  -0.939  1.00  0.00    +0.000 C 
ATOM    141  H38 UNL A   1       7.466  33.285  -4.098  1.00  0.00    +0.000 H 
ATOM    142  H39 UNL A   1       5.065  32.979  -4.215  1.00  0.00    +0.000 H 
ATOM    146  H43 UNL A   1       5.022  31.829  -0.162  1.00  0.00    +0.000 H 
ATOM    147  H44 UNL A   1       7.430  32.119  -0.054  1.00  0.00    +0.000 H 
ATOM     91  C65 UNL A   1       7.654  32.717  -2.068  1.00  0.00    +0.000 C 
ATOM     92  C66 UNL A   1       6.950  32.970  -3.262  1.00  0.00    +0.000 C 
ATOM     93  C67 UNL A   1       5.568  32.801  -3.332  1.00  0.00    +0.000 C 
ATOM     94  C68 UNL A   1       4.875  32.387  -2.195  1.00  0.00    +0.000 C 
BRANCH   94   95
ATOM     97  O5  UNL A   1       2.937  30.703  -2.547  1.00  0.00    +0.000 O 
ATOM     98  O6  UNL A   1       2.496  32.787  -1.190  1.00  0.00    +0.000 O 
ATOM     95  S2  UNL A   1       3.123  32.121  -2.317  1.00  0.00    +0.000 S 
BRANCH   95   96
ATOM    145  H42 UNL A   1       2.644  32.320  -4.616  1.00  0.00    +0.000 H 
ATOM    144  H41 UNL A   1       1.697  33.433  -3.659  1.00  0.00    +0.000 H 
ATOM    143  H40 UNL A   1       3.381  33.771  -3.981  1.00  0.00    +0.000 H 
ATOM     96  C69 UNL A   1       2.666  32.998  -3.789  1.00  0.00    +0.000 C 
ENDBRANCH   95   96
ENDBRANCH   94   95
ENDBRANCH   90   91
ENDBRANCH   10   86
ENDBRANCH   11   10
ENDBRANCH   13   11
ENDBRANCH   14   13
ENDBRANCH   15   14
ENDBRANCH   16   15
ENDBRANCH   17   16
ENDBRANCH   18   17
ENDBRANCH   19   18
ENDBRANCH   20   19
ENDBRANCH   21   20
ENDBRANCH   23   21
ENDBRANCH   27   26
BRANCH   31   32
ATOM     33  C25 UNL A   1       8.095  35.359  -6.024  1.00  0.00    +0.000 C 
ATOM     34  F1  UNL A   1       9.342  35.762  -5.738  1.00  0.00    +0.000 F 
ATOM     35  C26 UNL A   1       7.027  35.983  -5.385  1.00  0.00    +0.000 C 
ATOM     36  F2  UNL A   1       7.257  36.959  -4.495  1.00  0.00    +0.000 F 
ATOM     37  C27 UNL A   1       5.726  35.588  -5.659  1.00  0.00    +0.000 C 
ATOM     38  F3  UNL A   1       4.698  36.195  -5.048  1.00  0.00    +0.000 F 
ATOM     39  C28 UNL A   1       5.490  34.561  -6.559  1.00  0.00    +0.000 C 
ATOM     40  F4  UNL A   1       4.234  34.187  -6.834  1.00  0.00    +0.000 F 
ATOM     41  C29 UNL A   1       6.559  33.915  -7.178  1.00  0.00    +0.000 C 
ATOM     42  F5  UNL A   1       6.299  32.914  -8.033  1.00  0.00    +0.000 F 
ATOM     32  C24 UNL A   1       7.883  34.302  -6.922  1.00  0.00    +0.000 C 
ENDBRANCH   31   32
BRANCH   48   49
ATOM     49  C35 UNL A   1      12.283  35.595 -12.477  1.00  0.00    +0.000 C 
ATOM     50  C36 UNL A   1      11.614  35.606 -13.709  1.00  0.00    +0.000 C 
ATOM     51  F6  UNL A   1      10.800  34.594 -14.044  1.00  0.00    +0.000 F 
ATOM     52  C37 UNL A   1      11.804  36.645 -14.616  1.00  0.00    +0.000 C 
ATOM     53  F7  UNL A   1      11.183  36.618 -15.803  1.00  0.00    +0.000 F 
ATOM     54  C38 UNL A   1      12.640  37.704 -14.296  1.00  0.00    +0.000 C 
ATOM     55  F8  UNL A   1      12.812  38.710 -15.166  1.00  0.00    +0.000 F 
ATOM     56  C39 UNL A   1      13.304  37.718 -13.079  1.00  0.00    +0.000 C 
ATOM     57  F9  UNL A   1      14.103  38.747 -12.764  1.00  0.00    +0.000 F 
ATOM     58  C40 UNL A   1      13.138  36.667 -12.182  1.00  0.00    +0.000 C 
ATOM     59  F10 UNL A   1      13.798  36.706 -11.015  1.00  0.00    +0.000 F 
ENDBRANCH   48   49
BRANCH   63   64
ATOM     65  C45 UNL A   1      14.932  28.383 -12.457  1.00  0.00    +0.000 C 
ATOM     66  F11 UNL A   1      13.647  28.094 -12.712  1.00  0.00    +0.000 F 
ATOM     67  C46 UNL A   1      15.928  27.669 -13.120  1.00  0.00    +0.000 C 
ATOM     68  F12 UNL A   1      15.594  26.709 -13.991  1.00  0.00    +0.000 F 
ATOM     69  C47 UNL A   1      17.264  27.943 -12.868  1.00  0.00    +0.000 C 
ATOM     70  F13 UNL A   1      18.222  27.262 -13.510  1.00  0.00    +0.000 F 
ATOM     71  C48 UNL A   1      17.605  28.920 -11.945  1.00  0.00    +0.000 C 
ATOM     72  F14 UNL A   1      18.895  29.199 -11.711  1.00  0.00    +0.000 F 
ATOM     73  C49 UNL A   1      16.610  29.615 -11.262  1.00  0.00    +0.000 C 
ATOM     74  F15 UNL A   1      16.969  30.548 -10.368  1.00  0.00    +0.000 F 
ATOM     64  C44 UNL A   1      15.252  29.364 -11.509  1.00  0.00    +0.000 C 
ENDBRANCH   63   64
TORSDOF 23
ENDMDL
MODEL 8
REMARK VINA RESULT:      -6.6     28.203     34.697
ROOT
ATOM    129  H26 UNL A   1      22.197   5.050   8.226  1.00  0.00    +0.000 H 
ATOM    130  H27 UNL A   1      24.100   3.472   7.644  1.00  0.00    +0.000 H 
ATOM    131  H28 UNL A   1      24.243   6.671   4.993  1.00  0.00    +0.000 H 
ATOM    132  H29 UNL A   1      20.717   9.905   6.550  1.00  0.00    +0.000 H 
ATOM    133  H30 UNL A   1      21.426  11.414   4.607  1.00  0.00    +0.000 H 
ATOM    134  H31 UNL A   1      28.847   5.058   2.266  1.00  0.00    +0.000 H 
ATOM    135  H32 UNL A   1      27.926   3.362   3.951  1.00  0.00    +0.000 H 
ATOM     27  C20 UNL A   1      25.712   4.334   5.455  1.00  0.00    +0.000 C 
ATOM     28  C21 UNL A   1      26.413   5.013   4.314  1.00  0.00    +0.000 C 
ATOM     29  N3  UNL A   1      26.169   6.176   3.767  1.00  0.00    +0.000 N 
ATOM     30  C22 UNL A   1      27.134   6.342   2.784  1.00  0.00    +0.000 C 
ATOM     31  C23 UNL A   1      27.273   7.359   1.901  1.00  0.00    +0.000 C 
ATOM     43  C30 UNL A   1      26.398   8.499   1.836  1.00  0.00    +0.000 C 
ATOM     44  C31 UNL A   1      26.414   9.548   0.933  1.00  0.00    +0.000 C 
ATOM     45  C32 UNL A   1      25.408  10.451   1.296  1.00  0.00    +0.000 C 
ATOM     46  C33 UNL A   1      24.735   9.941   2.395  1.00  0.00    +0.000 C 
ATOM     47  N4  UNL A   1      25.351   8.742   2.714  1.00  0.00    +0.000 N 
ATOM     48  C34 UNL A   1      23.620  10.511   3.108  1.00  0.00    +0.000 C 
ATOM     60  C41 UNL A   1      22.981   9.924   4.148  1.00  0.00    +0.000 C 
ATOM     61  N5  UNL A   1      23.233   8.698   4.747  1.00  0.00    +0.000 N 
ATOM     62  C42 UNL A   1      22.358   8.582   5.716  1.00  0.00    +0.000 C 
ATOM     63  C43 UNL A   1      22.159   7.448   6.684  1.00  0.00    +0.000 C 
ATOM     75  C50 UNL A   1      22.955   6.365   6.601  1.00  0.00    +0.000 C 
ATOM     76  C51 UNL A   1      22.894   5.202   7.480  1.00  0.00    +0.000 C 
ATOM     77  C52 UNL A   1      23.892   4.361   7.163  1.00  0.00    +0.000 C 
ATOM     78  C53 UNL A   1      24.634   4.906   6.025  1.00  0.00    +0.000 C 
ATOM     79  N6  UNL A   1      23.989   6.084   5.742  1.00  0.00    +0.000 N 
ATOM     80  C54 UNL A   1      21.461   9.738   5.854  1.00  0.00    +0.000 C 
ATOM     81  C55 UNL A   1      21.860  10.510   4.852  1.00  0.00    +0.000 C 
ATOM     82  C56 UNL A   1      28.000   5.182   2.842  1.00  0.00    +0.000 C 
ATOM     83  C57 UNL A   1      27.559   4.302   3.729  1.00  0.00    +0.000 C 
ATOM    126  H23 UNL A   1      27.056   9.647   0.132  1.00  0.00    +0.000 H 
ATOM    127  H24 UNL A   1      25.203  11.346   0.825  1.00  0.00    +0.000 H 
ATOM    128  H25 UNL A   1      25.085   8.149   3.453  1.00  0.00    +0.000 H 
ENDROOT
BRANCH   27   26
ATOM    136  H33 UNL A   1      25.245   1.834   4.640  1.00  0.00    +0.000 H 
ATOM    137  H34 UNL A   1      26.127  -0.242   5.526  1.00  0.00    +0.000 H 
ATOM     84  C58 UNL A   1      25.904   1.851   5.434  1.00  0.00    +0.000 C 
ATOM     85  C59 UNL A   1      26.440   0.661   5.915  1.00  0.00    +0.000 C 
ATOM     23  C16 UNL A   1      27.404   0.694   6.926  1.00  0.00    +0.000 C 
ATOM     24  C17 UNL A   1      27.726   1.898   7.558  1.00  0.00    +0.000 C 
ATOM     25  C18 UNL A   1      27.137   3.086   7.117  1.00  0.00    +0.000 C 
ATOM     26  C19 UNL A   1      26.257   3.076   6.022  1.00  0.00    +0.000 C 
ATOM    124  H21 UNL A   1      28.393   1.911   8.343  1.00  0.00    +0.000 H 
ATOM    125  H22 UNL A   1      27.350   3.974   7.597  1.00  0.00    +0.000 H 
BRANCH   23   21
ATOM     21  C15 UNL A   1      28.108  -0.541   7.330  1.00  0.00    +0.000 C 
ATOM     22  O4  UNL A   1      29.232  -0.776   6.900  1.00  0.00    +0.000 O 
BRANCH   21   20
ATOM    123  H20 UNL A   1      27.670  -2.378   8.013  1.00  0.00    +0.000 H 
ATOM     20  N2  UNL A   1      27.487  -1.425   8.179  1.00  0.00    +0.000 N 
BRANCH   20   19
ATOM    121  H18 UNL A   1      25.939  -0.337   9.014  1.00  0.00    +0.000 H 
ATOM    122  H19 UNL A   1      26.043  -2.028   9.512  1.00  0.00    +0.000 H 
ATOM     19  C14 UNL A   1      26.593  -1.138   9.292  1.00  0.00    +0.000 C 
BRANCH   19   18
ATOM     18  C13 UNL A   1      27.360  -0.734  10.549  1.00  0.00    +0.000 C 
ATOM    119  H16 UNL A   1      27.181  -1.473  11.302  1.00  0.00    +0.000 H 
ATOM    120  H17 UNL A   1      28.390  -0.664  10.272  1.00  0.00    +0.000 H 
BRANCH   18   17
ATOM     17  C12 UNL A   1      26.963   0.632  11.114  1.00  0.00    +0.000 C 
ATOM    117  H14 UNL A   1      26.449   1.172  10.346  1.00  0.00    +0.000 H 
ATOM    118  H15 UNL A   1      26.356   0.435  11.973  1.00  0.00    +0.000 H 
BRANCH   17   16
ATOM    115  H12 UNL A   1      28.038   1.613  12.662  1.00  0.00    +0.000 H 
ATOM    116  H13 UNL A   1      29.025   0.982  11.309  1.00  0.00    +0.000 H 
ATOM     16  C11 UNL A   1      28.132   1.494  11.602  1.00  0.00    +0.000 C 
BRANCH   16   15
ATOM    113  H10 UNL A   1      28.422   2.786   9.929  1.00  0.00    +0.000 H 
ATOM    114  H11 UNL A   1      27.283   3.381  11.156  1.00  0.00    +0.000 H 
ATOM     15  C10 UNL A   1      28.219   2.895  10.973  1.00  0.00    +0.000 C 
BRANCH   15   14
ATOM     14  C9  UNL A   1      29.312   3.776  11.590  1.00  0.00    +0.000 C 
ATOM    111  H8  UNL A   1      28.893   4.721  11.866  1.00  0.00    +0.000 H 
ATOM    112  H9  UNL A   1      29.709   3.291  12.456  1.00  0.00    +0.000 H 
BRANCH   14   13
ATOM     13  N1  UNL A   1      30.375   3.983  10.626  1.00  0.00    +0.000 N 
ATOM    110  H7  UNL A   1      31.232   3.588  10.908  1.00  0.00    +0.000 H 
BRANCH   13   11
ATOM     11  C8  UNL A   1      30.443   4.602   9.420  1.00  0.00    +0.000 C 
ATOM     12  O3  UNL A   1      30.123   5.793   9.411  1.00  0.00    +0.000 O 
BRANCH   11   10
ATOM     10  C7  UNL A   1      30.765   3.885   8.127  1.00  0.00    +0.000 C 
BRANCH   10    9
ATOM      9  C6  UNL A   1      30.333   4.326   6.921  1.00  0.00    +0.000 C 
ATOM    109  H6  UNL A   1      29.357   4.660   6.897  1.00  0.00    +0.000 H 
BRANCH    9    8
ATOM      5  C2  UNL A   1      32.636   4.595   3.310  1.00  0.00    +0.000 C 
ATOM    102  C73 UNL A   1      31.898   5.506   5.420  1.00  0.00    +0.000 C 
ATOM      6  C3  UNL A   1      31.777   3.508   3.477  1.00  0.00    +0.000 C 
ATOM    103  C74 UNL A   1      32.681   5.610   4.266  1.00  0.00    +0.000 C 
ATOM      7  C4  UNL A   1      30.980   3.425   4.626  1.00  0.00    +0.000 C 
ATOM      8  C5  UNL A   1      31.063   4.396   5.633  1.00  0.00    +0.000 C 
ATOM    107  H4  UNL A   1      31.729   2.769   2.758  1.00  0.00    +0.000 H 
ATOM    108  H5  UNL A   1      30.323   2.637   4.733  1.00  0.00    +0.000 H 
ATOM    149  H46 UNL A   1      31.933   6.258   6.126  1.00  0.00    +0.000 H 
ATOM    150  H47 UNL A   1      33.289   6.432   4.122  1.00  0.00    +0.000 H 
BRANCH    5    2
ATOM      2  S1  UNL A   1      33.657   4.708   1.857  1.00  0.00    +0.000 S 
ATOM      3  O1  UNL A   1      32.774   4.908   0.723  1.00  0.00    +0.000 O 
ATOM      4  O2  UNL A   1      34.566   3.579   1.906  1.00  0.00    +0.000 O 
BRANCH    2    1
ATOM      1  C1  UNL A   1      34.601   6.196   2.060  1.00  0.00    +0.000 C 
ATOM    106  H3  UNL A   1      34.012   6.925   2.575  1.00  0.00    +0.000 H 
ATOM    105  H2  UNL A   1      35.483   5.984   2.628  1.00  0.00    +0.000 H 
ATOM    104  H1  UNL A   1      34.878   6.577   1.099  1.00  0.00    +0.000 H 
ENDBRANCH    2    1
ENDBRANCH    5    2
ENDBRANCH    9    8
ENDBRANCH   10    9
BRANCH   10   86
ATOM    101  C72 UNL A   1      30.901   1.519   9.009  1.00  0.00    +0.000 C 
ATOM    138  H35 UNL A   1      33.123   3.163   7.117  1.00  0.00    +0.000 H 
ATOM    139  H36 UNL A   1      34.383   1.128   7.471  1.00  0.00    +0.000 H 
ATOM    140  H37 UNL A   1      33.490  -0.609   8.900  1.00  0.00    +0.000 H 
ATOM    148  H45 UNL A   1      29.932   1.592   9.360  1.00  0.00    +0.000 H 
ATOM     86  C60 UNL A   1      31.441   2.565   8.249  1.00  0.00    +0.000 C 
ATOM     87  C61 UNL A   1      32.721   2.407   7.693  1.00  0.00    +0.000 C 
ATOM     88  C62 UNL A   1      33.456   1.245   7.910  1.00  0.00    +0.000 C 
ATOM     89  C63 UNL A   1      32.934   0.242   8.721  1.00  0.00    +0.000 C 
ATOM     90  C64 UNL A   1      31.661   0.371   9.300  1.00  0.00    +0.000 C 
BRANCH   90   91
ATOM     99  C70 UNL A   1      30.789  -1.273  12.600  1.00  0.00    +0.000 C 
ATOM    100  C71 UNL A   1      31.173  -0.308  11.665  1.00  0.00    +0.000 C 
ATOM    141  H38 UNL A   1      30.786  -2.114   8.869  1.00  0.00    +0.000 H 
ATOM    142  H39 UNL A   1      30.138  -3.801  10.483  1.00  0.00    +0.000 H 
ATOM    146  H43 UNL A   1      30.785  -1.050  13.607  1.00  0.00    +0.000 H 
ATOM    147  H44 UNL A   1      31.452   0.632  11.989  1.00  0.00    +0.000 H 
ATOM     91  C65 UNL A   1      31.185  -0.601  10.293  1.00  0.00    +0.000 C 
ATOM     92  C66 UNL A   1      30.792  -1.888   9.876  1.00  0.00    +0.000 C 
ATOM     93  C67 UNL A   1      30.413  -2.859  10.800  1.00  0.00    +0.000 C 
ATOM     94  C68 UNL A   1      30.411  -2.542  12.159  1.00  0.00    +0.000 C 
BRANCH   94   95
ATOM     97  O5  UNL A   1      30.216  -5.076  12.665  1.00  0.00    +0.000 O 
ATOM     98  O6  UNL A   1      30.628  -3.488  14.585  1.00  0.00    +0.000 O 
ATOM     95  S2  UNL A   1      29.981  -3.809  13.327  1.00  0.00    +0.000 S 
BRANCH   95   96
ATOM    145  H42 UNL A   1      27.721  -4.459  13.163  1.00  0.00    +0.000 H 
ATOM    144  H41 UNL A   1      28.015  -3.493  14.589  1.00  0.00    +0.000 H 
ATOM    143  H40 UNL A   1      27.908  -2.727  13.021  1.00  0.00    +0.000 H 
ATOM     96  C69 UNL A   1      28.233  -3.601  13.547  1.00  0.00    +0.000 C 
ENDBRANCH   95   96
ENDBRANCH   94   95
ENDBRANCH   90   91
ENDBRANCH   10   86
ENDBRANCH   11   10
ENDBRANCH   13   11
ENDBRANCH   14   13
ENDBRANCH   15   14
ENDBRANCH   16   15
ENDBRANCH   17   16
ENDBRANCH   18   17
ENDBRANCH   19   18
ENDBRANCH   20   19
ENDBRANCH   21   20
ENDBRANCH   23   21
ENDBRANCH   27   26
BRANCH   31   32
ATOM     33  C25 UNL A   1      28.227   6.898  -0.402  1.00  0.00    +0.000 C 
ATOM     34  F1  UNL A   1      27.010   6.534  -0.832  1.00  0.00    +0.000 F 
ATOM     35  C26 UNL A   1      29.295   6.846  -1.293  1.00  0.00    +0.000 C 
ATOM     36  F2  UNL A   1      29.098   6.427  -2.551  1.00  0.00    +0.000 F 
ATOM     37  C27 UNL A   1      30.566   7.215  -0.878  1.00  0.00    +0.000 C 
ATOM     38  F3  UNL A   1      31.593   7.171  -1.739  1.00  0.00    +0.000 F 
ATOM     39  C28 UNL A   1      30.774   7.623   0.431  1.00  0.00    +0.000 C 
ATOM     40  F4  UNL A   1      31.999   7.992   0.829  1.00  0.00    +0.000 F 
ATOM     41  C29 UNL A   1      29.713   7.648   1.332  1.00  0.00    +0.000 C 
ATOM     42  F5  UNL A   1      29.950   8.033   2.595  1.00  0.00    +0.000 F 
ATOM     32  C24 UNL A   1      28.417   7.286   0.933  1.00  0.00    +0.000 C 
ENDBRANCH   31   32
BRANCH   48   49
ATOM     49  C35 UNL A   1      23.114  11.848   2.654  1.00  0.00    +0.000 C 
ATOM     50  C36 UNL A   1      22.171  11.962   1.622  1.00  0.00    +0.000 C 
ATOM     51  F6  UNL A   1      21.752  10.869   0.968  1.00  0.00    +0.000 F 
ATOM     52  C37 UNL A   1      21.679  13.206   1.239  1.00  0.00    +0.000 C 
ATOM     53  F7  UNL A   1      20.806  13.297   0.226  1.00  0.00    +0.000 F 
ATOM     54  C38 UNL A   1      22.094  14.353   1.898  1.00  0.00    +0.000 C 
ATOM     55  F8  UNL A   1      21.609  15.549   1.536  1.00  0.00    +0.000 F 
ATOM     56  C39 UNL A   1      23.019  14.263   2.928  1.00  0.00    +0.000 C 
ATOM     57  F9  UNL A   1      23.412  15.369   3.575  1.00  0.00    +0.000 F 
ATOM     58  C40 UNL A   1      23.534  13.023   3.295  1.00  0.00    +0.000 C 
ATOM     59  F10 UNL A   1      24.431  12.967   4.291  1.00  0.00    +0.000 F 
ENDBRANCH   48   49
BRANCH   63   64
ATOM     65  C45 UNL A   1      19.848   6.898   7.495  1.00  0.00    +0.000 C 
ATOM     66  F11 UNL A   1      19.605   6.276   6.332  1.00  0.00    +0.000 F 
ATOM     67  C46 UNL A   1      18.837   6.959   8.452  1.00  0.00    +0.000 C 
ATOM     68  F12 UNL A   1      17.644   6.404   8.199  1.00  0.00    +0.000 F 
ATOM     69  C47 UNL A   1      19.059   7.604   9.659  1.00  0.00    +0.000 C 
ATOM     70  F13 UNL A   1      18.089   7.656  10.582  1.00  0.00    +0.000 F 
ATOM     71  C48 UNL A   1      20.287   8.199   9.907  1.00  0.00    +0.000 C 
ATOM     72  F14 UNL A   1      20.511   8.809  11.078  1.00  0.00    +0.000 F 
ATOM     73  C49 UNL A   1      21.289   8.163   8.940  1.00  0.00    +0.000 C 
ATOM     74  F15 UNL A   1      22.463   8.755   9.202  1.00  0.00    +0.000 F 
ATOM     64  C44 UNL A   1      21.092   7.506   7.716  1.00  0.00    +0.000 C 
ENDBRANCH   63   64
TORSDOF 23
ENDMDL
MODEL 9
REMARK VINA RESULT:      -6.6      1.835      2.944
ROOT
ATOM    129  H26 UNL A   1      56.914  15.829   9.671  1.00  0.00    +0.000 H 
ATOM    130  H27 UNL A   1      54.616  16.836   9.279  1.00  0.00    +0.000 H 
ATOM    131  H28 UNL A   1      56.131  18.455  12.795  1.00  0.00    +0.000 H 
ATOM    132  H29 UNL A   1      60.835  16.718  13.193  1.00  0.00    +0.000 H 
ATOM    133  H30 UNL A   1      61.014  18.070  15.360  1.00  0.00    +0.000 H 
ATOM    134  H31 UNL A   1      51.857  21.907  13.821  1.00  0.00    +0.000 H 
ATOM    135  H32 UNL A   1      51.506  20.287  11.869  1.00  0.00    +0.000 H 
ATOM     27  C20 UNL A   1      53.799  18.710  11.267  1.00  0.00    +0.000 C 
ATOM     28  C21 UNL A   1      53.620  19.666  12.410  1.00  0.00    +0.000 C 
ATOM     29  N3  UNL A   1      54.457  19.981  13.366  1.00  0.00    +0.000 N 
ATOM     30  C22 UNL A   1      53.811  20.940  14.133  1.00  0.00    +0.000 C 
ATOM     31  C23 UNL A   1      54.239  21.540  15.269  1.00  0.00    +0.000 C 
ATOM     43  C30 UNL A   1      55.503  21.270  15.900  1.00  0.00    +0.000 C 
ATOM     44  C31 UNL A   1      56.000  21.773  17.089  1.00  0.00    +0.000 C 
ATOM     45  C32 UNL A   1      57.293  21.271  17.271  1.00  0.00    +0.000 C 
ATOM     46  C33 UNL A   1      57.584  20.417  16.219  1.00  0.00    +0.000 C 
ATOM     47  N4  UNL A   1      56.476  20.423  15.387  1.00  0.00    +0.000 N 
ATOM     48  C34 UNL A   1      58.787  19.660  15.985  1.00  0.00    +0.000 C 
ATOM     60  C41 UNL A   1      58.978  18.802  14.954  1.00  0.00    +0.000 C 
ATOM     61  N5  UNL A   1      58.107  18.466  13.927  1.00  0.00    +0.000 N 
ATOM     62  C42 UNL A   1      58.752  17.610  13.172  1.00  0.00    +0.000 C 
ATOM     63  C43 UNL A   1      58.286  16.903  11.929  1.00  0.00    +0.000 C 
ATOM     75  C50 UNL A   1      57.041  17.131  11.469  1.00  0.00    +0.000 C 
ATOM     76  C51 UNL A   1      56.460  16.537  10.271  1.00  0.00    +0.000 C 
ATOM     77  C52 UNL A   1      55.239  17.058  10.070  1.00  0.00    +0.000 C 
ATOM     78  C53 UNL A   1      54.933  17.991  11.156  1.00  0.00    +0.000 C 
ATOM     79  N6  UNL A   1      56.049  17.949  11.954  1.00  0.00    +0.000 N 
ATOM     80  C54 UNL A   1      60.120  17.323  13.625  1.00  0.00    +0.000 C 
ATOM     81  C55 UNL A   1      60.194  18.048  14.734  1.00  0.00    +0.000 C 
ATOM     82  C56 UNL A   1      52.531  21.193  13.505  1.00  0.00    +0.000 C 
ATOM     83  C57 UNL A   1      52.339  20.385  12.472  1.00  0.00    +0.000 C 
ATOM    126  H23 UNL A   1      55.502  22.410  17.731  1.00  0.00    +0.000 H 
ATOM    127  H24 UNL A   1      57.924  21.499  18.055  1.00  0.00    +0.000 H 
ATOM    128  H25 UNL A   1      56.392  19.904  14.555  1.00  0.00    +0.000 H 
ENDROOT
BRANCH   27   26
ATOM    136  H33 UNL A   1      53.556  20.250   9.099  1.00  0.00    +0.000 H 
ATOM    137  H34 UNL A   1      51.907  20.128   7.327  1.00  0.00    +0.000 H 
ATOM     84  C58 UNL A   1      52.828  19.519   9.122  1.00  0.00    +0.000 C 
ATOM     85  C59 UNL A   1      51.907  19.425   8.083  1.00  0.00    +0.000 C 
ATOM     23  C16 UNL A   1      50.982  18.377   8.068  1.00  0.00    +0.000 C 
ATOM     24  C17 UNL A   1      50.879  17.510   9.159  1.00  0.00    +0.000 C 
ATOM     25  C18 UNL A   1      51.763  17.645  10.233  1.00  0.00    +0.000 C 
ATOM     26  C19 UNL A   1      52.772  18.622  10.200  1.00  0.00    +0.000 C 
ATOM    124  H21 UNL A   1      50.156  16.776   9.171  1.00  0.00    +0.000 H 
ATOM    125  H22 UNL A   1      51.674  17.025  11.052  1.00  0.00    +0.000 H 
BRANCH   23   21
ATOM     21  C15 UNL A   1      50.112  18.163   6.893  1.00  0.00    +0.000 C 
ATOM     22  O4  UNL A   1      49.513  19.108   6.393  1.00  0.00    +0.000 O 
BRANCH   21   20
ATOM    123  H20 UNL A   1      49.408  16.282   6.902  1.00  0.00    +0.000 H 
ATOM     20  N2  UNL A   1      49.974  16.896   6.379  1.00  0.00    +0.000 N 
BRANCH   20   19
ATOM    121  H18 UNL A   1      49.759  16.070   4.496  1.00  0.00    +0.000 H 
ATOM    122  H19 UNL A   1      51.183  17.087   4.728  1.00  0.00    +0.000 H 
ATOM     19  C14 UNL A   1      50.551  16.342   5.163  1.00  0.00    +0.000 C 
BRANCH   19   18
ATOM     18  C13 UNL A   1      51.403  15.108   5.447  1.00  0.00    +0.000 C 
ATOM    119  H16 UNL A   1      50.756  14.255   5.480  1.00  0.00    +0.000 H 
ATOM    120  H17 UNL A   1      52.128  15.048   4.663  1.00  0.00    +0.000 H 
BRANCH   18   17
ATOM     17  C12 UNL A   1      52.181  15.171   6.763  1.00  0.00    +0.000 C 
ATOM    117  H14 UNL A   1      51.620  15.768   7.451  1.00  0.00    +0.000 H 
ATOM    118  H15 UNL A   1      52.307  14.158   7.084  1.00  0.00    +0.000 H 
BRANCH   17   16
ATOM    115  H12 UNL A   1      53.963  15.921   7.644  1.00  0.00    +0.000 H 
ATOM    116  H13 UNL A   1      54.167  15.065   6.086  1.00  0.00    +0.000 H 
ATOM     16  C11 UNL A   1      53.590  15.766   6.653  1.00  0.00    +0.000 C 
BRANCH   16   15
ATOM    113  H10 UNL A   1      52.811  17.200   5.278  1.00  0.00    +0.000 H 
ATOM    114  H11 UNL A   1      53.741  17.877   6.633  1.00  0.00    +0.000 H 
ATOM     15  C10 UNL A   1      53.678  17.102   5.896  1.00  0.00    +0.000 C 
BRANCH   15   14
ATOM     14  C9  UNL A   1      54.922  17.222   5.010  1.00  0.00    +0.000 C 
ATOM    111  H8  UNL A   1      54.701  17.845   4.168  1.00  0.00    +0.000 H 
ATOM    112  H9  UNL A   1      55.720  17.653   5.577  1.00  0.00    +0.000 H 
BRANCH   14   13
ATOM     13  N1  UNL A   1      55.319  15.908   4.545  1.00  0.00    +0.000 N 
ATOM    110  H7  UNL A   1      54.610  15.445   4.044  1.00  0.00    +0.000 H 
BRANCH   13   11
ATOM     11  C8  UNL A   1      56.460  15.177   4.652  1.00  0.00    +0.000 C 
ATOM     12  O3  UNL A   1      56.812  14.584   3.630  1.00  0.00    +0.000 O 
BRANCH   11   10
ATOM     10  C7  UNL A   1      57.208  14.977   5.952  1.00  0.00    +0.000 C 
BRANCH   10    9
ATOM      9  C6  UNL A   1      56.958  13.938   6.784  1.00  0.00    +0.000 C 
ATOM    109  H6  UNL A   1      56.163  14.070   7.429  1.00  0.00    +0.000 H 
BRANCH    9    8
ATOM      5  C2  UNL A   1      59.122  10.234   6.926  1.00  0.00    +0.000 C 
ATOM    102  C73 UNL A   1      57.832  11.885   5.726  1.00  0.00    +0.000 C 
ATOM      6  C3  UNL A   1      58.927  10.942   8.113  1.00  0.00    +0.000 C 
ATOM    103  C74 UNL A   1      58.554  10.688   5.735  1.00  0.00    +0.000 C 
ATOM      7  C4  UNL A   1      58.182  12.129   8.097  1.00  0.00    +0.000 C 
ATOM      8  C5  UNL A   1      57.664  12.640   6.900  1.00  0.00    +0.000 C 
ATOM    107  H4  UNL A   1      59.329  10.594   8.997  1.00  0.00    +0.000 H 
ATOM    108  H5  UNL A   1      58.012  12.633   8.981  1.00  0.00    +0.000 H 
ATOM    149  H46 UNL A   1      57.413  12.219   4.845  1.00  0.00    +0.000 H 
ATOM    150  H47 UNL A   1      58.668  10.143   4.865  1.00  0.00    +0.000 H 
BRANCH    5    2
ATOM      2  S1  UNL A   1      60.071   8.729   6.933  1.00  0.00    +0.000 S 
ATOM      3  O1  UNL A   1      59.699   7.979   5.748  1.00  0.00    +0.000 O 
ATOM      4  O2  UNL A   1      59.924   8.157   8.257  1.00  0.00    +0.000 O 
BRANCH    2    1
ATOM      1  C1  UNL A   1      61.758   9.237   6.727  1.00  0.00    +0.000 C 
ATOM    106  H3  UNL A   1      61.851  10.275   6.968  1.00  0.00    +0.000 H 
ATOM    105  H2  UNL A   1      62.385   8.662   7.376  1.00  0.00    +0.000 H 
ATOM    104  H1  UNL A   1      62.057   9.080   5.712  1.00  0.00    +0.000 H 
ENDBRANCH    2    1
ENDBRANCH    5    2
ENDBRANCH    9    8
ENDBRANCH   10    9
BRANCH   10   86
ATOM    101  C72 UNL A   1      57.715  17.094   7.238  1.00  0.00    +0.000 C 
ATOM    138  H35 UNL A   1      59.709  15.407   5.143  1.00  0.00    +0.000 H 
ATOM    139  H36 UNL A   1      61.164  17.287   5.592  1.00  0.00    +0.000 H 
ATOM    140  H37 UNL A   1      60.385  19.106   6.986  1.00  0.00    +0.000 H 
ATOM    148  H45 UNL A   1      56.817  17.006   7.741  1.00  0.00    +0.000 H 
ATOM     86  C60 UNL A   1      58.123  16.074   6.369  1.00  0.00    +0.000 C 
ATOM     87  C61 UNL A   1      59.391  16.160   5.771  1.00  0.00    +0.000 C 
ATOM     88  C62 UNL A   1      60.222  17.250   6.013  1.00  0.00    +0.000 C 
ATOM     89  C63 UNL A   1      59.777  18.287   6.826  1.00  0.00    +0.000 C 
ATOM     90  C64 UNL A   1      58.511  18.237   7.433  1.00  0.00    +0.000 C 
BRANCH   90   91
ATOM     99  C70 UNL A   1      56.118  20.862   8.752  1.00  0.00    +0.000 C 
ATOM    100  C71 UNL A   1      56.601  19.705   8.134  1.00  0.00    +0.000 C 
ATOM    141  H38 UNL A   1      59.860  20.077   8.821  1.00  0.00    +0.000 H 
ATOM    142  H39 UNL A   1      59.035  22.096   9.876  1.00  0.00    +0.000 H 
ATOM    146  H43 UNL A   1      55.109  21.076   8.739  1.00  0.00    +0.000 H 
ATOM    147  H44 UNL A   1      55.942  19.064   7.666  1.00  0.00    +0.000 H 
ATOM     91  C65 UNL A   1      57.972  19.405   8.144  1.00  0.00    +0.000 C 
ATOM     92  C66 UNL A   1      58.851  20.290   8.797  1.00  0.00    +0.000 C 
ATOM     93  C67 UNL A   1      58.380  21.450   9.410  1.00  0.00    +0.000 C 
ATOM     94  C68 UNL A   1      57.013  21.725   9.386  1.00  0.00    +0.000 C 
BRANCH   94   95
ATOM     97  O5  UNL A   1      57.282  23.480  11.273  1.00  0.00    +0.000 O 
ATOM     98  O6  UNL A   1      56.304  24.220   9.066  1.00  0.00    +0.000 O 
ATOM     95  S2  UNL A   1      56.437  23.235  10.123  1.00  0.00    +0.000 S 
BRANCH   95   96
ATOM    145  H42 UNL A   1      54.811  21.841  11.109  1.00  0.00    +0.000 H 
ATOM    144  H41 UNL A   1      54.508  23.529  11.446  1.00  0.00    +0.000 H 
ATOM    143  H40 UNL A   1      54.121  22.867   9.875  1.00  0.00    +0.000 H 
ATOM     96  C69 UNL A   1      54.808  22.828  10.695  1.00  0.00    +0.000 C 
ENDBRANCH   95   96
ENDBRANCH   94   95
ENDBRANCH   90   91
ENDBRANCH   10   86
ENDBRANCH   11   10
ENDBRANCH   13   11
ENDBRANCH   14   13
ENDBRANCH   15   14
ENDBRANCH   16   15
ENDBRANCH   17   16
ENDBRANCH   18   17
ENDBRANCH   19   18
ENDBRANCH   20   19
ENDBRANCH   21   20
ENDBRANCH   23   21
ENDBRANCH   27   26
BRANCH   31   32
ATOM     33  C25 UNL A   1      53.342  23.898  15.513  1.00  0.00    +0.000 C 
ATOM     34  F1  UNL A   1      54.210  24.323  14.582  1.00  0.00    +0.000 F 
ATOM     35  C26 UNL A   1      52.486  24.824  16.102  1.00  0.00    +0.000 C 
ATOM     36  F2  UNL A   1      52.547  26.114  15.745  1.00  0.00    +0.000 F 
ATOM     37  C27 UNL A   1      51.579  24.416  17.069  1.00  0.00    +0.000 C 
ATOM     38  F3  UNL A   1      50.750  25.307  17.631  1.00  0.00    +0.000 F 
ATOM     39  C28 UNL A   1      51.534  23.085  17.457  1.00  0.00    +0.000 C 
ATOM     40  F4  UNL A   1      50.650  22.688  18.381  1.00  0.00    +0.000 F 
ATOM     41  C29 UNL A   1      52.409  22.163  16.889  1.00  0.00    +0.000 C 
ATOM     42  F5  UNL A   1      52.353  20.886  17.298  1.00  0.00    +0.000 F 
ATOM     32  C24 UNL A   1      53.331  22.551  15.905  1.00  0.00    +0.000 C 
ENDBRANCH   31   32
BRANCH   48   49
ATOM     49  C35 UNL A   1      59.910  19.817  16.967  1.00  0.00    +0.000 C 
ATOM     50  C36 UNL A   1      59.986  19.028  18.124  1.00  0.00    +0.000 C 
ATOM     51  F6  UNL A   1      59.007  18.158  18.413  1.00  0.00    +0.000 F 
ATOM     52  C37 UNL A   1      61.056  19.155  19.006  1.00  0.00    +0.000 C 
ATOM     53  F7  UNL A   1      61.090  18.418  20.125  1.00  0.00    +0.000 F 
ATOM     54  C38 UNL A   1      62.082  20.047  18.733  1.00  0.00    +0.000 C 
ATOM     55  F8  UNL A   1      63.117  20.157  19.577  1.00  0.00    +0.000 F 
ATOM     56  C39 UNL A   1      62.032  20.829  17.589  1.00  0.00    +0.000 C 
ATOM     57  F9  UNL A   1      63.029  21.683  17.318  1.00  0.00    +0.000 F 
ATOM     58  C40 UNL A   1      60.951  20.725  16.720  1.00  0.00    +0.000 C 
ATOM     59  F10 UNL A   1      60.927  21.499  15.624  1.00  0.00    +0.000 F 
ENDBRANCH   48   49
BRANCH   63   64
ATOM     65  C45 UNL A   1      59.100  14.574  11.461  1.00  0.00    +0.000 C 
ATOM     66  F11 UNL A   1      58.230  14.106  12.369  1.00  0.00    +0.000 F 
ATOM     67  C46 UNL A   1      59.940  13.677  10.806  1.00  0.00    +0.000 C 
ATOM     68  F12 UNL A   1      59.873  12.370  11.091  1.00  0.00    +0.000 F 
ATOM     69  C47 UNL A   1      60.854  14.136   9.869  1.00  0.00    +0.000 C 
ATOM     70  F13 UNL A   1      61.657  13.273   9.234  1.00  0.00    +0.000 F 
ATOM     71  C48 UNL A   1      60.937  15.494   9.597  1.00  0.00    +0.000 C 
ATOM     72  F14 UNL A   1      61.807  15.940   8.681  1.00  0.00    +0.000 F 
ATOM     73  C49 UNL A   1      60.117  16.394  10.271  1.00  0.00    +0.000 C 
ATOM     74  F15 UNL A   1      60.226  17.702   9.995  1.00  0.00    +0.000 F 
ATOM     64  C44 UNL A   1      59.177  15.952  11.214  1.00  0.00    +0.000 C 
ENDBRANCH   63   64
TORSDOF 23
ENDMDL
MODEL 10
REMARK VINA RESULT:      -6.6     26.722     33.094
ROOT
ATOM    129  H26 UNL A   1      45.877  54.196  15.137  1.00  0.00    +0.000 H 
ATOM    130  H27 UNL A   1      44.990  51.965  15.966  1.00  0.00    +0.000 H 
ATOM    131  H28 UNL A   1      48.537  52.755  17.985  1.00  0.00    +0.000 H 
ATOM    132  H29 UNL A   1      49.923  57.380  16.572  1.00  0.00    +0.000 H 
ATOM    133  H30 UNL A   1      51.941  57.110  18.123  1.00  0.00    +0.000 H 
ATOM    134  H31 UNL A   1      48.452  48.225  21.257  1.00  0.00    +0.000 H 
ATOM    135  H32 UNL A   1      46.639  48.299  19.449  1.00  0.00    +0.000 H 
ATOM     27  C20 UNL A   1      46.608  50.727  17.962  1.00  0.00    +0.000 C 
ATOM     28  C21 UNL A   1      47.601  50.305  19.006  1.00  0.00    +0.000 C 
ATOM     29  N3  UNL A   1      48.652  50.943  19.455  1.00  0.00    +0.000 N 
ATOM     30  C22 UNL A   1      49.194  50.130  20.439  1.00  0.00    +0.000 C 
ATOM     31  C23 UNL A   1      50.323  50.322  21.164  1.00  0.00    +0.000 C 
ATOM     43  C30 UNL A   1      51.188  51.463  21.027  1.00  0.00    +0.000 C 
ATOM     44  C31 UNL A   1      52.390  51.716  21.666  1.00  0.00    +0.000 C 
ATOM     45  C32 UNL A   1      52.844  52.976  21.259  1.00  0.00    +0.000 C 
ATOM     46  C33 UNL A   1      51.950  53.486  20.332  1.00  0.00    +0.000 C 
ATOM     47  N4  UNL A   1      50.940  52.547  20.197  1.00  0.00    +0.000 N 
ATOM     48  C34 UNL A   1      52.006  54.743  19.629  1.00  0.00    +0.000 C 
ATOM     60  C41 UNL A   1      51.114  55.151  18.694  1.00  0.00    +0.000 C 
ATOM     61  N5  UNL A   1      49.990  54.494  18.215  1.00  0.00    +0.000 N 
ATOM     62  C42 UNL A   1      49.449  55.299  17.334  1.00  0.00    +0.000 C 
ATOM     63  C43 UNL A   1      48.220  55.094  16.490  1.00  0.00    +0.000 C 
ATOM     75  C50 UNL A   1      47.530  53.943  16.602  1.00  0.00    +0.000 C 
ATOM     76  C51 UNL A   1      46.314  53.612  15.867  1.00  0.00    +0.000 C 
ATOM     77  C52 UNL A   1      45.852  52.426  16.296  1.00  0.00    +0.000 C 
ATOM     78  C53 UNL A   1      46.770  51.891  17.303  1.00  0.00    +0.000 C 
ATOM     79  N6  UNL A   1      47.750  52.846  17.400  1.00  0.00    +0.000 N 
ATOM     80  C54 UNL A   1      50.160  56.574  17.170  1.00  0.00    +0.000 C 
ATOM     81  C55 UNL A   1      51.187  56.418  17.996  1.00  0.00    +0.000 C 
ATOM     82  C56 UNL A   1      48.331  48.974  20.558  1.00  0.00    +0.000 C 
ATOM     83  C57 UNL A   1      47.366  49.005  19.650  1.00  0.00    +0.000 C 
ATOM    126  H23 UNL A   1      52.868  51.085  22.327  1.00  0.00    +0.000 H 
ATOM    127  H24 UNL A   1      53.700  53.445  21.594  1.00  0.00    +0.000 H 
ATOM    128  H25 UNL A   1      50.163  52.634  19.600  1.00  0.00    +0.000 H 
ENDROOT
BRANCH   27   26
ATOM    136  H33 UNL A   1      44.228  50.939  19.154  1.00  0.00    +0.000 H 
ATOM    137  H34 UNL A   1      42.216  49.644  18.771  1.00  0.00    +0.000 H 
ATOM     84  C58 UNL A   1      44.222  50.196  18.438  1.00  0.00    +0.000 C 
ATOM     85  C59 UNL A   1      43.055  49.481  18.192  1.00  0.00    +0.000 C 
ATOM     23  C16 UNL A   1      43.023  48.541  17.158  1.00  0.00    +0.000 C 
ATOM     24  C17 UNL A   1      44.191  48.210  16.467  1.00  0.00    +0.000 C 
ATOM     25  C18 UNL A   1      45.380  48.884  16.760  1.00  0.00    +0.000 C 
ATOM     26  C19 UNL A   1      45.393  49.913  17.716  1.00  0.00    +0.000 C 
ATOM    124  H21 UNL A   1      44.177  47.473  15.746  1.00  0.00    +0.000 H 
ATOM    125  H22 UNL A   1      46.251  48.624  16.273  1.00  0.00    +0.000 H 
BRANCH   23   21
ATOM     21  C15 UNL A   1      41.750  47.897  16.770  1.00  0.00    +0.000 C 
ATOM     22  O4  UNL A   1      40.682  48.422  17.065  1.00  0.00    +0.000 O 
BRANCH   21   20
ATOM    123  H20 UNL A   1      41.993  46.762  15.131  1.00  0.00    +0.000 H 
ATOM     20  N2  UNL A   1      41.778  46.703  16.091  1.00  0.00    +0.000 N 
BRANCH   20   19
ATOM    121  H18 UNL A   1      40.477  45.215  16.697  1.00  0.00    +0.000 H 
ATOM    122  H19 UNL A   1      41.961  44.663  15.915  1.00  0.00    +0.000 H 
ATOM     19  C14 UNL A   1      41.533  45.362  16.602  1.00  0.00    +0.000 C 
BRANCH   19   18
ATOM     18  C13 UNL A   1      42.184  45.144  17.965  1.00  0.00    +0.000 C 
ATOM    119  H16 UNL A   1      42.023  46.021  18.558  1.00  0.00    +0.000 H 
ATOM    120  H17 UNL A   1      41.732  44.270  18.386  1.00  0.00    +0.000 H 
BRANCH   18   17
ATOM     17  C12 UNL A   1      43.690  44.875  17.906  1.00  0.00    +0.000 C 
ATOM    117  H14 UNL A   1      43.840  43.817  17.969  1.00  0.00    +0.000 H 
ATOM    118  H15 UNL A   1      44.033  45.298  16.985  1.00  0.00    +0.000 H 
BRANCH   17   16
ATOM    115  H12 UNL A   1      45.417  45.910  18.585  1.00  0.00    +0.000 H 
ATOM    116  H13 UNL A   1      43.889  46.310  19.426  1.00  0.00    +0.000 H 
ATOM     16  C11 UNL A   1      44.510  45.541  19.017  1.00  0.00    +0.000 C 
BRANCH   16   15
ATOM    113  H10 UNL A   1      43.993  44.150  20.551  1.00  0.00    +0.000 H 
ATOM    114  H11 UNL A   1      45.599  43.916  19.827  1.00  0.00    +0.000 H 
ATOM     15  C10 UNL A   1      44.883  44.623  20.194  1.00  0.00    +0.000 C 
BRANCH   15   14
ATOM     14  C9  UNL A   1      45.540  45.365  21.363  1.00  0.00    +0.000 C 
ATOM    111  H8  UNL A   1      45.714  46.383  21.085  1.00  0.00    +0.000 H 
ATOM    112  H9  UNL A   1      44.892  45.329  22.213  1.00  0.00    +0.000 H 
BRANCH   14   13
ATOM     13  N1  UNL A   1      46.802  44.734  21.694  1.00  0.00    +0.000 N 
ATOM    110  H7  UNL A   1      46.692  43.863  22.141  1.00  0.00    +0.000 H 
BRANCH   13   11
ATOM     11  C8  UNL A   1      48.103  45.084  21.522  1.00  0.00    +0.000 C 
ATOM     12  O3  UNL A   1      48.512  45.997  22.243  1.00  0.00    +0.000 O 
BRANCH   11   10
ATOM     10  C7  UNL A   1      48.990  44.504  20.441  1.00  0.00    +0.000 C 
BRANCH   10    9
ATOM      9  C6  UNL A   1      48.669  44.560  19.127  1.00  0.00    +0.000 C 
ATOM    109  H6  UNL A   1      48.335  43.675  18.715  1.00  0.00    +0.000 H 
BRANCH    9    8
ATOM      5  C2  UNL A   1      49.072  47.853  16.404  1.00  0.00    +0.000 C 
ATOM    102  C73 UNL A   1      49.822  46.589  18.319  1.00  0.00    +0.000 C 
ATOM      6  C3  UNL A   1      47.954  47.026  16.293  1.00  0.00    +0.000 C 
ATOM    103  C74 UNL A   1      49.996  47.655  17.431  1.00  0.00    +0.000 C 
ATOM      7  C4  UNL A   1      47.778  45.974  17.202  1.00  0.00    +0.000 C 
ATOM      8  C5  UNL A   1      48.730  45.712  18.197  1.00  0.00    +0.000 C 
ATOM    107  H4  UNL A   1      47.262  47.187  15.546  1.00  0.00    +0.000 H 
ATOM    108  H5  UNL A   1      46.935  45.383  17.138  1.00  0.00    +0.000 H 
ATOM    149  H46 UNL A   1      50.506  46.443  19.078  1.00  0.00    +0.000 H 
ATOM    150  H47 UNL A   1      50.802  48.291  17.535  1.00  0.00    +0.000 H 
BRANCH    5    2
ATOM      2  S1  UNL A   1      49.310  49.188  15.252  1.00  0.00    +0.000 S 
ATOM      3  O1  UNL A   1      49.728  50.349  16.016  1.00  0.00    +0.000 O 
ATOM      4  O2  UNL A   1      48.123  49.228  14.421  1.00  0.00    +0.000 O 
BRANCH    2    1
ATOM      1  C1  UNL A   1      50.684  48.698  14.242  1.00  0.00    +0.000 C 
ATOM    106  H3  UNL A   1      50.323  48.293  13.321  1.00  0.00    +0.000 H 
ATOM    105  H2  UNL A   1      51.300  49.550  14.041  1.00  0.00    +0.000 H 
ATOM    104  H1  UNL A   1      51.258  47.956  14.756  1.00  0.00    +0.000 H 
ENDBRANCH    2    1
ENDBRANCH    5    2
ENDBRANCH    9    8
ENDBRANCH   10    9
BRANCH   10   86
ATOM    101  C72 UNL A   1      50.331  43.334  22.238  1.00  0.00    +0.000 C 
ATOM    138  H35 UNL A   1      51.073  43.692  18.992  1.00  0.00    +0.000 H 
ATOM    139  H36 UNL A   1      53.112  42.609  19.712  1.00  0.00    +0.000 H 
ATOM    140  H37 UNL A   1      53.441  42.096  22.055  1.00  0.00    +0.000 H 
ATOM    148  H45 UNL A   1      49.551  43.460  22.904  1.00  0.00    +0.000 H 
ATOM     86  C60 UNL A   1      50.161  43.708  20.898  1.00  0.00    +0.000 C 
ATOM     87  C61 UNL A   1      51.192  43.437  19.984  1.00  0.00    +0.000 C 
ATOM     88  C62 UNL A   1      52.374  42.831  20.399  1.00  0.00    +0.000 C 
ATOM     89  C63 UNL A   1      52.555  42.525  21.744  1.00  0.00    +0.000 C 
ATOM     90  C64 UNL A   1      51.548  42.790  22.687  1.00  0.00    +0.000 C 
BRANCH   90   91
ATOM     99  C70 UNL A   1      53.099  41.717  25.972  1.00  0.00    +0.000 C 
ATOM    100  C71 UNL A   1      52.915  41.921  24.603  1.00  0.00    +0.000 C 
ATOM    141  H38 UNL A   1      50.065  43.679  24.722  1.00  0.00    +0.000 H 
ATOM    142  H39 UNL A   1      50.364  43.312  27.098  1.00  0.00    +0.000 H 
ATOM    146  H43 UNL A   1      53.918  41.191  26.316  1.00  0.00    +0.000 H 
ATOM    147  H44 UNL A   1      53.605  41.543  23.934  1.00  0.00    +0.000 H 
ATOM     91  C65 UNL A   1      51.804  42.632  24.125  1.00  0.00    +0.000 C 
ATOM     92  C66 UNL A   1      50.881  43.145  25.058  1.00  0.00    +0.000 C 
ATOM     93  C67 UNL A   1      51.052  42.941  26.426  1.00  0.00    +0.000 C 
ATOM     94  C68 UNL A   1      52.165  42.230  26.874  1.00  0.00    +0.000 C 
BRANCH   94   95
ATOM     97  O5  UNL A   1      51.036  42.168  29.206  1.00  0.00    +0.000 O 
ATOM     98  O6  UNL A   1      53.015  40.658  28.780  1.00  0.00    +0.000 O 
ATOM     95  S2  UNL A   1      52.338  41.931  28.616  1.00  0.00    +0.000 S 
BRANCH   95   96
ATOM    145  H42 UNL A   1      52.953  43.825  29.877  1.00  0.00    +0.000 H 
ATOM    144  H41 UNL A   1      54.314  42.765  29.595  1.00  0.00    +0.000 H 
ATOM    143  H40 UNL A   1      53.736  43.805  28.315  1.00  0.00    +0.000 H 
ATOM     96  C69 UNL A   1      53.445  43.208  29.154  1.00  0.00    +0.000 C 
ENDBRANCH   95   96
ENDBRANCH   94   95
ENDBRANCH   90   91
ENDBRANCH   10   86
ENDBRANCH   11   10
ENDBRANCH   13   11
ENDBRANCH   14   13
ENDBRANCH   15   14
ENDBRANCH   16   15
ENDBRANCH   17   16
ENDBRANCH   18   17
ENDBRANCH   19   18
ENDBRANCH   20   19
ENDBRANCH   21   20
ENDBRANCH   23   21
ENDBRANCH   27   26
BRANCH   31   32
ATOM     33  C25 UNL A   1      50.250  49.351  23.505  1.00  0.00    +0.000 C 
ATOM     34  F1  UNL A   1      49.530  50.405  23.918  1.00  0.00    +0.000 F 
ATOM     35  C26 UNL A   1      50.584  48.365  24.429  1.00  0.00    +0.000 C 
ATOM     36  F2  UNL A   1      50.196  48.486  25.706  1.00  0.00    +0.000 F 
ATOM     37  C27 UNL A   1      51.329  47.265  24.033  1.00  0.00    +0.000 C 
ATOM     38  F3  UNL A   1      51.644  46.312  24.922  1.00  0.00    +0.000 F 
ATOM     39  C28 UNL A   1      51.753  47.154  22.717  1.00  0.00    +0.000 C 
ATOM     40  F4  UNL A   1      52.461  46.085  22.330  1.00  0.00    +0.000 F 
ATOM     41  C29 UNL A   1      51.444  48.154  21.798  1.00  0.00    +0.000 C 
ATOM     42  F5  UNL A   1      51.882  48.025  20.535  1.00  0.00    +0.000 F 
ATOM     32  C24 UNL A   1      50.686  49.273  22.173  1.00  0.00    +0.000 C 
ENDBRANCH   31   32
BRANCH   48   49
ATOM     49  C35 UNL A   1      53.148  55.664  19.940  1.00  0.00    +0.000 C 
ATOM     50  C36 UNL A   1      53.032  56.672  20.909  1.00  0.00    +0.000 C 
ATOM     51  F6  UNL A   1      51.862  56.878  21.532  1.00  0.00    +0.000 F 
ATOM     52  C37 UNL A   1      54.113  57.492  21.219  1.00  0.00    +0.000 C 
ATOM     53  F7  UNL A   1      53.970  58.473  22.120  1.00  0.00    +0.000 F 
ATOM     54  C38 UNL A   1      55.335  57.302  20.591  1.00  0.00    +0.000 C 
ATOM     55  F8  UNL A   1      56.377  58.085  20.900  1.00  0.00    +0.000 F 
ATOM     56  C39 UNL A   1      55.474  56.305  19.637  1.00  0.00    +0.000 C 
ATOM     57  F9  UNL A   1      56.658  56.112  19.038  1.00  0.00    +0.000 F 
ATOM     58  C40 UNL A   1      54.388  55.501  19.305  1.00  0.00    +0.000 C 
ATOM     59  F10 UNL A   1      54.551  54.548  18.375  1.00  0.00    +0.000 F 
ENDBRANCH   48   49
BRANCH   63   64
ATOM     65  C45 UNL A   1      47.087  57.276  15.983  1.00  0.00    +0.000 C 
ATOM     66  F11 UNL A   1      46.813  57.418  17.289  1.00  0.00    +0.000 F 
ATOM     67  C46 UNL A   1      46.649  58.253  15.092  1.00  0.00    +0.000 C 
ATOM     68  F12 UNL A   1      45.963  59.310  15.544  1.00  0.00    +0.000 F 
ATOM     69  C47 UNL A   1      46.912  58.125  13.736  1.00  0.00    +0.000 C 
ATOM     70  F13 UNL A   1      46.498  59.068  12.879  1.00  0.00    +0.000 F 
ATOM     71  C48 UNL A   1      47.601  57.016  13.269  1.00  0.00    +0.000 C 
ATOM     72  F14 UNL A   1      47.871  56.897  11.962  1.00  0.00    +0.000 F 
ATOM     73  C49 UNL A   1      48.014  56.025  14.156  1.00  0.00    +0.000 C 
ATOM     74  F15 UNL A   1      48.670  54.958  13.676  1.00  0.00    +0.000 F 
ATOM     64  C44 UNL A   1      47.771  56.138  15.533  1.00  0.00    +0.000 C 
ENDBRANCH   63   64
TORSDOF 23
ENDMDL
