MODEL 1
REMARK VINA RESULT:     -11.3      0.000      0.000
ROOT
ATOM    129  H32 UNL A   1      26.473  20.906   5.511  1.00  0.00    +0.000 H 
ATOM    130  H33 UNL A   1      24.293  20.762   4.133  1.00  0.00    +0.000 H 
ATOM     35  C24 UNL A   1      23.463  18.038   3.739  1.00  0.00    +0.000 C 
ATOM     36  C25 UNL A   1      24.516  18.559   4.639  1.00  0.00    +0.000 C 
ATOM     37  N5  UNL A   1      25.349  17.874   5.348  1.00  0.00    +0.000 N 
ATOM     38  C26 UNL A   1      26.101  18.809   6.053  1.00  0.00    +0.000 C 
ATOM     39  C27 UNL A   1      26.599  18.502   7.284  1.00  0.00    +0.000 C 
ATOM     51  C34 UNL A   1      26.565  17.072   7.500  1.00  0.00    +0.000 C 
ATOM     52  C35 UNL A   1      27.113  15.976   6.863  1.00  0.00    +0.000 C 
ATOM     53  C36 UNL A   1      26.106  14.966   6.926  1.00  0.00    +0.000 C 
ATOM     54  C37 UNL A   1      25.033  15.472   7.661  1.00  0.00    +0.000 C 
ATOM     55  N6  UNL A   1      25.552  16.574   8.284  1.00  0.00    +0.000 N 
ATOM     56  C38 UNL A   1      23.647  15.082   7.762  1.00  0.00    +0.000 C 
ATOM     68  C45 UNL A   1      22.634  15.902   8.171  1.00  0.00    +0.000 C 
ATOM     69  N7  UNL A   1      21.319  15.636   7.816  1.00  0.00    +0.000 N 
ATOM     70  C46 UNL A   1      20.740  16.807   7.794  1.00  0.00    +0.000 C 
ATOM     71  C47 UNL A   1      19.763  17.211   6.752  1.00  0.00    +0.000 C 
ATOM     83  C54 UNL A   1      20.451  17.284   5.584  1.00  0.00    +0.000 C 
ATOM     84  C55 UNL A   1      19.978  17.268   4.220  1.00  0.00    +0.000 C 
ATOM     85  C56 UNL A   1      21.046  17.350   3.401  1.00  0.00    +0.000 C 
ATOM     86  C57 UNL A   1      22.260  17.610   4.186  1.00  0.00    +0.000 C 
ATOM     87  N8  UNL A   1      21.852  17.440   5.489  1.00  0.00    +0.000 N 
ATOM     88  C58 UNL A   1      21.432  17.863   8.515  1.00  0.00    +0.000 C 
ATOM     89  C59 UNL A   1      22.626  17.279   8.659  1.00  0.00    +0.000 C 
ATOM     90  C60 UNL A   1      25.879  20.069   5.397  1.00  0.00    +0.000 C 
ATOM     91  C61 UNL A   1      24.797  20.003   4.619  1.00  0.00    +0.000 C 
ATOM    121  H24 UNL A   1      28.050  15.903   6.435  1.00  0.00    +0.000 H 
ATOM    122  H25 UNL A   1      26.162  14.027   6.502  1.00  0.00    +0.000 H 
ATOM    123  H26 UNL A   1      25.252  16.946   9.146  1.00  0.00    +0.000 H 
ATOM    124  H27 UNL A   1      18.992  17.206   3.922  1.00  0.00    +0.000 H 
ATOM    125  H28 UNL A   1      21.015  17.246   2.375  1.00  0.00    +0.000 H 
ATOM    126  H29 UNL A   1      22.463  17.429   6.261  1.00  0.00    +0.000 H 
ATOM    127  H30 UNL A   1      21.099  18.789   8.823  1.00  0.00    +0.000 H 
ATOM    128  H31 UNL A   1      23.448  17.748   9.068  1.00  0.00    +0.000 H 
ENDROOT
BRANCH   35   34
ATOM     33  C22 UNL A   1      24.154  17.242   1.465  1.00  0.00    +0.000 C 
ATOM     34  C23 UNL A   1      23.726  18.263   2.327  1.00  0.00    +0.000 C 
ATOM    131  H34 UNL A   1      23.451  20.340   2.551  1.00  0.00    +0.000 H 
ATOM    132  H35 UNL A   1      23.324  20.702   0.158  1.00  0.00    +0.000 H 
ATOM    119  H22 UNL A   1      24.859  16.847  -0.488  1.00  0.00    +0.000 H 
ATOM    120  H23 UNL A   1      24.231  16.270   1.803  1.00  0.00    +0.000 H 
ATOM     92  C62 UNL A   1      23.602  19.569   1.882  1.00  0.00    +0.000 C 
ATOM     93  C63 UNL A   1      23.686  19.816   0.544  1.00  0.00    +0.000 C 
ATOM     31  C20 UNL A   1      24.258  18.870  -0.296  1.00  0.00    +0.000 C 
ATOM     32  C21 UNL A   1      24.473  17.562   0.148  1.00  0.00    +0.000 C 
BRANCH   31   29
ATOM     29  C19 UNL A   1      24.648  19.315  -1.644  1.00  0.00    +0.000 C 
ATOM     30  O6  UNL A   1      25.832  19.372  -1.959  1.00  0.00    +0.000 O 
BRANCH   29   28
ATOM     28  N4  UNL A   1      23.658  19.655  -2.548  1.00  0.00    +0.000 N 
ATOM    118  H21 UNL A   1      23.372  18.945  -3.166  1.00  0.00    +0.000 H 
BRANCH   28   27
ATOM     27  C18 UNL A   1      22.983  20.950  -2.697  1.00  0.00    +0.000 C 
ATOM    116  H19 UNL A   1      22.192  21.012  -1.979  1.00  0.00    +0.000 H 
ATOM    117  H20 UNL A   1      23.708  21.721  -2.540  1.00  0.00    +0.000 H 
BRANCH   27   26
ATOM     26  C17 UNL A   1      22.400  21.129  -4.088  1.00  0.00    +0.000 C 
ATOM    115  H18 UNL A   1      21.632  20.393  -4.204  1.00  0.00    +0.000 H 
ATOM    114  H17 UNL A   1      23.188  21.010  -4.803  1.00  0.00    +0.000 H 
BRANCH   26   25
ATOM     25  C16 UNL A   1      21.746  22.502  -4.310  1.00  0.00    +0.000 C 
ATOM    113  H16 UNL A   1      21.694  22.953  -3.341  1.00  0.00    +0.000 H 
ATOM    112  H15 UNL A   1      20.795  22.338  -4.773  1.00  0.00    +0.000 H 
BRANCH   25   24
ATOM    110  H13 UNL A   1      22.757  23.011  -6.110  1.00  0.00    +0.000 H 
ATOM    111  H14 UNL A   1      21.898  24.354  -5.292  1.00  0.00    +0.000 H 
ATOM     24  C15 UNL A   1      22.528  23.496  -5.184  1.00  0.00    +0.000 C 
BRANCH   24   23
ATOM    108  H11 UNL A   1      23.717  24.110  -3.525  1.00  0.00    +0.000 H 
ATOM    109  H12 UNL A   1      24.606  23.300  -4.829  1.00  0.00    +0.000 H 
ATOM     23  C14 UNL A   1      23.843  24.009  -4.583  1.00  0.00    +0.000 C 
BRANCH   23   22
ATOM    106  H9  UNL A   1      25.208  25.651  -4.711  1.00  0.00    +0.000 H 
ATOM    107  H10 UNL A   1      24.390  25.276  -6.213  1.00  0.00    +0.000 H 
ATOM     22  C13 UNL A   1      24.277  25.363  -5.153  1.00  0.00    +0.000 C 
BRANCH   22   21
ATOM    105  H8  UNL A   1      22.416  25.992  -4.558  1.00  0.00    +0.000 H 
ATOM     21  N3  UNL A   1      23.274  26.369  -4.861  1.00  0.00    +0.000 N 
BRANCH   21   19
ATOM     19  C12 UNL A   1      23.279  27.740  -4.922  1.00  0.00    +0.000 C 
ATOM     20  O5  UNL A   1      23.922  28.270  -5.827  1.00  0.00    +0.000 O 
BRANCH   19   18
ATOM    133  H36 UNL A   1      20.731  28.825  -4.797  1.00  0.00    +0.000 H 
ATOM    134  H37 UNL A   1      19.681  29.795  -2.839  1.00  0.00    +0.000 H 
ATOM    103  H6  UNL A   1      23.439  30.083  -0.981  1.00  0.00    +0.000 H 
ATOM    104  H7  UNL A   1      24.423  28.817  -2.807  1.00  0.00    +0.000 H 
ATOM     15  C8  UNL A   1      21.469  29.953  -1.729  1.00  0.00    +0.000 C 
ATOM     16  C9  UNL A   1      22.845  29.732  -1.748  1.00  0.00    +0.000 C 
ATOM     17  C10 UNL A   1      23.412  29.027  -2.816  1.00  0.00    +0.000 C 
ATOM     18  C11 UNL A   1      22.625  28.601  -3.898  1.00  0.00    +0.000 C 
ATOM     94  C64 UNL A   1      21.286  28.990  -3.944  1.00  0.00    +0.000 C 
ATOM     95  C65 UNL A   1      20.695  29.601  -2.839  1.00  0.00    +0.000 C 
BRANCH   15   14
ATOM    102  H5  UNL A   1      19.226  30.475   2.100  1.00  0.00    +0.000 H 
ATOM      9  C5  UNL A   1      20.415  29.834   0.522  1.00  0.00    +0.000 C 
ATOM     10  C6  UNL A   1      19.678  30.705   1.201  1.00  0.00    +0.000 C 
ATOM     11  O3  UNL A   1      19.566  31.957   0.598  1.00  0.00    +0.000 O 
ATOM     12  C7  UNL A   1      20.325  31.787  -0.560  1.00  0.00    +0.000 C 
ATOM     13  O4  UNL A   1      20.449  32.665  -1.403  1.00  0.00    +0.000 O 
ATOM     14  N2  UNL A   1      20.840  30.494  -0.595  1.00  0.00    +0.000 N 
BRANCH    9    8
ATOM     97  C67 UNL A   1      20.420  26.094   1.044  1.00  0.00    +0.000 C 
ATOM    100  H3  UNL A   1      23.419  26.871   2.346  1.00  0.00    +0.000 H 
ATOM      5  C1  UNL A   1      21.668  25.915   1.652  1.00  0.00    +0.000 C 
ATOM      6  C2  UNL A   1      22.499  27.008   1.900  1.00  0.00    +0.000 C 
ATOM      7  C3  UNL A   1      22.074  28.288   1.537  1.00  0.00    +0.000 C 
ATOM    136  H39 UNL A   1      19.814  25.281   0.859  1.00  0.00    +0.000 H 
ATOM    101  H4  UNL A   1      22.685  29.099   1.724  1.00  0.00    +0.000 H 
ATOM    135  H38 UNL A   1      19.072  27.515   0.255  1.00  0.00    +0.000 H 
ATOM      8  C4  UNL A   1      20.825  28.489   0.920  1.00  0.00    +0.000 C 
ATOM     96  C66 UNL A   1      19.999  27.380   0.689  1.00  0.00    +0.000 C 
BRANCH    5    2
ATOM      2  S1  UNL A   1      22.215  24.279   2.046  1.00  0.00    +0.000 S 
ATOM      3  O1  UNL A   1      23.537  24.350   2.640  1.00  0.00    +0.000 O 
ATOM      4  O2  UNL A   1      21.910  23.410   0.943  1.00  0.00    +0.000 O 
BRANCH    2    1
ATOM      1  N1  UNL A   1      21.181  23.851   3.297  1.00  0.00    +0.000 N 
ATOM     98  H1  UNL A   1      20.580  24.642   3.527  1.00  0.00    +0.000 H 
ATOM     99  H2  UNL A   1      21.729  23.591   4.116  1.00  0.00    +0.000 H 
ENDBRANCH    2    1
ENDBRANCH    5    2
ENDBRANCH    9    8
ENDBRANCH   15   14
ENDBRANCH   19   18
ENDBRANCH   21   19
ENDBRANCH   22   21
ENDBRANCH   23   22
ENDBRANCH   24   23
ENDBRANCH   25   24
ENDBRANCH   26   25
ENDBRANCH   27   26
ENDBRANCH   28   27
ENDBRANCH   29   28
ENDBRANCH   31   29
ENDBRANCH   35   34
BRANCH   39   40
ATOM     40  C28 UNL A   1      26.694  19.477   8.443  1.00  0.00    +0.000 C 
ATOM     41  C29 UNL A   1      27.917  19.559   9.144  1.00  0.00    +0.000 C 
ATOM     42  F1  UNL A   1      29.042  19.047   8.621  1.00  0.00    +0.000 F 
ATOM     43  C30 UNL A   1      27.996  20.066  10.443  1.00  0.00    +0.000 C 
ATOM     44  F2  UNL A   1      29.149  19.978  11.121  1.00  0.00    +0.000 F 
ATOM     45  C31 UNL A   1      26.875  20.582  11.062  1.00  0.00    +0.000 C 
ATOM     46  F3  UNL A   1      26.928  20.998  12.334  1.00  0.00    +0.000 F 
ATOM     47  C32 UNL A   1      25.686  20.626  10.370  1.00  0.00    +0.000 C 
ATOM     48  F4  UNL A   1      24.585  21.121  10.953  1.00  0.00    +0.000 F 
ATOM     49  C33 UNL A   1      25.592  20.075   9.092  1.00  0.00    +0.000 C 
ATOM     50  F5  UNL A   1      24.357  20.071   8.582  1.00  0.00    +0.000 F 
ENDBRANCH   39   40
BRANCH   56   57
ATOM     65  F9  UNL A   1      22.864  10.337   8.379  1.00  0.00    +0.000 F 
ATOM     66  C44 UNL A   1      23.139  12.656   8.023  1.00  0.00    +0.000 C 
ATOM     67  F10 UNL A   1      23.257  12.826   9.350  1.00  0.00    +0.000 F 
ATOM     57  C39 UNL A   1      23.274  13.753   7.164  1.00  0.00    +0.000 C 
ATOM     58  C40 UNL A   1      23.196  13.505   5.782  1.00  0.00    +0.000 C 
ATOM     59  F6  UNL A   1      23.409  14.485   4.895  1.00  0.00    +0.000 F 
ATOM     60  C41 UNL A   1      22.952  12.223   5.290  1.00  0.00    +0.000 C 
ATOM     61  F7  UNL A   1      22.871  12.013   3.968  1.00  0.00    +0.000 F 
ATOM     62  C42 UNL A   1      22.829  11.156   6.165  1.00  0.00    +0.000 C 
ATOM     63  F8  UNL A   1      22.638   9.915   5.694  1.00  0.00    +0.000 F 
ATOM     64  C43 UNL A   1      22.933  11.372   7.530  1.00  0.00    +0.000 C 
ENDBRANCH   56   57
BRANCH   71   72
ATOM     72  C48 UNL A   1      18.417  17.736   7.078  1.00  0.00    +0.000 C 
ATOM     73  C49 UNL A   1      17.552  17.033   7.931  1.00  0.00    +0.000 C 
ATOM     74  F11 UNL A   1      17.831  15.768   8.280  1.00  0.00    +0.000 F 
ATOM     75  C50 UNL A   1      16.427  17.640   8.499  1.00  0.00    +0.000 C 
ATOM     76  F12 UNL A   1      15.661  16.957   9.360  1.00  0.00    +0.000 F 
ATOM     77  C51 UNL A   1      16.133  18.966   8.224  1.00  0.00    +0.000 C 
ATOM     78  F13 UNL A   1      15.095  19.569   8.821  1.00  0.00    +0.000 F 
ATOM     79  C52 UNL A   1      16.947  19.677   7.362  1.00  0.00    +0.000 C 
ATOM     80  F14 UNL A   1      16.697  20.971   7.120  1.00  0.00    +0.000 F 
ATOM     81  C53 UNL A   1      18.072  19.072   6.798  1.00  0.00    +0.000 C 
ATOM     82  F15 UNL A   1      18.873  19.847   6.052  1.00  0.00    +0.000 F 
ENDBRANCH   71   72
TORSDOF 19
ENDMDL
MODEL 2
REMARK VINA RESULT:     -10.6      2.701      4.804
ROOT
ATOM    129  H32 UNL A   1      26.729  21.042   5.395  1.00  0.00    +0.000 H 
ATOM    130  H33 UNL A   1      24.519  20.852   4.070  1.00  0.00    +0.000 H 
ATOM     35  C24 UNL A   1      23.693  18.115   3.768  1.00  0.00    +0.000 C 
ATOM     36  C25 UNL A   1      24.764  18.665   4.630  1.00  0.00    +0.000 C 
ATOM     37  N5  UNL A   1      25.616  18.002   5.338  1.00  0.00    +0.000 N 
ATOM     38  C26 UNL A   1      26.378  18.958   6.000  1.00  0.00    +0.000 C 
ATOM     39  C27 UNL A   1      26.905  18.687   7.228  1.00  0.00    +0.000 C 
ATOM     51  C34 UNL A   1      26.883  17.263   7.483  1.00  0.00    +0.000 C 
ATOM     52  C35 UNL A   1      27.422  16.152   6.863  1.00  0.00    +0.000 C 
ATOM     53  C36 UNL A   1      26.422  15.140   6.975  1.00  0.00    +0.000 C 
ATOM     54  C37 UNL A   1      25.363  15.662   7.720  1.00  0.00    +0.000 C 
ATOM     55  N6  UNL A   1      25.890  16.782   8.302  1.00  0.00    +0.000 N 
ATOM     56  C38 UNL A   1      23.981  15.269   7.863  1.00  0.00    +0.000 C 
ATOM     68  C45 UNL A   1      22.974  16.095   8.273  1.00  0.00    +0.000 C 
ATOM     69  N7  UNL A   1      21.653  15.815   7.954  1.00  0.00    +0.000 N 
ATOM     70  C46 UNL A   1      21.068  16.982   7.914  1.00  0.00    +0.000 C 
ATOM     71  C47 UNL A   1      20.065  17.354   6.884  1.00  0.00    +0.000 C 
ATOM     83  C54 UNL A   1      20.727  17.398   5.699  1.00  0.00    +0.000 C 
ATOM     84  C55 UNL A   1      20.224  17.344   4.347  1.00  0.00    +0.000 C 
ATOM     85  C56 UNL A   1      21.272  17.408   3.503  1.00  0.00    +0.000 C 
ATOM     86  C57 UNL A   1      22.502  17.695   4.253  1.00  0.00    +0.000 C 
ATOM     87  N8  UNL A   1      22.125  17.558   5.569  1.00  0.00    +0.000 N 
ATOM     88  C58 UNL A   1      21.771  18.060   8.591  1.00  0.00    +0.000 C 
ATOM     89  C59 UNL A   1      22.970  17.485   8.724  1.00  0.00    +0.000 C 
ATOM     90  C60 UNL A   1      26.137  20.200   5.316  1.00  0.00    +0.000 C 
ATOM     91  C61 UNL A   1      25.038  20.109   4.564  1.00  0.00    +0.000 C 
ATOM    121  H24 UNL A   1      28.349  16.072   6.416  1.00  0.00    +0.000 H 
ATOM    122  H25 UNL A   1      26.472  14.191   6.576  1.00  0.00    +0.000 H 
ATOM    123  H26 UNL A   1      25.608  17.176   9.160  1.00  0.00    +0.000 H 
ATOM    124  H27 UNL A   1      19.231  17.269   4.073  1.00  0.00    +0.000 H 
ATOM    125  H28 UNL A   1      21.219  17.277   2.480  1.00  0.00    +0.000 H 
ATOM    126  H29 UNL A   1      22.753  17.570   6.326  1.00  0.00    +0.000 H 
ATOM    127  H30 UNL A   1      21.440  18.993   8.881  1.00  0.00    +0.000 H 
ATOM    128  H31 UNL A   1      23.799  17.968   9.102  1.00  0.00    +0.000 H 
ENDROOT
BRANCH   35   34
ATOM     33  C22 UNL A   1      24.450  17.295   1.524  1.00  0.00    +0.000 C 
ATOM     34  C23 UNL A   1      23.924  18.303   2.345  1.00  0.00    +0.000 C 
ATOM    131  H34 UNL A   1      23.435  20.349   2.480  1.00  0.00    +0.000 H 
ATOM    132  H35 UNL A   1      23.258  20.589   0.075  1.00  0.00    +0.000 H 
ATOM    119  H22 UNL A   1      25.183  16.888  -0.418  1.00  0.00    +0.000 H 
ATOM    120  H23 UNL A   1      24.631  16.352   1.902  1.00  0.00    +0.000 H 
ATOM     92  C62 UNL A   1      23.662  19.568   1.845  1.00  0.00    +0.000 C 
ATOM     93  C63 UNL A   1      23.712  19.763   0.496  1.00  0.00    +0.000 C 
ATOM     31  C20 UNL A   1      24.375  18.845  -0.308  1.00  0.00    +0.000 C 
ATOM     32  C21 UNL A   1      24.727  17.587   0.190  1.00  0.00    +0.000 C 
BRANCH   31   29
ATOM     29  C19 UNL A   1      24.710  19.268  -1.678  1.00  0.00    +0.000 C 
ATOM     30  O6  UNL A   1      25.842  19.101  -2.118  1.00  0.00    +0.000 O 
BRANCH   29   28
ATOM     28  N4  UNL A   1      23.724  19.844  -2.459  1.00  0.00    +0.000 N 
ATOM    118  H21 UNL A   1      22.997  19.248  -2.748  1.00  0.00    +0.000 H 
BRANCH   28   27
ATOM     27  C18 UNL A   1      23.633  21.238  -2.909  1.00  0.00    +0.000 C 
ATOM    116  H19 UNL A   1      22.602  21.490  -3.048  1.00  0.00    +0.000 H 
ATOM    117  H20 UNL A   1      24.084  21.857  -2.161  1.00  0.00    +0.000 H 
BRANCH   27   26
ATOM     26  C17 UNL A   1      24.375  21.462  -4.215  1.00  0.00    +0.000 C 
ATOM    115  H18 UNL A   1      23.722  22.016  -4.856  1.00  0.00    +0.000 H 
ATOM    114  H17 UNL A   1      24.634  20.507  -4.625  1.00  0.00    +0.000 H 
BRANCH   26   25
ATOM     25  C16 UNL A   1      25.662  22.288  -4.059  1.00  0.00    +0.000 C 
ATOM    113  H16 UNL A   1      25.675  22.604  -3.036  1.00  0.00    +0.000 H 
ATOM    112  H15 UNL A   1      25.623  23.088  -4.768  1.00  0.00    +0.000 H 
BRANCH   25   24
ATOM    110  H13 UNL A   1      26.764  20.489  -4.327  1.00  0.00    +0.000 H 
ATOM    111  H14 UNL A   1      27.407  21.931  -5.174  1.00  0.00    +0.000 H 
ATOM     24  C15 UNL A   1      26.985  21.535  -4.274  1.00  0.00    +0.000 C 
BRANCH   24   23
ATOM    108  H11 UNL A   1      27.547  21.981  -2.267  1.00  0.00    +0.000 H 
ATOM    109  H12 UNL A   1      28.604  20.830  -3.107  1.00  0.00    +0.000 H 
ATOM     23  C14 UNL A   1      28.044  21.739  -3.183  1.00  0.00    +0.000 C 
BRANCH   23   22
ATOM    106  H9  UNL A   1      28.708  23.769  -3.052  1.00  0.00    +0.000 H 
ATOM    107  H10 UNL A   1      30.002  22.592  -3.138  1.00  0.00    +0.000 H 
ATOM     22  C13 UNL A   1      29.036  22.859  -3.511  1.00  0.00    +0.000 C 
BRANCH   22   21
ATOM    105  H8  UNL A   1      29.216  22.206  -5.449  1.00  0.00    +0.000 H 
ATOM     21  N3  UNL A   1      29.115  23.047  -4.947  1.00  0.00    +0.000 N 
BRANCH   21   19
ATOM     19  C12 UNL A   1      29.078  24.162  -5.748  1.00  0.00    +0.000 C 
ATOM     20  O5  UNL A   1      29.944  25.019  -5.576  1.00  0.00    +0.000 O 
BRANCH   19   18
ATOM    133  H36 UNL A   1      27.613  22.434  -7.345  1.00  0.00    +0.000 H 
ATOM    134  H37 UNL A   1      25.569  22.967  -8.533  1.00  0.00    +0.000 H 
ATOM    103  H6  UNL A   1      26.366  27.064  -8.043  1.00  0.00    +0.000 H 
ATOM    104  H7  UNL A   1      28.226  26.511  -6.581  1.00  0.00    +0.000 H 
ATOM     15  C8  UNL A   1      25.771  25.056  -8.323  1.00  0.00    +0.000 C 
ATOM     16  C9  UNL A   1      26.573  26.078  -7.817  1.00  0.00    +0.000 C 
ATOM     17  C10 UNL A   1      27.661  25.755  -6.998  1.00  0.00    +0.000 C 
ATOM     18  C11 UNL A   1      27.995  24.416  -6.737  1.00  0.00    +0.000 C 
ATOM     94  C64 UNL A   1      27.288  23.411  -7.398  1.00  0.00    +0.000 C 
ATOM     95  C65 UNL A   1      26.144  23.723  -8.131  1.00  0.00    +0.000 C 
BRANCH   15   14
ATOM    102  H5  UNL A   1      21.464  25.597  -9.384  1.00  0.00    +0.000 H 
ATOM      9  C5  UNL A   1      23.321  25.469  -8.462  1.00  0.00    +0.000 C 
ATOM     10  C6  UNL A   1      22.486  25.504  -9.494  1.00  0.00    +0.000 C 
ATOM     11  O3  UNL A   1      23.107  25.406 -10.738  1.00  0.00    +0.000 O 
ATOM     12  C7  UNL A   1      24.452  25.303 -10.381  1.00  0.00    +0.000 C 
ATOM     13  O4  UNL A   1      25.345  25.156 -11.206  1.00  0.00    +0.000 O 
ATOM     14  N2  UNL A   1      24.572  25.346  -8.995  1.00  0.00    +0.000 N 
BRANCH    9    8
ATOM     97  C67 UNL A   1      22.902  24.821  -4.765  1.00  0.00    +0.000 C 
ATOM    100  H3  UNL A   1      22.006  28.057  -4.898  1.00  0.00    +0.000 H 
ATOM      5  C1  UNL A   1      22.476  26.079  -4.324  1.00  0.00    +0.000 C 
ATOM      6  C2  UNL A   1      22.318  27.130  -5.227  1.00  0.00    +0.000 C 
ATOM      7  C3  UNL A   1      22.585  26.917  -6.582  1.00  0.00    +0.000 C 
ATOM    136  H39 UNL A   1      23.023  24.050  -4.091  1.00  0.00    +0.000 H 
ATOM    101  H4  UNL A   1      22.463  27.691  -7.252  1.00  0.00    +0.000 H 
ATOM    135  H38 UNL A   1      23.460  23.681  -6.453  1.00  0.00    +0.000 H 
ATOM      8  C4  UNL A   1      23.018  25.661  -7.044  1.00  0.00    +0.000 C 
ATOM     96  C66 UNL A   1      23.161  24.613  -6.124  1.00  0.00    +0.000 C 
BRANCH    5    2
ATOM      2  S1  UNL A   1      22.205  26.347  -2.596  1.00  0.00    +0.000 S 
ATOM      3  O1  UNL A   1      23.287  27.154  -2.064  1.00  0.00    +0.000 O 
ATOM      4  O2  UNL A   1      21.797  25.108  -1.993  1.00  0.00    +0.000 O 
BRANCH    2    1
ATOM      1  N1  UNL A   1      20.857  27.348  -2.601  1.00  0.00    +0.000 N 
ATOM     98  H1  UNL A   1      20.857  27.914  -3.449  1.00  0.00    +0.000 H 
ATOM     99  H2  UNL A   1      20.884  27.958  -1.785  1.00  0.00    +0.000 H 
ENDBRANCH    2    1
ENDBRANCH    5    2
ENDBRANCH    9    8
ENDBRANCH   15   14
ENDBRANCH   19   18
ENDBRANCH   21   19
ENDBRANCH   22   21
ENDBRANCH   23   22
ENDBRANCH   24   23
ENDBRANCH   25   24
ENDBRANCH   26   25
ENDBRANCH   27   26
ENDBRANCH   28   27
ENDBRANCH   29   28
ENDBRANCH   31   29
ENDBRANCH   35   34
BRANCH   39   40
ATOM     40  C28 UNL A   1      27.022  19.692   8.358  1.00  0.00    +0.000 C 
ATOM     41  C29 UNL A   1      28.132  19.592   9.226  1.00  0.00    +0.000 C 
ATOM     42  F1  UNL A   1      29.202  18.857   8.886  1.00  0.00    +0.000 F 
ATOM     43  C30 UNL A   1      28.126  20.150  10.506  1.00  0.00    +0.000 C 
ATOM     44  F2  UNL A   1      29.138  19.894  11.346  1.00  0.00    +0.000 F 
ATOM     45  C31 UNL A   1      27.047  20.895  10.940  1.00  0.00    +0.000 C 
ATOM     46  F3  UNL A   1      27.003  21.366  12.193  1.00  0.00    +0.000 F 
ATOM     47  C32 UNL A   1      25.993  21.113  10.082  1.00  0.00    +0.000 C 
ATOM     48  F4  UNL A   1      24.935  21.831  10.485  1.00  0.00    +0.000 F 
ATOM     49  C33 UNL A   1      25.973  20.516   8.822  1.00  0.00    +0.000 C 
ATOM     50  F5  UNL A   1      24.841  20.706   8.138  1.00  0.00    +0.000 F 
ENDBRANCH   39   40
BRANCH   56   57
ATOM     65  F9  UNL A   1      22.812  12.552   4.020  1.00  0.00    +0.000 F 
ATOM     66  C44 UNL A   1      23.465  13.794   5.921  1.00  0.00    +0.000 C 
ATOM     67  F10 UNL A   1      23.753  14.832   5.120  1.00  0.00    +0.000 F 
ATOM     57  C39 UNL A   1      23.601  13.923   7.309  1.00  0.00    +0.000 C 
ATOM     58  C40 UNL A   1      23.232  12.821   8.100  1.00  0.00    +0.000 C 
ATOM     59  F6  UNL A   1      23.245  12.899   9.437  1.00  0.00    +0.000 F 
ATOM     60  C41 UNL A   1      22.785  11.633   7.521  1.00  0.00    +0.000 C 
ATOM     61  F7  UNL A   1      22.449  10.592   8.297  1.00  0.00    +0.000 F 
ATOM     62  C42 UNL A   1      22.654  11.538   6.146  1.00  0.00    +0.000 C 
ATOM     63  F8  UNL A   1      22.183  10.412   5.589  1.00  0.00    +0.000 F 
ATOM     64  C43 UNL A   1      22.984  12.621   5.347  1.00  0.00    +0.000 C 
ENDBRANCH   56   57
BRANCH   71   72
ATOM     72  C48 UNL A   1      18.725  17.882   7.226  1.00  0.00    +0.000 C 
ATOM     73  C49 UNL A   1      18.248  19.072   6.654  1.00  0.00    +0.000 C 
ATOM     74  F11 UNL A   1      19.080  19.873   5.972  1.00  0.00    +0.000 F 
ATOM     75  C50 UNL A   1      16.894  19.423   6.710  1.00  0.00    +0.000 C 
ATOM     76  F12 UNL A   1      16.465  20.535   6.096  1.00  0.00    +0.000 F 
ATOM     77  C51 UNL A   1      15.982  18.595   7.344  1.00  0.00    +0.000 C 
ATOM     78  F13 UNL A   1      14.676  18.895   7.338  1.00  0.00    +0.000 F 
ATOM     79  C52 UNL A   1      16.426  17.431   7.945  1.00  0.00    +0.000 C 
ATOM     80  F14 UNL A   1      15.547  16.602   8.526  1.00  0.00    +0.000 F 
ATOM     81  C53 UNL A   1      17.775  17.080   7.886  1.00  0.00    +0.000 C 
ATOM     82  F15 UNL A   1      18.120  15.891   8.402  1.00  0.00    +0.000 F 
ENDBRANCH   71   72
TORSDOF 19
ENDMDL
MODEL 3
REMARK VINA RESULT:     -10.6      2.000      3.785
ROOT
ATOM    129  H32 UNL A   1      26.653  21.105   5.293  1.00  0.00    +0.000 H 
ATOM    130  H33 UNL A   1      24.416  20.927   4.012  1.00  0.00    +0.000 H 
ATOM     35  C24 UNL A   1      23.592  18.191   3.689  1.00  0.00    +0.000 C 
ATOM     36  C25 UNL A   1      24.679  18.733   4.536  1.00  0.00    +0.000 C 
ATOM     37  N5  UNL A   1      25.548  18.063   5.217  1.00  0.00    +0.000 N 
ATOM     38  C26 UNL A   1      26.321  19.012   5.876  1.00  0.00    +0.000 C 
ATOM     39  C27 UNL A   1      26.874  18.726   7.089  1.00  0.00    +0.000 C 
ATOM     51  C34 UNL A   1      26.861  17.299   7.324  1.00  0.00    +0.000 C 
ATOM     52  C35 UNL A   1      27.391  16.198   6.678  1.00  0.00    +0.000 C 
ATOM     53  C36 UNL A   1      26.396  15.181   6.797  1.00  0.00    +0.000 C 
ATOM     54  C37 UNL A   1      25.351  15.689   7.571  1.00  0.00    +0.000 C 
ATOM     55  N6  UNL A   1      25.888  16.803   8.158  1.00  0.00    +0.000 N 
ATOM     56  C38 UNL A   1      23.974  15.290   7.737  1.00  0.00    +0.000 C 
ATOM     68  C45 UNL A   1      22.973  16.107   8.179  1.00  0.00    +0.000 C 
ATOM     69  N7  UNL A   1      21.647  15.827   7.885  1.00  0.00    +0.000 N 
ATOM     70  C46 UNL A   1      21.058  16.992   7.873  1.00  0.00    +0.000 C 
ATOM     71  C47 UNL A   1      20.033  17.375   6.869  1.00  0.00    +0.000 C 
ATOM     83  C54 UNL A   1      20.669  17.438   5.672  1.00  0.00    +0.000 C 
ATOM     84  C55 UNL A   1      20.139  17.401   4.330  1.00  0.00    +0.000 C 
ATOM     85  C56 UNL A   1      21.169  17.480   3.465  1.00  0.00    +0.000 C 
ATOM     86  C57 UNL A   1      22.413  17.760   4.192  1.00  0.00    +0.000 C 
ATOM     87  N8  UNL A   1      22.064  17.604   5.514  1.00  0.00    +0.000 N 
ATOM     88  C58 UNL A   1      21.771  18.063   8.549  1.00  0.00    +0.000 C 
ATOM     89  C59 UNL A   1      22.975  17.490   8.649  1.00  0.00    +0.000 C 
ATOM     90  C60 UNL A   1      26.061  20.262   5.215  1.00  0.00    +0.000 C 
ATOM     91  C61 UNL A   1      24.947  20.178   4.485  1.00  0.00    +0.000 C 
ATOM    121  H24 UNL A   1      28.309  16.127   6.211  1.00  0.00    +0.000 H 
ATOM    122  H25 UNL A   1      26.441  14.238   6.383  1.00  0.00    +0.000 H 
ATOM    123  H26 UNL A   1      25.623  17.184   9.026  1.00  0.00    +0.000 H 
ATOM    124  H27 UNL A   1      19.140  17.327   4.075  1.00  0.00    +0.000 H 
ATOM    125  H28 UNL A   1      21.094  17.363   2.442  1.00  0.00    +0.000 H 
ATOM    126  H29 UNL A   1      22.707  17.608   6.259  1.00  0.00    +0.000 H 
ATOM    127  H30 UNL A   1      21.444  18.991   8.860  1.00  0.00    +0.000 H 
ATOM    128  H31 UNL A   1      23.810  17.971   9.017  1.00  0.00    +0.000 H 
ENDROOT
BRANCH   35   34
ATOM     33  C22 UNL A   1      24.362  17.427   1.430  1.00  0.00    +0.000 C 
ATOM     34  C23 UNL A   1      23.792  18.400   2.264  1.00  0.00    +0.000 C 
ATOM    131  H34 UNL A   1      23.195  20.415   2.420  1.00  0.00    +0.000 H 
ATOM    132  H35 UNL A   1      22.972  20.659   0.019  1.00  0.00    +0.000 H 
ATOM    119  H22 UNL A   1      25.088  17.072  -0.524  1.00  0.00    +0.000 H 
ATOM    120  H23 UNL A   1      24.598  16.493   1.800  1.00  0.00    +0.000 H 
ATOM     92  C62 UNL A   1      23.455  19.652   1.776  1.00  0.00    +0.000 C 
ATOM     93  C63 UNL A   1      23.476  19.857   0.428  1.00  0.00    +0.000 C 
ATOM     31  C20 UNL A   1      24.177  18.982  -0.391  1.00  0.00    +0.000 C 
ATOM     32  C21 UNL A   1      24.604  17.741   0.094  1.00  0.00    +0.000 C 
BRANCH   31   29
ATOM     29  C19 UNL A   1      24.469  19.429  -1.763  1.00  0.00    +0.000 C 
ATOM     30  O6  UNL A   1      25.628  19.544  -2.143  1.00  0.00    +0.000 O 
BRANCH   29   28
ATOM     28  N4  UNL A   1      23.414  19.707  -2.613  1.00  0.00    +0.000 N 
ATOM    118  H21 UNL A   1      22.752  18.989  -2.731  1.00  0.00    +0.000 H 
BRANCH   28   27
ATOM     27  C18 UNL A   1      23.165  20.945  -3.362  1.00  0.00    +0.000 C 
ATOM    116  H19 UNL A   1      24.097  21.320  -3.730  1.00  0.00    +0.000 H 
ATOM    117  H20 UNL A   1      22.497  20.717  -4.166  1.00  0.00    +0.000 H 
BRANCH   27   26
ATOM     26  C17 UNL A   1      22.515  22.010  -2.496  1.00  0.00    +0.000 C 
ATOM    115  H18 UNL A   1      23.198  22.832  -2.443  1.00  0.00    +0.000 H 
ATOM    114  H17 UNL A   1      22.311  21.587  -1.534  1.00  0.00    +0.000 H 
BRANCH   26   25
ATOM     25  C16 UNL A   1      21.199  22.554  -3.075  1.00  0.00    +0.000 C 
ATOM    113  H16 UNL A   1      20.902  21.848  -3.821  1.00  0.00    +0.000 H 
ATOM    112  H15 UNL A   1      21.390  23.538  -3.449  1.00  0.00    +0.000 H 
BRANCH   25   24
ATOM    110  H13 UNL A   1      20.323  22.230  -1.164  1.00  0.00    +0.000 H 
ATOM    111  H14 UNL A   1      19.756  23.684  -2.045  1.00  0.00    +0.000 H 
ATOM     24  C15 UNL A   1      20.013  22.646  -2.100  1.00  0.00    +0.000 C 
BRANCH   24   23
ATOM    108  H11 UNL A   1      18.988  21.246  -3.337  1.00  0.00    +0.000 H 
ATOM    109  H12 UNL A   1      18.351  21.402  -1.689  1.00  0.00    +0.000 H 
ATOM     23  C14 UNL A   1      18.738  21.918  -2.543  1.00  0.00    +0.000 C 
BRANCH   23   22
ATOM    106  H9  UNL A   1      17.874  23.191  -4.030  1.00  0.00    +0.000 H 
ATOM    107  H10 UNL A   1      16.704  22.355  -3.030  1.00  0.00    +0.000 H 
ATOM     22  C13 UNL A   1      17.642  22.868  -3.036  1.00  0.00    +0.000 C 
BRANCH   22   21
ATOM    105  H8  UNL A   1      17.574  23.795  -1.206  1.00  0.00    +0.000 H 
ATOM     21  N3  UNL A   1      17.559  24.024  -2.163  1.00  0.00    +0.000 N 
BRANCH   21   19
ATOM     19  C12 UNL A   1      17.463  25.372  -2.403  1.00  0.00    +0.000 C 
ATOM     20  O5  UNL A   1      16.453  25.781  -2.972  1.00  0.00    +0.000 O 
BRANCH   19   18
ATOM    133  H36 UNL A   1      19.317  25.431  -0.342  1.00  0.00    +0.000 H 
ATOM    134  H37 UNL A   1      21.322  26.790  -0.257  1.00  0.00    +0.000 H 
ATOM    103  H6  UNL A   1      19.801  29.206  -3.341  1.00  0.00    +0.000 H 
ATOM    104  H7  UNL A   1      17.960  27.648  -3.633  1.00  0.00    +0.000 H 
ATOM     15  C8  UNL A   1      20.750  28.064  -1.838  1.00  0.00    +0.000 C 
ATOM     16  C9  UNL A   1      19.750  28.350  -2.766  1.00  0.00    +0.000 C 
ATOM     17  C10 UNL A   1      18.675  27.465  -2.912  1.00  0.00    +0.000 C 
ATOM     18  C11 UNL A   1      18.558  26.332  -2.090  1.00  0.00    +0.000 C 
ATOM     94  C64 UNL A   1      19.472  26.164  -1.051  1.00  0.00    +0.000 C 
ATOM     95  C65 UNL A   1      20.598  26.982  -0.966  1.00  0.00    +0.000 C 
BRANCH   15   14
ATOM    102  H5  UNL A   1      24.965  29.489  -2.249  1.00  0.00    +0.000 H 
ATOM      9  C5  UNL A   1      23.094  28.614  -2.468  1.00  0.00    +0.000 C 
ATOM     10  C6  UNL A   1      23.987  29.435  -1.926  1.00  0.00    +0.000 C 
ATOM     11  O3  UNL A   1      23.490  30.219  -0.886  1.00  0.00    +0.000 O 
ATOM     12  C7  UNL A   1      22.160  29.801  -0.821  1.00  0.00    +0.000 C 
ATOM     13  O4  UNL A   1      21.372  30.231   0.012  1.00  0.00    +0.000 O 
ATOM     14  N2  UNL A   1      21.928  28.828  -1.789  1.00  0.00    +0.000 N 
BRANCH    9    8
ATOM     97  C67 UNL A   1      23.473  25.542  -4.630  1.00  0.00    +0.000 C 
ATOM    100  H3  UNL A   1      23.412  27.923  -7.001  1.00  0.00    +0.000 H 
ATOM      5  C1  UNL A   1      23.495  26.119  -5.905  1.00  0.00    +0.000 C 
ATOM      6  C2  UNL A   1      23.397  27.501  -6.059  1.00  0.00    +0.000 C 
ATOM      7  C3  UNL A   1      23.279  28.311  -4.926  1.00  0.00    +0.000 C 
ATOM    136  H39 UNL A   1      23.539  24.518  -4.525  1.00  0.00    +0.000 H 
ATOM    101  H4  UNL A   1      23.211  29.334  -5.037  1.00  0.00    +0.000 H 
ATOM    135  H38 UNL A   1      23.359  25.936  -2.558  1.00  0.00    +0.000 H 
ATOM      8  C4  UNL A   1      23.250  27.750  -3.636  1.00  0.00    +0.000 C 
ATOM     96  C66 UNL A   1      23.360  26.359  -3.500  1.00  0.00    +0.000 C 
BRANCH    5    2
ATOM      2  S1  UNL A   1      23.582  25.073  -7.330  1.00  0.00    +0.000 S 
ATOM      3  O1  UNL A   1      22.426  24.196  -7.347  1.00  0.00    +0.000 O 
ATOM      4  O2  UNL A   1      24.925  24.582  -7.464  1.00  0.00    +0.000 O 
BRANCH    2    1
ATOM      1  N1  UNL A   1      23.339  26.162  -8.583  1.00  0.00    +0.000 N 
ATOM     98  H1  UNL A   1      22.740  25.738  -9.291  1.00  0.00    +0.000 H 
ATOM     99  H2  UNL A   1      24.237  26.406  -9.000  1.00  0.00    +0.000 H 
ENDBRANCH    2    1
ENDBRANCH    5    2
ENDBRANCH    9    8
ENDBRANCH   15   14
ENDBRANCH   19   18
ENDBRANCH   21   19
ENDBRANCH   22   21
ENDBRANCH   23   22
ENDBRANCH   24   23
ENDBRANCH   25   24
ENDBRANCH   26   25
ENDBRANCH   27   26
ENDBRANCH   28   27
ENDBRANCH   29   28
ENDBRANCH   31   29
ENDBRANCH   35   34
BRANCH   39   40
ATOM     40  C28 UNL A   1      27.012  19.716   8.230  1.00  0.00    +0.000 C 
ATOM     41  C29 UNL A   1      28.146  19.616   9.065  1.00  0.00    +0.000 C 
ATOM     42  F1  UNL A   1      29.214  18.897   8.685  1.00  0.00    +0.000 F 
ATOM     43  C30 UNL A   1      28.170  20.155  10.353  1.00  0.00    +0.000 C 
ATOM     44  F2  UNL A   1      29.208  19.898  11.161  1.00  0.00    +0.000 F 
ATOM     45  C31 UNL A   1      27.096  20.881  10.828  1.00  0.00    +0.000 C 
ATOM     46  F3  UNL A   1      27.082  21.333  12.088  1.00  0.00    +0.000 F 
ATOM     47  C32 UNL A   1      26.016  21.099  10.004  1.00  0.00    +0.000 C 
ATOM     48  F4  UNL A   1      24.961  21.799  10.446  1.00  0.00    +0.000 F 
ATOM     49  C33 UNL A   1      25.967  20.521   8.736  1.00  0.00    +0.000 C 
ATOM     50  F5  UNL A   1      24.814  20.708   8.087  1.00  0.00    +0.000 F 
ENDBRANCH   39   40
BRANCH   56   57
ATOM     65  F9  UNL A   1      22.710  12.628   3.886  1.00  0.00    +0.000 F 
ATOM     66  C44 UNL A   1      23.411  13.843   5.788  1.00  0.00    +0.000 C 
ATOM     67  F10 UNL A   1      23.668  14.896   4.995  1.00  0.00    +0.000 F 
ATOM     57  C39 UNL A   1      23.587  13.950   7.172  1.00  0.00    +0.000 C 
ATOM     58  C40 UNL A   1      23.249  12.833   7.956  1.00  0.00    +0.000 C 
ATOM     59  F6  UNL A   1      23.301  12.890   9.293  1.00  0.00    +0.000 F 
ATOM     60  C41 UNL A   1      22.793  11.652   7.371  1.00  0.00    +0.000 C 
ATOM     61  F7  UNL A   1      22.486  10.595   8.139  1.00  0.00    +0.000 F 
ATOM     62  C42 UNL A   1      22.621  11.578   5.998  1.00  0.00    +0.000 C 
ATOM     63  F8  UNL A   1      22.142  10.458   5.438  1.00  0.00    +0.000 F 
ATOM     64  C43 UNL A   1      22.920  12.677   5.209  1.00  0.00    +0.000 C 
ENDBRANCH   56   57
BRANCH   71   72
ATOM     72  C48 UNL A   1      18.698  17.894   7.246  1.00  0.00    +0.000 C 
ATOM     73  C49 UNL A   1      18.207  19.092   6.704  1.00  0.00    +0.000 C 
ATOM     74  F11 UNL A   1      19.023  19.906   6.018  1.00  0.00    +0.000 F 
ATOM     75  C50 UNL A   1      16.854  19.438   6.792  1.00  0.00    +0.000 C 
ATOM     76  F12 UNL A   1      16.410  20.558   6.205  1.00  0.00    +0.000 F 
ATOM     77  C51 UNL A   1      15.957  18.598   7.431  1.00  0.00    +0.000 C 
ATOM     78  F13 UNL A   1      14.650  18.894   7.456  1.00  0.00    +0.000 F 
ATOM     79  C52 UNL A   1      16.415  17.426   8.004  1.00  0.00    +0.000 C 
ATOM     80  F14 UNL A   1      15.550  16.585   8.589  1.00  0.00    +0.000 F 
ATOM     81  C53 UNL A   1      17.764  17.078   7.912  1.00  0.00    +0.000 C 
ATOM     82  F15 UNL A   1      18.122  15.882   8.402  1.00  0.00    +0.000 F 
ENDBRANCH   71   72
TORSDOF 19
ENDMDL
MODEL 4
REMARK VINA RESULT:     -10.5     35.907     41.777
ROOT
ATOM    129  H32 UNL A   1      53.079  45.320  19.505  1.00  0.00    +0.000 H 
ATOM    130  H33 UNL A   1      50.759  45.294  20.639  1.00  0.00    +0.000 H 
ATOM     35  C24 UNL A   1      49.578  47.914  20.705  1.00  0.00    +0.000 C 
ATOM     36  C25 UNL A   1      50.778  47.462  19.965  1.00  0.00    +0.000 C 
ATOM     37  N5  UNL A   1      51.598  48.190  19.285  1.00  0.00    +0.000 N 
ATOM     38  C26 UNL A   1      52.526  47.307  18.745  1.00  0.00    +0.000 C 
ATOM     39  C27 UNL A   1      53.118  47.579  17.548  1.00  0.00    +0.000 C 
ATOM     51  C34 UNL A   1      52.941  48.973  17.203  1.00  0.00    +0.000 C 
ATOM     52  C35 UNL A   1      53.284  50.175  17.792  1.00  0.00    +0.000 C 
ATOM     53  C36 UNL A   1      52.179  51.043  17.539  1.00  0.00    +0.000 C 
ATOM     54  C37 UNL A   1      51.260  50.351  16.748  1.00  0.00    +0.000 C 
ATOM     55  N6  UNL A   1      51.970  49.279  16.280  1.00  0.00    +0.000 N 
ATOM     56  C38 UNL A   1      49.858  50.556  16.475  1.00  0.00    +0.000 C 
ATOM     68  C45 UNL A   1      48.999  49.586  16.040  1.00  0.00    +0.000 C 
ATOM     69  N7  UNL A   1      47.631  49.711  16.237  1.00  0.00    +0.000 N 
ATOM     70  C46 UNL A   1      47.194  48.482  16.305  1.00  0.00    +0.000 C 
ATOM     71  C47 UNL A   1      46.161  48.039  17.276  1.00  0.00    +0.000 C 
ATOM     83  C54 UNL A   1      46.720  48.142  18.508  1.00  0.00    +0.000 C 
ATOM     84  C55 UNL A   1      46.102  48.201  19.811  1.00  0.00    +0.000 C 
ATOM     85  C56 UNL A   1      47.074  48.317  20.737  1.00  0.00    +0.000 C 
ATOM     86  C57 UNL A   1      48.389  48.152  20.104  1.00  0.00    +0.000 C 
ATOM     87  N8  UNL A   1      48.111  48.170  18.757  1.00  0.00    +0.000 N 
ATOM     88  C58 UNL A   1      48.080  47.470  15.754  1.00  0.00    +0.000 C 
ATOM     89  C59 UNL A   1      49.205  48.186  15.678  1.00  0.00    +0.000 C 
ATOM     90  C60 UNL A   1      52.383  46.082  19.485  1.00  0.00    +0.000 C 
ATOM     91  C61 UNL A   1      51.221  46.070  20.142  1.00  0.00    +0.000 C 
ATOM    121  H24 UNL A   1      54.153  50.397  18.303  1.00  0.00    +0.000 H 
ATOM    122  H25 UNL A   1      52.078  52.010  17.881  1.00  0.00    +0.000 H 
ATOM    123  H26 UNL A   1      51.813  48.808  15.429  1.00  0.00    +0.000 H 
ATOM    124  H27 UNL A   1      45.088  48.162  20.002  1.00  0.00    +0.000 H 
ATOM    125  H28 UNL A   1      46.918  48.493  21.742  1.00  0.00    +0.000 H 
ATOM    126  H29 UNL A   1      48.798  48.199  18.052  1.00  0.00    +0.000 H 
ATOM    127  H30 UNL A   1      47.893  46.488  15.497  1.00  0.00    +0.000 H 
ATOM    128  H31 UNL A   1      50.117  47.794  15.397  1.00  0.00    +0.000 H 
ENDROOT
BRANCH   35   34
ATOM     33  C22 UNL A   1      50.405  48.788  22.903  1.00  0.00    +0.000 C 
ATOM     34  C23 UNL A   1      49.708  47.831  22.151  1.00  0.00    +0.000 C 
ATOM    131  H34 UNL A   1      48.801  45.929  22.179  1.00  0.00    +0.000 H 
ATOM    132  H35 UNL A   1      48.485  45.983  24.581  1.00  0.00    +0.000 H 
ATOM    119  H22 UNL A   1      51.132  49.234  24.838  1.00  0.00    +0.000 H 
ATOM    120  H23 UNL A   1      50.796  49.629  22.449  1.00  0.00    +0.000 H 
ATOM     92  C62 UNL A   1      49.165  46.707  22.751  1.00  0.00    +0.000 C 
ATOM     93  C63 UNL A   1      49.121  46.649  24.112  1.00  0.00    +0.000 C 
ATOM     31  C20 UNL A   1      49.932  47.487  24.865  1.00  0.00    +0.000 C 
ATOM     32  C21 UNL A   1      50.562  48.586  24.272  1.00  0.00    +0.000 C 
BRANCH   31   29
ATOM     29  C19 UNL A   1      50.117  47.150  26.286  1.00  0.00    +0.000 C 
ATOM     30  O6  UNL A   1      49.322  47.555  27.126  1.00  0.00    +0.000 O 
BRANCH   29   28
ATOM     28  N4  UNL A   1      51.193  46.361  26.651  1.00  0.00    +0.000 N 
ATOM    118  H21 UNL A   1      51.884  46.798  27.199  1.00  0.00    +0.000 H 
BRANCH   28   27
ATOM     27  C18 UNL A   1      51.430  44.952  26.317  1.00  0.00    +0.000 C 
ATOM    116  H19 UNL A   1      51.833  44.456  27.175  1.00  0.00    +0.000 H 
ATOM    117  H20 UNL A   1      50.495  44.519  26.026  1.00  0.00    +0.000 H 
BRANCH   27   26
ATOM     26  C17 UNL A   1      52.401  44.799  25.159  1.00  0.00    +0.000 C 
ATOM    115  H18 UNL A   1      53.206  44.184  25.504  1.00  0.00    +0.000 H 
ATOM    114  H17 UNL A   1      52.731  45.773  24.863  1.00  0.00    +0.000 H 
BRANCH   26   25
ATOM     25  C16 UNL A   1      51.792  44.099  23.933  1.00  0.00    +0.000 C 
ATOM    113  H16 UNL A   1      52.531  43.395  23.611  1.00  0.00    +0.000 H 
ATOM    112  H15 UNL A   1      51.555  44.853  23.213  1.00  0.00    +0.000 H 
BRANCH   25   24
ATOM    110  H13 UNL A   1      50.812  42.333  24.602  1.00  0.00    +0.000 H 
ATOM    111  H14 UNL A   1      49.908  43.863  24.835  1.00  0.00    +0.000 H 
ATOM     24  C15 UNL A   1      50.519  43.274  24.183  1.00  0.00    +0.000 C 
BRANCH   24   23
ATOM    108  H11 UNL A   1      49.179  42.045  23.069  1.00  0.00    +0.000 H 
ATOM    109  H12 UNL A   1      48.959  43.792  22.850  1.00  0.00    +0.000 H 
ATOM     23  C14 UNL A   1      49.663  42.991  22.942  1.00  0.00    +0.000 C 
BRANCH   23   22
ATOM    106  H9  UNL A   1      50.989  43.884  21.520  1.00  0.00    +0.000 H 
ATOM    107  H10 UNL A   1      51.189  42.154  21.703  1.00  0.00    +0.000 H 
ATOM     22  C13 UNL A   1      50.478  42.952  21.646  1.00  0.00    +0.000 C 
BRANCH   22   21
ATOM    105  H8  UNL A   1      49.718  41.845  20.093  1.00  0.00    +0.000 H 
ATOM     21  N3  UNL A   1      49.600  42.727  20.514  1.00  0.00    +0.000 N 
BRANCH   21   19
ATOM     19  C12 UNL A   1      48.637  43.498  19.910  1.00  0.00    +0.000 C 
ATOM     20  O5  UNL A   1      49.011  44.390  19.151  1.00  0.00    +0.000 O 
BRANCH   19   18
ATOM    133  H36 UNL A   1      47.083  41.271  20.467  1.00  0.00    +0.000 H 
ATOM    134  H37 UNL A   1      44.844  41.281  21.396  1.00  0.00    +0.000 H 
ATOM    103  H6  UNL A   1      44.472  45.352  20.421  1.00  0.00    +0.000 H 
ATOM    104  H7  UNL A   1      46.820  45.402  19.799  1.00  0.00    +0.000 H 
ATOM     15  C8  UNL A   1      44.506  43.334  21.043  1.00  0.00    +0.000 C 
ATOM     16  C9  UNL A   1      45.053  44.505  20.522  1.00  0.00    +0.000 C 
ATOM     17  C10 UNL A   1      46.399  44.523  20.137  1.00  0.00    +0.000 C 
ATOM     18  C11 UNL A   1      47.183  43.359  20.206  1.00  0.00    +0.000 C 
ATOM     94  C64 UNL A   1      46.568  42.159  20.560  1.00  0.00    +0.000 C 
ATOM     95  C65 UNL A   1      45.260  42.156  21.040  1.00  0.00    +0.000 C 
BRANCH   15   14
ATOM    102  H5  UNL A   1      41.048  43.000  23.852  1.00  0.00    +0.000 H 
ATOM      9  C5  UNL A   1      42.882  43.309  22.928  1.00  0.00    +0.000 C 
ATOM     10  C6  UNL A   1      41.577  43.065  22.969  1.00  0.00    +0.000 C 
ATOM     11  O3  UNL A   1      40.983  42.907  21.718  1.00  0.00    +0.000 O 
ATOM     12  C7  UNL A   1      42.069  43.079  20.859  1.00  0.00    +0.000 C 
ATOM     13  O4  UNL A   1      41.974  42.974  19.644  1.00  0.00    +0.000 O 
ATOM     14  N2  UNL A   1      43.219  43.327  21.605  1.00  0.00    +0.000 N 
BRANCH    9    8
ATOM     97  C67 UNL A   1      45.315  45.157  25.147  1.00  0.00    +0.000 C 
ATOM    100  H3  UNL A   1      44.861  42.370  26.969  1.00  0.00    +0.000 H 
ATOM      5  C1  UNL A   1      45.450  44.248  26.203  1.00  0.00    +0.000 C 
ATOM      6  C2  UNL A   1      44.760  43.037  26.188  1.00  0.00    +0.000 C 
ATOM      7  C3  UNL A   1      43.931  42.733  25.105  1.00  0.00    +0.000 C 
ATOM    136  H39 UNL A   1      45.824  46.054  25.169  1.00  0.00    +0.000 H 
ATOM    101  H4  UNL A   1      43.423  41.835  25.089  1.00  0.00    +0.000 H 
ATOM    135  H38 UNL A   1      44.400  45.506  23.276  1.00  0.00    +0.000 H 
ATOM      8  C4  UNL A   1      43.778  43.635  24.036  1.00  0.00    +0.000 C 
ATOM     96  C66 UNL A   1      44.488  44.843  24.063  1.00  0.00    +0.000 C 
BRANCH    5    2
ATOM      2  S1  UNL A   1      46.454  44.678  27.595  1.00  0.00    +0.000 S 
ATOM      3  O1  UNL A   1      47.852  44.583  27.221  1.00  0.00    +0.000 O 
ATOM      4  O2  UNL A   1      45.923  44.037  28.766  1.00  0.00    +0.000 O 
BRANCH    2    1
ATOM      1  N1  UNL A   1      46.144  46.319  27.762  1.00  0.00    +0.000 N 
ATOM     98  H1  UNL A   1      46.297  46.787  26.869  1.00  0.00    +0.000 H 
ATOM     99  H2  UNL A   1      46.769  46.714  28.465  1.00  0.00    +0.000 H 
ENDBRANCH    2    1
ENDBRANCH    5    2
ENDBRANCH    9    8
ENDBRANCH   15   14
ENDBRANCH   19   18
ENDBRANCH   21   19
ENDBRANCH   22   21
ENDBRANCH   23   22
ENDBRANCH   24   23
ENDBRANCH   25   24
ENDBRANCH   26   25
ENDBRANCH   27   26
ENDBRANCH   28   27
ENDBRANCH   29   28
ENDBRANCH   31   29
ENDBRANCH   35   34
BRANCH   39   40
ATOM     40  C28 UNL A   1      53.454  46.539  16.495  1.00  0.00    +0.000 C 
ATOM     41  C29 UNL A   1      54.731  46.589  15.894  1.00  0.00    +0.000 C 
ATOM     42  F1  UNL A   1      55.720  47.309  16.447  1.00  0.00    +0.000 F 
ATOM     43  C30 UNL A   1      54.994  45.995  14.658  1.00  0.00    +0.000 C 
ATOM     44  F2  UNL A   1      56.174  46.203  14.059  1.00  0.00    +0.000 F 
ATOM     45  C31 UNL A   1      54.017  45.263  14.011  1.00  0.00    +0.000 C 
ATOM     46  F3  UNL A   1      54.239  44.758  12.791  1.00  0.00    +0.000 F 
ATOM     47  C32 UNL A   1      52.793  45.095  14.617  1.00  0.00    +0.000 C 
ATOM     48  F4  UNL A   1      51.830  44.390  14.005  1.00  0.00    +0.000 F 
ATOM     49  C33 UNL A   1      52.511  45.727  15.827  1.00  0.00    +0.000 C 
ATOM     50  F5  UNL A   1      51.250  45.583  16.246  1.00  0.00    +0.000 F 
ENDBRANCH   39   40
BRANCH   56   57
ATOM     65  F9  UNL A   1      48.885  55.198  15.468  1.00  0.00    +0.000 F 
ATOM     66  C44 UNL A   1      49.244  52.922  15.989  1.00  0.00    +0.000 C 
ATOM     67  F10 UNL A   1      49.660  52.719  14.729  1.00  0.00    +0.000 F 
ATOM     57  C39 UNL A   1      49.269  51.869  16.912  1.00  0.00    +0.000 C 
ATOM     58  C40 UNL A   1      48.874  52.155  18.231  1.00  0.00    +0.000 C 
ATOM     59  F6  UNL A   1      48.960  51.225  19.191  1.00  0.00    +0.000 F 
ATOM     60  C41 UNL A   1      48.438  53.429  18.594  1.00  0.00    +0.000 C 
ATOM     61  F7  UNL A   1      48.056  53.675  19.857  1.00  0.00    +0.000 F 
ATOM     62  C42 UNL A   1      48.431  54.453  17.661  1.00  0.00    +0.000 C 
ATOM     63  F8  UNL A   1      48.053  55.688  18.019  1.00  0.00    +0.000 F 
ATOM     64  C43 UNL A   1      48.843  54.201  16.362  1.00  0.00    +0.000 C 
ENDBRANCH   56   57
BRANCH   71   72
ATOM     72  C48 UNL A   1      44.931  47.326  16.864  1.00  0.00    +0.000 C 
ATOM     73  C49 UNL A   1      44.826  45.931  16.985  1.00  0.00    +0.000 C 
ATOM     74  F11 UNL A   1      45.916  45.195  17.254  1.00  0.00    +0.000 F 
ATOM     75  C50 UNL A   1      43.592  45.276  16.906  1.00  0.00    +0.000 C 
ATOM     76  F12 UNL A   1      43.525  43.951  17.091  1.00  0.00    +0.000 F 
ATOM     77  C51 UNL A   1      42.429  46.000  16.698  1.00  0.00    +0.000 C 
ATOM     78  F13 UNL A   1      41.239  45.382  16.691  1.00  0.00    +0.000 F 
ATOM     79  C52 UNL A   1      42.501  47.372  16.543  1.00  0.00    +0.000 C 
ATOM     80  F14 UNL A   1      41.379  48.086  16.381  1.00  0.00    +0.000 F 
ATOM     81  C53 UNL A   1      43.732  48.025  16.625  1.00  0.00    +0.000 C 
ATOM     82  F15 UNL A   1      43.718  49.365  16.566  1.00  0.00    +0.000 F 
ENDBRANCH   71   72
TORSDOF 19
ENDMDL
MODEL 5
REMARK VINA RESULT:     -10.4      5.663     10.319
ROOT
ATOM    129  H32 UNL A   1      26.018  15.249   8.004  1.00  0.00    +0.000 H 
ATOM    130  H33 UNL A   1      26.197  14.458   5.551  1.00  0.00    +0.000 H 
ATOM     35  C24 UNL A   1      23.736  14.867   4.122  1.00  0.00    +0.000 C 
ATOM     36  C25 UNL A   1      24.120  15.372   5.459  1.00  0.00    +0.000 C 
ATOM     37  N5  UNL A   1      23.374  16.010   6.298  1.00  0.00    +0.000 N 
ATOM     38  C26 UNL A   1      24.195  16.306   7.381  1.00  0.00    +0.000 C 
ATOM     39  C27 UNL A   1      23.979  17.431   8.119  1.00  0.00    +0.000 C 
ATOM     51  C34 UNL A   1      22.657  17.958   7.860  1.00  0.00    +0.000 C 
ATOM     52  C35 UNL A   1      21.370  17.471   7.989  1.00  0.00    +0.000 C 
ATOM     53  C36 UNL A   1      20.665  17.977   6.856  1.00  0.00    +0.000 C 
ATOM     54  C37 UNL A   1      21.534  18.803   6.141  1.00  0.00    +0.000 C 
ATOM     55  N6  UNL A   1      22.559  19.038   7.016  1.00  0.00    +0.000 N 
ATOM     56  C38 UNL A   1      21.520  19.294   4.784  1.00  0.00    +0.000 C 
ATOM     68  C45 UNL A   1      22.621  19.730   4.101  1.00  0.00    +0.000 C 
ATOM     69  N7  UNL A   1      22.635  19.744   2.714  1.00  0.00    +0.000 N 
ATOM     70  C46 UNL A   1      23.893  19.596   2.395  1.00  0.00    +0.000 C 
ATOM     71  C47 UNL A   1      24.351  18.735   1.275  1.00  0.00    +0.000 C 
ATOM     83  C54 UNL A   1      24.061  17.457   1.625  1.00  0.00    +0.000 C 
ATOM     84  C55 UNL A   1      23.942  16.270   0.812  1.00  0.00    +0.000 C 
ATOM     85  C56 UNL A   1      23.622  15.236   1.616  1.00  0.00    +0.000 C 
ATOM     86  C57 UNL A   1      23.698  15.653   3.022  1.00  0.00    +0.000 C 
ATOM     87  N8  UNL A   1      23.848  17.019   2.952  1.00  0.00    +0.000 N 
ATOM     88  C58 UNL A   1      24.847  19.894   3.450  1.00  0.00    +0.000 C 
ATOM     89  C59 UNL A   1      24.017  19.893   4.498  1.00  0.00    +0.000 C 
ATOM     90  C60 UNL A   1      25.347  15.456   7.247  1.00  0.00    +0.000 C 
ATOM     91  C61 UNL A   1      25.426  14.973   6.006  1.00  0.00    +0.000 C 
ATOM    121  H24 UNL A   1      20.999  16.871   8.743  1.00  0.00    +0.000 H 
ATOM    122  H25 UNL A   1      19.686  17.768   6.608  1.00  0.00    +0.000 H 
ATOM    123  H26 UNL A   1      23.128  19.842   7.038  1.00  0.00    +0.000 H 
ATOM    124  H27 UNL A   1      24.077  16.221  -0.210  1.00  0.00    +0.000 H 
ATOM    125  H28 UNL A   1      23.364  14.291   1.291  1.00  0.00    +0.000 H 
ATOM    126  H29 UNL A   1      23.812  17.618   3.732  1.00  0.00    +0.000 H 
ATOM    127  H30 UNL A   1      25.864  20.058   3.403  1.00  0.00    +0.000 H 
ATOM    128  H31 UNL A   1      24.328  19.995   5.476  1.00  0.00    +0.000 H 
ENDROOT
BRANCH   35   34
ATOM     33  C22 UNL A   1      24.241  12.689   2.991  1.00  0.00    +0.000 C 
ATOM     34  C23 UNL A   1      23.657  13.417   4.037  1.00  0.00    +0.000 C 
ATOM    131  H34 UNL A   1      22.341  13.337   5.680  1.00  0.00    +0.000 H 
ATOM    132  H35 UNL A   1      22.614  10.943   5.935  1.00  0.00    +0.000 H 
ATOM    119  H22 UNL A   1      24.396  10.760   2.137  1.00  0.00    +0.000 H 
ATOM    120  H23 UNL A   1      24.811  13.165   2.274  1.00  0.00    +0.000 H 
ATOM     92  C62 UNL A   1      22.903  12.787   5.013  1.00  0.00    +0.000 C 
ATOM     93  C63 UNL A   1      22.919  11.425   5.075  1.00  0.00    +0.000 C 
ATOM     31  C20 UNL A   1      23.347  10.691   3.978  1.00  0.00    +0.000 C 
ATOM     32  C21 UNL A   1      24.041  11.311   2.933  1.00  0.00    +0.000 C 
BRANCH   31   29
ATOM     29  C19 UNL A   1      23.015   9.257   3.954  1.00  0.00    +0.000 C 
ATOM     30  O6  UNL A   1      23.605   8.472   4.688  1.00  0.00    +0.000 O 
BRANCH   29   28
ATOM     28  N4  UNL A   1      22.021   8.816   3.099  1.00  0.00    +0.000 N 
ATOM    118  H21 UNL A   1      22.265   8.078   2.495  1.00  0.00    +0.000 H 
BRANCH   28   27
ATOM     27  C18 UNL A   1      20.646   9.316   2.984  1.00  0.00    +0.000 C 
ATOM    116  H19 UNL A   1      19.989   8.487   2.824  1.00  0.00    +0.000 H 
ATOM    117  H20 UNL A   1      20.405   9.832   3.890  1.00  0.00    +0.000 H 
BRANCH   27   26
ATOM     26  C17 UNL A   1      20.494  10.293   1.830  1.00  0.00    +0.000 C 
ATOM    115  H18 UNL A   1      19.654   9.968   1.252  1.00  0.00    +0.000 H 
ATOM    114  H17 UNL A   1      21.402  10.293   1.264  1.00  0.00    +0.000 H 
BRANCH   26   25
ATOM     25  C16 UNL A   1      20.202  11.734   2.279  1.00  0.00    +0.000 C 
ATOM    113  H16 UNL A   1      20.536  11.790   3.294  1.00  0.00    +0.000 H 
ATOM    112  H15 UNL A   1      19.155  11.910   2.148  1.00  0.00    +0.000 H 
BRANCH   25   24
ATOM    110  H13 UNL A   1      21.802  13.127   2.133  1.00  0.00    +0.000 H 
ATOM    111  H14 UNL A   1      21.227  12.435   0.583  1.00  0.00    +0.000 H 
ATOM     24  C15 UNL A   1      20.961  12.846   1.535  1.00  0.00    +0.000 C 
BRANCH   24   23
ATOM    108  H11 UNL A   1      19.325  14.157   1.919  1.00  0.00    +0.000 H 
ATOM    109  H12 UNL A   1      20.806  14.948   1.347  1.00  0.00    +0.000 H 
ATOM     23  C14 UNL A   1      20.148  14.112   1.236  1.00  0.00    +0.000 C 
BRANCH   23   22
ATOM    106  H9  UNL A   1      20.272  14.702  -0.816  1.00  0.00    +0.000 H 
ATOM    107  H10 UNL A   1      19.502  13.150  -0.559  1.00  0.00    +0.000 H 
ATOM     22  C13 UNL A   1      19.598  14.151  -0.193  1.00  0.00    +0.000 C 
BRANCH   22   21
ATOM    105  H8  UNL A   1      18.342  15.771  -0.295  1.00  0.00    +0.000 H 
ATOM     21  N3  UNL A   1      18.297  14.792  -0.207  1.00  0.00    +0.000 N 
BRANCH   21   19
ATOM     19  C12 UNL A   1      17.016  14.307  -0.121  1.00  0.00    +0.000 C 
ATOM     20  O5  UNL A   1      16.777  13.471   0.750  1.00  0.00    +0.000 O 
BRANCH   19   18
ATOM    133  H36 UNL A   1      14.271  14.532   0.194  1.00  0.00    +0.000 H 
ATOM    134  H37 UNL A   1      12.736  15.609  -1.342  1.00  0.00    +0.000 H 
ATOM    103  H6  UNL A   1      15.671  15.481  -4.347  1.00  0.00    +0.000 H 
ATOM    104  H7  UNL A   1      17.291  14.707  -2.710  1.00  0.00    +0.000 H 
ATOM     15  C8  UNL A   1      14.104  15.691  -2.946  1.00  0.00    +0.000 C 
ATOM     16  C9  UNL A   1      15.397  15.370  -3.358  1.00  0.00    +0.000 C 
ATOM     17  C10 UNL A   1      16.319  14.897  -2.418  1.00  0.00    +0.000 C 
ATOM     18  C11 UNL A   1      15.941  14.678  -1.083  1.00  0.00    +0.000 C 
ATOM     94  C64 UNL A   1      14.600  14.835  -0.735  1.00  0.00    +0.000 C 
ATOM     95  C65 UNL A   1      13.702  15.402  -1.639  1.00  0.00    +0.000 C 
BRANCH   15   14
ATOM    102  H5  UNL A   1      11.394  18.664  -4.891  1.00  0.00    +0.000 H 
ATOM      9  C5  UNL A   1      12.898  17.665  -3.865  1.00  0.00    +0.000 C 
ATOM     10  C6  UNL A   1      11.844  17.763  -4.667  1.00  0.00    +0.000 C 
ATOM     11  O3  UNL A   1      11.399  16.546  -5.182  1.00  0.00    +0.000 O 
ATOM     12  C7  UNL A   1      12.299  15.645  -4.611  1.00  0.00    +0.000 C 
ATOM     13  O4  UNL A   1      12.224  14.436  -4.787  1.00  0.00    +0.000 O 
ATOM     14  N2  UNL A   1      13.209  16.335  -3.816  1.00  0.00    +0.000 N 
BRANCH    9    8
ATOM     97  C67 UNL A   1      14.265  20.116  -1.339  1.00  0.00    +0.000 C 
ATOM    100  H3  UNL A   1      16.137  20.923  -4.010  1.00  0.00    +0.000 H 
ATOM      5  C1  UNL A   1      15.228  20.778  -2.109  1.00  0.00    +0.000 C 
ATOM      6  C2  UNL A   1      15.424  20.434  -3.446  1.00  0.00    +0.000 C 
ATOM      7  C3  UNL A   1      14.648  19.422  -4.016  1.00  0.00    +0.000 C 
ATOM    136  H39 UNL A   1      14.130  20.371  -0.349  1.00  0.00    +0.000 H 
ATOM    101  H4  UNL A   1      14.788  19.169  -5.006  1.00  0.00    +0.000 H 
ATOM    135  H38 UNL A   1      12.765  18.629  -1.354  1.00  0.00    +0.000 H 
ATOM      8  C4  UNL A   1      13.678  18.741  -3.257  1.00  0.00    +0.000 C 
ATOM     96  C66 UNL A   1      13.487  19.107  -1.917  1.00  0.00    +0.000 C 
BRANCH    5    2
ATOM      2  S1  UNL A   1      16.245  22.012  -1.353  1.00  0.00    +0.000 S 
ATOM      3  O1  UNL A   1      16.527  21.624   0.016  1.00  0.00    +0.000 O 
ATOM      4  O2  UNL A   1      15.733  23.310  -1.697  1.00  0.00    +0.000 O 
BRANCH    2    1
ATOM      1  N1  UNL A   1      17.695  21.832  -2.180  1.00  0.00    +0.000 N 
ATOM     98  H1  UNL A   1      18.379  22.495  -1.817  1.00  0.00    +0.000 H 
ATOM     99  H2  UNL A   1      17.544  22.009  -3.173  1.00  0.00    +0.000 H 
ENDBRANCH    2    1
ENDBRANCH    5    2
ENDBRANCH    9    8
ENDBRANCH   15   14
ENDBRANCH   19   18
ENDBRANCH   21   19
ENDBRANCH   22   21
ENDBRANCH   23   22
ENDBRANCH   24   23
ENDBRANCH   25   24
ENDBRANCH   26   25
ENDBRANCH   27   26
ENDBRANCH   28   27
ENDBRANCH   29   28
ENDBRANCH   31   29
ENDBRANCH   35   34
BRANCH   39   40
ATOM     40  C28 UNL A   1      25.074  18.297   8.713  1.00  0.00    +0.000 C 
ATOM     41  C29 UNL A   1      26.133  18.702   7.870  1.00  0.00    +0.000 C 
ATOM     42  F1  UNL A   1      26.021  18.606   6.536  1.00  0.00    +0.000 F 
ATOM     43  C30 UNL A   1      27.370  19.110   8.375  1.00  0.00    +0.000 C 
ATOM     44  F2  UNL A   1      28.388  19.333   7.534  1.00  0.00    +0.000 F 
ATOM     45  C31 UNL A   1      27.573  19.204   9.737  1.00  0.00    +0.000 C 
ATOM     46  F3  UNL A   1      28.778  19.519  10.228  1.00  0.00    +0.000 F 
ATOM     47  C32 UNL A   1      26.530  18.928  10.592  1.00  0.00    +0.000 C 
ATOM     48  F4  UNL A   1      26.707  19.011  11.919  1.00  0.00    +0.000 F 
ATOM     49  C33 UNL A   1      25.310  18.473  10.094  1.00  0.00    +0.000 C 
ATOM     50  F5  UNL A   1      24.425  18.124  11.033  1.00  0.00    +0.000 F 
ENDBRANCH   39   40
BRANCH   56   57
ATOM     65  F9  UNL A   1      17.234  21.054   3.356  1.00  0.00    +0.000 F 
ATOM     66  C44 UNL A   1      19.347  20.172   3.937  1.00  0.00    +0.000 C 
ATOM     67  F10 UNL A   1      19.671  21.357   4.479  1.00  0.00    +0.000 F 
ATOM     57  C39 UNL A   1      20.246  19.101   4.008  1.00  0.00    +0.000 C 
ATOM     58  C40 UNL A   1      19.829  17.870   3.472  1.00  0.00    +0.000 C 
ATOM     59  F6  UNL A   1      20.594  16.776   3.586  1.00  0.00    +0.000 F 
ATOM     60  C41 UNL A   1      18.584  17.733   2.858  1.00  0.00    +0.000 C 
ATOM     61  F7  UNL A   1      18.214  16.551   2.344  1.00  0.00    +0.000 F 
ATOM     62  C42 UNL A   1      17.713  18.809   2.809  1.00  0.00    +0.000 C 
ATOM     63  F8  UNL A   1      16.499  18.669   2.258  1.00  0.00    +0.000 F 
ATOM     64  C43 UNL A   1      18.091  20.024   3.357  1.00  0.00    +0.000 C 
ENDBRANCH   56   57
BRANCH   71   72
ATOM     72  C48 UNL A   1      25.239  19.230   0.198  1.00  0.00    +0.000 C 
ATOM     73  C49 UNL A   1      26.623  19.350   0.397  1.00  0.00    +0.000 C 
ATOM     74  F11 UNL A   1      27.138  19.243   1.632  1.00  0.00    +0.000 F 
ATOM     75  C50 UNL A   1      27.509  19.508  -0.674  1.00  0.00    +0.000 C 
ATOM     76  F12 UNL A   1      28.830  19.553  -0.449  1.00  0.00    +0.000 F 
ATOM     77  C51 UNL A   1      27.034  19.556  -1.974  1.00  0.00    +0.000 C 
ATOM     78  F13 UNL A   1      27.886  19.637  -3.005  1.00  0.00    +0.000 F 
ATOM     79  C52 UNL A   1      25.673  19.472  -2.202  1.00  0.00    +0.000 C 
ATOM     80  F14 UNL A   1      25.203  19.477  -3.458  1.00  0.00    +0.000 F 
ATOM     81  C53 UNL A   1      24.789  19.311  -1.134  1.00  0.00    +0.000 C 
ATOM     82  F15 UNL A   1      23.493  19.137  -1.433  1.00  0.00    +0.000 F 
ENDBRANCH   71   72
TORSDOF 19
ENDMDL
MODEL 6
REMARK VINA RESULT:     -10.4     44.573     51.427
ROOT
ATOM    129  H32 UNL A   1      42.965   8.919  52.935  1.00  0.00    +0.000 H 
ATOM    130  H33 UNL A   1      41.520  10.525  51.519  1.00  0.00    +0.000 H 
ATOM     35  C24 UNL A   1      42.932  12.949  50.888  1.00  0.00    +0.000 C 
ATOM     36  C25 UNL A   1      43.462  11.701  51.482  1.00  0.00    +0.000 C 
ATOM     37  N5  UNL A   1      44.653  11.495  51.937  1.00  0.00    +0.000 N 
ATOM     38  C26 UNL A   1      44.676  10.165  52.342  1.00  0.00    +0.000 C 
ATOM     39  C27 UNL A   1      45.833   9.449  52.281  1.00  0.00    +0.000 C 
ATOM     51  C34 UNL A   1      46.968  10.334  52.140  1.00  0.00    +0.000 C 
ATOM     52  C35 UNL A   1      47.497  11.369  52.888  1.00  0.00    +0.000 C 
ATOM     53  C36 UNL A   1      47.943  12.331  51.931  1.00  0.00    +0.000 C 
ATOM     54  C37 UNL A   1      47.733  11.800  50.657  1.00  0.00    +0.000 C 
ATOM     55  N6  UNL A   1      47.516  10.469  50.887  1.00  0.00    +0.000 N 
ATOM     56  C38 UNL A   1      47.652  12.404  49.348  1.00  0.00    +0.000 C 
ATOM     68  C45 UNL A   1      47.031  11.843  48.268  1.00  0.00    +0.000 C 
ATOM     69  N7  UNL A   1      46.591  12.632  47.215  1.00  0.00    +0.000 N 
ATOM     70  C46 UNL A   1      45.577  11.978  46.714  1.00  0.00    +0.000 C 
ATOM     71  C47 UNL A   1      44.327  12.639  46.262  1.00  0.00    +0.000 C 
ATOM     83  C54 UNL A   1      43.734  13.146  47.372  1.00  0.00    +0.000 C 
ATOM     84  C55 UNL A   1      42.725  14.169  47.507  1.00  0.00    +0.000 C 
ATOM     85  C56 UNL A   1      42.465  14.338  48.819  1.00  0.00    +0.000 C 
ATOM     86  C57 UNL A   1      43.154  13.304  49.602  1.00  0.00    +0.000 C 
ATOM     87  N8  UNL A   1      43.987  12.700  48.689  1.00  0.00    +0.000 N 
ATOM     88  C58 UNL A   1      45.507  10.568  47.060  1.00  0.00    +0.000 C 
ATOM     89  C59 UNL A   1      46.372  10.553  48.078  1.00  0.00    +0.000 C 
ATOM     90  C60 UNL A   1      43.300   9.755  52.430  1.00  0.00    +0.000 C 
ATOM     91  C61 UNL A   1      42.518  10.609  51.766  1.00  0.00    +0.000 C 
ATOM    121  H24 UNL A   1      47.557  11.433  53.916  1.00  0.00    +0.000 H 
ATOM    122  H25 UNL A   1      48.348  13.255  52.144  1.00  0.00    +0.000 H 
ATOM    123  H26 UNL A   1      47.717   9.734  50.263  1.00  0.00    +0.000 H 
ATOM    124  H27 UNL A   1      42.278  14.685  46.731  1.00  0.00    +0.000 H 
ATOM    125  H28 UNL A   1      41.869  15.082  49.214  1.00  0.00    +0.000 H 
ATOM    126  H29 UNL A   1      44.676  12.038  48.925  1.00  0.00    +0.000 H 
ATOM    127  H30 UNL A   1      44.952   9.805  46.643  1.00  0.00    +0.000 H 
ATOM    128  H31 UNL A   1      46.555   9.723  48.664  1.00  0.00    +0.000 H 
ENDROOT
BRANCH   35   34
ATOM     33  C22 UNL A   1      40.593  13.254  51.735  1.00  0.00    +0.000 C 
ATOM     34  C23 UNL A   1      41.945  13.625  51.715  1.00  0.00    +0.000 C 
ATOM    131  H34 UNL A   1      43.350  15.086  52.293  1.00  0.00    +0.000 H 
ATOM    132  H35 UNL A   1      41.940  15.905  54.086  1.00  0.00    +0.000 H 
ATOM    119  H22 UNL A   1      38.685  13.807  52.460  1.00  0.00    +0.000 H 
ATOM    120  H23 UNL A   1      40.267  12.431  51.203  1.00  0.00    +0.000 H 
ATOM     92  C62 UNL A   1      42.398  14.717  52.439  1.00  0.00    +0.000 C 
ATOM     93  C63 UNL A   1      41.560  15.294  53.345  1.00  0.00    +0.000 C 
ATOM     31  C20 UNL A   1      40.194  15.056  53.271  1.00  0.00    +0.000 C 
ATOM     32  C21 UNL A   1      39.696  14.012  52.485  1.00  0.00    +0.000 C 
BRANCH   31   29
ATOM     29  C19 UNL A   1      39.309  15.961  54.023  1.00  0.00    +0.000 C 
ATOM     30  O6  UNL A   1      38.128  16.069  53.715  1.00  0.00    +0.000 O 
BRANCH   29   28
ATOM     28  N4  UNL A   1      39.832  16.675  55.086  1.00  0.00    +0.000 N 
ATOM    118  H21 UNL A   1      40.255  16.145  55.798  1.00  0.00    +0.000 H 
BRANCH   28   27
ATOM     27  C18 UNL A   1      39.832  18.131  55.278  1.00  0.00    +0.000 C 
ATOM    116  H19 UNL A   1      40.739  18.414  55.772  1.00  0.00    +0.000 H 
ATOM    117  H20 UNL A   1      39.757  18.592  54.316  1.00  0.00    +0.000 H 
BRANCH   27   26
ATOM     26  C17 UNL A   1      38.652  18.591  56.116  1.00  0.00    +0.000 C 
ATOM    115  H18 UNL A   1      39.035  19.262  56.857  1.00  0.00    +0.000 H 
ATOM    114  H17 UNL A   1      38.187  17.730  56.548  1.00  0.00    +0.000 H 
BRANCH   26   25
ATOM     25  C16 UNL A   1      37.592  19.363  55.313  1.00  0.00    +0.000 C 
ATOM    113  H16 UNL A   1      37.369  20.232  55.897  1.00  0.00    +0.000 H 
ATOM    112  H15 UNL A   1      36.760  18.708  55.159  1.00  0.00    +0.000 H 
BRANCH   25   24
ATOM    110  H13 UNL A   1      38.309  20.921  54.054  1.00  0.00    +0.000 H 
ATOM    111  H14 UNL A   1      38.838  19.263  53.623  1.00  0.00    +0.000 H 
ATOM     24  C15 UNL A   1      38.032  19.893  53.939  1.00  0.00    +0.000 C 
BRANCH   24   23
ATOM    108  H11 UNL A   1      36.130  19.268  53.206  1.00  0.00    +0.000 H 
ATOM    109  H12 UNL A   1      36.715  20.814  52.562  1.00  0.00    +0.000 H 
ATOM     23  C14 UNL A   1      36.973  19.811  52.832  1.00  0.00    +0.000 C 
BRANCH   23   22
ATOM    106  H9  UNL A   1      36.966  18.182  51.445  1.00  0.00    +0.000 H 
ATOM    107  H10 UNL A   1      37.293  19.743  50.721  1.00  0.00    +0.000 H 
ATOM     22  C13 UNL A   1      37.479  19.114  51.565  1.00  0.00    +0.000 C 
BRANCH   22   21
ATOM    105  H8  UNL A   1      39.320  19.293  52.456  1.00  0.00    +0.000 H 
ATOM     21  N3  UNL A   1      38.905  18.868  51.671  1.00  0.00    +0.000 N 
BRANCH   21   19
ATOM     19  C12 UNL A   1      39.792  18.162  50.897  1.00  0.00    +0.000 C 
ATOM     20  O5  UNL A   1      39.519  16.991  50.638  1.00  0.00    +0.000 O 
BRANCH   19   18
ATOM    133  H36 UNL A   1      40.568  20.754  50.295  1.00  0.00    +0.000 H 
ATOM    134  H37 UNL A   1      42.845  21.546  50.042  1.00  0.00    +0.000 H 
ATOM    103  H6  UNL A   1      44.170  17.577  49.658  1.00  0.00    +0.000 H 
ATOM    104  H7  UNL A   1      41.945  16.793  50.239  1.00  0.00    +0.000 H 
ATOM     15  C8  UNL A   1      43.696  19.621  49.898  1.00  0.00    +0.000 C 
ATOM     16  C9  UNL A   1      43.425  18.254  49.888  1.00  0.00    +0.000 C 
ATOM     17  C10 UNL A   1      42.135  17.807  50.195  1.00  0.00    +0.000 C 
ATOM     18  C11 UNL A   1      41.097  18.719  50.444  1.00  0.00    +0.000 C 
ATOM     94  C64 UNL A   1      41.348  20.080  50.271  1.00  0.00    +0.000 C 
ATOM     95  C65 UNL A   1      42.650  20.533  50.068  1.00  0.00    +0.000 C 
BRANCH   15   14
ATOM    102  H5  UNL A   1      47.873  20.391  48.508  1.00  0.00    +0.000 H 
ATOM      9  C5  UNL A   1      45.842  19.996  48.694  1.00  0.00    +0.000 C 
ATOM     10  C6  UNL A   1      47.043  20.367  49.121  1.00  0.00    +0.000 C 
ATOM     11  O3  UNL A   1      47.089  20.724  50.468  1.00  0.00    +0.000 O 
ATOM     12  C7  UNL A   1      45.763  20.536  50.861  1.00  0.00    +0.000 C 
ATOM     13  O4  UNL A   1      45.384  20.707  52.012  1.00  0.00    +0.000 O 
ATOM     14  N2  UNL A   1      45.012  20.097  49.774  1.00  0.00    +0.000 N 
BRANCH    9    8
ATOM     97  C67 UNL A   1      44.683  20.361  45.119  1.00  0.00    +0.000 C 
ATOM    100  H3  UNL A   1      45.036  17.023  45.282  1.00  0.00    +0.000 H 
ATOM      5  C1  UNL A   1      44.677  19.024  44.706  1.00  0.00    +0.000 C 
ATOM      6  C2  UNL A   1      45.040  18.008  45.591  1.00  0.00    +0.000 C 
ATOM      7  C3  UNL A   1      45.407  18.336  46.898  1.00  0.00    +0.000 C 
ATOM    136  H39 UNL A   1      44.420  21.107  44.457  1.00  0.00    +0.000 H 
ATOM    101  H4  UNL A   1      45.671  17.586  47.555  1.00  0.00    +0.000 H 
ATOM    135  H38 UNL A   1      45.036  21.666  46.741  1.00  0.00    +0.000 H 
ATOM      8  C4  UNL A   1      45.424  19.675  47.330  1.00  0.00    +0.000 C 
ATOM     96  C66 UNL A   1      45.047  20.681  46.431  1.00  0.00    +0.000 C 
BRANCH    5    2
ATOM      2  S1  UNL A   1      44.270  18.634  43.029  1.00  0.00    +0.000 S 
ATOM      3  O1  UNL A   1      43.670  19.797  42.403  1.00  0.00    +0.000 O 
ATOM      4  O2  UNL A   1      43.659  17.335  42.990  1.00  0.00    +0.000 O 
BRANCH    2    1
ATOM      1  N1  UNL A   1      45.785  18.476  42.325  1.00  0.00    +0.000 N 
ATOM     98  H1  UNL A   1      46.294  19.355  42.410  1.00  0.00    +0.000 H 
ATOM     99  H2  UNL A   1      45.679  18.239  41.338  1.00  0.00    +0.000 H 
ENDBRANCH    2    1
ENDBRANCH    5    2
ENDBRANCH    9    8
ENDBRANCH   15   14
ENDBRANCH   19   18
ENDBRANCH   21   19
ENDBRANCH   22   21
ENDBRANCH   23   22
ENDBRANCH   24   23
ENDBRANCH   25   24
ENDBRANCH   26   25
ENDBRANCH   27   26
ENDBRANCH   28   27
ENDBRANCH   29   28
ENDBRANCH   31   29
ENDBRANCH   35   34
BRANCH   39   40
ATOM     40  C28 UNL A   1      45.922   7.982  51.902  1.00  0.00    +0.000 C 
ATOM     41  C29 UNL A   1      45.442   7.593  50.632  1.00  0.00    +0.000 C 
ATOM     42  F1  UNL A   1      45.217   8.508  49.675  1.00  0.00    +0.000 F 
ATOM     43  C30 UNL A   1      45.075   6.276  50.348  1.00  0.00    +0.000 C 
ATOM     44  F2  UNL A   1      44.480   5.989  49.182  1.00  0.00    +0.000 F 
ATOM     45  C31 UNL A   1      45.246   5.283  51.292  1.00  0.00    +0.000 C 
ATOM     46  F3  UNL A   1      44.825   4.034  51.053  1.00  0.00    +0.000 F 
ATOM     47  C32 UNL A   1      45.818   5.599  52.503  1.00  0.00    +0.000 C 
ATOM     48  F4  UNL A   1      45.991   4.650  53.435  1.00  0.00    +0.000 F 
ATOM     49  C33 UNL A   1      46.138   6.922  52.809  1.00  0.00    +0.000 C 
ATOM     50  F5  UNL A   1      46.570   7.111  54.059  1.00  0.00    +0.000 F 
ENDBRANCH   39   40
BRANCH   56   57
ATOM     65  F9  UNL A   1      46.569  17.109  49.792  1.00  0.00    +0.000 F 
ATOM     66  C44 UNL A   1      47.194  14.835  49.644  1.00  0.00    +0.000 C 
ATOM     67  F10 UNL A   1      46.016  14.496  50.192  1.00  0.00    +0.000 F 
ATOM     57  C39 UNL A   1      48.090  13.838  49.238  1.00  0.00    +0.000 C 
ATOM     58  C40 UNL A   1      49.282  14.253  48.619  1.00  0.00    +0.000 C 
ATOM     59  F6  UNL A   1      50.145  13.359  48.120  1.00  0.00    +0.000 F 
ATOM     60  C41 UNL A   1      49.577  15.606  48.453  1.00  0.00    +0.000 C 
ATOM     61  F7  UNL A   1      50.726  15.977  47.869  1.00  0.00    +0.000 F 
ATOM     62  C42 UNL A   1      48.668  16.570  48.858  1.00  0.00    +0.000 C 
ATOM     63  F8  UNL A   1      48.930  17.870  48.660  1.00  0.00    +0.000 F 
ATOM     64  C43 UNL A   1      47.473  16.184  49.443  1.00  0.00    +0.000 C 
ENDBRANCH   56   57
BRANCH   71   72
ATOM     72  C48 UNL A   1      43.758  12.435  44.910  1.00  0.00    +0.000 C 
ATOM     73  C49 UNL A   1      43.067  11.258  44.583  1.00  0.00    +0.000 C 
ATOM     74  F11 UNL A   1      43.107  10.202  45.410  1.00  0.00    +0.000 F 
ATOM     75  C50 UNL A   1      42.262  11.170  43.442  1.00  0.00    +0.000 C 
ATOM     76  F12 UNL A   1      41.565  10.052  43.199  1.00  0.00    +0.000 F 
ATOM     77  C51 UNL A   1      42.132  12.257  42.592  1.00  0.00    +0.000 C 
ATOM     78  F13 UNL A   1      41.308  12.197  41.537  1.00  0.00    +0.000 F 
ATOM     79  C52 UNL A   1      42.826  13.421  42.868  1.00  0.00    +0.000 C 
ATOM     80  F14 UNL A   1      42.677  14.491  42.075  1.00  0.00    +0.000 F 
ATOM     81  C53 UNL A   1      43.626  13.509  44.009  1.00  0.00    +0.000 C 
ATOM     82  F15 UNL A   1      44.190  14.698  44.269  1.00  0.00    +0.000 F 
ENDBRANCH   71   72
TORSDOF 19
ENDMDL
MODEL 7
REMARK VINA RESULT:     -10.2     36.169     41.723
ROOT
ATOM    129  H32 UNL A   1      53.132  49.693  19.246  1.00  0.00    +0.000 H 
ATOM    130  H33 UNL A   1      52.823  49.248  16.720  1.00  0.00    +0.000 H 
ATOM     35  C24 UNL A   1      50.266  48.060  16.155  1.00  0.00    +0.000 C 
ATOM     36  C25 UNL A   1      50.744  48.662  17.421  1.00  0.00    +0.000 C 
ATOM     37  N5  UNL A   1      50.138  48.672  18.561  1.00  0.00    +0.000 N 
ATOM     38  C26 UNL A   1      50.962  49.391  19.419  1.00  0.00    +0.000 C 
ATOM     39  C27 UNL A   1      50.425  50.114  20.441  1.00  0.00    +0.000 C 
ATOM     51  C34 UNL A   1      49.061  49.703  20.688  1.00  0.00    +0.000 C 
ATOM     52  C35 UNL A   1      48.447  48.515  21.036  1.00  0.00    +0.000 C 
ATOM     53  C36 UNL A   1      47.226  48.495  20.297  1.00  0.00    +0.000 C 
ATOM     54  C37 UNL A   1      47.125  49.700  19.600  1.00  0.00    +0.000 C 
ATOM     55  N6  UNL A   1      48.058  50.504  20.195  1.00  0.00    +0.000 N 
ATOM     56  C38 UNL A   1      46.336  50.107  18.461  1.00  0.00    +0.000 C 
ATOM     68  C45 UNL A   1      46.641  51.152  17.635  1.00  0.00    +0.000 C 
ATOM     69  N7  UNL A   1      46.137  51.205  16.344  1.00  0.00    +0.000 N 
ATOM     70  C46 UNL A   1      47.025  51.885  15.670  1.00  0.00    +0.000 C 
ATOM     71  C47 UNL A   1      47.448  51.529  14.292  1.00  0.00    +0.000 C 
ATOM     83  C54 UNL A   1      48.100  50.342  14.382  1.00  0.00    +0.000 C 
ATOM     84  C55 UNL A   1      48.400  49.363  13.365  1.00  0.00    +0.000 C 
ATOM     85  C56 UNL A   1      49.055  48.337  13.945  1.00  0.00    +0.000 C 
ATOM     86  C57 UNL A   1      49.384  48.676  15.336  1.00  0.00    +0.000 C 
ATOM     87  N8  UNL A   1      48.681  49.836  15.567  1.00  0.00    +0.000 N 
ATOM     88  C58 UNL A   1      47.936  52.690  16.468  1.00  0.00    +0.000 C 
ATOM     89  C59 UNL A   1      47.713  52.144  17.667  1.00  0.00    +0.000 C 
ATOM     90  C60 UNL A   1      52.246  49.453  18.774  1.00  0.00    +0.000 C 
ATOM     91  C61 UNL A   1      52.128  49.156  17.478  1.00  0.00    +0.000 C 
ATOM    121  H24 UNL A   1      48.797  47.797  21.691  1.00  0.00    +0.000 H 
ATOM    122  H25 UNL A   1      46.540  47.725  20.280  1.00  0.00    +0.000 H 
ATOM    123  H26 UNL A   1      48.020  51.486  20.259  1.00  0.00    +0.000 H 
ATOM    124  H27 UNL A   1      48.154  49.434  12.365  1.00  0.00    +0.000 H 
ATOM    125  H28 UNL A   1      49.293  47.447  13.480  1.00  0.00    +0.000 H 
ATOM    126  H29 UNL A   1      48.594  50.261  16.450  1.00  0.00    +0.000 H 
ATOM    127  H30 UNL A   1      48.569  53.456  16.189  1.00  0.00    +0.000 H 
ATOM    128  H31 UNL A   1      48.239  52.395  18.519  1.00  0.00    +0.000 H 
ENDROOT
BRANCH   35   34
ATOM     33  C22 UNL A   1      50.563  45.578  15.987  1.00  0.00    +0.000 C 
ATOM     34  C23 UNL A   1      51.012  46.883  15.741  1.00  0.00    +0.000 C 
ATOM    131  H34 UNL A   1      52.641  48.067  15.119  1.00  0.00    +0.000 H 
ATOM    132  H35 UNL A   1      53.672  46.231  13.918  1.00  0.00    +0.000 H 
ATOM    119  H22 UNL A   1      51.110  43.538  15.875  1.00  0.00    +0.000 H 
ATOM    120  H23 UNL A   1      49.640  45.414  16.419  1.00  0.00    +0.000 H 
ATOM     92  C62 UNL A   1      52.242  47.116  15.147  1.00  0.00    +0.000 C 
ATOM     93  C63 UNL A   1      52.915  46.064  14.601  1.00  0.00    +0.000 C 
ATOM     31  C20 UNL A   1      52.579  44.767  14.966  1.00  0.00    +0.000 C 
ATOM     32  C21 UNL A   1      51.382  44.505  15.640  1.00  0.00    +0.000 C 
BRANCH   31   29
ATOM     29  C19 UNL A   1      53.544  43.703  14.640  1.00  0.00    +0.000 C 
ATOM     30  O6  UNL A   1      53.438  43.071  13.596  1.00  0.00    +0.000 O 
BRANCH   29   28
ATOM     28  N4  UNL A   1      54.572  43.440  15.527  1.00  0.00    +0.000 N 
ATOM    118  H21 UNL A   1      55.453  43.260  15.127  1.00  0.00    +0.000 H 
BRANCH   28   27
ATOM     27  C18 UNL A   1      54.507  43.396  16.993  1.00  0.00    +0.000 C 
ATOM    116  H19 UNL A   1      55.501  43.320  17.381  1.00  0.00    +0.000 H 
ATOM    117  H20 UNL A   1      54.029  44.292  17.329  1.00  0.00    +0.000 H 
BRANCH   27   26
ATOM     26  C17 UNL A   1      53.694  42.213  17.488  1.00  0.00    +0.000 C 
ATOM    115  H18 UNL A   1      54.356  41.373  17.532  1.00  0.00    +0.000 H 
ATOM    114  H17 UNL A   1      52.879  42.054  16.812  1.00  0.00    +0.000 H 
BRANCH   26   25
ATOM     25  C16 UNL A   1      53.120  42.409  18.901  1.00  0.00    +0.000 C 
ATOM    113  H16 UNL A   1      53.965  42.598  19.528  1.00  0.00    +0.000 H 
ATOM    112  H15 UNL A   1      52.570  41.526  19.154  1.00  0.00    +0.000 H 
BRANCH   25   24
ATOM    110  H13 UNL A   1      52.644  44.277  19.799  1.00  0.00    +0.000 H 
ATOM    111  H14 UNL A   1      52.052  44.044  18.123  1.00  0.00    +0.000 H 
ATOM     24  C15 UNL A   1      52.185  43.615  19.095  1.00  0.00    +0.000 C 
BRANCH   24   23
ATOM    108  H11 UNL A   1      50.116  43.220  18.768  1.00  0.00    +0.000 H 
ATOM    109  H12 UNL A   1      50.842  42.353  20.135  1.00  0.00    +0.000 H 
ATOM     23  C14 UNL A   1      50.778  43.282  19.606  1.00  0.00    +0.000 C 
BRANCH   23   22
ATOM    106  H9  UNL A   1      49.848  43.832  21.453  1.00  0.00    +0.000 H 
ATOM    107  H10 UNL A   1      51.020  44.992  20.863  1.00  0.00    +0.000 H 
ATOM     22  C13 UNL A   1      50.231  44.327  20.584  1.00  0.00    +0.000 C 
BRANCH   22   21
ATOM    105  H8  UNL A   1      49.203  46.049  20.149  1.00  0.00    +0.000 H 
ATOM     21  N3  UNL A   1      49.167  45.085  19.954  1.00  0.00    +0.000 N 
BRANCH   21   19
ATOM     19  C12 UNL A   1      48.120  44.729  19.142  1.00  0.00    +0.000 C 
ATOM     20  O5  UNL A   1      48.257  44.885  17.929  1.00  0.00    +0.000 O 
BRANCH   19   18
ATOM    133  H36 UNL A   1      47.215  42.192  19.796  1.00  0.00    +0.000 H 
ATOM    134  H37 UNL A   1      45.232  41.666  21.087  1.00  0.00    +0.000 H 
ATOM    103  H6  UNL A   1      43.811  45.573  20.474  1.00  0.00    +0.000 H 
ATOM    104  H7  UNL A   1      45.941  46.174  19.471  1.00  0.00    +0.000 H 
ATOM     15  C8  UNL A   1      44.397  43.597  20.939  1.00  0.00    +0.000 C 
ATOM     16  C9  UNL A   1      44.572  44.877  20.416  1.00  0.00    +0.000 C 
ATOM     17  C10 UNL A   1      45.790  45.212  19.813  1.00  0.00    +0.000 C 
ATOM     18  C11 UNL A   1      46.809  44.256  19.668  1.00  0.00    +0.000 C 
ATOM     94  C64 UNL A   1      46.544  42.937  20.036  1.00  0.00    +0.000 C 
ATOM     95  C65 UNL A   1      45.376  42.623  20.728  1.00  0.00    +0.000 C 
BRANCH   15   14
ATOM    102  H5  UNL A   1      41.662  42.299  24.227  1.00  0.00    +0.000 H 
ATOM      9  C5  UNL A   1      43.201  43.055  23.054  1.00  0.00    +0.000 C 
ATOM     10  C6  UNL A   1      41.990  42.562  23.284  1.00  0.00    +0.000 C 
ATOM     11  O3  UNL A   1      41.197  42.429  22.145  1.00  0.00    +0.000 O 
ATOM     12  C7  UNL A   1      42.050  42.900  21.145  1.00  0.00    +0.000 C 
ATOM     13  O4  UNL A   1      41.737  42.912  19.962  1.00  0.00    +0.000 O 
ATOM     14  N2  UNL A   1      43.264  43.281  21.708  1.00  0.00    +0.000 N 
BRANCH    9    8
ATOM     97  C67 UNL A   1      46.030  42.823  25.544  1.00  0.00    +0.000 C 
ATOM    100  H3  UNL A   1      45.582  46.152  25.475  1.00  0.00    +0.000 H 
ATOM      5  C1  UNL A   1      46.226  44.175  25.847  1.00  0.00    +0.000 C 
ATOM      6  C2  UNL A   1      45.434  45.156  25.251  1.00  0.00    +0.000 C 
ATOM      7  C3  UNL A   1      44.438  44.778  24.347  1.00  0.00    +0.000 C 
ATOM    136  H39 UNL A   1      46.625  42.104  25.984  1.00  0.00    +0.000 H 
ATOM    101  H4  UNL A   1      43.847  45.502  23.909  1.00  0.00    +0.000 H 
ATOM    135  H38 UNL A   1      44.872  41.453  24.430  1.00  0.00    +0.000 H 
ATOM      8  C4  UNL A   1      44.229  43.424  24.025  1.00  0.00    +0.000 C 
ATOM     96  C66 UNL A   1      45.027  42.451  24.642  1.00  0.00    +0.000 C 
BRANCH    5    2
ATOM      2  S1  UNL A   1      47.534  44.639  26.944  1.00  0.00    +0.000 S 
ATOM      3  O1  UNL A   1      48.627  45.198  26.172  1.00  0.00    +0.000 O 
ATOM      4  O2  UNL A   1      47.726  43.589  27.906  1.00  0.00    +0.000 O 
BRANCH    2    1
ATOM      1  N1  UNL A   1      46.859  45.933  27.772  1.00  0.00    +0.000 N 
ATOM     98  H1  UNL A   1      47.565  46.657  27.907  1.00  0.00    +0.000 H 
ATOM     99  H2  UNL A   1      46.520  45.616  28.680  1.00  0.00    +0.000 H 
ENDBRANCH    2    1
ENDBRANCH    5    2
ENDBRANCH    9    8
ENDBRANCH   15   14
ENDBRANCH   19   18
ENDBRANCH   21   19
ENDBRANCH   22   21
ENDBRANCH   23   22
ENDBRANCH   24   23
ENDBRANCH   25   24
ENDBRANCH   26   25
ENDBRANCH   27   26
ENDBRANCH   28   27
ENDBRANCH   29   28
ENDBRANCH   31   29
ENDBRANCH   35   34
BRANCH   39   40
ATOM     40  C28 UNL A   1      50.944  51.461  20.911  1.00  0.00    +0.000 C 
ATOM     41  C29 UNL A   1      51.102  51.666  22.299  1.00  0.00    +0.000 C 
ATOM     42  F1  UNL A   1      51.107  50.626  23.148  1.00  0.00    +0.000 F 
ATOM     43  C30 UNL A   1      51.147  52.943  22.861  1.00  0.00    +0.000 C 
ATOM     44  F2  UNL A   1      51.140  53.083  24.194  1.00  0.00    +0.000 F 
ATOM     45  C31 UNL A   1      51.115  54.064  22.055  1.00  0.00    +0.000 C 
ATOM     46  F3  UNL A   1      51.079  55.290  22.592  1.00  0.00    +0.000 F 
ATOM     47  C32 UNL A   1      51.076  53.907  20.688  1.00  0.00    +0.000 C 
ATOM     48  F4  UNL A   1      51.042  54.982  19.887  1.00  0.00    +0.000 F 
ATOM     49  C33 UNL A   1      50.981  52.634  20.126  1.00  0.00    +0.000 C 
ATOM     50  F5  UNL A   1      50.827  52.626  18.799  1.00  0.00    +0.000 F 
ENDBRANCH   39   40
BRANCH   56   57
ATOM     65  F9  UNL A   1      44.999  46.018  16.226  1.00  0.00    +0.000 F 
ATOM     66  C44 UNL A   1      45.586  47.976  17.411  1.00  0.00    +0.000 C 
ATOM     67  F10 UNL A   1      46.880  47.643  17.280  1.00  0.00    +0.000 F 
ATOM     57  C39 UNL A   1      45.233  49.177  18.037  1.00  0.00    +0.000 C 
ATOM     58  C40 UNL A   1      43.865  49.499  18.095  1.00  0.00    +0.000 C 
ATOM     59  F6  UNL A   1      43.456  50.672  18.593  1.00  0.00    +0.000 F 
ATOM     60  C41 UNL A   1      42.898  48.634  17.583  1.00  0.00    +0.000 C 
ATOM     61  F7  UNL A   1      41.598  48.958  17.660  1.00  0.00    +0.000 F 
ATOM     62  C42 UNL A   1      43.278  47.456  16.963  1.00  0.00    +0.000 C 
ATOM     63  F8  UNL A   1      42.352  46.644  16.432  1.00  0.00    +0.000 F 
ATOM     64  C43 UNL A   1      44.622  47.132  16.868  1.00  0.00    +0.000 C 
ENDBRANCH   56   57
BRANCH   71   72
ATOM     72  C48 UNL A   1      47.419  52.496  13.171  1.00  0.00    +0.000 C 
ATOM     73  C49 UNL A   1      48.606  52.963  12.585  1.00  0.00    +0.000 C 
ATOM     74  F11 UNL A   1      49.787  52.725  13.176  1.00  0.00    +0.000 F 
ATOM     75  C50 UNL A   1      48.608  53.616  11.348  1.00  0.00    +0.000 C 
ATOM     76  F12 UNL A   1      49.768  53.988  10.789  1.00  0.00    +0.000 F 
ATOM     77  C51 UNL A   1      47.420  53.825  10.665  1.00  0.00    +0.000 C 
ATOM     78  F13 UNL A   1      47.428  54.388   9.449  1.00  0.00    +0.000 F 
ATOM     79  C52 UNL A   1      46.230  53.406  11.230  1.00  0.00    +0.000 C 
ATOM     80  F14 UNL A   1      45.079  53.566  10.561  1.00  0.00    +0.000 F 
ATOM     81  C53 UNL A   1      46.228  52.751  12.463  1.00  0.00    +0.000 C 
ATOM     82  F15 UNL A   1      45.052  52.284  12.906  1.00  0.00    +0.000 F 
ENDBRANCH   71   72
TORSDOF 19
ENDMDL
MODEL 8
REMARK VINA RESULT:     -10.1     42.854     48.458
ROOT
ATOM    129  H32 UNL A   1      23.873  34.795  44.165  1.00  0.00    +0.000 H 
ATOM    130  H33 UNL A   1      25.319  35.752  46.079  1.00  0.00    +0.000 H 
ATOM     35  C24 UNL A   1      23.925  37.794  47.546  1.00  0.00    +0.000 C 
ATOM     36  C25 UNL A   1      23.389  36.857  46.533  1.00  0.00    +0.000 C 
ATOM     37  N5  UNL A   1      22.201  36.849  46.027  1.00  0.00    +0.000 N 
ATOM     38  C26 UNL A   1      22.169  35.760  45.163  1.00  0.00    +0.000 C 
ATOM     39  C27 UNL A   1      21.003  35.086  44.950  1.00  0.00    +0.000 C 
ATOM     51  C34 UNL A   1      19.876  35.874  45.398  1.00  0.00    +0.000 C 
ATOM     52  C35 UNL A   1      19.366  37.117  45.079  1.00  0.00    +0.000 C 
ATOM     53  C36 UNL A   1      18.920  37.668  46.318  1.00  0.00    +0.000 C 
ATOM     54  C37 UNL A   1      19.111  36.705  47.311  1.00  0.00    +0.000 C 
ATOM     55  N6  UNL A   1      19.317  35.547  46.611  1.00  0.00    +0.000 N 
ATOM     56  C38 UNL A   1      19.184  36.786  48.750  1.00  0.00    +0.000 C 
ATOM     68  C45 UNL A   1      19.788  35.861  49.553  1.00  0.00    +0.000 C 
ATOM     69  N7  UNL A   1      20.225  36.203  50.825  1.00  0.00    +0.000 N 
ATOM     70  C46 UNL A   1      21.226  35.398  51.058  1.00  0.00    +0.000 C 
ATOM     71  C47 UNL A   1      22.479  35.830  51.728  1.00  0.00    +0.000 C 
ATOM     83  C54 UNL A   1      23.088  36.701  50.884  1.00  0.00    +0.000 C 
ATOM     84  C55 UNL A   1      24.109  37.689  51.140  1.00  0.00    +0.000 C 
ATOM     85  C56 UNL A   1      24.384  38.323  49.983  1.00  0.00    +0.000 C 
ATOM     86  C57 UNL A   1      23.693  37.657  48.871  1.00  0.00    +0.000 C 
ATOM     87  N8  UNL A   1      22.844  36.772  49.494  1.00  0.00    +0.000 N 
ATOM     88  C58 UNL A   1      21.286  34.212  50.220  1.00  0.00    +0.000 C 
ATOM     89  C59 UNL A   1      20.431  34.582  49.262  1.00  0.00    +0.000 C 
ATOM     90  C60 UNL A   1      23.541  35.392  44.939  1.00  0.00    +0.000 C 
ATOM     91  C61 UNL A   1      24.324  35.933  45.874  1.00  0.00    +0.000 C 
ATOM    121  H24 UNL A   1      19.317  37.554  44.144  1.00  0.00    +0.000 H 
ATOM    122  H25 UNL A   1      18.527  38.611  46.456  1.00  0.00    +0.000 H 
ATOM    123  H26 UNL A   1      19.102  34.638  46.921  1.00  0.00    +0.000 H 
ATOM    124  H27 UNL A   1      24.553  37.879  52.053  1.00  0.00    +0.000 H 
ATOM    125  H28 UNL A   1      24.992  39.152  49.891  1.00  0.00    +0.000 H 
ATOM    126  H29 UNL A   1      22.151  36.251  49.028  1.00  0.00    +0.000 H 
ATOM    127  H30 UNL A   1      21.829  33.341  50.332  1.00  0.00    +0.000 H 
ATOM    128  H31 UNL A   1      20.246  34.027  48.411  1.00  0.00    +0.000 H 
ENDROOT
BRANCH   35   34
ATOM     33  C22 UNL A   1      26.172  38.282  46.547  1.00  0.00    +0.000 C 
ATOM     34  C23 UNL A   1      24.927  38.713  47.029  1.00  0.00    +0.000 C 
ATOM    131  H34 UNL A   1      23.778  40.381  47.611  1.00  0.00    +0.000 H 
ATOM    132  H35 UNL A   1      25.114  41.913  46.292  1.00  0.00    +0.000 H 
ATOM    119  H22 UNL A   1      28.060  38.949  45.867  1.00  0.00    +0.000 H 
ATOM    120  H23 UNL A   1      26.389  37.275  46.483  1.00  0.00    +0.000 H 
ATOM     92  C62 UNL A   1      24.618  40.062  47.105  1.00  0.00    +0.000 C 
ATOM     93  C63 UNL A   1      25.448  40.958  46.500  1.00  0.00    +0.000 C 
ATOM     31  C20 UNL A   1      26.742  40.583  46.164  1.00  0.00    +0.000 C 
ATOM     32  C21 UNL A   1      27.111  39.234  46.157  1.00  0.00    +0.000 C 
BRANCH   31   29
ATOM     29  C19 UNL A   1      27.697  41.659  45.852  1.00  0.00    +0.000 C 
ATOM     30  O6  UNL A   1      27.446  42.818  46.159  1.00  0.00    +0.000 O 
BRANCH   29   28
ATOM     28  N4  UNL A   1      28.882  41.335  45.216  1.00  0.00    +0.000 N 
ATOM    118  H21 UNL A   1      29.708  41.579  45.690  1.00  0.00    +0.000 H 
BRANCH   28   27
ATOM     27  C18 UNL A   1      29.054  40.673  43.917  1.00  0.00    +0.000 C 
ATOM    116  H19 UNL A   1      28.147  40.163  43.666  1.00  0.00    +0.000 H 
ATOM    117  H20 UNL A   1      29.288  41.424  43.192  1.00  0.00    +0.000 H 
BRANCH   27   26
ATOM     26  C17 UNL A   1      30.193  39.668  43.940  1.00  0.00    +0.000 C 
ATOM    115  H18 UNL A   1      30.891  40.001  44.679  1.00  0.00    +0.000 H 
ATOM    114  H17 UNL A   1      30.625  39.624  42.962  1.00  0.00    +0.000 H 
BRANCH   26   25
ATOM     25  C16 UNL A   1      29.754  38.251  44.341  1.00  0.00    +0.000 C 
ATOM    113  H16 UNL A   1      29.188  37.882  43.511  1.00  0.00    +0.000 H 
ATOM    112  H15 UNL A   1      29.202  38.327  45.254  1.00  0.00    +0.000 H 
BRANCH   25   24
ATOM    110  H13 UNL A   1      30.811  36.870  45.566  1.00  0.00    +0.000 H 
ATOM    111  H14 UNL A   1      30.731  36.463  43.822  1.00  0.00    +0.000 H 
ATOM     24  C15 UNL A   1      30.880  37.226  44.559  1.00  0.00    +0.000 C 
BRANCH   24   23
ATOM    108  H11 UNL A   1      32.804  37.108  43.650  1.00  0.00    +0.000 H 
ATOM    109  H12 UNL A   1      32.219  38.753  43.964  1.00  0.00    +0.000 H 
ATOM     23  C14 UNL A   1      32.303  37.754  44.340  1.00  0.00    +0.000 C 
BRANCH   23   22
ATOM    106  H9  UNL A   1      32.777  37.071  46.311  1.00  0.00    +0.000 H 
ATOM    107  H10 UNL A   1      34.155  37.651  45.399  1.00  0.00    +0.000 H 
ATOM     22  C13 UNL A   1      33.125  37.821  45.631  1.00  0.00    +0.000 C 
BRANCH   22   21
ATOM    105  H8  UNL A   1      33.741  39.731  46.064  1.00  0.00    +0.000 H 
ATOM     21  N3  UNL A   1      32.982  39.129  46.242  1.00  0.00    +0.000 N 
BRANCH   21   19
ATOM     19  C12 UNL A   1      32.004  39.695  47.020  1.00  0.00    +0.000 C 
ATOM     20  O5  UNL A   1      31.853  40.914  46.952  1.00  0.00    +0.000 O 
BRANCH   19   18
ATOM    133  H36 UNL A   1      32.579  37.402  48.467  1.00  0.00    +0.000 H 
ATOM    134  H37 UNL A   1      31.330  36.554  50.364  1.00  0.00    +0.000 H 
ATOM    103  H6  UNL A   1      28.092  39.020  49.319  1.00  0.00    +0.000 H 
ATOM    104  H7  UNL A   1      29.472  40.092  47.631  1.00  0.00    +0.000 H 
ATOM     15  C8  UNL A   1      29.638  37.769  50.030  1.00  0.00    +0.000 C 
ATOM     16  C9  UNL A   1      29.079  38.741  49.202  1.00  0.00    +0.000 C 
ATOM     17  C10 UNL A   1      29.868  39.336  48.211  1.00  0.00    +0.000 C 
ATOM     18  C11 UNL A   1      31.192  38.918  47.997  1.00  0.00    +0.000 C 
ATOM     94  C64 UNL A   1      31.671  37.824  48.716  1.00  0.00    +0.000 C 
ATOM     95  C65 UNL A   1      30.927  37.297  49.771  1.00  0.00    +0.000 C 
BRANCH   15   14
ATOM    102  H5  UNL A   1      26.673  35.749  52.694  1.00  0.00    +0.000 H 
ATOM      9  C5  UNL A   1      27.964  36.323  51.172  1.00  0.00    +0.000 C 
ATOM     10  C6  UNL A   1      27.437  36.372  52.390  1.00  0.00    +0.000 C 
ATOM     11  O3  UNL A   1      28.002  37.337  53.223  1.00  0.00    +0.000 O 
ATOM     12  C7  UNL A   1      28.965  37.908  52.389  1.00  0.00    +0.000 C 
ATOM     13  O4  UNL A   1      29.671  38.844  52.741  1.00  0.00    +0.000 O 
ATOM     14  N2  UNL A   1      28.937  37.282  51.146  1.00  0.00    +0.000 N 
BRANCH    9    8
ATOM     97  C67 UNL A   1      26.448  34.696  48.121  1.00  0.00    +0.000 C 
ATOM    100  H3  UNL A   1      28.790  32.415  48.898  1.00  0.00    +0.000 H 
ATOM      5  C1  UNL A   1      27.220  33.532  48.033  1.00  0.00    +0.000 C 
ATOM      6  C2  UNL A   1      28.222  33.274  48.968  1.00  0.00    +0.000 C 
ATOM      7  C3  UNL A   1      28.449  34.188  50.000  1.00  0.00    +0.000 C 
ATOM    136  H39 UNL A   1      25.713  34.883  47.422  1.00  0.00    +0.000 H 
ATOM    101  H4  UNL A   1      29.187  33.997  50.695  1.00  0.00    +0.000 H 
ATOM    135  H38 UNL A   1      26.098  36.456  49.235  1.00  0.00    +0.000 H 
ATOM      8  C4  UNL A   1      27.688  35.367  50.102  1.00  0.00    +0.000 C 
ATOM     96  C66 UNL A   1      26.678  35.604  49.160  1.00  0.00    +0.000 C 
BRANCH    5    2
ATOM      2  S1  UNL A   1      26.960  32.417  46.683  1.00  0.00    +0.000 S 
ATOM      3  O1  UNL A   1      28.102  32.477  45.790  1.00  0.00    +0.000 O 
ATOM      4  O2  UNL A   1      25.608  32.560  46.218  1.00  0.00    +0.000 O 
BRANCH    2    1
ATOM      1  N1  UNL A   1      27.055  30.921  47.437  1.00  0.00    +0.000 N 
ATOM     98  H1  UNL A   1      27.405  30.228  46.774  1.00  0.00    +0.000 H 
ATOM     99  H2  UNL A   1      26.128  30.643  47.760  1.00  0.00    +0.000 H 
ENDBRANCH    2    1
ENDBRANCH    5    2
ENDBRANCH    9    8
ENDBRANCH   15   14
ENDBRANCH   19   18
ENDBRANCH   21   19
ENDBRANCH   22   21
ENDBRANCH   23   22
ENDBRANCH   24   23
ENDBRANCH   25   24
ENDBRANCH   26   25
ENDBRANCH   27   26
ENDBRANCH   28   27
ENDBRANCH   29   28
ENDBRANCH   31   29
ENDBRANCH   35   34
BRANCH   39   40
ATOM     40  C28 UNL A   1      20.896  33.584  44.765  1.00  0.00    +0.000 C 
ATOM     41  C29 UNL A   1      19.859  33.086  43.946  1.00  0.00    +0.000 C 
ATOM     42  F1  UNL A   1      19.197  33.901  43.109  1.00  0.00    +0.000 F 
ATOM     43  C30 UNL A   1      19.401  31.770  44.044  1.00  0.00    +0.000 C 
ATOM     44  F2  UNL A   1      18.314  31.393  43.358  1.00  0.00    +0.000 F 
ATOM     45  C31 UNL A   1      20.011  30.880  44.906  1.00  0.00    +0.000 C 
ATOM     46  F3  UNL A   1      19.527  29.641  45.061  1.00  0.00    +0.000 F 
ATOM     47  C32 UNL A   1      21.099  31.294  45.640  1.00  0.00    +0.000 C 
ATOM     48  F4  UNL A   1      21.704  30.445  46.484  1.00  0.00    +0.000 F 
ATOM     49  C33 UNL A   1      21.527  32.619  45.581  1.00  0.00    +0.000 C 
ATOM     50  F5  UNL A   1      22.513  32.920  46.432  1.00  0.00    +0.000 F 
ENDBRANCH   39   40
BRANCH   56   57
ATOM     65  F9  UNL A   1      15.654  39.502  50.666  1.00  0.00    +0.000 F 
ATOM     66  C44 UNL A   1      17.440  38.202  49.830  1.00  0.00    +0.000 C 
ATOM     67  F10 UNL A   1      16.618  37.141  49.778  1.00  0.00    +0.000 F 
ATOM     57  C39 UNL A   1      18.760  38.086  49.375  1.00  0.00    +0.000 C 
ATOM     58  C40 UNL A   1      19.557  39.245  49.403  1.00  0.00    +0.000 C 
ATOM     59  F6  UNL A   1      20.797  39.237  48.898  1.00  0.00    +0.000 F 
ATOM     60  C41 UNL A   1      19.063  40.450  49.900  1.00  0.00    +0.000 C 
ATOM     61  F7  UNL A   1      19.846  41.539  49.925  1.00  0.00    +0.000 F 
ATOM     62  C42 UNL A   1      17.751  40.536  50.336  1.00  0.00    +0.000 C 
ATOM     63  F8  UNL A   1      17.260  41.704  50.775  1.00  0.00    +0.000 F 
ATOM     64  C43 UNL A   1      16.937  39.414  50.291  1.00  0.00    +0.000 C 
ENDBRANCH   56   57
BRANCH   71   72
ATOM     72  C48 UNL A   1      23.031  35.139  52.916  1.00  0.00    +0.000 C 
ATOM     73  C49 UNL A   1      22.276  35.003  54.091  1.00  0.00    +0.000 C 
ATOM     74  F11 UNL A   1      21.136  35.695  54.244  1.00  0.00    +0.000 F 
ATOM     75  C50 UNL A   1      22.637  34.100  55.097  1.00  0.00    +0.000 C 
ATOM     76  F12 UNL A   1      21.856  33.950  56.175  1.00  0.00    +0.000 F 
ATOM     77  C51 UNL A   1      23.769  33.312  54.956  1.00  0.00    +0.000 C 
ATOM     78  F13 UNL A   1      24.078  32.398  55.886  1.00  0.00    +0.000 F 
ATOM     79  C52 UNL A   1      24.552  33.444  53.824  1.00  0.00    +0.000 C 
ATOM     80  F14 UNL A   1      25.625  32.660  53.658  1.00  0.00    +0.000 F 
ATOM     81  C53 UNL A   1      24.189  34.343  52.819  1.00  0.00    +0.000 C 
ATOM     82  F15 UNL A   1      24.936  34.349  51.706  1.00  0.00    +0.000 F 
ENDBRANCH   71   72
TORSDOF 19
ENDMDL
MODEL 9
REMARK VINA RESULT:      -9.9      4.380      7.610
ROOT
ATOM    129  H32 UNL A   1      26.697  21.046   5.378  1.00  0.00    +0.000 H 
ATOM    130  H33 UNL A   1      24.482  20.861   4.061  1.00  0.00    +0.000 H 
ATOM     35  C24 UNL A   1      23.657  18.124   3.749  1.00  0.00    +0.000 C 
ATOM     36  C25 UNL A   1      24.731  18.671   4.609  1.00  0.00    +0.000 C 
ATOM     37  N5  UNL A   1      25.587  18.006   5.311  1.00  0.00    +0.000 N 
ATOM     38  C26 UNL A   1      26.351  18.959   5.974  1.00  0.00    +0.000 C 
ATOM     39  C27 UNL A   1      26.883  18.682   7.198  1.00  0.00    +0.000 C 
ATOM     51  C34 UNL A   1      26.862  17.258   7.447  1.00  0.00    +0.000 C 
ATOM     52  C35 UNL A   1      27.400  16.150   6.819  1.00  0.00    +0.000 C 
ATOM     53  C36 UNL A   1      26.401  15.136   6.931  1.00  0.00    +0.000 C 
ATOM     54  C37 UNL A   1      25.344  15.654   7.682  1.00  0.00    +0.000 C 
ATOM     55  N6  UNL A   1      25.873  16.771   8.268  1.00  0.00    +0.000 N 
ATOM     56  C38 UNL A   1      23.963  15.259   7.829  1.00  0.00    +0.000 C 
ATOM     68  C45 UNL A   1      22.957  16.082   8.247  1.00  0.00    +0.000 C 
ATOM     69  N7  UNL A   1      21.635  15.802   7.932  1.00  0.00    +0.000 N 
ATOM     70  C46 UNL A   1      21.049  16.969   7.900  1.00  0.00    +0.000 C 
ATOM     71  C47 UNL A   1      20.042  17.346   6.875  1.00  0.00    +0.000 C 
ATOM     83  C54 UNL A   1      20.699  17.396   5.688  1.00  0.00    +0.000 C 
ATOM     84  C55 UNL A   1      20.191  17.348   4.338  1.00  0.00    +0.000 C 
ATOM     85  C56 UNL A   1      21.236  17.417   3.490  1.00  0.00    +0.000 C 
ATOM     86  C57 UNL A   1      22.469  17.701   4.236  1.00  0.00    +0.000 C 
ATOM     87  N8  UNL A   1      22.096  17.558   5.553  1.00  0.00    +0.000 N 
ATOM     88  C58 UNL A   1      21.754  18.044   8.579  1.00  0.00    +0.000 C 
ATOM     89  C59 UNL A   1      22.954  17.470   8.704  1.00  0.00    +0.000 C 
ATOM     90  C60 UNL A   1      26.105  20.204   5.297  1.00  0.00    +0.000 C 
ATOM     91  C61 UNL A   1      25.003  20.116   4.550  1.00  0.00    +0.000 C 
ATOM    121  H24 UNL A   1      28.326  16.072   6.368  1.00  0.00    +0.000 H 
ATOM    122  H25 UNL A   1      26.451  14.189   6.526  1.00  0.00    +0.000 H 
ATOM    123  H26 UNL A   1      25.594  17.161   9.129  1.00  0.00    +0.000 H 
ATOM    124  H27 UNL A   1      19.197  17.274   4.067  1.00  0.00    +0.000 H 
ATOM    125  H28 UNL A   1      21.179  17.291   2.467  1.00  0.00    +0.000 H 
ATOM    126  H29 UNL A   1      22.727  17.566   6.308  1.00  0.00    +0.000 H 
ATOM    127  H30 UNL A   1      21.424  18.976   8.875  1.00  0.00    +0.000 H 
ATOM    128  H31 UNL A   1      23.785  17.952   9.081  1.00  0.00    +0.000 H 
ENDROOT
BRANCH   35   34
ATOM     33  C22 UNL A   1      24.381  17.308   1.493  1.00  0.00    +0.000 C 
ATOM     34  C23 UNL A   1      23.882  18.320   2.325  1.00  0.00    +0.000 C 
ATOM    131  H34 UNL A   1      23.440  20.374   2.482  1.00  0.00    +0.000 H 
ATOM    132  H35 UNL A   1      23.251  20.639   0.080  1.00  0.00    +0.000 H 
ATOM    119  H22 UNL A   1      25.090  16.902  -0.458  1.00  0.00    +0.000 H 
ATOM    120  H23 UNL A   1      24.542  16.358   1.862  1.00  0.00    +0.000 H 
ATOM     92  C62 UNL A   1      23.645  19.595   1.838  1.00  0.00    +0.000 C 
ATOM     93  C63 UNL A   1      23.690  19.800   0.491  1.00  0.00    +0.000 C 
ATOM     31  C20 UNL A   1      24.327  18.875  -0.326  1.00  0.00    +0.000 C 
ATOM     32  C21 UNL A   1      24.655  17.605   0.160  1.00  0.00    +0.000 C 
BRANCH   31   29
ATOM     29  C19 UNL A   1      24.661  19.302  -1.694  1.00  0.00    +0.000 C 
ATOM     30  O6  UNL A   1      25.599  18.786  -2.292  1.00  0.00    +0.000 O 
BRANCH   29   28
ATOM     28  N4  UNL A   1      23.894  20.284  -2.294  1.00  0.00    +0.000 N 
ATOM    118  H21 UNL A   1      23.568  21.000  -1.703  1.00  0.00    +0.000 H 
BRANCH   28   27
ATOM     27  C18 UNL A   1      23.507  20.386  -3.706  1.00  0.00    +0.000 C 
ATOM    116  H19 UNL A   1      24.102  21.143  -4.174  1.00  0.00    +0.000 H 
ATOM    117  H20 UNL A   1      23.668  19.432  -4.163  1.00  0.00    +0.000 H 
BRANCH   27   26
ATOM     26  C17 UNL A   1      22.040  20.745  -3.867  1.00  0.00    +0.000 C 
ATOM    115  H18 UNL A   1      21.611  20.760  -2.887  1.00  0.00    +0.000 H 
ATOM    114  H17 UNL A   1      21.580  20.015  -4.501  1.00  0.00    +0.000 H 
BRANCH   26   25
ATOM     25  C16 UNL A   1      21.810  22.135  -4.481  1.00  0.00    +0.000 C 
ATOM    113  H16 UNL A   1      20.780  22.361  -4.299  1.00  0.00    +0.000 H 
ATOM    112  H15 UNL A   1      22.075  22.081  -5.516  1.00  0.00    +0.000 H 
BRANCH   25   24
ATOM    110  H13 UNL A   1      21.902  23.957  -3.386  1.00  0.00    +0.000 H 
ATOM    111  H14 UNL A   1      23.293  22.847  -3.172  1.00  0.00    +0.000 H 
ATOM     24  C15 UNL A   1      22.602  23.296  -3.855  1.00  0.00    +0.000 C 
BRANCH   24   23
ATOM    108  H11 UNL A   1      23.110  23.919  -5.829  1.00  0.00    +0.000 H 
ATOM    109  H12 UNL A   1      23.330  25.150  -4.570  1.00  0.00    +0.000 H 
ATOM     23  C14 UNL A   1      23.448  24.119  -4.834  1.00  0.00    +0.000 C 
BRANCH   23   22
ATOM    106  H9  UNL A   1      25.315  24.079  -3.789  1.00  0.00    +0.000 H 
ATOM    107  H10 UNL A   1      25.085  22.748  -4.904  1.00  0.00    +0.000 H 
ATOM     22  C13 UNL A   1      24.944  23.797  -4.753  1.00  0.00    +0.000 C 
BRANCH   22   21
ATOM    105  H8  UNL A   1      25.910  25.442  -5.510  1.00  0.00    +0.000 H 
ATOM     21  N3  UNL A   1      25.664  24.528  -5.779  1.00  0.00    +0.000 N 
BRANCH   21   19
ATOM     19  C12 UNL A   1      26.070  24.201  -7.048  1.00  0.00    +0.000 C 
ATOM     20  O5  UNL A   1      25.415  24.645  -7.991  1.00  0.00    +0.000 O 
BRANCH   19   18
ATOM    133  H36 UNL A   1      26.747  21.758  -5.928  1.00  0.00    +0.000 H 
ATOM    134  H37 UNL A   1      28.331  20.159  -6.827  1.00  0.00    +0.000 H 
ATOM    103  H6  UNL A   1      29.909  23.145  -9.327  1.00  0.00    +0.000 H 
ATOM    104  H7  UNL A   1      28.112  24.636  -8.656  1.00  0.00    +0.000 H 
ATOM     15  C8  UNL A   1      29.200  21.508  -8.196  1.00  0.00    +0.000 C 
ATOM     16  C9  UNL A   1      29.179  22.817  -8.675  1.00  0.00    +0.000 C 
ATOM     17  C10 UNL A   1      28.159  23.682  -8.264  1.00  0.00    +0.000 C 
ATOM     18  C11 UNL A   1      27.199  23.269  -7.326  1.00  0.00    +0.000 C 
ATOM     94  C64 UNL A   1      27.345  22.019  -6.727  1.00  0.00    +0.000 C 
ATOM     95  C65 UNL A   1      28.295  21.118  -7.206  1.00  0.00    +0.000 C 
BRANCH   15   14
ATOM    102  H5  UNL A   1      30.992  17.920 -10.167  1.00  0.00    +0.000 H 
ATOM      9  C5  UNL A   1      29.823  19.530  -9.574  1.00  0.00    +0.000 C 
ATOM     10  C6  UNL A   1      30.915  18.776  -9.596  1.00  0.00    +0.000 C 
ATOM     11  O3  UNL A   1      31.951  19.240  -8.786  1.00  0.00    +0.000 O 
ATOM     12  C7  UNL A   1      31.389  20.392  -8.233  1.00  0.00    +0.000 C 
ATOM     13  O4  UNL A   1      31.978  21.087  -7.415  1.00  0.00    +0.000 O 
ATOM     14  N2  UNL A   1      30.097  20.562  -8.722  1.00  0.00    +0.000 N 
BRANCH    9    8
ATOM     97  C67 UNL A   1      27.177  20.145 -12.197  1.00  0.00    +0.000 C 
ATOM    100  H3  UNL A   1      25.929  17.385 -10.741  1.00  0.00    +0.000 H 
ATOM      5  C1  UNL A   1      26.305  19.079 -11.946  1.00  0.00    +0.000 C 
ATOM      6  C2  UNL A   1      26.573  18.171 -10.922  1.00  0.00    +0.000 C 
ATOM      7  C3  UNL A   1      27.721  18.335 -10.142  1.00  0.00    +0.000 C 
ATOM    136  H39 UNL A   1      26.975  20.809 -12.960  1.00  0.00    +0.000 H 
ATOM    101  H4  UNL A   1      27.918  17.667  -9.381  1.00  0.00    +0.000 H 
ATOM    135  H38 UNL A   1      28.957  21.101 -11.583  1.00  0.00    +0.000 H 
ATOM      8  C4  UNL A   1      28.612  19.397 -10.382  1.00  0.00    +0.000 C 
ATOM     96  C66 UNL A   1      28.322  20.306 -11.408  1.00  0.00    +0.000 C 
BRANCH    5    2
ATOM      2  S1  UNL A   1      24.891  18.851 -12.984  1.00  0.00    +0.000 S 
ATOM      3  O1  UNL A   1      23.694  19.200 -12.241  1.00  0.00    +0.000 O 
ATOM      4  O2  UNL A   1      25.027  17.606 -13.688  1.00  0.00    +0.000 O 
BRANCH    2    1
ATOM      1  N1  UNL A   1      25.085  20.071 -14.120  1.00  0.00    +0.000 N 
ATOM     98  H1  UNL A   1      24.972  19.685 -15.057  1.00  0.00    +0.000 H 
ATOM     99  H2  UNL A   1      26.018  20.474 -14.030  1.00  0.00    +0.000 H 
ENDBRANCH    2    1
ENDBRANCH    5    2
ENDBRANCH    9    8
ENDBRANCH   15   14
ENDBRANCH   19   18
ENDBRANCH   21   19
ENDBRANCH   22   21
ENDBRANCH   23   22
ENDBRANCH   24   23
ENDBRANCH   25   24
ENDBRANCH   26   25
ENDBRANCH   27   26
ENDBRANCH   28   27
ENDBRANCH   29   28
ENDBRANCH   31   29
ENDBRANCH   35   34
BRANCH   39   40
ATOM     40  C28 UNL A   1      27.003  19.682   8.333  1.00  0.00    +0.000 C 
ATOM     41  C29 UNL A   1      28.125  19.590   9.185  1.00  0.00    +0.000 C 
ATOM     42  F1  UNL A   1      29.199  18.869   8.827  1.00  0.00    +0.000 F 
ATOM     43  C30 UNL A   1      28.131  20.140  10.469  1.00  0.00    +0.000 C 
ATOM     44  F2  UNL A   1      29.157  19.891  11.293  1.00  0.00    +0.000 F 
ATOM     45  C31 UNL A   1      27.049  20.870  10.922  1.00  0.00    +0.000 C 
ATOM     46  F3  UNL A   1      27.017  21.333  12.178  1.00  0.00    +0.000 F 
ATOM     47  C32 UNL A   1      25.981  21.080  10.080  1.00  0.00    +0.000 C 
ATOM     48  F4  UNL A   1      24.920  21.783  10.501  1.00  0.00    +0.000 F 
ATOM     49  C33 UNL A   1      25.951  20.491   8.817  1.00  0.00    +0.000 C 
ATOM     50  F5  UNL A   1      24.807  20.671   8.150  1.00  0.00    +0.000 F 
ENDBRANCH   39   40
BRANCH   56   57
ATOM     65  F9  UNL A   1      22.784  12.560   3.977  1.00  0.00    +0.000 F 
ATOM     66  C44 UNL A   1      23.442  13.793   5.882  1.00  0.00    +0.000 C 
ATOM     67  F10 UNL A   1      23.727  14.835   5.085  1.00  0.00    +0.000 F 
ATOM     57  C39 UNL A   1      23.583  13.915   7.270  1.00  0.00    +0.000 C 
ATOM     58  C40 UNL A   1      23.217  12.809   8.057  1.00  0.00    +0.000 C 
ATOM     59  F6  UNL A   1      23.234  12.881   9.394  1.00  0.00    +0.000 F 
ATOM     60  C41 UNL A   1      22.769  11.624   7.474  1.00  0.00    +0.000 C 
ATOM     61  F7  UNL A   1      22.435  10.579   8.246  1.00  0.00    +0.000 F 
ATOM     62  C42 UNL A   1      22.632  11.535   6.098  1.00  0.00    +0.000 C 
ATOM     63  F8  UNL A   1      22.161  10.412   5.538  1.00  0.00    +0.000 F 
ATOM     64  C43 UNL A   1      22.959  12.623   5.304  1.00  0.00    +0.000 C 
ENDBRANCH   56   57
BRANCH   71   72
ATOM     72  C48 UNL A   1      18.703  17.871   7.225  1.00  0.00    +0.000 C 
ATOM     73  C49 UNL A   1      18.226  19.068   6.668  1.00  0.00    +0.000 C 
ATOM     74  F11 UNL A   1      19.058  19.876   5.993  1.00  0.00    +0.000 F 
ATOM     75  C50 UNL A   1      16.873  19.419   6.729  1.00  0.00    +0.000 C 
ATOM     76  F12 UNL A   1      16.444  20.538   6.129  1.00  0.00    +0.000 F 
ATOM     77  C51 UNL A   1      15.961  18.585   7.355  1.00  0.00    +0.000 C 
ATOM     78  F13 UNL A   1      14.655  18.886   7.355  1.00  0.00    +0.000 F 
ATOM     79  C52 UNL A   1      16.404  17.414   7.942  1.00  0.00    +0.000 C 
ATOM     80  F14 UNL A   1      15.526  16.579   8.515  1.00  0.00    +0.000 F 
ATOM     81  C53 UNL A   1      17.754  17.062   7.877  1.00  0.00    +0.000 C 
ATOM     82  F15 UNL A   1      18.098  15.866   8.379  1.00  0.00    +0.000 F 
ENDBRANCH   71   72
TORSDOF 19
ENDMDL
MODEL 10
REMARK VINA RESULT:      -9.9      3.949      6.689
ROOT
ATOM    129  H32 UNL A   1      26.769  21.003   5.500  1.00  0.00    +0.000 H 
ATOM    130  H33 UNL A   1      24.575  20.907   4.140  1.00  0.00    +0.000 H 
ATOM     35  C24 UNL A   1      23.661  18.204   3.788  1.00  0.00    +0.000 C 
ATOM     36  C25 UNL A   1      24.736  18.705   4.673  1.00  0.00    +0.000 C 
ATOM     37  N5  UNL A   1      25.554  18.005   5.385  1.00  0.00    +0.000 N 
ATOM     38  C26 UNL A   1      26.338  18.925   6.071  1.00  0.00    +0.000 C 
ATOM     39  C27 UNL A   1      26.836  18.620   7.303  1.00  0.00    +0.000 C 
ATOM     51  C34 UNL A   1      26.761  17.195   7.538  1.00  0.00    +0.000 C 
ATOM     52  C35 UNL A   1      27.272  16.074   6.912  1.00  0.00    +0.000 C 
ATOM     53  C36 UNL A   1      26.236  15.096   6.995  1.00  0.00    +0.000 C 
ATOM     54  C37 UNL A   1      25.184  15.644   7.731  1.00  0.00    +0.000 C 
ATOM     55  N6  UNL A   1      25.740  16.737   8.336  1.00  0.00    +0.000 N 
ATOM     56  C38 UNL A   1      23.787  15.296   7.848  1.00  0.00    +0.000 C 
ATOM     68  C45 UNL A   1      22.803  16.152   8.254  1.00  0.00    +0.000 C 
ATOM     69  N7  UNL A   1      21.478  15.921   7.912  1.00  0.00    +0.000 N 
ATOM     70  C46 UNL A   1      20.934  17.108   7.878  1.00  0.00    +0.000 C 
ATOM     71  C47 UNL A   1      19.961  17.528   6.838  1.00  0.00    +0.000 C 
ATOM     83  C54 UNL A   1      20.642  17.564   5.665  1.00  0.00    +0.000 C 
ATOM     84  C55 UNL A   1      20.159  17.546   4.304  1.00  0.00    +0.000 C 
ATOM     85  C56 UNL A   1      21.221  17.585   3.477  1.00  0.00    +0.000 C 
ATOM     86  C57 UNL A   1      22.449  17.819   4.249  1.00  0.00    +0.000 C 
ATOM     87  N8  UNL A   1      22.046  17.678   5.557  1.00  0.00    +0.000 N 
ATOM     88  C58 UNL A   1      21.663  18.152   8.580  1.00  0.00    +0.000 C 
ATOM     89  C59 UNL A   1      22.839  17.535   8.723  1.00  0.00    +0.000 C 
ATOM     90  C60 UNL A   1      26.150  20.183   5.401  1.00  0.00    +0.000 C 
ATOM     91  C61 UNL A   1      25.060  20.140   4.631  1.00  0.00    +0.000 C 
ATOM    121  H24 UNL A   1      28.203  15.968   6.478  1.00  0.00    +0.000 H 
ATOM    122  H25 UNL A   1      26.260  14.151   6.584  1.00  0.00    +0.000 H 
ATOM    123  H26 UNL A   1      25.458  17.129   9.195  1.00  0.00    +0.000 H 
ATOM    124  H27 UNL A   1      19.168  17.509   4.014  1.00  0.00    +0.000 H 
ATOM    125  H28 UNL A   1      21.179  17.468   2.452  1.00  0.00    +0.000 H 
ATOM    126  H29 UNL A   1      22.662  17.659   6.324  1.00  0.00    +0.000 H 
ATOM    127  H30 UNL A   1      21.360  19.092   8.878  1.00  0.00    +0.000 H 
ATOM    128  H31 UNL A   1      23.679  17.985   9.120  1.00  0.00    +0.000 H 
ENDROOT
BRANCH   35   34
ATOM     33  C22 UNL A   1      23.659  19.617   1.718  1.00  0.00    +0.000 C 
ATOM     34  C23 UNL A   1      23.919  18.403   2.371  1.00  0.00    +0.000 C 
ATOM    131  H34 UNL A   1      24.404  16.368   2.117  1.00  0.00    +0.000 H 
ATOM    132  H35 UNL A   1      25.372  16.748  -0.072  1.00  0.00    +0.000 H 
ATOM    119  H22 UNL A   1      23.596  20.552  -0.177  1.00  0.00    +0.000 H 
ATOM    120  H23 UNL A   1      23.333  20.439   2.251  1.00  0.00    +0.000 H 
ATOM     92  C62 UNL A   1      24.373  17.297   1.670  1.00  0.00    +0.000 C 
ATOM     93  C63 UNL A   1      24.777  17.461   0.379  1.00  0.00    +0.000 C 
ATOM     31  C20 UNL A   1      24.386  18.591  -0.327  1.00  0.00    +0.000 C 
ATOM     32  C21 UNL A   1      23.848  19.696   0.340  1.00  0.00    +0.000 C 
BRANCH   31   29
ATOM     29  C19 UNL A   1      24.537  18.557  -1.792  1.00  0.00    +0.000 C 
ATOM     30  O6  UNL A   1      24.827  17.511  -2.360  1.00  0.00    +0.000 O 
BRANCH   29   28
ATOM     28  N4  UNL A   1      24.334  19.721  -2.511  1.00  0.00    +0.000 N 
ATOM    118  H21 UNL A   1      24.459  20.563  -2.017  1.00  0.00    +0.000 H 
BRANCH   28   27
ATOM     27  C18 UNL A   1      23.955  19.852  -3.923  1.00  0.00    +0.000 C 
ATOM    116  H19 UNL A   1      24.426  20.723  -4.328  1.00  0.00    +0.000 H 
ATOM    117  H20 UNL A   1      24.275  18.968  -4.434  1.00  0.00    +0.000 H 
BRANCH   27   26
ATOM     26  C17 UNL A   1      22.452  19.979  -4.096  1.00  0.00    +0.000 C 
ATOM    115  H18 UNL A   1      22.004  19.166  -3.563  1.00  0.00    +0.000 H 
ATOM    114  H17 UNL A   1      22.228  19.952  -5.143  1.00  0.00    +0.000 H 
BRANCH   26   25
ATOM     25  C16 UNL A   1      21.872  21.277  -3.510  1.00  0.00    +0.000 C 
ATOM    113  H16 UNL A   1      22.590  21.609  -2.790  1.00  0.00    +0.000 H 
ATOM    112  H15 UNL A   1      20.910  21.048  -3.103  1.00  0.00    +0.000 H 
BRANCH   25   24
ATOM    110  H13 UNL A   1      21.969  22.104  -5.467  1.00  0.00    +0.000 H 
ATOM    111  H14 UNL A   1      20.677  22.754  -4.408  1.00  0.00    +0.000 H 
ATOM     24  C15 UNL A   1      21.700  22.449  -4.490  1.00  0.00    +0.000 C 
BRANCH   24   23
ATOM    108  H11 UNL A   1      21.878  24.504  -3.953  1.00  0.00    +0.000 H 
ATOM    109  H12 UNL A   1      23.176  23.454  -3.355  1.00  0.00    +0.000 H 
ATOM     23  C14 UNL A   1      22.540  23.695  -4.181  1.00  0.00    +0.000 C 
BRANCH   23   22
ATOM    106  H9  UNL A   1      23.401  23.371  -6.112  1.00  0.00    +0.000 H 
ATOM    107  H10 UNL A   1      23.102  25.054  -5.730  1.00  0.00    +0.000 H 
ATOM     22  C13 UNL A   1      23.442  24.116  -5.344  1.00  0.00    +0.000 C 
BRANCH   22   21
ATOM    105  H8  UNL A   1      25.011  25.145  -4.511  1.00  0.00    +0.000 H 
ATOM     21  N3  UNL A   1      24.811  24.257  -4.884  1.00  0.00    +0.000 N 
BRANCH   21   19
ATOM     19  C12 UNL A   1      25.883  23.400  -4.866  1.00  0.00    +0.000 C 
ATOM     20  O5  UNL A   1      25.923  22.551  -3.977  1.00  0.00    +0.000 O 
BRANCH   19   18
ATOM    133  H36 UNL A   1      27.323  21.476  -6.248  1.00  0.00    +0.000 H 
ATOM    134  H37 UNL A   1      28.834  21.872  -8.101  1.00  0.00    +0.000 H 
ATOM    103  H6  UNL A   1      28.978  25.950  -7.095  1.00  0.00    +0.000 H 
ATOM    104  H7  UNL A   1      27.219  25.593  -5.458  1.00  0.00    +0.000 H 
ATOM     15  C8  UNL A   1      28.973  23.954  -7.786  1.00  0.00    +0.000 C 
ATOM     16  C9  UNL A   1      28.558  25.014  -6.982  1.00  0.00    +0.000 C 
ATOM     17  C10 UNL A   1      27.564  24.799  -6.020  1.00  0.00    +0.000 C 
ATOM     18  C11 UNL A   1      27.031  23.516  -5.809  1.00  0.00    +0.000 C 
ATOM     94  C64 UNL A   1      27.588  22.440  -6.499  1.00  0.00    +0.000 C 
ATOM     95  C65 UNL A   1      28.502  22.663  -7.527  1.00  0.00    +0.000 C 
BRANCH   15   14
ATOM    102  H5  UNL A   1      30.688  24.310 -11.896  1.00  0.00    +0.000 H 
ATOM      9  C5  UNL A   1      29.496  24.291 -10.195  1.00  0.00    +0.000 C 
ATOM     10  C6  UNL A   1      30.640  24.238 -10.868  1.00  0.00    +0.000 C 
ATOM     11  O3  UNL A   1      31.771  24.080 -10.068  1.00  0.00    +0.000 O 
ATOM     12  C7  UNL A   1      31.214  24.036  -8.789  1.00  0.00    +0.000 C 
ATOM     13  O4  UNL A   1      31.887  23.862  -7.781  1.00  0.00    +0.000 O 
ATOM     14  N2  UNL A   1      29.831  24.169  -8.877  1.00  0.00    +0.000 N 
BRANCH    9    8
ATOM     97  C67 UNL A   1      26.112  23.828 -11.805  1.00  0.00    +0.000 C 
ATOM    100  H3  UNL A   1      25.886  27.051 -10.881  1.00  0.00    +0.000 H 
ATOM      5  C1  UNL A   1      25.563  25.104 -11.634  1.00  0.00    +0.000 C 
ATOM      6  C2  UNL A   1      26.295  26.112 -11.007  1.00  0.00    +0.000 C 
ATOM      7  C3  UNL A   1      27.587  25.839 -10.551  1.00  0.00    +0.000 C 
ATOM    136  H39 UNL A   1      25.562  23.086 -12.264  1.00  0.00    +0.000 H 
ATOM    101  H4  UNL A   1      28.132  26.585 -10.091  1.00  0.00    +0.000 H 
ATOM    135  H38 UNL A   1      27.820  22.627 -11.490  1.00  0.00    +0.000 H 
ATOM      8  C4  UNL A   1      28.154  24.561 -10.708  1.00  0.00    +0.000 C 
ATOM     96  C66 UNL A   1      27.408  23.564 -11.350  1.00  0.00    +0.000 C 
BRANCH    5    2
ATOM      2  S1  UNL A   1      23.902  25.412 -12.161  1.00  0.00    +0.000 S 
ATOM      3  O1  UNL A   1      23.332  24.183 -12.680  1.00  0.00    +0.000 O 
ATOM      4  O2  UNL A   1      23.870  26.648 -12.894  1.00  0.00    +0.000 O 
BRANCH    2    1
ATOM      1  N1  UNL A   1      23.115  25.695 -10.706  1.00  0.00    +0.000 N 
ATOM     98  H1  UNL A   1      22.627  24.848 -10.413  1.00  0.00    +0.000 H 
ATOM     99  H2  UNL A   1      22.442  26.451 -10.825  1.00  0.00    +0.000 H 
ENDBRANCH    2    1
ENDBRANCH    5    2
ENDBRANCH    9    8
ENDBRANCH   15   14
ENDBRANCH   19   18
ENDBRANCH   21   19
ENDBRANCH   22   21
ENDBRANCH   23   22
ENDBRANCH   24   23
ENDBRANCH   25   24
ENDBRANCH   26   25
ENDBRANCH   27   26
ENDBRANCH   28   27
ENDBRANCH   29   28
ENDBRANCH   31   29
ENDBRANCH   35   34
BRANCH   39   40
ATOM     40  C28 UNL A   1      26.970  19.606   8.448  1.00  0.00    +0.000 C 
ATOM     41  C29 UNL A   1      28.081  19.479   9.310  1.00  0.00    +0.000 C 
ATOM     42  F1  UNL A   1      29.141  18.735   8.956  1.00  0.00    +0.000 F 
ATOM     43  C30 UNL A   1      28.087  20.016  10.599  1.00  0.00    +0.000 C 
ATOM     44  F2  UNL A   1      29.099  19.734  11.431  1.00  0.00    +0.000 F 
ATOM     45  C31 UNL A   1      27.019  20.768  11.049  1.00  0.00    +0.000 C 
ATOM     46  F3  UNL A   1      26.985  21.220  12.309  1.00  0.00    +0.000 F 
ATOM     47  C32 UNL A   1      25.965  21.012  10.199  1.00  0.00    +0.000 C 
ATOM     48  F4  UNL A   1      24.917  21.738  10.616  1.00  0.00    +0.000 F 
ATOM     49  C33 UNL A   1      25.933  20.436   8.929  1.00  0.00    +0.000 C 
ATOM     50  F5  UNL A   1      24.801  20.651   8.253  1.00  0.00    +0.000 F 
ENDBRANCH   39   40
BRANCH   56   57
ATOM     65  F9  UNL A   1      22.896  10.579   8.527  1.00  0.00    +0.000 F 
ATOM     66  C44 UNL A   1      23.223  12.887   8.143  1.00  0.00    +0.000 C 
ATOM     67  F10 UNL A   1      23.369  13.067   9.466  1.00  0.00    +0.000 F 
ATOM     57  C39 UNL A   1      23.371  13.972   7.270  1.00  0.00    +0.000 C 
ATOM     58  C40 UNL A   1      23.261  13.712   5.892  1.00  0.00    +0.000 C 
ATOM     59  F6  UNL A   1      23.483  14.678   4.992  1.00  0.00    +0.000 F 
ATOM     60  C41 UNL A   1      22.976  12.432   5.419  1.00  0.00    +0.000 C 
ATOM     61  F7  UNL A   1      22.866  12.212   4.100  1.00  0.00    +0.000 F 
ATOM     62  C42 UNL A   1      22.842  11.377   6.306  1.00  0.00    +0.000 C 
ATOM     63  F8  UNL A   1      22.612  10.137   5.851  1.00  0.00    +0.000 F 
ATOM     64  C43 UNL A   1      22.976  11.603   7.667  1.00  0.00    +0.000 C 
ENDBRANCH   56   57
BRANCH   71   72
ATOM     72  C48 UNL A   1      18.634  18.097   7.167  1.00  0.00    +0.000 C 
ATOM     73  C49 UNL A   1      18.186  19.284   6.566  1.00  0.00    +0.000 C 
ATOM     74  F11 UNL A   1      19.037  20.047   5.863  1.00  0.00    +0.000 F 
ATOM     75  C50 UNL A   1      16.842  19.669   6.613  1.00  0.00    +0.000 C 
ATOM     76  F12 UNL A   1      16.439  20.775   5.971  1.00  0.00    +0.000 F 
ATOM     77  C51 UNL A   1      15.910  18.880   7.268  1.00  0.00    +0.000 C 
ATOM     78  F13 UNL A   1      14.611  19.212   7.255  1.00  0.00    +0.000 F 
ATOM     79  C52 UNL A   1      16.325  17.721   7.898  1.00  0.00    +0.000 C 
ATOM     80  F14 UNL A   1      15.427  16.929   8.500  1.00  0.00    +0.000 F 
ATOM     81  C53 UNL A   1      17.666  17.335   7.848  1.00  0.00    +0.000 C 
ATOM     82  F15 UNL A   1      17.982  16.151   8.393  1.00  0.00    +0.000 F 
ENDBRANCH   71   72
TORSDOF 19
ENDMDL
