MODEL 1
REMARK VINA RESULT:     -11.0      0.000      0.000
ROOT
ATOM     19  C15 UNL A   1      38.348  30.151  29.755  1.00  0.00    +0.000 C 
ATOM     20  C16 UNL A   1      39.347  29.168  29.216  1.00  0.00    +0.000 C 
ATOM     21  N3  UNL A   1      40.427  28.694  29.786  1.00  0.00    +0.000 N 
ATOM     22  C17 UNL A   1      40.966  27.790  28.881  1.00  0.00    +0.000 C 
ATOM     23  C18 UNL A   1      42.105  27.067  28.992  1.00  0.00    +0.000 C 
ATOM     35  C25 UNL A   1      43.008  27.136  30.111  1.00  0.00    +0.000 C 
ATOM     36  C26 UNL A   1      44.244  26.531  30.260  1.00  0.00    +0.000 C 
ATOM     37  C27 UNL A   1      44.731  26.837  31.534  1.00  0.00    +0.000 C 
ATOM     38  C28 UNL A   1      43.816  27.664  32.164  1.00  0.00    +0.000 C 
ATOM     39  N4  UNL A   1      42.769  27.848  31.276  1.00  0.00    +0.000 N 
ATOM     40  C29 UNL A   1      43.883  28.236  33.483  1.00  0.00    +0.000 C 
ATOM     52  C36 UNL A   1      42.979  29.104  33.998  1.00  0.00    +0.000 C 
ATOM     53  N5  UNL A   1      41.827  29.610  33.414  1.00  0.00    +0.000 N 
ATOM     54  C37 UNL A   1      41.280  30.389  34.313  1.00  0.00    +0.000 C 
ATOM     55  C38 UNL A   1      40.020  31.206  34.220  1.00  0.00    +0.000 C 
ATOM     67  C45 UNL A   1      39.313  31.200  33.074  1.00  0.00    +0.000 C 
ATOM     68  C46 UNL A   1      38.070  31.930  32.848  1.00  0.00    +0.000 C 
ATOM     69  C47 UNL A   1      37.597  31.621  31.630  1.00  0.00    +0.000 C 
ATOM     70  C48 UNL A   1      38.525  30.697  30.975  1.00  0.00    +0.000 C 
ATOM     71  N6  UNL A   1      39.533  30.533  31.894  1.00  0.00    +0.000 N 
ATOM     72  C49 UNL A   1      42.021  30.452  35.582  1.00  0.00    +0.000 C 
ATOM     73  C50 UNL A   1      43.065  29.678  35.323  1.00  0.00    +0.000 C 
ATOM     74  C51 UNL A   1      40.081  27.755  27.737  1.00  0.00    +0.000 C 
ATOM     75  C52 UNL A   1      39.089  28.627  27.873  1.00  0.00    +0.000 C 
ATOM    112  H21 UNL A   1      44.724  25.954  29.551  1.00  0.00    +0.000 H 
ATOM    113  H22 UNL A   1      45.621  26.503  31.937  1.00  0.00    +0.000 H 
ATOM    114  H23 UNL A   1      41.973  28.402  31.447  1.00  0.00    +0.000 H 
ATOM    115  H24 UNL A   1      37.626  32.580  33.515  1.00  0.00    +0.000 H 
ATOM    116  H25 UNL A   1      36.719  31.976  31.222  1.00  0.00    +0.000 H 
ATOM    117  H26 UNL A   1      40.337  29.991  31.722  1.00  0.00    +0.000 H 
ATOM    118  H27 UNL A   1      41.788  30.964  36.446  1.00  0.00    +0.000 H 
ATOM    119  H28 UNL A   1      43.840  29.507  35.982  1.00  0.00    +0.000 H 
ATOM    120  H29 UNL A   1      40.203  27.134  26.922  1.00  0.00    +0.000 H 
ATOM    121  H30 UNL A   1      38.335  28.865  27.210  1.00  0.00    +0.000 H 
ENDROOT
BRANCH   19   18
ATOM     76  C53 UNL A   1      36.146  29.452  28.809  1.00  0.00    +0.000 C 
ATOM     77  C54 UNL A   1      34.934  29.744  28.185  1.00  0.00    +0.000 C 
ATOM    110  H19 UNL A   1      35.417  33.016  27.615  1.00  0.00    +0.000 H 
ATOM     15  C11 UNL A   1      34.641  31.061  27.820  1.00  0.00    +0.000 C 
ATOM     16  C12 UNL A   1      35.613  32.058  27.946  1.00  0.00    +0.000 C 
ATOM     17  C13 UNL A   1      36.848  31.753  28.521  1.00  0.00    +0.000 C 
ATOM    111  H20 UNL A   1      37.575  32.482  28.594  1.00  0.00    +0.000 H 
ATOM     18  C14 UNL A   1      37.107  30.458  28.999  1.00  0.00    +0.000 C 
ATOM    122  H31 UNL A   1      36.339  28.491  29.132  1.00  0.00    +0.000 H 
ATOM    123  H32 UNL A   1      34.256  28.990  27.993  1.00  0.00    +0.000 H 
BRANCH   15   13
ATOM     13  C10 UNL A   1      33.304  31.429  27.302  1.00  0.00    +0.000 C 
ATOM     14  O2  UNL A   1      32.948  32.604  27.319  1.00  0.00    +0.000 O 
BRANCH   13   12
ATOM     12  N2  UNL A   1      32.460  30.455  26.829  1.00  0.00    +0.000 N 
ATOM    109  H18 UNL A   1      31.994  29.930  27.518  1.00  0.00    +0.000 H 
BRANCH   12   11
ATOM     11  C9  UNL A   1      32.157  30.088  25.455  1.00  0.00    +0.000 C 
ATOM    108  H17 UNL A   1      32.531  30.864  24.820  1.00  0.00    +0.000 H 
ATOM    107  H16 UNL A   1      31.097  29.976  25.355  1.00  0.00    +0.000 H 
BRANCH   11   10
ATOM    105  H14 UNL A   1      32.350  28.432  24.147  1.00  0.00    +0.000 H 
ATOM     10  C8  UNL A   1      32.828  28.782  25.038  1.00  0.00    +0.000 C 
ATOM    106  H15 UNL A   1      33.865  29.009  24.902  1.00  0.00    +0.000 H 
BRANCH   10    9
ATOM      9  C7  UNL A   1      32.768  27.662  26.080  1.00  0.00    +0.000 C 
ATOM    103  H12 UNL A   1      32.591  28.109  27.035  1.00  0.00    +0.000 H 
ATOM    104  H13 UNL A   1      31.984  27.006  25.762  1.00  0.00    +0.000 H 
BRANCH    9    8
ATOM    101  H10 UNL A   1      34.876  27.449  26.156  1.00  0.00    +0.000 H 
ATOM    102  H11 UNL A   1      33.933  26.253  27.103  1.00  0.00    +0.000 H 
ATOM      8  C6  UNL A   1      34.028  26.798  26.187  1.00  0.00    +0.000 C 
BRANCH    8    7
ATOM     99  H8  UNL A   1      33.234  25.378  24.815  1.00  0.00    +0.000 H 
ATOM    100  H9  UNL A   1      34.709  26.228  24.278  1.00  0.00    +0.000 H 
ATOM      7  C5  UNL A   1      34.203  25.742  25.085  1.00  0.00    +0.000 C 
BRANCH    7    6
ATOM     97  H6  UNL A   1      36.009  24.610  24.976  1.00  0.00    +0.000 H 
ATOM     98  H7  UNL A   1      35.210  24.565  26.542  1.00  0.00    +0.000 H 
ATOM      6  C4  UNL A   1      35.068  24.544  25.482  1.00  0.00    +0.000 C 
BRANCH    6    5
ATOM      5  N1  UNL A   1      34.426  23.298  25.127  1.00  0.00    +0.000 N 
ATOM     96  H5  UNL A   1      34.355  22.647  25.862  1.00  0.00    +0.000 H 
BRANCH    5    3
ATOM      3  C3  UNL A   1      33.901  22.875  23.941  1.00  0.00    +0.000 C 
ATOM      4  O1  UNL A   1      34.698  22.759  23.006  1.00  0.00    +0.000 O 
BRANCH    3    2
ATOM      2  C2  UNL A   1      32.389  22.607  23.806  1.00  0.00    +0.000 C 
ATOM     95  H4  UNL A   1      32.149  21.944  24.610  1.00  0.00    +0.000 H 
BRANCH    2    1
ATOM      1  C1  UNL A   1      32.022  21.913  22.490  1.00  0.00    +0.000 C 
ATOM     92  H1  UNL A   1      31.187  22.412  22.044  1.00  0.00    +0.000 H 
ATOM     93  H2  UNL A   1      31.764  20.893  22.684  1.00  0.00    +0.000 H 
ATOM     94  H3  UNL A   1      32.857  21.948  21.822  1.00  0.00    +0.000 H 
ENDBRANCH    2    1
BRANCH    2   78
ATOM    135  H44 UNL A   1      29.565  25.651  26.010  1.00  0.00    +0.000 H 
ATOM     78  C55 UNL A   1      31.563  23.888  23.948  1.00  0.00    +0.000 C 
ATOM     79  C56 UNL A   1      31.550  24.804  22.876  1.00  0.00    +0.000 C 
ATOM     80  C57 UNL A   1      30.840  26.002  22.943  1.00  0.00    +0.000 C 
ATOM     81  C58 UNL A   1      30.131  26.339  24.098  1.00  0.00    +0.000 C 
ATOM     89  C65 UNL A   1      30.108  25.427  25.161  1.00  0.00    +0.000 C 
ATOM     90  C66 UNL A   1      30.813  24.215  25.090  1.00  0.00    +0.000 C 
ATOM     91 Br1  UNL A   1      30.680  23.074  26.606  1.00  0.00    +0.000 Br
ATOM    124  H33 UNL A   1      32.078  24.581  22.019  1.00  0.00    +0.000 H 
ATOM    125  H34 UNL A   1      30.838  26.643  22.135  1.00  0.00    +0.000 H 
BRANCH   81   82
ATOM     82  C59 UNL A   1      29.433  27.673  24.202  1.00  0.00    +0.000 C 
ATOM    126  H35 UNL A   1      30.123  28.371  24.628  1.00  0.00    +0.000 H 
ATOM    127  H36 UNL A   1      28.562  27.495  24.797  1.00  0.00    +0.000 H 
BRANCH   82   83
ATOM    129  H38 UNL A   1      26.935  28.409  23.716  1.00  0.00    +0.000 H 
ATOM    130  H39 UNL A   1      26.969  28.612  22.004  1.00  0.00    +0.000 H 
ATOM    131  H40 UNL A   1      27.733  30.575  24.146  1.00  0.00    +0.000 H 
ATOM    132  H41 UNL A   1      26.785  30.875  22.744  1.00  0.00    +0.000 H 
ATOM    133  H42 UNL A   1      29.409  31.536  22.839  1.00  0.00    +0.000 H 
ATOM    134  H43 UNL A   1      28.724  31.062  21.358  1.00  0.00    +0.000 H 
ATOM     83  C60 UNL A   1      28.916  28.270  22.886  1.00  0.00    +0.000 C 
ATOM     84  C61 UNL A   1      27.493  28.837  22.908  1.00  0.00    +0.000 C 
ATOM     85  C62 UNL A   1      27.639  30.342  23.106  1.00  0.00    +0.000 C 
ATOM     86  C63 UNL A   1      28.906  30.726  22.357  1.00  0.00    +0.000 C 
ATOM     87  C64 UNL A   1      29.723  29.461  22.423  1.00  0.00    +0.000 C 
ATOM     88  O3  UNL A   1      30.907  29.402  22.113  1.00  0.00    +0.000 O 
ATOM    128  H37 UNL A   1      28.980  27.409  22.253  1.00  0.00    +0.000 H 
ENDBRANCH   82   83
ENDBRANCH   81   82
ENDBRANCH    2   78
ENDBRANCH    3    2
ENDBRANCH    5    3
ENDBRANCH    6    5
ENDBRANCH    7    6
ENDBRANCH    8    7
ENDBRANCH    9    8
ENDBRANCH   10    9
ENDBRANCH   11   10
ENDBRANCH   12   11
ENDBRANCH   13   12
ENDBRANCH   15   13
ENDBRANCH   19   18
BRANCH   23   24
ATOM     33  C24 UNL A   1      43.366  26.541  26.878  1.00  0.00    +0.000 C 
ATOM     34  F5  UNL A   1      43.976  27.733  26.963  1.00  0.00    +0.000 F 
ATOM     24  C19 UNL A   1      42.463  26.136  27.873  1.00  0.00    +0.000 C 
ATOM     25  C20 UNL A   1      41.847  24.885  27.734  1.00  0.00    +0.000 C 
ATOM     26  F1  UNL A   1      40.982  24.452  28.663  1.00  0.00    +0.000 F 
ATOM     27  C21 UNL A   1      42.129  24.067  26.642  1.00  0.00    +0.000 C 
ATOM     28  F2  UNL A   1      41.545  22.865  26.539  1.00  0.00    +0.000 F 
ATOM     29  C22 UNL A   1      43.011  24.495  25.661  1.00  0.00    +0.000 C 
ATOM     30  F3  UNL A   1      43.267  23.714  24.602  1.00  0.00    +0.000 F 
ATOM     31  C23 UNL A   1      43.629  25.731  25.778  1.00  0.00    +0.000 C 
ATOM     32  F4  UNL A   1      44.473  26.150  24.824  1.00  0.00    +0.000 F 
ENDBRANCH   23   24
BRANCH   40   41
ATOM     41  C30 UNL A   1      45.043  27.858  34.354  1.00  0.00    +0.000 C 
ATOM     42  C31 UNL A   1      44.994  26.725  35.179  1.00  0.00    +0.000 C 
ATOM     43  F6  UNL A   1      43.876  25.986  35.245  1.00  0.00    +0.000 F 
ATOM     44  C32 UNL A   1      46.085  26.368  35.967  1.00  0.00    +0.000 C 
ATOM     45  F7  UNL A   1      46.002  25.305  36.779  1.00  0.00    +0.000 F 
ATOM     46  C33 UNL A   1      47.250  27.117  35.923  1.00  0.00    +0.000 C 
ATOM     47  F8  UNL A   1      48.302  26.767  36.678  1.00  0.00    +0.000 F 
ATOM     48  C34 UNL A   1      47.324  28.234  35.103  1.00  0.00    +0.000 C 
ATOM     49  F9  UNL A   1      48.454  28.953  35.053  1.00  0.00    +0.000 F 
ATOM     50  C35 UNL A   1      46.227  28.609  34.334  1.00  0.00    +0.000 C 
ATOM     51  F10 UNL A   1      46.324  29.698  33.558  1.00  0.00    +0.000 F 
ENDBRANCH   40   41
BRANCH   55   56
ATOM     65  C44 UNL A   1      39.986  33.325  35.579  1.00  0.00    +0.000 C 
ATOM     66  F15 UNL A   1      40.859  33.880  34.727  1.00  0.00    +0.000 F 
ATOM     56  C39 UNL A   1      39.553  32.006  35.382  1.00  0.00    +0.000 C 
ATOM     57  C40 UNL A   1      38.643  31.472  36.305  1.00  0.00    +0.000 C 
ATOM     58  F11 UNL A   1      38.182  30.222  36.143  1.00  0.00    +0.000 F 
ATOM     59  C41 UNL A   1      38.166  32.235  37.368  1.00  0.00    +0.000 C 
ATOM     60  F12 UNL A   1      37.257  31.718  38.206  1.00  0.00    +0.000 F 
ATOM     61  C42 UNL A   1      38.612  33.537  37.546  1.00  0.00    +0.000 C 
ATOM     62  F13 UNL A   1      38.150  34.271  38.567  1.00  0.00    +0.000 F 
ATOM     63  C43 UNL A   1      39.529  34.078  36.658  1.00  0.00    +0.000 C 
ATOM     64  F14 UNL A   1      39.972  35.330  36.834  1.00  0.00    +0.000 F 
ENDBRANCH   55   56
TORSDOF 19
ENDMDL
MODEL 2
REMARK VINA RESULT:     -10.5      4.008      6.996
ROOT
ATOM     19  C15 UNL A   1      41.238  26.369  27.531  1.00  0.00    +0.000 C 
ATOM     20  C16 UNL A   1      42.655  26.589  27.082  1.00  0.00    +0.000 C 
ATOM     21  N3  UNL A   1      43.452  27.596  27.335  1.00  0.00    +0.000 N 
ATOM     22  C17 UNL A   1      44.659  27.285  26.722  1.00  0.00    +0.000 C 
ATOM     23  C18 UNL A   1      45.789  28.029  26.664  1.00  0.00    +0.000 C 
ATOM     35  C25 UNL A   1      45.928  29.344  27.234  1.00  0.00    +0.000 C 
ATOM     36  C26 UNL A   1      46.993  30.221  27.124  1.00  0.00    +0.000 C 
ATOM     37  C27 UNL A   1      46.706  31.356  27.888  1.00  0.00    +0.000 C 
ATOM     38  C28 UNL A   1      45.446  31.202  28.443  1.00  0.00    +0.000 C 
ATOM     39  N4  UNL A   1      44.976  29.968  28.024  1.00  0.00    +0.000 N 
ATOM     40  C29 UNL A   1      44.726  32.106  29.301  1.00  0.00    +0.000 C 
ATOM     52  C36 UNL A   1      43.458  31.914  29.738  1.00  0.00    +0.000 C 
ATOM     53  N5  UNL A   1      42.602  30.851  29.489  1.00  0.00    +0.000 N 
ATOM     54  C37 UNL A   1      41.501  31.114  30.147  1.00  0.00    +0.000 C 
ATOM     55  C38 UNL A   1      40.231  30.312  30.230  1.00  0.00    +0.000 C 
ATOM     67  C45 UNL A   1      40.131  29.160  29.540  1.00  0.00    +0.000 C 
ATOM     68  C46 UNL A   1      38.971  28.276  29.537  1.00  0.00    +0.000 C 
ATOM     69  C47 UNL A   1      39.256  27.181  28.816  1.00  0.00    +0.000 C 
ATOM     70  C48 UNL A   1      40.611  27.303  28.274  1.00  0.00    +0.000 C 
ATOM     71  N6  UNL A   1      41.039  28.528  28.725  1.00  0.00    +0.000 N 
ATOM     72  C49 UNL A   1      41.542  32.373  30.906  1.00  0.00    +0.000 C 
ATOM     73  C50 UNL A   1      42.744  32.837  30.594  1.00  0.00    +0.000 C 
ATOM     74  C51 UNL A   1      44.502  25.982  26.113  1.00  0.00    +0.000 C 
ATOM     75  C52 UNL A   1      43.264  25.529  26.264  1.00  0.00    +0.000 C 
ATOM    112  H21 UNL A   1      47.852  30.065  26.572  1.00  0.00    +0.000 H 
ATOM    113  H22 UNL A   1      47.327  32.170  28.019  1.00  0.00    +0.000 H 
ATOM    114  H23 UNL A   1      44.096  29.590  28.254  1.00  0.00    +0.000 H 
ATOM    115  H24 UNL A   1      38.074  28.463  30.013  1.00  0.00    +0.000 H 
ATOM    116  H25 UNL A   1      38.623  26.380  28.669  1.00  0.00    +0.000 H 
ATOM    117  H26 UNL A   1      41.913  28.915  28.488  1.00  0.00    +0.000 H 
ATOM    118  H27 UNL A   1      40.824  32.787  31.520  1.00  0.00    +0.000 H 
ATOM    119  H28 UNL A   1      43.121  33.741  30.918  1.00  0.00    +0.000 H 
ATOM    120  H29 UNL A   1      45.254  25.472  25.625  1.00  0.00    +0.000 H 
ATOM    121  H30 UNL A   1      42.839  24.661  25.902  1.00  0.00    +0.000 H 
ENDROOT
BRANCH   19   18
ATOM     76  C53 UNL A   1      39.387  25.083  26.459  1.00  0.00    +0.000 C 
ATOM     77  C54 UNL A   1      38.777  23.881  26.104  1.00  0.00    +0.000 C 
ATOM    110  H19 UNL A   1      40.887  21.760  27.626  1.00  0.00    +0.000 H 
ATOM     15  C11 UNL A   1      39.370  22.668  26.467  1.00  0.00    +0.000 C 
ATOM     16  C12 UNL A   1      40.490  22.657  27.305  1.00  0.00    +0.000 C 
ATOM     17  C13 UNL A   1      41.067  23.864  27.707  1.00  0.00    +0.000 C 
ATOM    111  H20 UNL A   1      41.880  23.857  28.344  1.00  0.00    +0.000 H 
ATOM     18  C14 UNL A   1      40.547  25.085  27.249  1.00  0.00    +0.000 C 
ATOM    122  H31 UNL A   1      38.981  25.978  26.141  1.00  0.00    +0.000 H 
ATOM    123  H32 UNL A   1      37.891  23.886  25.575  1.00  0.00    +0.000 H 
BRANCH   15   13
ATOM     13  C10 UNL A   1      38.837  21.380  25.972  1.00  0.00    +0.000 C 
ATOM     14  O2  UNL A   1      39.577  20.403  25.900  1.00  0.00    +0.000 O 
BRANCH   13   12
ATOM     12  N2  UNL A   1      37.526  21.288  25.574  1.00  0.00    +0.000 N 
ATOM    109  H18 UNL A   1      36.866  21.241  26.303  1.00  0.00    +0.000 H 
BRANCH   12   11
ATOM     11  C9  UNL A   1      36.972  21.251  24.231  1.00  0.00    +0.000 C 
ATOM    108  H17 UNL A   1      36.059  20.695  24.270  1.00  0.00    +0.000 H 
ATOM    107  H16 UNL A   1      37.684  20.790  23.578  1.00  0.00    +0.000 H 
BRANCH   11   10
ATOM    105  H14 UNL A   1      37.132  23.362  24.320  1.00  0.00    +0.000 H 
ATOM     10  C8  UNL A   1      36.647  22.643  23.694  1.00  0.00    +0.000 C 
ATOM    106  H15 UNL A   1      36.991  22.661  22.681  1.00  0.00    +0.000 H 
BRANCH   10    9
ATOM      9  C7  UNL A   1      35.155  22.984  23.646  1.00  0.00    +0.000 C 
ATOM    103  H12 UNL A   1      34.751  22.573  22.744  1.00  0.00    +0.000 H 
ATOM    104  H13 UNL A   1      34.729  22.569  24.535  1.00  0.00    +0.000 H 
BRANCH    9    8
ATOM    101  H10 UNL A   1      34.442  24.712  24.646  1.00  0.00    +0.000 H 
ATOM    102  H11 UNL A   1      35.736  24.986  23.435  1.00  0.00    +0.000 H 
ATOM      8  C6  UNL A   1      34.825  24.479  23.675  1.00  0.00    +0.000 C 
BRANCH    8    7
ATOM     99  H8  UNL A   1      34.166  24.703  21.664  1.00  0.00    +0.000 H 
ATOM    100  H9  UNL A   1      32.877  24.457  22.875  1.00  0.00    +0.000 H 
ATOM      7  C5  UNL A   1      33.796  24.951  22.637  1.00  0.00    +0.000 C 
BRANCH    7    6
ATOM     97  H6  UNL A   1      34.130  26.946  21.954  1.00  0.00    +0.000 H 
ATOM     98  H7  UNL A   1      32.471  26.602  22.425  1.00  0.00    +0.000 H 
ATOM      6  C4  UNL A   1      33.502  26.452  22.667  1.00  0.00    +0.000 C 
BRANCH    6    5
ATOM      5  N1  UNL A   1      33.751  27.005  23.980  1.00  0.00    +0.000 N 
ATOM     96  H5  UNL A   1      34.584  26.698  24.405  1.00  0.00    +0.000 H 
BRANCH    5    3
ATOM      3  C3  UNL A   1      33.021  27.882  24.728  1.00  0.00    +0.000 C 
ATOM      4  O1  UNL A   1      33.267  29.078  24.553  1.00  0.00    +0.000 O 
BRANCH    3    2
ATOM      2  C2  UNL A   1      31.987  27.367  25.749  1.00  0.00    +0.000 C 
ATOM     95  H4  UNL A   1      31.062  27.821  25.465  1.00  0.00    +0.000 H 
BRANCH    2    1
ATOM      1  C1  UNL A   1      32.307  27.794  27.187  1.00  0.00    +0.000 C 
ATOM     92  H1  UNL A   1      32.115  28.841  27.299  1.00  0.00    +0.000 H 
ATOM     93  H2  UNL A   1      33.337  27.596  27.397  1.00  0.00    +0.000 H 
ATOM     94  H3  UNL A   1      31.692  27.242  27.868  1.00  0.00    +0.000 H 
ENDBRANCH    2    1
BRANCH    2   78
ATOM    135  H44 UNL A   1      30.188  23.299  24.228  1.00  0.00    +0.000 H 
ATOM     78  C55 UNL A   1      31.837  25.844  25.696  1.00  0.00    +0.000 C 
ATOM     79  C56 UNL A   1      32.663  25.056  26.524  1.00  0.00    +0.000 C 
ATOM     80  C57 UNL A   1      32.598  23.664  26.511  1.00  0.00    +0.000 C 
ATOM     81  C58 UNL A   1      31.716  23.005  25.653  1.00  0.00    +0.000 C 
ATOM     89  C65 UNL A   1      30.866  23.773  24.847  1.00  0.00    +0.000 C 
ATOM     90  C66 UNL A   1      30.922  25.176  24.867  1.00  0.00    +0.000 C 
ATOM     91 Br1  UNL A   1      29.700  26.083  23.725  1.00  0.00    +0.000 Br
ATOM    124  H33 UNL A   1      33.332  25.522  27.155  1.00  0.00    +0.000 H 
ATOM    125  H34 UNL A   1      33.205  23.116  27.140  1.00  0.00    +0.000 H 
BRANCH   81   82
ATOM     82  C59 UNL A   1      31.705  21.497  25.580  1.00  0.00    +0.000 C 
ATOM    126  H35 UNL A   1      30.749  21.195  25.208  1.00  0.00    +0.000 H 
ATOM    127  H36 UNL A   1      31.917  21.161  26.573  1.00  0.00    +0.000 H 
BRANCH   82   83
ATOM    129  H38 UNL A   1      33.121  19.340  26.179  1.00  0.00    +0.000 H 
ATOM    130  H39 UNL A   1      34.355  19.400  24.976  1.00  0.00    +0.000 H 
ATOM    131  H40 UNL A   1      31.594  18.231  24.782  1.00  0.00    +0.000 H 
ATOM    132  H41 UNL A   1      33.065  17.531  24.237  1.00  0.00    +0.000 H 
ATOM    133  H42 UNL A   1      31.384  18.787  22.526  1.00  0.00    +0.000 H 
ATOM    134  H43 UNL A   1      33.058  18.840  22.236  1.00  0.00    +0.000 H 
ATOM     83  C60 UNL A   1      32.778  20.857  24.691  1.00  0.00    +0.000 C 
ATOM     84  C61 UNL A   1      33.300  19.486  25.134  1.00  0.00    +0.000 C 
ATOM     85  C62 UNL A   1      32.531  18.454  24.317  1.00  0.00    +0.000 C 
ATOM     86  C63 UNL A   1      32.311  19.100  22.956  1.00  0.00    +0.000 C 
ATOM     87  C64 UNL A   1      32.287  20.569  23.290  1.00  0.00    +0.000 C 
ATOM     88  O3  UNL A   1      31.930  21.438  22.502  1.00  0.00    +0.000 O 
ATOM    128  H37 UNL A   1      33.544  21.602  24.755  1.00  0.00    +0.000 H 
ENDBRANCH   82   83
ENDBRANCH   81   82
ENDBRANCH    2   78
ENDBRANCH    3    2
ENDBRANCH    5    3
ENDBRANCH    6    5
ENDBRANCH    7    6
ENDBRANCH    8    7
ENDBRANCH    9    8
ENDBRANCH   10    9
ENDBRANCH   11   10
ENDBRANCH   12   11
ENDBRANCH   13   12
ENDBRANCH   15   13
ENDBRANCH   19   18
BRANCH   23   24
ATOM     33  C24 UNL A   1      47.957  26.752  26.668  1.00  0.00    +0.000 C 
ATOM     34  F5  UNL A   1      47.802  26.521  27.980  1.00  0.00    +0.000 F 
ATOM     24  C19 UNL A   1      46.976  27.455  25.952  1.00  0.00    +0.000 C 
ATOM     25  C20 UNL A   1      47.189  27.676  24.585  1.00  0.00    +0.000 C 
ATOM     26  F1  UNL A   1      46.276  28.336  23.858  1.00  0.00    +0.000 F 
ATOM     27  C21 UNL A   1      48.339  27.206  23.955  1.00  0.00    +0.000 C 
ATOM     28  F2  UNL A   1      48.513  27.410  22.642  1.00  0.00    +0.000 F 
ATOM     29  C22 UNL A   1      49.305  26.529  24.685  1.00  0.00    +0.000 C 
ATOM     30  F3  UNL A   1      50.420  26.095  24.082  1.00  0.00    +0.000 F 
ATOM     31  C23 UNL A   1      49.116  26.303  26.041  1.00  0.00    +0.000 C 
ATOM     32  F4  UNL A   1      50.055  25.659  26.749  1.00  0.00    +0.000 F 
ENDBRANCH   23   24
BRANCH   40   41
ATOM     41  C30 UNL A   1      45.420  33.361  29.738  1.00  0.00    +0.000 C 
ATOM     42  C31 UNL A   1      45.301  34.550  29.004  1.00  0.00    +0.000 C 
ATOM     43  F6  UNL A   1      44.605  34.569  27.857  1.00  0.00    +0.000 F 
ATOM     44  C32 UNL A   1      45.929  35.717  29.430  1.00  0.00    +0.000 C 
ATOM     45  F7  UNL A   1      45.837  36.832  28.692  1.00  0.00    +0.000 F 
ATOM     46  C33 UNL A   1      46.661  35.724  30.608  1.00  0.00    +0.000 C 
ATOM     47  F8  UNL A   1      47.259  36.851  31.020  1.00  0.00    +0.000 F 
ATOM     48  C34 UNL A   1      46.779  34.561  31.356  1.00  0.00    +0.000 C 
ATOM     49  F9  UNL A   1      47.477  34.569  32.500  1.00  0.00    +0.000 F 
ATOM     50  C35 UNL A   1      46.174  33.386  30.920  1.00  0.00    +0.000 C 
ATOM     51  F10 UNL A   1      46.313  32.275  31.658  1.00  0.00    +0.000 F 
ENDBRANCH   40   41
BRANCH   55   56
ATOM     65  C44 UNL A   1      39.035  30.479  32.439  1.00  0.00    +0.000 C 
ATOM     66  F15 UNL A   1      39.995  29.736  33.009  1.00  0.00    +0.000 F 
ATOM     56  C39 UNL A   1      39.098  30.778  31.070  1.00  0.00    +0.000 C 
ATOM     57  C40 UNL A   1      38.067  31.554  30.524  1.00  0.00    +0.000 C 
ATOM     58  F11 UNL A   1      38.097  31.887  29.224  1.00  0.00    +0.000 F 
ATOM     59  C41 UNL A   1      37.028  32.034  31.319  1.00  0.00    +0.000 C 
ATOM     60  F12 UNL A   1      36.083  32.817  30.781  1.00  0.00    +0.000 F 
ATOM     61  C42 UNL A   1      36.985  31.721  32.669  1.00  0.00    +0.000 C 
ATOM     62  F13 UNL A   1      35.987  32.186  33.434  1.00  0.00    +0.000 F 
ATOM     63  C43 UNL A   1      37.982  30.936  33.228  1.00  0.00    +0.000 C 
ATOM     64  F14 UNL A   1      37.936  30.621  34.529  1.00  0.00    +0.000 F 
ENDBRANCH   55   56
TORSDOF 19
ENDMDL
MODEL 3
REMARK VINA RESULT:     -10.5      4.163      6.976
ROOT
ATOM     19  C15 UNL A   1      41.152  26.715  27.675  1.00  0.00    +0.000 C 
ATOM     20  C16 UNL A   1      42.595  26.945  27.329  1.00  0.00    +0.000 C 
ATOM     21  N3  UNL A   1      43.349  27.984  27.588  1.00  0.00    +0.000 N 
ATOM     22  C17 UNL A   1      44.608  27.670  27.092  1.00  0.00    +0.000 C 
ATOM     23  C18 UNL A   1      45.723  28.438  27.082  1.00  0.00    +0.000 C 
ATOM     35  C25 UNL A   1      45.789  29.785  27.587  1.00  0.00    +0.000 C 
ATOM     36  C26 UNL A   1      46.841  30.681  27.514  1.00  0.00    +0.000 C 
ATOM     37  C27 UNL A   1      46.470  31.848  28.189  1.00  0.00    +0.000 C 
ATOM     38  C28 UNL A   1      45.173  31.692  28.649  1.00  0.00    +0.000 C 
ATOM     39  N4  UNL A   1      44.764  30.427  28.263  1.00  0.00    +0.000 N 
ATOM     40  C29 UNL A   1      44.368  32.623  29.395  1.00  0.00    +0.000 C 
ATOM     52  C36 UNL A   1      43.073  32.423  29.740  1.00  0.00    +0.000 C 
ATOM     53  N5  UNL A   1      42.262  31.328  29.483  1.00  0.00    +0.000 N 
ATOM     54  C37 UNL A   1      41.106  31.599  30.036  1.00  0.00    +0.000 C 
ATOM     55  C38 UNL A   1      39.850  30.771  30.062  1.00  0.00    +0.000 C 
ATOM     67  C45 UNL A   1      39.830  29.582  29.431  1.00  0.00    +0.000 C 
ATOM     68  C46 UNL A   1      38.692  28.671  29.386  1.00  0.00    +0.000 C 
ATOM     69  C47 UNL A   1      39.057  27.546  28.751  1.00  0.00    +0.000 C 
ATOM     70  C48 UNL A   1      40.448  27.672  28.313  1.00  0.00    +0.000 C 
ATOM     71  N6  UNL A   1      40.813  28.929  28.728  1.00  0.00    +0.000 N 
ATOM     72  C49 UNL A   1      41.060  32.897  30.725  1.00  0.00    +0.000 C 
ATOM     73  C50 UNL A   1      42.273  33.373  30.484  1.00  0.00    +0.000 C 
ATOM     74  C51 UNL A   1      44.527  26.333  26.544  1.00  0.00    +0.000 C 
ATOM     75  C52 UNL A   1      43.290  25.859  26.621  1.00  0.00    +0.000 C 
ATOM    112  H21 UNL A   1      47.745  30.517  27.041  1.00  0.00    +0.000 H 
ATOM    113  H22 UNL A   1      47.062  32.683  28.323  1.00  0.00    +0.000 H 
ATOM    114  H23 UNL A   1      43.876  30.040  28.443  1.00  0.00    +0.000 H 
ATOM    115  H24 UNL A   1      37.756  28.861  29.777  1.00  0.00    +0.000 H 
ATOM    116  H25 UNL A   1      38.454  26.723  28.599  1.00  0.00    +0.000 H 
ATOM    117  H26 UNL A   1      41.695  29.325  28.539  1.00  0.00    +0.000 H 
ATOM    118  H27 UNL A   1      40.287  33.326  31.256  1.00  0.00    +0.000 H 
ATOM    119  H28 UNL A   1      42.605  34.302  30.787  1.00  0.00    +0.000 H 
ATOM    120  H29 UNL A   1      45.326  25.816  26.147  1.00  0.00    +0.000 H 
ATOM    121  H30 UNL A   1      42.913  24.962  26.276  1.00  0.00    +0.000 H 
ENDROOT
BRANCH   19   18
ATOM     76  C53 UNL A   1      39.345  25.344  26.633  1.00  0.00    +0.000 C 
ATOM     77  C54 UNL A   1      38.782  24.114  26.294  1.00  0.00    +0.000 C 
ATOM    110  H19 UNL A   1      40.993  22.097  27.811  1.00  0.00    +0.000 H 
ATOM     15  C11 UNL A   1      39.429  22.931  26.661  1.00  0.00    +0.000 C 
ATOM     16  C12 UNL A   1      40.556  22.973  27.488  1.00  0.00    +0.000 C 
ATOM     17  C13 UNL A   1      41.087  24.206  27.873  1.00  0.00    +0.000 C 
ATOM    111  H20 UNL A   1      41.905  24.239  28.502  1.00  0.00    +0.000 H 
ATOM     18  C14 UNL A   1      40.512  25.401  27.410  1.00  0.00    +0.000 C 
ATOM    122  H31 UNL A   1      38.900  26.218  26.311  1.00  0.00    +0.000 H 
ATOM    123  H32 UNL A   1      37.892  24.078  25.774  1.00  0.00    +0.000 H 
BRANCH   15   13
ATOM     13  C10 UNL A   1      38.945  21.618  26.182  1.00  0.00    +0.000 C 
ATOM     14  O2  UNL A   1      39.716  20.663  26.143  1.00  0.00    +0.000 O 
BRANCH   13   12
ATOM     12  N2  UNL A   1      37.645  21.477  25.762  1.00  0.00    +0.000 N 
ATOM    109  H18 UNL A   1      36.974  21.421  26.480  1.00  0.00    +0.000 H 
BRANCH   12   11
ATOM     11  C9  UNL A   1      37.118  21.400  24.410  1.00  0.00    +0.000 C 
ATOM    108  H17 UNL A   1      36.248  20.777  24.435  1.00  0.00    +0.000 H 
ATOM    107  H16 UNL A   1      37.873  20.993  23.769  1.00  0.00    +0.000 H 
BRANCH   11   10
ATOM    105  H14 UNL A   1      37.203  23.517  24.435  1.00  0.00    +0.000 H 
ATOM     10  C8  UNL A   1      36.698  22.764  23.867  1.00  0.00    +0.000 C 
ATOM    106  H15 UNL A   1      36.962  22.767  22.830  1.00  0.00    +0.000 H 
BRANCH   10    9
ATOM      9  C7  UNL A   1      35.196  23.050  23.929  1.00  0.00    +0.000 C 
ATOM    103  H12 UNL A   1      34.744  22.632  23.054  1.00  0.00    +0.000 H 
ATOM    104  H13 UNL A   1      34.850  22.612  24.842  1.00  0.00    +0.000 H 
BRANCH    9    8
ATOM    101  H10 UNL A   1      34.359  24.710  24.951  1.00  0.00    +0.000 H 
ATOM    102  H11 UNL A   1      35.722  25.076  23.843  1.00  0.00    +0.000 H 
ATOM      8  C6  UNL A   1      34.814  24.532  23.998  1.00  0.00    +0.000 C 
BRANCH    8    7
ATOM     99  H8  UNL A   1      34.258  24.772  21.959  1.00  0.00    +0.000 H 
ATOM    100  H9  UNL A   1      32.908  24.527  23.102  1.00  0.00    +0.000 H 
ATOM      7  C5  UNL A   1      33.841  25.017  22.913  1.00  0.00    +0.000 C 
BRANCH    7    6
ATOM     97  H6  UNL A   1      34.231  27.016  22.273  1.00  0.00    +0.000 H 
ATOM     98  H7  UNL A   1      32.543  26.678  22.633  1.00  0.00    +0.000 H 
ATOM      6  C4  UNL A   1      33.556  26.520  22.939  1.00  0.00    +0.000 C 
BRANCH    6    5
ATOM      5  N1  UNL A   1      33.724  27.058  24.271  1.00  0.00    +0.000 N 
ATOM     96  H5  UNL A   1      34.531  26.749  24.741  1.00  0.00    +0.000 H 
BRANCH    5    3
ATOM      3  C3  UNL A   1      32.947  27.924  24.983  1.00  0.00    +0.000 C 
ATOM      4  O1  UNL A   1      33.238  29.119  24.887  1.00  0.00    +0.000 O 
BRANCH    3    2
ATOM      2  C2  UNL A   1      31.806  27.398  25.877  1.00  0.00    +0.000 C 
ATOM     95  H4  UNL A   1      30.918  27.859  25.499  1.00  0.00    +0.000 H 
BRANCH    2    1
ATOM      1  C1  UNL A   1      31.965  27.802  27.347  1.00  0.00    +0.000 C 
ATOM     92  H1  UNL A   1      31.149  28.432  27.634  1.00  0.00    +0.000 H 
ATOM     93  H2  UNL A   1      32.886  28.333  27.473  1.00  0.00    +0.000 H 
ATOM     94  H3  UNL A   1      31.973  26.925  27.960  1.00  0.00    +0.000 H 
ENDBRANCH    2    1
BRANCH    2   78
ATOM    135  H44 UNL A   1      30.128  23.361  24.150  1.00  0.00    +0.000 H 
ATOM     78  C55 UNL A   1      31.660  25.876  25.785  1.00  0.00    +0.000 C 
ATOM     79  C56 UNL A   1      32.421  25.072  26.658  1.00  0.00    +0.000 C 
ATOM     80  C57 UNL A   1      32.357  23.680  26.616  1.00  0.00    +0.000 C 
ATOM     81  C58 UNL A   1      31.543  23.039  25.681  1.00  0.00    +0.000 C 
ATOM     89  C65 UNL A   1      30.756  23.822  24.826  1.00  0.00    +0.000 C 
ATOM     90  C66 UNL A   1      30.811  25.224  24.876  1.00  0.00    +0.000 C 
ATOM     91 Br1  UNL A   1      29.680  26.154  23.662  1.00  0.00    +0.000 Br
ATOM    124  H33 UNL A   1      33.040  25.526  27.347  1.00  0.00    +0.000 H 
ATOM    125  H34 UNL A   1      32.914  23.121  27.279  1.00  0.00    +0.000 H 
BRANCH   81   82
ATOM     82  C59 UNL A   1      31.538  21.533  25.580  1.00  0.00    +0.000 C 
ATOM    126  H35 UNL A   1      30.631  21.241  25.092  1.00  0.00    +0.000 H 
ATOM    127  H36 UNL A   1      31.631  21.178  26.585  1.00  0.00    +0.000 H 
BRANCH   82   83
ATOM    129  H38 UNL A   1      33.095  19.581  26.464  1.00  0.00    +0.000 H 
ATOM    130  H39 UNL A   1      34.382  19.629  25.318  1.00  0.00    +0.000 H 
ATOM    131  H40 UNL A   1      31.743  18.206  25.125  1.00  0.00    +0.000 H 
ATOM    132  H41 UNL A   1      33.295  17.587  24.723  1.00  0.00    +0.000 H 
ATOM    133  H42 UNL A   1      31.608  18.510  22.816  1.00  0.00    +0.000 H 
ATOM    134  H43 UNL A   1      33.285  18.682  22.597  1.00  0.00    +0.000 H 
ATOM     83  C60 UNL A   1      32.707  20.903  24.811  1.00  0.00    +0.000 C 
ATOM     84  C61 UNL A   1      33.317  19.636  25.419  1.00  0.00    +0.000 C 
ATOM     85  C62 UNL A   1      32.682  18.463  24.681  1.00  0.00    +0.000 C 
ATOM     86  C63 UNL A   1      32.482  18.946  23.252  1.00  0.00    +0.000 C 
ATOM     87  C64 UNL A   1      32.317  20.433  23.428  1.00  0.00    +0.000 C 
ATOM     88  O3  UNL A   1      31.931  21.183  22.539  1.00  0.00    +0.000 O 
ATOM    128  H37 UNL A   1      33.403  21.717  24.831  1.00  0.00    +0.000 H 
ENDBRANCH   82   83
ENDBRANCH   81   82
ENDBRANCH    2   78
ENDBRANCH    3    2
ENDBRANCH    5    3
ENDBRANCH    6    5
ENDBRANCH    7    6
ENDBRANCH    8    7
ENDBRANCH    9    8
ENDBRANCH   10    9
ENDBRANCH   11   10
ENDBRANCH   12   11
ENDBRANCH   13   12
ENDBRANCH   15   13
ENDBRANCH   19   18
BRANCH   23   24
ATOM     33  C24 UNL A   1      47.201  27.908  25.116  1.00  0.00    +0.000 C 
ATOM     34  F5  UNL A   1      46.337  28.547  24.313  1.00  0.00    +0.000 F 
ATOM     24  C19 UNL A   1      46.975  27.856  26.500  1.00  0.00    +0.000 C 
ATOM     25  C20 UNL A   1      47.905  27.170  27.295  1.00  0.00    +0.000 C 
ATOM     26  F1  UNL A   1      47.734  27.100  28.623  1.00  0.00    +0.000 F 
ATOM     27  C21 UNL A   1      49.022  26.564  26.725  1.00  0.00    +0.000 C 
ATOM     28  F2  UNL A   1      49.908  25.931  27.505  1.00  0.00    +0.000 F 
ATOM     29  C22 UNL A   1      49.216  26.612  25.353  1.00  0.00    +0.000 C 
ATOM     30  F3  UNL A   1      50.282  26.011  24.805  1.00  0.00    +0.000 F 
ATOM     31  C23 UNL A   1      48.307  27.282  24.548  1.00  0.00    +0.000 C 
ATOM     32  F4  UNL A   1      48.489  27.319  23.220  1.00  0.00    +0.000 F 
ENDBRANCH   23   24
BRANCH   40   41
ATOM     41  C30 UNL A   1      44.998  33.916  29.816  1.00  0.00    +0.000 C 
ATOM     42  C31 UNL A   1      45.700  34.024  31.025  1.00  0.00    +0.000 C 
ATOM     43  F6  UNL A   1      45.770  32.976  31.861  1.00  0.00    +0.000 F 
ATOM     44  C32 UNL A   1      46.301  35.223  31.397  1.00  0.00    +0.000 C 
ATOM     45  F7  UNL A   1      46.932  35.315  32.577  1.00  0.00    +0.000 F 
ATOM     46  C33 UNL A   1      46.239  36.323  30.557  1.00  0.00    +0.000 C 
ATOM     47  F8  UNL A   1      46.826  37.475  30.914  1.00  0.00    +0.000 F 
ATOM     48  C34 UNL A   1      45.562  36.234  29.349  1.00  0.00    +0.000 C 
ATOM     49  F9  UNL A   1      45.509  37.295  28.531  1.00  0.00    +0.000 F 
ATOM     50  C35 UNL A   1      44.937  35.045  28.986  1.00  0.00    +0.000 C 
ATOM     51  F10 UNL A   1      44.281  34.990  27.817  1.00  0.00    +0.000 F 
ENDBRANCH   40   41
BRANCH   55   56
ATOM     65  C44 UNL A   1      37.597  31.894  30.103  1.00  0.00    +0.000 C 
ATOM     66  F15 UNL A   1      37.683  32.104  28.782  1.00  0.00    +0.000 F 
ATOM     56  C39 UNL A   1      38.644  31.254  30.782  1.00  0.00    +0.000 C 
ATOM     57  C40 UNL A   1      38.505  31.063  32.164  1.00  0.00    +0.000 C 
ATOM     58  F11 UNL A   1      39.470  30.434  32.852  1.00  0.00    +0.000 F 
ATOM     59  C41 UNL A   1      37.354  31.471  32.835  1.00  0.00    +0.000 C 
ATOM     60  F12 UNL A   1      37.224  31.229  34.146  1.00  0.00    +0.000 F 
ATOM     61  C42 UNL A   1      36.333  32.105  32.142  1.00  0.00    +0.000 C 
ATOM     62  F13 UNL A   1      35.225  32.495  32.787  1.00  0.00    +0.000 F 
ATOM     63  C43 UNL A   1      36.458  32.326  30.779  1.00  0.00    +0.000 C 
ATOM     64  F14 UNL A   1      35.480  32.949  30.109  1.00  0.00    +0.000 F 
ENDBRANCH   55   56
TORSDOF 19
ENDMDL
MODEL 4
REMARK VINA RESULT:     -10.3      3.357      6.754
ROOT
ATOM     19  C15 UNL A   1      40.808  28.036  28.916  1.00  0.00    +0.000 C 
ATOM     20  C16 UNL A   1      42.196  28.161  29.476  1.00  0.00    +0.000 C 
ATOM     21  N3  UNL A   1      42.711  29.127  30.195  1.00  0.00    +0.000 N 
ATOM     22  C17 UNL A   1      44.009  28.729  30.487  1.00  0.00    +0.000 C 
ATOM     23  C18 UNL A   1      44.961  29.405  31.174  1.00  0.00    +0.000 C 
ATOM     35  C25 UNL A   1      44.787  30.725  31.722  1.00  0.00    +0.000 C 
ATOM     36  C26 UNL A   1      45.730  31.536  32.330  1.00  0.00    +0.000 C 
ATOM     37  C27 UNL A   1      45.093  32.706  32.754  1.00  0.00    +0.000 C 
ATOM     38  C28 UNL A   1      43.762  32.640  32.375  1.00  0.00    +0.000 C 
ATOM     39  N4  UNL A   1      43.591  31.425  31.734  1.00  0.00    +0.000 N 
ATOM     40  C29 UNL A   1      42.719  33.608  32.592  1.00  0.00    +0.000 C 
ATOM     52  C36 UNL A   1      41.454  33.502  32.118  1.00  0.00    +0.000 C 
ATOM     53  N5  UNL A   1      40.889  32.484  31.363  1.00  0.00    +0.000 N 
ATOM     54  C37 UNL A   1      39.640  32.828  31.174  1.00  0.00    +0.000 C 
ATOM     55  C38 UNL A   1      38.561  32.104  30.415  1.00  0.00    +0.000 C 
ATOM     67  C45 UNL A   1      38.852  30.941  29.802  1.00  0.00    +0.000 C 
ATOM     68  C46 UNL A   1      37.907  30.126  29.047  1.00  0.00    +0.000 C 
ATOM     69  C47 UNL A   1      38.518  28.996  28.656  1.00  0.00    +0.000 C 
ATOM     70  C48 UNL A   1      39.912  29.024  29.103  1.00  0.00    +0.000 C 
ATOM     71  N6  UNL A   1      40.029  30.235  29.743  1.00  0.00    +0.000 N 
ATOM     72  C49 UNL A   1      39.267  34.103  31.804  1.00  0.00    +0.000 C 
ATOM     73  C50 UNL A   1      40.418  34.488  32.336  1.00  0.00    +0.000 C 
ATOM     74  C51 UNL A   1      44.196  27.422  29.897  1.00  0.00    +0.000 C 
ATOM     75  C52 UNL A   1      43.120  27.046  29.217  1.00  0.00    +0.000 C 
ATOM    112  H21 UNL A   1      46.731  31.315  32.449  1.00  0.00    +0.000 H 
ATOM    113  H22 UNL A   1      45.538  33.486  33.263  1.00  0.00    +0.000 H 
ATOM    114  H23 UNL A   1      42.745  31.105  31.344  1.00  0.00    +0.000 H 
ATOM    115  H24 UNL A   1      36.927  30.378  28.845  1.00  0.00    +0.000 H 
ATOM    116  H25 UNL A   1      38.075  28.230  28.126  1.00  0.00    +0.000 H 
ATOM    117  H26 UNL A   1      40.876  30.564  30.123  1.00  0.00    +0.000 H 
ATOM    118  H27 UNL A   1      38.349  34.574  31.826  1.00  0.00    +0.000 H 
ATOM    119  H28 UNL A   1      40.557  35.377  32.841  1.00  0.00    +0.000 H 
ATOM    120  H29 UNL A   1      45.053  26.855  29.992  1.00  0.00    +0.000 H 
ATOM    121  H30 UNL A   1      42.970  26.194  28.654  1.00  0.00    +0.000 H 
ENDROOT
BRANCH   19   18
ATOM     76  C53 UNL A   1      39.574  25.866  28.929  1.00  0.00    +0.000 C 
ATOM     77  C54 UNL A   1      39.081  24.735  28.281  1.00  0.00    +0.000 C 
ATOM    110  H19 UNL A   1      40.397  25.263  25.240  1.00  0.00    +0.000 H 
ATOM     15  C11 UNL A   1      39.320  24.558  26.915  1.00  0.00    +0.000 C 
ATOM     16  C12 UNL A   1      40.170  25.433  26.231  1.00  0.00    +0.000 C 
ATOM     17  C13 UNL A   1      40.709  26.537  26.896  1.00  0.00    +0.000 C 
ATOM    111  H20 UNL A   1      41.355  27.171  26.399  1.00  0.00    +0.000 H 
ATOM     18  C14 UNL A   1      40.377  26.787  28.238  1.00  0.00    +0.000 C 
ATOM    122  H31 UNL A   1      39.348  26.028  29.923  1.00  0.00    +0.000 H 
ATOM    123  H32 UNL A   1      38.542  24.030  28.807  1.00  0.00    +0.000 H 
BRANCH   15   13
ATOM     13  C10 UNL A   1      38.680  23.454  26.166  1.00  0.00    +0.000 C 
ATOM     14  O2  UNL A   1      39.210  22.348  26.143  1.00  0.00    +0.000 O 
BRANCH   13   12
ATOM     12  N2  UNL A   1      37.511  23.678  25.481  1.00  0.00    +0.000 N 
ATOM    109  H18 UNL A   1      36.989  24.456  25.781  1.00  0.00    +0.000 H 
BRANCH   12   11
ATOM     11  C9  UNL A   1      36.934  22.929  24.376  1.00  0.00    +0.000 C 
ATOM    108  H17 UNL A   1      37.737  22.458  23.848  1.00  0.00    +0.000 H 
ATOM    107  H16 UNL A   1      36.394  23.606  23.747  1.00  0.00    +0.000 H 
BRANCH   11   10
ATOM    105  H14 UNL A   1      35.448  21.468  23.995  1.00  0.00    +0.000 H 
ATOM     10  C8  UNL A   1      35.981  21.834  24.847  1.00  0.00    +0.000 C 
ATOM    106  H15 UNL A   1      36.590  21.091  25.319  1.00  0.00    +0.000 H 
BRANCH   10    9
ATOM      9  C7  UNL A   1      34.956  22.276  25.895  1.00  0.00    +0.000 C 
ATOM    103  H12 UNL A   1      35.212  21.811  26.824  1.00  0.00    +0.000 H 
ATOM    104  H13 UNL A   1      35.004  23.344  25.922  1.00  0.00    +0.000 H 
BRANCH    9    8
ATOM    101  H10 UNL A   1      33.102  21.381  26.407  1.00  0.00    +0.000 H 
ATOM    102  H11 UNL A   1      33.007  22.857  25.392  1.00  0.00    +0.000 H 
ATOM      8  C6  UNL A   1      33.500  21.925  25.575  1.00  0.00    +0.000 C 
BRANCH    8    7
ATOM     99  H8  UNL A   1      34.242  20.771  23.949  1.00  0.00    +0.000 H 
ATOM    100  H9  UNL A   1      32.660  20.258  24.600  1.00  0.00    +0.000 H 
ATOM      7  C5  UNL A   1      33.284  21.078  24.312  1.00  0.00    +0.000 C 
BRANCH    7    6
ATOM     97  H6  UNL A   1      33.107  21.676  22.270  1.00  0.00    +0.000 H 
ATOM     98  H7  UNL A   1      31.575  21.380  23.082  1.00  0.00    +0.000 H 
ATOM      6  C4  UNL A   1      32.554  21.801  23.178  1.00  0.00    +0.000 C 
BRANCH    6    5
ATOM      5  N1  UNL A   1      32.422  23.214  23.461  1.00  0.00    +0.000 N 
ATOM     96  H5  UNL A   1      31.812  23.430  24.202  1.00  0.00    +0.000 H 
BRANCH    5    3
ATOM      3  C3  UNL A   1      33.005  24.296  22.869  1.00  0.00    +0.000 C 
ATOM      4  O1  UNL A   1      34.235  24.357  22.941  1.00  0.00    +0.000 O 
BRANCH    3    2
ATOM      2  C2  UNL A   1      32.139  25.379  22.194  1.00  0.00    +0.000 C 
ATOM     95  H4  UNL A   1      31.172  24.937  22.085  1.00  0.00    +0.000 H 
BRANCH    2    1
ATOM      1  C1  UNL A   1      32.648  25.766  20.801  1.00  0.00    +0.000 C 
ATOM     92  H1  UNL A   1      32.519  24.940  20.132  1.00  0.00    +0.000 H 
ATOM     93  H2  UNL A   1      33.686  26.019  20.858  1.00  0.00    +0.000 H 
ATOM     94  H3  UNL A   1      32.095  26.608  20.440  1.00  0.00    +0.000 H 
ENDBRANCH    2    1
BRANCH    2   78
ATOM    135  H44 UNL A   1      30.117  28.242  25.327  1.00  0.00    +0.000 H 
ATOM     78  C55 UNL A   1      32.021  26.639  23.056  1.00  0.00    +0.000 C 
ATOM     79  C56 UNL A   1      33.054  27.597  22.995  1.00  0.00    +0.000 C 
ATOM     80  C57 UNL A   1      33.026  28.756  23.768  1.00  0.00    +0.000 C 
ATOM     81  C58 UNL A   1      31.969  28.992  24.650  1.00  0.00    +0.000 C 
ATOM     89  C65 UNL A   1      30.919  28.066  24.701  1.00  0.00    +0.000 C 
ATOM     90  C66 UNL A   1      30.940  26.904  23.914  1.00  0.00    +0.000 C 
ATOM     91 Br1  UNL A   1      29.441  25.745  24.082  1.00  0.00    +0.000 Br
ATOM    124  H33 UNL A   1      33.851  27.436  22.361  1.00  0.00    +0.000 H 
ATOM    125  H34 UNL A   1      33.789  29.445  23.689  1.00  0.00    +0.000 H 
BRANCH   81   82
ATOM     82  C59 UNL A   1      31.981  30.205  25.548  1.00  0.00    +0.000 C 
ATOM    126  H35 UNL A   1      30.977  30.571  25.615  1.00  0.00    +0.000 H 
ATOM    127  H36 UNL A   1      32.669  30.889  25.096  1.00  0.00    +0.000 H 
BRANCH   82   83
ATOM    129  H38 UNL A   1      33.156  28.007  26.443  1.00  0.00    +0.000 H 
ATOM    130  H39 UNL A   1      33.123  28.274  28.145  1.00  0.00    +0.000 H 
ATOM    131  H40 UNL A   1      35.143  29.218  26.132  1.00  0.00    +0.000 H 
ATOM    132  H41 UNL A   1      35.451  28.523  27.673  1.00  0.00    +0.000 H 
ATOM    133  H42 UNL A   1      35.552  31.202  27.289  1.00  0.00    +0.000 H 
ATOM    134  H43 UNL A   1      35.044  30.596  28.794  1.00  0.00    +0.000 H 
ATOM     83  C60 UNL A   1      32.497  29.985  26.975  1.00  0.00    +0.000 C 
ATOM     84  C61 UNL A   1      33.348  28.732  27.206  1.00  0.00    +0.000 C 
ATOM     85  C62 UNL A   1      34.801  29.189  27.145  1.00  0.00    +0.000 C 
ATOM     86  C63 UNL A   1      34.810  30.586  27.750  1.00  0.00    +0.000 C 
ATOM     87  C64 UNL A   1      33.422  31.085  27.443  1.00  0.00    +0.000 C 
ATOM     88  O3  UNL A   1      33.075  32.253  27.581  1.00  0.00    +0.000 O 
ATOM    128  H37 UNL A   1      31.567  29.924  27.502  1.00  0.00    +0.000 H 
ENDBRANCH   82   83
ENDBRANCH   81   82
ENDBRANCH    2   78
ENDBRANCH    3    2
ENDBRANCH    5    3
ENDBRANCH    6    5
ENDBRANCH    7    6
ENDBRANCH    8    7
ENDBRANCH    9    8
ENDBRANCH   10    9
ENDBRANCH   11   10
ENDBRANCH   12   11
ENDBRANCH   13   12
ENDBRANCH   15   13
ENDBRANCH   19   18
BRANCH   23   24
ATOM     33  C24 UNL A   1      47.295  28.870  30.401  1.00  0.00    +0.000 C 
ATOM     34  F5  UNL A   1      47.101  29.647  29.325  1.00  0.00    +0.000 F 
ATOM     24  C19 UNL A   1      46.291  28.744  31.373  1.00  0.00    +0.000 C 
ATOM     25  C20 UNL A   1      46.541  27.915  32.475  1.00  0.00    +0.000 C 
ATOM     26  F1  UNL A   1      45.614  27.768  33.433  1.00  0.00    +0.000 F 
ATOM     27  C21 UNL A   1      47.754  27.241  32.603  1.00  0.00    +0.000 C 
ATOM     28  F2  UNL A   1      47.980  26.470  33.674  1.00  0.00    +0.000 F 
ATOM     29  C22 UNL A   1      48.726  27.366  31.621  1.00  0.00    +0.000 C 
ATOM     30  F3  UNL A   1      49.884  26.703  31.736  1.00  0.00    +0.000 F 
ATOM     31  C23 UNL A   1      48.497  28.179  30.520  1.00  0.00    +0.000 C 
ATOM     32  F4  UNL A   1      49.432  28.291  29.566  1.00  0.00    +0.000 F 
ENDBRANCH   23   24
BRANCH   40   41
ATOM     41  C30 UNL A   1      43.051  34.832  33.390  1.00  0.00    +0.000 C 
ATOM     42  C31 UNL A   1      43.445  36.023  32.764  1.00  0.00    +0.000 C 
ATOM     43  F6  UNL A   1      43.587  36.071  31.431  1.00  0.00    +0.000 F 
ATOM     44  C32 UNL A   1      43.729  37.163  33.512  1.00  0.00    +0.000 C 
ATOM     45  F7  UNL A   1      44.143  38.279  32.896  1.00  0.00    +0.000 F 
ATOM     46  C33 UNL A   1      43.598  37.141  34.891  1.00  0.00    +0.000 C 
ATOM     47  F8  UNL A   1      43.865  38.241  35.609  1.00  0.00    +0.000 F 
ATOM     48  C34 UNL A   1      43.196  35.976  35.530  1.00  0.00    +0.000 C 
ATOM     49  F9  UNL A   1      43.059  35.956  36.863  1.00  0.00    +0.000 F 
ATOM     50  C35 UNL A   1      42.937  34.828  34.788  1.00  0.00    +0.000 C 
ATOM     51  F10 UNL A   1      42.559  33.714  35.432  1.00  0.00    +0.000 F 
ENDBRANCH   40   41
BRANCH   55   56
ATOM     65  C44 UNL A   1      36.240  32.386  31.349  1.00  0.00    +0.000 C 
ATOM     66  F15 UNL A   1      36.563  31.591  32.379  1.00  0.00    +0.000 F 
ATOM     56  C39 UNL A   1      37.184  32.658  30.348  1.00  0.00    +0.000 C 
ATOM     57  C40 UNL A   1      36.793  33.491  29.291  1.00  0.00    +0.000 C 
ATOM     58  F11 UNL A   1      37.670  33.799  28.323  1.00  0.00    +0.000 F 
ATOM     59  C41 UNL A   1      35.519  34.052  29.250  1.00  0.00    +0.000 C 
ATOM     60  F12 UNL A   1      35.188  34.887  28.256  1.00  0.00    +0.000 F 
ATOM     61  C42 UNL A   1      34.600  33.765  30.249  1.00  0.00    +0.000 C 
ATOM     62  F13 UNL A   1      33.375  34.307  30.211  1.00  0.00    +0.000 F 
ATOM     63  C43 UNL A   1      34.957  32.925  31.293  1.00  0.00    +0.000 C 
ATOM     64  F14 UNL A   1      34.068  32.635  32.253  1.00  0.00    +0.000 F 
ENDBRANCH   55   56
TORSDOF 19
ENDMDL
MODEL 5
REMARK VINA RESULT:     -10.2     37.398     42.528
ROOT
ATOM     19  C15 UNL A   1      14.067  53.541   5.631  1.00  0.00    +0.000 C 
ATOM     20  C16 UNL A   1      14.988  54.044   4.556  1.00  0.00    +0.000 C 
ATOM     21  N3  UNL A   1      15.459  53.410   3.512  1.00  0.00    +0.000 N 
ATOM     22  C17 UNL A   1      16.224  54.339   2.819  1.00  0.00    +0.000 C 
ATOM     23  C18 UNL A   1      16.949  54.156   1.690  1.00  0.00    +0.000 C 
ATOM     35  C25 UNL A   1      17.076  52.900   0.998  1.00  0.00    +0.000 C 
ATOM     36  C26 UNL A   1      17.881  52.591  -0.085  1.00  0.00    +0.000 C 
ATOM     37  C27 UNL A   1      17.631  51.266  -0.452  1.00  0.00    +0.000 C 
ATOM     38  C28 UNL A   1      16.698  50.738   0.425  1.00  0.00    +0.000 C 
ATOM     39  N4  UNL A   1      16.374  51.748   1.316  1.00  0.00    +0.000 N 
ATOM     40  C29 UNL A   1      16.134  49.415   0.444  1.00  0.00    +0.000 C 
ATOM     52  C36 UNL A   1      15.281  48.950   1.390  1.00  0.00    +0.000 C 
ATOM     53  N5  UNL A   1      14.766  49.609   2.497  1.00  0.00    +0.000 N 
ATOM     54  C37 UNL A   1      13.974  48.750   3.089  1.00  0.00    +0.000 C 
ATOM     55  C38 UNL A   1      13.159  48.920   4.342  1.00  0.00    +0.000 C 
ATOM     67  C45 UNL A   1      13.217  50.085   5.015  1.00  0.00    +0.000 C 
ATOM     68  C46 UNL A   1      12.473  50.394   6.231  1.00  0.00    +0.000 C 
ATOM     69  C47 UNL A   1      12.703  51.672   6.571  1.00  0.00    +0.000 C 
ATOM     70  C48 UNL A   1      13.642  52.262   5.615  1.00  0.00    +0.000 C 
ATOM     71  N6  UNL A   1      13.921  51.234   4.747  1.00  0.00    +0.000 N 
ATOM     72  C49 UNL A   1      13.886  47.449   2.410  1.00  0.00    +0.000 C 
ATOM     73  C50 UNL A   1      14.728  47.613   1.401  1.00  0.00    +0.000 C 
ATOM     74  C51 UNL A   1      16.131  55.588   3.542  1.00  0.00    +0.000 C 
ATOM     75  C52 UNL A   1      15.418  55.447   4.652  1.00  0.00    +0.000 C 
ATOM    112  H21 UNL A   1      18.552  53.230  -0.541  1.00  0.00    +0.000 H 
ATOM    113  H22 UNL A   1      18.066  50.766  -1.244  1.00  0.00    +0.000 H 
ATOM    114  H23 UNL A   1      15.740  51.661   2.064  1.00  0.00    +0.000 H 
ATOM    115  H24 UNL A   1      11.868  49.736   6.747  1.00  0.00    +0.000 H 
ATOM    116  H25 UNL A   1      12.284  52.160   7.377  1.00  0.00    +0.000 H 
ATOM    117  H26 UNL A   1      14.564  51.313   4.006  1.00  0.00    +0.000 H 
ATOM    118  H27 UNL A   1      13.317  46.624   2.656  1.00  0.00    +0.000 H 
ATOM    119  H28 UNL A   1      14.961  46.881   0.711  1.00  0.00    +0.000 H 
ATOM    120  H29 UNL A   1      16.562  56.474   3.235  1.00  0.00    +0.000 H 
ATOM    121  H30 UNL A   1      15.217  56.140   5.390  1.00  0.00    +0.000 H 
ENDROOT
BRANCH   19   18
ATOM     76  C53 UNL A   1      12.378  55.212   6.397  1.00  0.00    +0.000 C 
ATOM     77  C54 UNL A   1      11.810  56.014   7.386  1.00  0.00    +0.000 C 
ATOM    110  H19 UNL A   1      13.974  55.381   9.872  1.00  0.00    +0.000 H 
ATOM     15  C11 UNL A   1      12.352  56.014   8.675  1.00  0.00    +0.000 C 
ATOM     16  C12 UNL A   1      13.541  55.326   8.937  1.00  0.00    +0.000 C 
ATOM     17  C13 UNL A   1      14.139  54.567   7.929  1.00  0.00    +0.000 C 
ATOM    111  H20 UNL A   1      15.029  54.077   8.115  1.00  0.00    +0.000 H 
ATOM     18  C14 UNL A   1      13.537  54.467   6.664  1.00  0.00    +0.000 C 
ATOM    122  H31 UNL A   1      11.943  55.166   5.461  1.00  0.00    +0.000 H 
ATOM    123  H32 UNL A   1      10.994  56.606   7.167  1.00  0.00    +0.000 H 
BRANCH   15   13
ATOM     13  C10 UNL A   1      11.681  56.728   9.783  1.00  0.00    +0.000 C 
ATOM     14  O2  UNL A   1      11.490  57.938   9.699  1.00  0.00    +0.000 O 
BRANCH   13   12
ATOM     12  N2  UNL A   1      11.298  56.042  10.909  1.00  0.00    +0.000 N 
ATOM    109  H18 UNL A   1      11.594  56.434  11.762  1.00  0.00    +0.000 H 
BRANCH   12   11
ATOM     11  C9  UNL A   1      10.519  54.820  11.022  1.00  0.00    +0.000 C 
ATOM    108  H17 UNL A   1      10.232  54.524  10.035  1.00  0.00    +0.000 H 
ATOM    107  H16 UNL A   1       9.665  55.013  11.638  1.00  0.00    +0.000 H 
BRANCH   11   10
ATOM    105  H14 UNL A   1      12.264  54.059  11.952  1.00  0.00    +0.000 H 
ATOM     10  C8  UNL A   1      11.317  53.674  11.638  1.00  0.00    +0.000 C 
ATOM    106  H15 UNL A   1      10.724  53.296  12.445  1.00  0.00    +0.000 H 
BRANCH   10    9
ATOM      9  C7  UNL A   1      11.572  52.488  10.704  1.00  0.00    +0.000 C 
ATOM    103  H12 UNL A   1      11.060  52.677   9.784  1.00  0.00    +0.000 H 
ATOM    104  H13 UNL A   1      12.635  52.421  10.597  1.00  0.00    +0.000 H 
BRANCH    9    8
ATOM    101  H10 UNL A   1      10.165  51.263  11.712  1.00  0.00    +0.000 H 
ATOM    102  H11 UNL A   1      11.077  50.478  10.382  1.00  0.00    +0.000 H 
ATOM      8  C6  UNL A   1      11.112  51.126  11.233  1.00  0.00    +0.000 C 
BRANCH    8    7
ATOM     99  H8  UNL A   1      12.618  49.704  11.718  1.00  0.00    +0.000 H 
ATOM    100  H9  UNL A   1      12.669  51.229  12.646  1.00  0.00    +0.000 H 
ATOM      7  C5  UNL A   1      12.057  50.452  12.238  1.00  0.00    +0.000 C 
BRANCH    7    6
ATOM     97  H6  UNL A   1      11.891  50.013  14.321  1.00  0.00    +0.000 H 
ATOM     98  H7  UNL A   1      10.354  50.156  13.478  1.00  0.00    +0.000 H 
ATOM      6  C4  UNL A   1      11.356  49.784  13.423  1.00  0.00    +0.000 C 
BRANCH    6    5
ATOM      5  N1  UNL A   1      11.305  48.348  13.255  1.00  0.00    +0.000 N 
ATOM     96  H5  UNL A   1      11.857  47.840  13.892  1.00  0.00    +0.000 H 
BRANCH    5    3
ATOM      3  C3  UNL A   1      10.619  47.582  12.359  1.00  0.00    +0.000 C 
ATOM      4  O1  UNL A   1       9.392  47.710  12.365  1.00  0.00    +0.000 O 
BRANCH    3    2
ATOM      2  C2  UNL A   1      11.366  46.598  11.437  1.00  0.00    +0.000 C 
ATOM     95  H4  UNL A   1      10.610  46.165  10.817  1.00  0.00    +0.000 H 
BRANCH    2    1
ATOM      1  C1  UNL A   1      12.057  45.467  12.208  1.00  0.00    +0.000 C 
ATOM     92  H1  UNL A   1      12.231  45.778  13.217  1.00  0.00    +0.000 H 
ATOM     93  H2  UNL A   1      12.992  45.236  11.741  1.00  0.00    +0.000 H 
ATOM     94  H3  UNL A   1      11.433  44.598  12.204  1.00  0.00    +0.000 H 
ENDBRANCH    2    1
BRANCH    2   78
ATOM    135  H44 UNL A   1      12.800  49.232   7.818  1.00  0.00    +0.000 H 
ATOM     78  C55 UNL A   1      12.395  47.308  10.553  1.00  0.00    +0.000 C 
ATOM     79  C56 UNL A   1      13.757  47.229  10.908  1.00  0.00    +0.000 C 
ATOM     80  C57 UNL A   1      14.747  47.870  10.163  1.00  0.00    +0.000 C 
ATOM     81  C58 UNL A   1      14.407  48.632   9.045  1.00  0.00    +0.000 C 
ATOM     89  C65 UNL A   1      13.062  48.696   8.660  1.00  0.00    +0.000 C 
ATOM     90  C66 UNL A   1      12.065  48.041   9.401  1.00  0.00    +0.000 C 
ATOM     91 Br1  UNL A   1      10.286  48.210   8.752  1.00  0.00    +0.000 Br
ATOM    124  H33 UNL A   1      14.029  46.683  11.739  1.00  0.00    +0.000 H 
ATOM    125  H34 UNL A   1      15.736  47.780  10.441  1.00  0.00    +0.000 H 
BRANCH   81   82
ATOM     82  C59 UNL A   1      15.469  49.393   8.289  1.00  0.00    +0.000 C 
ATOM    126  H35 UNL A   1      15.124  49.525   7.285  1.00  0.00    +0.000 H 
ATOM    127  H36 UNL A   1      16.359  48.805   8.376  1.00  0.00    +0.000 H 
BRANCH   82   83
ATOM    129  H38 UNL A   1      13.921  50.899   9.821  1.00  0.00    +0.000 H 
ATOM    130  H39 UNL A   1      14.747  52.411   9.756  1.00  0.00    +0.000 H 
ATOM    131  H40 UNL A   1      15.244  50.073  11.576  1.00  0.00    +0.000 H 
ATOM    132  H41 UNL A   1      15.176  51.735  12.006  1.00  0.00    +0.000 H 
ATOM    133  H42 UNL A   1      17.542  50.466  11.656  1.00  0.00    +0.000 H 
ATOM    134  H43 UNL A   1      17.418  52.116  11.266  1.00  0.00    +0.000 H 
ATOM     83  C60 UNL A   1      15.834  50.776   8.844  1.00  0.00    +0.000 C 
ATOM     84  C61 UNL A   1      14.884  51.360   9.895  1.00  0.00    +0.000 C 
ATOM     85  C62 UNL A   1      15.512  51.056  11.251  1.00  0.00    +0.000 C 
ATOM     86  C63 UNL A   1      17.015  51.153  11.030  1.00  0.00    +0.000 C 
ATOM     87  C64 UNL A   1      17.157  50.786   9.576  1.00  0.00    +0.000 C 
ATOM     88  O3  UNL A   1      18.233  50.544   9.040  1.00  0.00    +0.000 O 
ATOM    128  H37 UNL A   1      15.814  51.351   7.941  1.00  0.00    +0.000 H 
ENDBRANCH   82   83
ENDBRANCH   81   82
ENDBRANCH    2   78
ENDBRANCH    3    2
ENDBRANCH    5    3
ENDBRANCH    6    5
ENDBRANCH    7    6
ENDBRANCH    8    7
ENDBRANCH    9    8
ENDBRANCH   10    9
ENDBRANCH   11   10
ENDBRANCH   12   11
ENDBRANCH   13   12
ENDBRANCH   15   13
ENDBRANCH   19   18
BRANCH   23   24
ATOM     33  C24 UNL A   1      18.952  55.676   1.605  1.00  0.00    +0.000 C 
ATOM     34  F5  UNL A   1      19.558  54.906   2.520  1.00  0.00    +0.000 F 
ATOM     24  C19 UNL A   1      17.679  55.335   1.123  1.00  0.00    +0.000 C 
ATOM     25  C20 UNL A   1      17.087  56.177   0.172  1.00  0.00    +0.000 C 
ATOM     26  F1  UNL A   1      15.875  55.888  -0.323  1.00  0.00    +0.000 F 
ATOM     27  C21 UNL A   1      17.747  57.316  -0.284  1.00  0.00    +0.000 C 
ATOM     28  F2  UNL A   1      17.172  58.096  -1.209  1.00  0.00    +0.000 F 
ATOM     29  C22 UNL A   1      18.998  57.644   0.219  1.00  0.00    +0.000 C 
ATOM     30  F3  UNL A   1      19.623  58.751  -0.207  1.00  0.00    +0.000 F 
ATOM     31  C23 UNL A   1      19.600  56.826   1.163  1.00  0.00    +0.000 C 
ATOM     32  F4  UNL A   1      20.803  57.150   1.658  1.00  0.00    +0.000 F 
ENDBRANCH   23   24
BRANCH   40   41
ATOM     41  C30 UNL A   1      16.522  48.470  -0.653  1.00  0.00    +0.000 C 
ATOM     42  C31 UNL A   1      17.736  47.771  -0.614  1.00  0.00    +0.000 C 
ATOM     43  F6  UNL A   1      18.606  47.981   0.386  1.00  0.00    +0.000 F 
ATOM     44  C32 UNL A   1      18.078  46.877  -1.625  1.00  0.00    +0.000 C 
ATOM     45  F7  UNL A   1      19.262  46.250  -1.590  1.00  0.00    +0.000 F 
ATOM     46  C33 UNL A   1      17.203  46.645  -2.675  1.00  0.00    +0.000 C 
ATOM     47  F8  UNL A   1      17.530  45.778  -3.644  1.00  0.00    +0.000 F 
ATOM     48  C34 UNL A   1      15.989  47.316  -2.725  1.00  0.00    +0.000 C 
ATOM     49  F9  UNL A   1      15.138  47.085  -3.733  1.00  0.00    +0.000 F 
ATOM     50  C35 UNL A   1      15.656  48.229  -1.729  1.00  0.00    +0.000 C 
ATOM     51  F10 UNL A   1      14.481  48.871  -1.808  1.00  0.00    +0.000 F 
ENDBRANCH   40   41
BRANCH   55   56
ATOM     65  C44 UNL A   1      12.767  46.866   5.745  1.00  0.00    +0.000 C 
ATOM     66  F15 UNL A   1      14.036  46.923   6.172  1.00  0.00    +0.000 F 
ATOM     56  C39 UNL A   1      12.291  47.818   4.832  1.00  0.00    +0.000 C 
ATOM     57  C40 UNL A   1      10.958  47.711   4.413  1.00  0.00    +0.000 C 
ATOM     58  F11 UNL A   1      10.450  48.613   3.559  1.00  0.00    +0.000 F 
ATOM     59  C41 UNL A   1      10.126  46.708   4.907  1.00  0.00    +0.000 C 
ATOM     60  F12 UNL A   1       8.841  46.660   4.530  1.00  0.00    +0.000 F 
ATOM     61  C42 UNL A   1      10.621  45.775   5.806  1.00  0.00    +0.000 C 
ATOM     62  F13 UNL A   1       9.820  44.812   6.284  1.00  0.00    +0.000 F 
ATOM     63  C43 UNL A   1      11.943  45.847   6.217  1.00  0.00    +0.000 C 
ATOM     64  F14 UNL A   1      12.428  44.940   7.076  1.00  0.00    +0.000 F 
ENDBRANCH   55   56
TORSDOF 19
ENDMDL
MODEL 6
REMARK VINA RESULT:     -10.1     37.723     42.611
ROOT
ATOM     19  C15 UNL A   1      14.093  53.732   5.553  1.00  0.00    +0.000 C 
ATOM     20  C16 UNL A   1      15.028  54.189   4.471  1.00  0.00    +0.000 C 
ATOM     21  N3  UNL A   1      15.521  53.510   3.466  1.00  0.00    +0.000 N 
ATOM     22  C17 UNL A   1      16.292  54.410   2.743  1.00  0.00    +0.000 C 
ATOM     23  C18 UNL A   1      17.037  54.179   1.636  1.00  0.00    +0.000 C 
ATOM     35  C25 UNL A   1      17.183  52.893   1.006  1.00  0.00    +0.000 C 
ATOM     36  C26 UNL A   1      18.009  52.539  -0.047  1.00  0.00    +0.000 C 
ATOM     37  C27 UNL A   1      17.773  51.196  -0.355  1.00  0.00    +0.000 C 
ATOM     38  C28 UNL A   1      16.829  50.704   0.530  1.00  0.00    +0.000 C 
ATOM     39  N4  UNL A   1      16.484  51.752   1.367  1.00  0.00    +0.000 N 
ATOM     40  C29 UNL A   1      16.272  49.379   0.603  1.00  0.00    +0.000 C 
ATOM     52  C36 UNL A   1      15.407  48.954   1.556  1.00  0.00    +0.000 C 
ATOM     53  N5  UNL A   1      14.869  49.660   2.621  1.00  0.00    +0.000 N 
ATOM     54  C37 UNL A   1      14.072  48.825   3.240  1.00  0.00    +0.000 C 
ATOM     55  C38 UNL A   1      13.235  49.048   4.471  1.00  0.00    +0.000 C 
ATOM     67  C45 UNL A   1      13.274  50.244   5.088  1.00  0.00    +0.000 C 
ATOM     68  C46 UNL A   1      12.509  50.606   6.275  1.00  0.00    +0.000 C 
ATOM     69  C47 UNL A   1      12.725  51.900   6.559  1.00  0.00    +0.000 C 
ATOM     70  C48 UNL A   1      13.676  52.451   5.591  1.00  0.00    +0.000 C 
ATOM     71  N6  UNL A   1      13.976  51.384   4.778  1.00  0.00    +0.000 N 
ATOM     72  C49 UNL A   1      14.004  47.492   2.623  1.00  0.00    +0.000 C 
ATOM     73  C50 UNL A   1      14.862  47.615   1.621  1.00  0.00    +0.000 C 
ATOM     74  C51 UNL A   1      16.179  55.692   3.404  1.00  0.00    +0.000 C 
ATOM     75  C52 UNL A   1      15.448  55.598   4.508  1.00  0.00    +0.000 C 
ATOM    112  H21 UNL A   1      18.683  53.159  -0.522  1.00  0.00    +0.000 H 
ATOM    113  H22 UNL A   1      18.225  50.662  -1.115  1.00  0.00    +0.000 H 
ATOM    114  H23 UNL A   1      15.838  51.696   2.108  1.00  0.00    +0.000 H 
ATOM    115  H24 UNL A   1      11.899  49.969   6.812  1.00  0.00    +0.000 H 
ATOM    116  H25 UNL A   1      12.289  52.423   7.333  1.00  0.00    +0.000 H 
ATOM    117  H26 UNL A   1      14.631  51.433   4.045  1.00  0.00    +0.000 H 
ATOM    118  H27 UNL A   1      13.436  46.676   2.898  1.00  0.00    +0.000 H 
ATOM    119  H28 UNL A   1      15.111  46.852   0.971  1.00  0.00    +0.000 H 
ATOM    120  H29 UNL A   1      16.609  56.565   3.062  1.00  0.00    +0.000 H 
ATOM    121  H30 UNL A   1      15.231  56.324   5.209  1.00  0.00    +0.000 H 
ENDROOT
BRANCH   19   18
ATOM     76  C53 UNL A   1      12.340  55.371   6.242  1.00  0.00    +0.000 C 
ATOM     77  C54 UNL A   1      11.755  56.213   7.186  1.00  0.00    +0.000 C 
ATOM    110  H19 UNL A   1      13.997  55.857   9.658  1.00  0.00    +0.000 H 
ATOM     15  C11 UNL A   1      12.322  56.328   8.459  1.00  0.00    +0.000 C 
ATOM     16  C12 UNL A   1      13.548  55.718   8.740  1.00  0.00    +0.000 C 
ATOM     17  C13 UNL A   1      14.162  54.918   7.773  1.00  0.00    +0.000 C 
ATOM    111  H20 UNL A   1      15.078  54.485   7.971  1.00  0.00    +0.000 H 
ATOM     18  C14 UNL A   1      13.539  54.702   6.533  1.00  0.00    +0.000 C 
ATOM    122  H31 UNL A   1      11.890  55.239   5.322  1.00  0.00    +0.000 H 
ATOM    123  H32 UNL A   1      10.907  56.749   6.947  1.00  0.00    +0.000 H 
BRANCH   15   13
ATOM     13  C10 UNL A   1      11.640  57.086   9.531  1.00  0.00    +0.000 C 
ATOM     14  O2  UNL A   1      11.688  58.313   9.533  1.00  0.00    +0.000 O 
BRANCH   13   12
ATOM     12  N2  UNL A   1      10.979  56.416  10.531  1.00  0.00    +0.000 N 
ATOM    109  H18 UNL A   1      10.099  56.783  10.773  1.00  0.00    +0.000 H 
BRANCH   12   11
ATOM     11  C9  UNL A   1      11.393  55.243  11.283  1.00  0.00    +0.000 C 
ATOM    108  H17 UNL A   1      12.424  55.060  11.060  1.00  0.00    +0.000 H 
ATOM    107  H16 UNL A   1      10.777  54.416  10.997  1.00  0.00    +0.000 H 
BRANCH   11   10
ATOM    105  H14 UNL A   1      11.213  56.495  12.983  1.00  0.00    +0.000 H 
ATOM     10  C8  UNL A   1      11.273  55.444  12.792  1.00  0.00    +0.000 C 
ATOM    106  H15 UNL A   1      10.399  54.907  13.096  1.00  0.00    +0.000 H 
BRANCH   10    9
ATOM      9  C7  UNL A   1      12.432  54.877  13.614  1.00  0.00    +0.000 C 
ATOM    103  H12 UNL A   1      13.050  55.695  13.922  1.00  0.00    +0.000 H 
ATOM    104  H13 UNL A   1      11.984  54.348  14.429  1.00  0.00    +0.000 H 
BRANCH    9    8
ATOM    101  H10 UNL A   1      13.051  53.879  11.849  1.00  0.00    +0.000 H 
ATOM    102  H11 UNL A   1      14.327  54.161  13.078  1.00  0.00    +0.000 H 
ATOM      8  C6  UNL A   1      13.318  53.862  12.885  1.00  0.00    +0.000 C 
BRANCH    8    7
ATOM     99  H8  UNL A   1      12.765  51.828  12.598  1.00  0.00    +0.000 H 
ATOM    100  H9  UNL A   1      14.200  52.099  13.625  1.00  0.00    +0.000 H 
ATOM      7  C5  UNL A   1      13.207  52.412  13.378  1.00  0.00    +0.000 C 
BRANCH    7    6
ATOM     97  H6  UNL A   1      12.995  51.872  15.432  1.00  0.00    +0.000 H 
ATOM     98  H7  UNL A   1      11.939  53.176  14.905  1.00  0.00    +0.000 H 
ATOM      6  C4  UNL A   1      12.367  52.231  14.644  1.00  0.00    +0.000 C 
BRANCH    6    5
ATOM      5  N1  UNL A   1      11.294  51.285  14.425  1.00  0.00    +0.000 N 
ATOM     96  H5  UNL A   1      10.414  51.692  14.260  1.00  0.00    +0.000 H 
BRANCH    5    3
ATOM      3  C3  UNL A   1      11.302  49.921  14.410  1.00  0.00    +0.000 C 
ATOM      4  O1  UNL A   1      11.769  49.371  15.411  1.00  0.00    +0.000 O 
BRANCH    3    2
ATOM      2  C2  UNL A   1      10.786  49.149  13.179  1.00  0.00    +0.000 C 
ATOM     95  H4  UNL A   1       9.857  49.614  12.926  1.00  0.00    +0.000 H 
BRANCH    2    1
ATOM      1  C1  UNL A   1      10.516  47.669  13.474  1.00  0.00    +0.000 C 
ATOM     92  H1  UNL A   1      11.240  47.066  12.967  1.00  0.00    +0.000 H 
ATOM     93  H2  UNL A   1       9.535  47.411  13.132  1.00  0.00    +0.000 H 
ATOM     94  H3  UNL A   1      10.582  47.497  14.528  1.00  0.00    +0.000 H 
ENDBRANCH    2    1
BRANCH    2   78
ATOM    135  H44 UNL A   1      12.449  50.989   9.186  1.00  0.00    +0.000 H 
ATOM     78  C55 UNL A   1      11.744  49.260  11.990  1.00  0.00    +0.000 C 
ATOM     79  C56 UNL A   1      12.822  48.354  11.906  1.00  0.00    +0.000 C 
ATOM     80  C57 UNL A   1      13.747  48.410  10.864  1.00  0.00    +0.000 C 
ATOM     81  C58 UNL A   1      13.639  49.390   9.876  1.00  0.00    +0.000 C 
ATOM     89  C65 UNL A   1      12.557  50.278   9.926  1.00  0.00    +0.000 C 
ATOM     90  C66 UNL A   1      11.618  50.215  10.968  1.00  0.00    +0.000 C 
ATOM     91 Br1  UNL A   1      10.198  51.479  10.898  1.00  0.00    +0.000 Br
ATOM    124  H33 UNL A   1      12.928  47.631  12.633  1.00  0.00    +0.000 H 
ATOM    125  H34 UNL A   1      14.516  47.723  10.823  1.00  0.00    +0.000 H 
BRANCH   81   82
ATOM     82  C59 UNL A   1      14.688  49.502   8.796  1.00  0.00    +0.000 C 
ATOM    126  H35 UNL A   1      14.189  49.462   7.850  1.00  0.00    +0.000 H 
ATOM    127  H36 UNL A   1      15.366  48.693   8.970  1.00  0.00    +0.000 H 
BRANCH   82   83
ATOM    129  H38 UNL A   1      15.653  50.675  10.966  1.00  0.00    +0.000 H 
ATOM    130  H39 UNL A   1      16.166  52.193  10.330  1.00  0.00    +0.000 H 
ATOM    131  H40 UNL A   1      17.649  49.581  10.391  1.00  0.00    +0.000 H 
ATOM    132  H41 UNL A   1      18.260  51.137  10.784  1.00  0.00    +0.000 H 
ATOM    133  H42 UNL A   1      18.731  50.006   8.369  1.00  0.00    +0.000 H 
ATOM    134  H43 UNL A   1      18.582  51.696   8.481  1.00  0.00    +0.000 H 
ATOM     83  C60 UNL A   1      15.548  50.772   8.819  1.00  0.00    +0.000 C 
ATOM     84  C61 UNL A   1      16.188  51.137  10.162  1.00  0.00    +0.000 C 
ATOM     85  C62 UNL A   1      17.618  50.612  10.109  1.00  0.00    +0.000 C 
ATOM     86  C63 UNL A   1      18.056  50.782   8.661  1.00  0.00    +0.000 C 
ATOM     87  C64 UNL A   1      16.754  50.682   7.910  1.00  0.00    +0.000 C 
ATOM     88  O3  UNL A   1      16.681  50.565   6.692  1.00  0.00    +0.000 O 
ATOM    128  H37 UNL A   1      14.817  51.498   8.527  1.00  0.00    +0.000 H 
ENDBRANCH   82   83
ENDBRANCH   81   82
ENDBRANCH    2   78
ENDBRANCH    3    2
ENDBRANCH    5    3
ENDBRANCH    6    5
ENDBRANCH    7    6
ENDBRANCH    8    7
ENDBRANCH    9    8
ENDBRANCH   10    9
ENDBRANCH   11   10
ENDBRANCH   12   11
ENDBRANCH   13   12
ENDBRANCH   15   13
ENDBRANCH   19   18
BRANCH   23   24
ATOM     33  C24 UNL A   1      17.251  55.982  -0.107  1.00  0.00    +0.000 C 
ATOM     34  F5  UNL A   1      16.059  55.622  -0.604  1.00  0.00    +0.000 F 
ATOM     24  C19 UNL A   1      17.769  55.335   1.026  1.00  0.00    +0.000 C 
ATOM     25  C20 UNL A   1      19.023  55.744   1.502  1.00  0.00    +0.000 C 
ATOM     26  F1  UNL A   1      19.556  55.160   2.585  1.00  0.00    +0.000 F 
ATOM     27  C21 UNL A   1      19.729  56.766   0.872  1.00  0.00    +0.000 C 
ATOM     28  F2  UNL A   1      20.916  57.155   1.356  1.00  0.00    +0.000 F 
ATOM     29  C22 UNL A   1      19.206  57.380  -0.257  1.00  0.00    +0.000 C 
ATOM     30  F3  UNL A   1      19.895  58.350  -0.874  1.00  0.00    +0.000 F 
ATOM     31  C23 UNL A   1      17.968  56.988  -0.747  1.00  0.00    +0.000 C 
ATOM     32  F4  UNL A   1      17.468  57.573  -1.845  1.00  0.00    +0.000 F 
ENDBRANCH   23   24
BRANCH   40   41
ATOM     41  C30 UNL A   1      16.684  48.385  -0.441  1.00  0.00    +0.000 C 
ATOM     42  C31 UNL A   1      15.833  48.054  -1.505  1.00  0.00    +0.000 C 
ATOM     43  F6  UNL A   1      14.602  48.582  -1.574  1.00  0.00    +0.000 F 
ATOM     44  C32 UNL A   1      16.233  47.147  -2.483  1.00  0.00    +0.000 C 
ATOM     45  F7  UNL A   1      15.388  46.813  -3.469  1.00  0.00    +0.000 F 
ATOM     46  C33 UNL A   1      17.497  46.581  -2.432  1.00  0.00    +0.000 C 
ATOM     47  F8  UNL A   1      17.883  45.714  -3.379  1.00  0.00    +0.000 F 
ATOM     48  C34 UNL A   1      18.360  46.906  -1.395  1.00  0.00    +0.000 C 
ATOM     49  F9  UNL A   1      19.586  46.366  -1.351  1.00  0.00    +0.000 F 
ATOM     50  C35 UNL A   1      17.954  47.791  -0.401  1.00  0.00    +0.000 C 
ATOM     51  F10 UNL A   1      18.805  48.080   0.594  1.00  0.00    +0.000 F 
ENDBRANCH   40   41
BRANCH   55   56
ATOM     65  C44 UNL A   1      11.088  47.733   4.466  1.00  0.00    +0.000 C 
ATOM     66  F15 UNL A   1      10.620  48.511   3.481  1.00  0.00    +0.000 F 
ATOM     56  C39 UNL A   1      12.366  47.965   4.998  1.00  0.00    +0.000 C 
ATOM     57  C40 UNL A   1      12.806  47.125   6.029  1.00  0.00    +0.000 C 
ATOM     58  F11 UNL A   1      14.030  47.294   6.552  1.00  0.00    +0.000 F 
ATOM     59  C41 UNL A   1      12.013  46.078   6.493  1.00  0.00    +0.000 C 
ATOM     60  F12 UNL A   1      12.479  45.258   7.444  1.00  0.00    +0.000 F 
ATOM     61  C42 UNL A   1      10.751  45.870   5.955  1.00  0.00    +0.000 C 
ATOM     62  F13 UNL A   1       9.990  44.860   6.399  1.00  0.00    +0.000 F 
ATOM     63  C43 UNL A   1      10.285  46.702   4.949  1.00  0.00    +0.000 C 
ATOM     64  F14 UNL A   1       9.062  46.512   4.436  1.00  0.00    +0.000 F 
ENDBRANCH   55   56
TORSDOF 19
ENDMDL
MODEL 7
REMARK VINA RESULT:     -10.0      4.001      6.751
ROOT
ATOM     19  C15 UNL A   1      41.004  27.862  28.059  1.00  0.00    +0.000 C 
ATOM     20  C16 UNL A   1      42.479  28.127  28.143  1.00  0.00    +0.000 C 
ATOM     21  N3  UNL A   1      43.102  29.181  28.608  1.00  0.00    +0.000 N 
ATOM     22  C17 UNL A   1      44.458  28.900  28.495  1.00  0.00    +0.000 C 
ATOM     23  C18 UNL A   1      45.510  29.692  28.807  1.00  0.00    +0.000 C 
ATOM     35  C25 UNL A   1      45.396  31.037  29.309  1.00  0.00    +0.000 C 
ATOM     36  C26 UNL A   1      46.403  31.958  29.542  1.00  0.00    +0.000 C 
ATOM     37  C27 UNL A   1      45.826  33.111  30.081  1.00  0.00    +0.000 C 
ATOM     38  C28 UNL A   1      44.455  32.923  30.148  1.00  0.00    +0.000 C 
ATOM     39  N4  UNL A   1      44.204  31.651  29.661  1.00  0.00    +0.000 N 
ATOM     40  C29 UNL A   1      43.448  33.830  30.631  1.00  0.00    +0.000 C 
ATOM     52  C36 UNL A   1      42.113  33.599  30.588  1.00  0.00    +0.000 C 
ATOM     53  N5  UNL A   1      41.436  32.487  30.109  1.00  0.00    +0.000 N 
ATOM     54  C37 UNL A   1      40.165  32.728  30.306  1.00  0.00    +0.000 C 
ATOM     55  C38 UNL A   1      38.974  31.872  29.969  1.00  0.00    +0.000 C 
ATOM     67  C45 UNL A   1      39.164  30.687  29.359  1.00  0.00    +0.000 C 
ATOM     68  C46 UNL A   1      38.109  29.750  28.988  1.00  0.00    +0.000 C 
ATOM     69  C47 UNL A   1      38.668  28.638  28.486  1.00  0.00    +0.000 C 
ATOM     70  C48 UNL A   1      40.123  28.798  28.467  1.00  0.00    +0.000 C 
ATOM     71  N6  UNL A   1      40.324  30.061  28.970  1.00  0.00    +0.000 N 
ATOM     72  C49 UNL A   1      39.892  34.021  30.951  1.00  0.00    +0.000 C 
ATOM     73  C50 UNL A   1      41.111  34.526  31.070  1.00  0.00    +0.000 C 
ATOM     74  C51 UNL A   1      44.569  27.565  27.948  1.00  0.00    +0.000 C 
ATOM     75  C52 UNL A   1      43.374  27.062  27.666  1.00  0.00    +0.000 C 
ATOM    112  H21 UNL A   1      47.408  31.817  29.349  1.00  0.00    +0.000 H 
ATOM    113  H22 UNL A   1      46.334  33.959  30.380  1.00  0.00    +0.000 H 
ATOM    114  H23 UNL A   1      43.312  31.243  29.578  1.00  0.00    +0.000 H 
ATOM    115  H24 UNL A   1      37.096  29.916  29.094  1.00  0.00    +0.000 H 
ATOM    116  H25 UNL A   1      38.154  27.803  28.167  1.00  0.00    +0.000 H 
ATOM    117  H26 UNL A   1      41.213  30.478  29.042  1.00  0.00    +0.000 H 
ATOM    118  H27 UNL A   1      38.988  34.428  31.237  1.00  0.00    +0.000 H 
ATOM    119  H28 UNL A   1      41.319  35.460  31.455  1.00  0.00    +0.000 H 
ATOM    120  H29 UNL A   1      45.461  27.069  27.798  1.00  0.00    +0.000 H 
ATOM    121  H30 UNL A   1      43.134  26.159  27.227  1.00  0.00    +0.000 H 
ENDROOT
BRANCH   19   18
ATOM     76  C53 UNL A   1      39.836  25.710  28.543  1.00  0.00    +0.000 C 
ATOM     77  C54 UNL A   1      39.271  24.504  28.130  1.00  0.00    +0.000 C 
ATOM    110  H19 UNL A   1      40.077  24.641  24.875  1.00  0.00    +0.000 H 
ATOM     15  C11 UNL A   1      39.295  24.154  26.776  1.00  0.00    +0.000 C 
ATOM     16  C12 UNL A   1      40.005  24.936  25.861  1.00  0.00    +0.000 C 
ATOM     17  C13 UNL A   1      40.618  26.117  26.286  1.00  0.00    +0.000 C 
ATOM    111  H20 UNL A   1      41.163  26.683  25.616  1.00  0.00    +0.000 H 
ATOM     18  C14 UNL A   1      40.498  26.536  27.622  1.00  0.00    +0.000 C 
ATOM    122  H31 UNL A   1      39.767  25.997  29.532  1.00  0.00    +0.000 H 
ATOM    123  H32 UNL A   1      38.838  23.871  28.820  1.00  0.00    +0.000 H 
BRANCH   15   13
ATOM     13  C10 UNL A   1      38.569  22.962  26.284  1.00  0.00    +0.000 C 
ATOM     14  O2  UNL A   1      39.125  21.868  26.287  1.00  0.00    +0.000 O 
BRANCH   13   12
ATOM     12  N2  UNL A   1      37.288  23.089  25.806  1.00  0.00    +0.000 N 
ATOM    109  H18 UNL A   1      36.718  23.727  26.292  1.00  0.00    +0.000 H 
BRANCH   12   11
ATOM     11  C9  UNL A   1      36.653  22.414  24.686  1.00  0.00    +0.000 C 
ATOM    108  H17 UNL A   1      37.428  22.029  24.056  1.00  0.00    +0.000 H 
ATOM    107  H16 UNL A   1      36.037  23.118  24.165  1.00  0.00    +0.000 H 
BRANCH   11   10
ATOM    105  H14 UNL A   1      35.263  20.870  24.270  1.00  0.00    +0.000 H 
ATOM     10  C8  UNL A   1      35.785  21.238  25.128  1.00  0.00    +0.000 C 
ATOM    106  H15 UNL A   1      36.451  20.521  25.560  1.00  0.00    +0.000 H 
BRANCH   10    9
ATOM      9  C7  UNL A   1      34.751  21.568  26.207  1.00  0.00    +0.000 C 
ATOM    103  H12 UNL A   1      34.817  20.818  26.967  1.00  0.00    +0.000 H 
ATOM    104  H13 UNL A   1      34.989  22.552  26.553  1.00  0.00    +0.000 H 
BRANCH    9    8
ATOM    101  H10 UNL A   1      32.680  21.210  26.492  1.00  0.00    +0.000 H 
ATOM    102  H11 UNL A   1      33.099  22.660  25.523  1.00  0.00    +0.000 H 
ATOM      8  C6  UNL A   1      33.298  21.629  25.725  1.00  0.00    +0.000 C 
BRANCH    8    7
ATOM     99  H8  UNL A   1      33.894  20.374  24.113  1.00  0.00    +0.000 H 
ATOM    100  H9  UNL A   1      32.193  20.210  24.630  1.00  0.00    +0.000 H 
ATOM      7  C5  UNL A   1      33.001  20.878  24.419  1.00  0.00    +0.000 C 
BRANCH    7    6
ATOM     97  H6  UNL A   1      33.155  21.585  22.410  1.00  0.00    +0.000 H 
ATOM     98  H7  UNL A   1      31.516  21.536  23.045  1.00  0.00    +0.000 H 
ATOM      6  C4  UNL A   1      32.537  21.769  23.264  1.00  0.00    +0.000 C 
BRANCH    6    5
ATOM      5  N1  UNL A   1      32.625  23.169  23.619  1.00  0.00    +0.000 N 
ATOM     96  H5  UNL A   1      32.240  23.396  24.496  1.00  0.00    +0.000 H 
BRANCH    5    3
ATOM      3  C3  UNL A   1      33.153  24.226  22.938  1.00  0.00    +0.000 C 
ATOM      4  O1  UNL A   1      34.385  24.294  22.914  1.00  0.00    +0.000 O 
BRANCH    3    2
ATOM      2  C2  UNL A   1      32.231  25.276  22.285  1.00  0.00    +0.000 C 
ATOM     95  H4  UNL A   1      31.273  24.806  22.221  1.00  0.00    +0.000 H 
BRANCH    2    1
ATOM      1  C1  UNL A   1      32.673  25.657  20.868  1.00  0.00    +0.000 C 
ATOM     92  H1  UNL A   1      32.520  24.827  20.211  1.00  0.00    +0.000 H 
ATOM     93  H2  UNL A   1      33.711  25.918  20.876  1.00  0.00    +0.000 H 
ATOM     94  H3  UNL A   1      32.099  26.493  20.528  1.00  0.00    +0.000 H 
ENDBRANCH    2    1
BRANCH    2   78
ATOM    135  H44 UNL A   1      30.369  28.043  25.598  1.00  0.00    +0.000 H 
ATOM     78  C55 UNL A   1      32.112  26.544  23.136  1.00  0.00    +0.000 C 
ATOM     79  C56 UNL A   1      33.046  27.581  22.933  1.00  0.00    +0.000 C 
ATOM     80  C57 UNL A   1      33.014  28.754  23.687  1.00  0.00    +0.000 C 
ATOM     81  C58 UNL A   1      32.056  28.924  24.687  1.00  0.00    +0.000 C 
ATOM     89  C65 UNL A   1      31.101  27.917  24.881  1.00  0.00    +0.000 C 
ATOM     90  C66 UNL A   1      31.125  26.741  24.115  1.00  0.00    +0.000 C 
ATOM     91 Br1  UNL A   1      29.760  25.469  24.484  1.00  0.00    +0.000 Br
ATOM    124  H33 UNL A   1      33.771  27.469  22.209  1.00  0.00    +0.000 H 
ATOM    125  H34 UNL A   1      33.702  29.500  23.503  1.00  0.00    +0.000 H 
BRANCH   81   82
ATOM     82  C59 UNL A   1      32.073  30.157  25.558  1.00  0.00    +0.000 C 
ATOM    126  H35 UNL A   1      31.073  30.534  25.611  1.00  0.00    +0.000 H 
ATOM    127  H36 UNL A   1      32.771  30.824  25.095  1.00  0.00    +0.000 H 
BRANCH   82   83
ATOM    129  H38 UNL A   1      33.219  27.967  26.510  1.00  0.00    +0.000 H 
ATOM    130  H39 UNL A   1      33.178  28.273  28.206  1.00  0.00    +0.000 H 
ATOM    131  H40 UNL A   1      35.221  29.149  26.184  1.00  0.00    +0.000 H 
ATOM    132  H41 UNL A   1      35.512  28.486  27.742  1.00  0.00    +0.000 H 
ATOM    133  H42 UNL A   1      35.645  31.154  27.298  1.00  0.00    +0.000 H 
ATOM    134  H43 UNL A   1      35.121  30.588  28.813  1.00  0.00    +0.000 H 
ATOM     83  C60 UNL A   1      32.578  29.964  26.993  1.00  0.00    +0.000 C 
ATOM     84  C61 UNL A   1      33.415  28.707  27.257  1.00  0.00    +0.000 C 
ATOM     85  C62 UNL A   1      34.873  29.148  27.195  1.00  0.00    +0.000 C 
ATOM     86  C63 UNL A   1      34.893  30.557  27.768  1.00  0.00    +0.000 C 
ATOM     87  C64 UNL A   1      33.512  31.064  27.442  1.00  0.00    +0.000 C 
ATOM     88  O3  UNL A   1      33.178  32.238  27.551  1.00  0.00    +0.000 O 
ATOM    128  H37 UNL A   1      31.644  29.925  27.516  1.00  0.00    +0.000 H 
ENDBRANCH   82   83
ENDBRANCH   81   82
ENDBRANCH    2   78
ENDBRANCH    3    2
ENDBRANCH    5    3
ENDBRANCH    6    5
ENDBRANCH    7    6
ENDBRANCH    8    7
ENDBRANCH    9    8
ENDBRANCH   10    9
ENDBRANCH   11   10
ENDBRANCH   12   11
ENDBRANCH   13   12
ENDBRANCH   15   13
ENDBRANCH   19   18
BRANCH   23   24
ATOM     33  C24 UNL A   1      47.498  29.197  27.347  1.00  0.00    +0.000 C 
ATOM     34  F5  UNL A   1      46.882  29.809  26.325  1.00  0.00    +0.000 F 
ATOM     24  C19 UNL A   1      46.890  29.143  28.610  1.00  0.00    +0.000 C 
ATOM     25  C20 UNL A   1      47.573  28.486  29.643  1.00  0.00    +0.000 C 
ATOM     26  F1  UNL A   1      47.034  28.415  30.869  1.00  0.00    +0.000 F 
ATOM     27  C21 UNL A   1      48.820  27.908  29.420  1.00  0.00    +0.000 C 
ATOM     28  F2  UNL A   1      49.465  27.302  30.427  1.00  0.00    +0.000 F 
ATOM     29  C22 UNL A   1      49.395  27.957  28.159  1.00  0.00    +0.000 C 
ATOM     30  F3  UNL A   1      50.587  27.383  27.942  1.00  0.00    +0.000 F 
ATOM     31  C23 UNL A   1      48.735  28.599  27.122  1.00  0.00    +0.000 C 
ATOM     32  F4  UNL A   1      49.285  28.637  25.900  1.00  0.00    +0.000 F 
ENDBRANCH   23   24
BRANCH   40   41
ATOM     41  C30 UNL A   1      43.899  35.135  31.215  1.00  0.00    +0.000 C 
ATOM     42  C31 UNL A   1      44.299  35.232  32.555  1.00  0.00    +0.000 C 
ATOM     43  F6  UNL A   1      44.229  34.161  33.360  1.00  0.00    +0.000 F 
ATOM     44  C32 UNL A   1      44.739  36.442  33.083  1.00  0.00    +0.000 C 
ATOM     45  F7  UNL A   1      45.078  36.523  34.378  1.00  0.00    +0.000 F 
ATOM     46  C33 UNL A   1      44.815  37.567  32.276  1.00  0.00    +0.000 C 
ATOM     47  F8  UNL A   1      45.246  38.730  32.785  1.00  0.00    +0.000 F 
ATOM     48  C34 UNL A   1      44.438  37.489  30.943  1.00  0.00    +0.000 C 
ATOM     49  F9  UNL A   1      44.520  38.574  30.160  1.00  0.00    +0.000 F 
ATOM     50  C35 UNL A   1      43.973  36.288  30.419  1.00  0.00    +0.000 C 
ATOM     51  F10 UNL A   1      43.606  36.244  29.130  1.00  0.00    +0.000 F 
ENDBRANCH   40   41
BRANCH   55   56
ATOM     65  C44 UNL A   1      37.002  31.973  31.531  1.00  0.00    +0.000 C 
ATOM     66  F15 UNL A   1      37.660  31.196  32.403  1.00  0.00    +0.000 F 
ATOM     56  C39 UNL A   1      37.600  32.322  30.311  1.00  0.00    +0.000 C 
ATOM     57  C40 UNL A   1      36.868  33.132  29.433  1.00  0.00    +0.000 C 
ATOM     58  F11 UNL A   1      37.408  33.513  28.266  1.00  0.00    +0.000 F 
ATOM     59  C41 UNL A   1      35.598  33.597  29.772  1.00  0.00    +0.000 C 
ATOM     60  F12 UNL A   1      34.941  34.412  28.937  1.00  0.00    +0.000 F 
ATOM     61  C42 UNL A   1      35.025  33.234  30.982  1.00  0.00    +0.000 C 
ATOM     62  F13 UNL A   1      33.806  33.684  31.308  1.00  0.00    +0.000 F 
ATOM     63  C43 UNL A   1      35.722  32.415  31.857  1.00  0.00    +0.000 C 
ATOM     64  F14 UNL A   1      35.167  32.052  33.021  1.00  0.00    +0.000 F 
ENDBRANCH   55   56
TORSDOF 19
ENDMDL
MODEL 8
REMARK VINA RESULT:      -9.8     38.342     42.949
ROOT
ATOM     19  C15 UNL A   1      14.082  53.635   5.212  1.00  0.00    +0.000 C 
ATOM     20  C16 UNL A   1      14.986  54.109   4.110  1.00  0.00    +0.000 C 
ATOM     21  N3  UNL A   1      15.449  53.445   3.081  1.00  0.00    +0.000 N 
ATOM     22  C17 UNL A   1      16.198  54.357   2.349  1.00  0.00    +0.000 C 
ATOM     23  C18 UNL A   1      16.911  54.143   1.218  1.00  0.00    +0.000 C 
ATOM     35  C25 UNL A   1      17.040  52.866   0.566  1.00  0.00    +0.000 C 
ATOM     36  C26 UNL A   1      17.835  52.528  -0.516  1.00  0.00    +0.000 C 
ATOM     37  C27 UNL A   1      17.592  51.190  -0.837  1.00  0.00    +0.000 C 
ATOM     38  C28 UNL A   1      16.674  50.683   0.068  1.00  0.00    +0.000 C 
ATOM     39  N4  UNL A   1      16.352  51.719   0.929  1.00  0.00    +0.000 N 
ATOM     40  C29 UNL A   1      16.120  49.357   0.138  1.00  0.00    +0.000 C 
ATOM     52  C36 UNL A   1      15.283  48.917   1.109  1.00  0.00    +0.000 C 
ATOM     53  N5  UNL A   1      14.775  49.607   2.200  1.00  0.00    +0.000 N 
ATOM     54  C37 UNL A   1      13.998  48.763   2.829  1.00  0.00    +0.000 C 
ATOM     55  C38 UNL A   1      13.197  48.967   4.086  1.00  0.00    +0.000 C 
ATOM     67  C45 UNL A   1      13.253  50.154   4.719  1.00  0.00    +0.000 C 
ATOM     68  C46 UNL A   1      12.521  50.497   5.934  1.00  0.00    +0.000 C 
ATOM     69  C47 UNL A   1      12.745  51.787   6.229  1.00  0.00    +0.000 C 
ATOM     70  C48 UNL A   1      13.667  52.354   5.243  1.00  0.00    +0.000 C 
ATOM     71  N6  UNL A   1      13.944  51.299   4.406  1.00  0.00    +0.000 N 
ATOM     72  C49 UNL A   1      13.913  47.439   2.195  1.00  0.00    +0.000 C 
ATOM     73  C50 UNL A   1      14.741  47.577   1.171  1.00  0.00    +0.000 C 
ATOM     74  C51 UNL A   1      16.103  55.629   3.031  1.00  0.00    +0.000 C 
ATOM     75  C52 UNL A   1      15.405  55.519   4.154  1.00  0.00    +0.000 C 
ATOM    112  H21 UNL A   1      18.495  53.156  -1.002  1.00  0.00    +0.000 H 
ATOM    113  H22 UNL A   1      18.021  50.667  -1.617  1.00  0.00    +0.000 H 
ATOM    114  H23 UNL A   1      15.728  51.652   1.688  1.00  0.00    +0.000 H 
ATOM    115  H24 UNL A   1      11.928  49.852   6.479  1.00  0.00    +0.000 H 
ATOM    116  H25 UNL A   1      12.332  52.299   7.024  1.00  0.00    +0.000 H 
ATOM    117  H26 UNL A   1      14.578  51.359   3.655  1.00  0.00    +0.000 H 
ATOM    118  H27 UNL A   1      13.354  46.618   2.475  1.00  0.00    +0.000 H 
ATOM    119  H28 UNL A   1      14.972  46.824   0.503  1.00  0.00    +0.000 H 
ATOM    120  H29 UNL A   1      16.523  56.507   2.690  1.00  0.00    +0.000 H 
ATOM    121  H30 UNL A   1      15.207  56.234   4.872  1.00  0.00    +0.000 H 
ENDROOT
BRANCH   19   18
ATOM     76  C53 UNL A   1      12.278  55.143   6.049  1.00  0.00    +0.000 C 
ATOM     77  C54 UNL A   1      11.728  55.967   7.031  1.00  0.00    +0.000 C 
ATOM    110  H19 UNL A   1      14.253  55.897   9.241  1.00  0.00    +0.000 H 
ATOM     15  C11 UNL A   1      12.420  56.178   8.227  1.00  0.00    +0.000 C 
ATOM     16  C12 UNL A   1      13.719  55.685   8.383  1.00  0.00    +0.000 C 
ATOM     17  C13 UNL A   1      14.291  54.905   7.375  1.00  0.00    +0.000 C 
ATOM    111  H20 UNL A   1      15.259  54.560   7.479  1.00  0.00    +0.000 H 
ATOM     18  C14 UNL A   1      13.556  54.591   6.221  1.00  0.00    +0.000 C 
ATOM    122  H31 UNL A   1      11.741  54.940   5.191  1.00  0.00    +0.000 H 
ATOM    123  H32 UNL A   1      10.814  56.420   6.875  1.00  0.00    +0.000 H 
BRANCH   15   13
ATOM     13  C10 UNL A   1      11.797  56.915   9.349  1.00  0.00    +0.000 C 
ATOM     14  O2  UNL A   1      11.938  58.131   9.429  1.00  0.00    +0.000 O 
BRANCH   13   12
ATOM     12  N2  UNL A   1      11.086  56.234  10.306  1.00  0.00    +0.000 N 
ATOM    109  H18 UNL A   1      10.121  56.428  10.332  1.00  0.00    +0.000 H 
BRANCH   12   11
ATOM     11  C9  UNL A   1      11.553  55.267  11.286  1.00  0.00    +0.000 C 
ATOM    108  H17 UNL A   1      12.621  55.244  11.237  1.00  0.00    +0.000 H 
ATOM    107  H16 UNL A   1      11.129  54.311  11.055  1.00  0.00    +0.000 H 
BRANCH   11   10
ATOM    105  H14 UNL A   1      11.256  56.705  12.813  1.00  0.00    +0.000 H 
ATOM     10  C8  UNL A   1      11.160  55.645  12.712  1.00  0.00    +0.000 C 
ATOM    106  H15 UNL A   1      10.159  55.294  12.850  1.00  0.00    +0.000 H 
BRANCH   10    9
ATOM      9  C7  UNL A   1      12.000  54.986  13.809  1.00  0.00    +0.000 C 
ATOM    103  H12 UNL A   1      12.128  55.697  14.599  1.00  0.00    +0.000 H 
ATOM    104  H13 UNL A   1      11.463  54.109  14.105  1.00  0.00    +0.000 H 
BRANCH    9    8
ATOM    101  H10 UNL A   1      13.501  54.730  12.333  1.00  0.00    +0.000 H 
ATOM    102  H11 UNL A   1      14.086  55.017  14.004  1.00  0.00    +0.000 H 
ATOM      8  C6  UNL A   1      13.388  54.507  13.374  1.00  0.00    +0.000 C 
BRANCH    8    7
ATOM     99  H8  UNL A   1      13.486  52.767  14.595  1.00  0.00    +0.000 H 
ATOM    100  H9  UNL A   1      13.009  52.491  12.896  1.00  0.00    +0.000 H 
ATOM      7  C5  UNL A   1      13.663  53.008  13.568  1.00  0.00    +0.000 C 
BRANCH    7    6
ATOM     97  H6  UNL A   1      15.676  53.437  13.002  1.00  0.00    +0.000 H 
ATOM     98  H7  UNL A   1      15.491  52.031  14.042  1.00  0.00    +0.000 H 
ATOM      6  C4  UNL A   1      15.085  52.570  13.212  1.00  0.00    +0.000 C 
BRANCH    6    5
ATOM      5  N1  UNL A   1      15.088  51.703  12.054  1.00  0.00    +0.000 N 
ATOM     96  H5  UNL A   1      15.114  50.741  12.260  1.00  0.00    +0.000 H 
BRANCH    5    3
ATOM      3  C3  UNL A   1      15.060  51.999  10.723  1.00  0.00    +0.000 C 
ATOM      4  O1  UNL A   1      14.764  53.161  10.432  1.00  0.00    +0.000 O 
BRANCH    3    2
ATOM      2  C2  UNL A   1      15.348  50.908   9.672  1.00  0.00    +0.000 C 
ATOM     95  H4  UNL A   1      16.196  50.375  10.047  1.00  0.00    +0.000 H 
BRANCH    2    1
ATOM      1  C1  UNL A   1      15.715  51.484   8.300  1.00  0.00    +0.000 C 
ATOM     92  H1  UNL A   1      15.309  50.860   7.531  1.00  0.00    +0.000 H 
ATOM     93  H2  UNL A   1      16.780  51.522   8.202  1.00  0.00    +0.000 H 
ATOM     94  H3  UNL A   1      15.313  52.472   8.208  1.00  0.00    +0.000 H 
ENDBRANCH    2    1
BRANCH    2   78
ATOM    135  H44 UNL A   1      13.323  46.719   9.001  1.00  0.00    +0.000 H 
ATOM     78  C55 UNL A   1      14.174  49.938   9.515  1.00  0.00    +0.000 C 
ATOM     79  C56 UNL A   1      12.862  50.445   9.618  1.00  0.00    +0.000 C 
ATOM     80  C57 UNL A   1      11.745  49.618   9.510  1.00  0.00    +0.000 C 
ATOM     81  C58 UNL A   1      11.900  48.245   9.313  1.00  0.00    +0.000 C 
ATOM     89  C65 UNL A   1      13.195  47.729   9.176  1.00  0.00    +0.000 C 
ATOM     90  C66 UNL A   1      14.320  48.562   9.274  1.00  0.00    +0.000 C 
ATOM     91 Br1  UNL A   1      16.012  47.721   9.058  1.00  0.00    +0.000 Br
ATOM    124  H33 UNL A   1      12.725  51.455   9.778  1.00  0.00    +0.000 H 
ATOM    125  H34 UNL A   1      10.799  50.023   9.575  1.00  0.00    +0.000 H 
BRANCH   81   82
ATOM     82  C59 UNL A   1      10.693  47.339   9.279  1.00  0.00    +0.000 C 
ATOM    126  H35 UNL A   1      10.683  46.774  10.188  1.00  0.00    +0.000 H 
ATOM    127  H36 UNL A   1      10.805  46.747   8.394  1.00  0.00    +0.000 H 
BRANCH   82   83
ATOM    129  H38 UNL A   1       9.327  47.627   7.028  1.00  0.00    +0.000 H 
ATOM    130  H39 UNL A   1       8.138  48.784   7.499  1.00  0.00    +0.000 H 
ATOM    131  H40 UNL A   1       8.086  45.796   7.816  1.00  0.00    +0.000 H 
ATOM    132  H41 UNL A   1       6.812  46.810   7.267  1.00  0.00    +0.000 H 
ATOM    133  H42 UNL A   1       6.894  45.906   9.818  1.00  0.00    +0.000 H 
ATOM    134  H43 UNL A   1       6.219  47.433   9.499  1.00  0.00    +0.000 H 
ATOM     83  C60 UNL A   1       9.331  48.031   9.142  1.00  0.00    +0.000 C 
ATOM     84  C61 UNL A   1       8.621  47.875   7.793  1.00  0.00    +0.000 C 
ATOM     85  C62 UNL A   1       7.615  46.744   7.971  1.00  0.00    +0.000 C 
ATOM     86  C63 UNL A   1       7.121  46.865   9.406  1.00  0.00    +0.000 C 
ATOM     87  C64 UNL A   1       8.298  47.493  10.106  1.00  0.00    +0.000 C 
ATOM     88  O3  UNL A   1       8.395  47.580  11.325  1.00  0.00    +0.000 O 
ATOM    128  H37 UNL A   1       9.621  49.048   9.313  1.00  0.00    +0.000 H 
ENDBRANCH   82   83
ENDBRANCH   81   82
ENDBRANCH    2   78
ENDBRANCH    3    2
ENDBRANCH    5    3
ENDBRANCH    6    5
ENDBRANCH    7    6
ENDBRANCH    8    7
ENDBRANCH    9    8
ENDBRANCH   10    9
ENDBRANCH   11   10
ENDBRANCH   12   11
ENDBRANCH   13   12
ENDBRANCH   15   13
ENDBRANCH   19   18
BRANCH   23   24
ATOM     33  C24 UNL A   1      18.880  55.705   1.090  1.00  0.00    +0.000 C 
ATOM     34  F5  UNL A   1      19.485  54.998   2.055  1.00  0.00    +0.000 F 
ATOM     24  C19 UNL A   1      17.625  55.308   0.603  1.00  0.00    +0.000 C 
ATOM     25  C20 UNL A   1      17.032  56.085  -0.402  1.00  0.00    +0.000 C 
ATOM     26  F1  UNL A   1      15.837  55.742  -0.903  1.00  0.00    +0.000 F 
ATOM     27  C21 UNL A   1      17.674  57.215  -0.904  1.00  0.00    +0.000 C 
ATOM     28  F2  UNL A   1      17.099  57.932  -1.879  1.00  0.00    +0.000 F 
ATOM     29  C22 UNL A   1      18.906  57.599  -0.396  1.00  0.00    +0.000 C 
ATOM     30  F3  UNL A   1      19.514  58.697  -0.868  1.00  0.00    +0.000 F 
ATOM     31  C23 UNL A   1      19.509  56.846   0.601  1.00  0.00    +0.000 C 
ATOM     32  F4  UNL A   1      20.695  57.224   1.100  1.00  0.00    +0.000 F 
ENDBRANCH   23   24
BRANCH   40   41
ATOM     41  C30 UNL A   1      16.503  48.379  -0.932  1.00  0.00    +0.000 C 
ATOM     42  C31 UNL A   1      15.667  48.143  -2.033  1.00  0.00    +0.000 C 
ATOM     43  F6  UNL A   1      14.475  48.752  -2.119  1.00  0.00    +0.000 F 
ATOM     44  C32 UNL A   1      16.041  47.251  -3.034  1.00  0.00    +0.000 C 
ATOM     45  F7  UNL A   1      15.210  47.009  -4.058  1.00  0.00    +0.000 F 
ATOM     46  C33 UNL A   1      17.265  46.603  -2.968  1.00  0.00    +0.000 C 
ATOM     47  F8  UNL A   1      17.626  45.749  -3.937  1.00  0.00    +0.000 F 
ATOM     48  C34 UNL A   1      18.112  46.832  -1.894  1.00  0.00    +0.000 C 
ATOM     49  F9  UNL A   1      19.299  46.214  -1.833  1.00  0.00    +0.000 F 
ATOM     50  C35 UNL A   1      17.731  47.704  -0.878  1.00  0.00    +0.000 C 
ATOM     51  F10 UNL A   1      18.565  47.900   0.153  1.00  0.00    +0.000 F 
ENDBRANCH   40   41
BRANCH   55   56
ATOM     65  C44 UNL A   1      12.813  47.006   5.619  1.00  0.00    +0.000 C 
ATOM     66  F15 UNL A   1      14.062  47.135   6.087  1.00  0.00    +0.000 F 
ATOM     56  C39 UNL A   1      12.343  47.875   4.623  1.00  0.00    +0.000 C 
ATOM     57  C40 UNL A   1      11.031  47.695   4.165  1.00  0.00    +0.000 C 
ATOM     58  F11 UNL A   1      10.530  48.518   3.230  1.00  0.00    +0.000 F 
ATOM     59  C41 UNL A   1      10.212  46.703   4.700  1.00  0.00    +0.000 C 
ATOM     60  F12 UNL A   1       8.945  46.586   4.280  1.00  0.00    +0.000 F 
ATOM     61  C42 UNL A   1      10.700  45.853   5.681  1.00  0.00    +0.000 C 
ATOM     62  F13 UNL A   1       9.910  44.901   6.197  1.00  0.00    +0.000 F 
ATOM     63  C43 UNL A   1      12.002  45.998   6.133  1.00  0.00    +0.000 C 
ATOM     64  F14 UNL A   1      12.481  45.170   7.072  1.00  0.00    +0.000 F 
ENDBRANCH   55   56
TORSDOF 19
ENDMDL
MODEL 9
REMARK VINA RESULT:      -9.8     38.592     43.458
ROOT
ATOM     19  C15 UNL A   1      13.845  54.317   4.994  1.00  0.00    +0.000 C 
ATOM     20  C16 UNL A   1      14.877  54.713   3.977  1.00  0.00    +0.000 C 
ATOM     21  N3  UNL A   1      15.395  54.001   3.008  1.00  0.00    +0.000 N 
ATOM     22  C17 UNL A   1      16.265  54.850   2.338  1.00  0.00    +0.000 C 
ATOM     23  C18 UNL A   1      17.068  54.570   1.284  1.00  0.00    +0.000 C 
ATOM     35  C25 UNL A   1      17.179  53.275   0.666  1.00  0.00    +0.000 C 
ATOM     36  C26 UNL A   1      18.051  52.867  -0.329  1.00  0.00    +0.000 C 
ATOM     37  C27 UNL A   1      17.757  51.540  -0.652  1.00  0.00    +0.000 C 
ATOM     38  C28 UNL A   1      16.727  51.108   0.168  1.00  0.00    +0.000 C 
ATOM     39  N4  UNL A   1      16.390  52.179   0.979  1.00  0.00    +0.000 N 
ATOM     40  C29 UNL A   1      16.089  49.819   0.204  1.00  0.00    +0.000 C 
ATOM     52  C36 UNL A   1      15.137  49.451   1.096  1.00  0.00    +0.000 C 
ATOM     53  N5  UNL A   1      14.572  50.193   2.123  1.00  0.00    +0.000 N 
ATOM     54  C37 UNL A   1      13.687  49.410   2.687  1.00  0.00    +0.000 C 
ATOM     55  C38 UNL A   1      12.783  49.688   3.857  1.00  0.00    +0.000 C 
ATOM     67  C45 UNL A   1      12.853  50.883   4.475  1.00  0.00    +0.000 C 
ATOM     68  C46 UNL A   1      12.032  51.294   5.608  1.00  0.00    +0.000 C 
ATOM     69  C47 UNL A   1      12.305  52.574   5.905  1.00  0.00    +0.000 C 
ATOM     70  C48 UNL A   1      13.351  53.063   5.004  1.00  0.00    +0.000 C 
ATOM     71  N6  UNL A   1      13.640  51.977   4.213  1.00  0.00    +0.000 N 
ATOM     72  C49 UNL A   1      13.580  48.081   2.067  1.00  0.00    +0.000 C 
ATOM     73  C50 UNL A   1      14.510  48.147   1.125  1.00  0.00    +0.000 C 
ATOM     74  C51 UNL A   1      16.185  56.139   2.989  1.00  0.00    +0.000 C 
ATOM     75  C52 UNL A   1      15.378  56.095   4.041  1.00  0.00    +0.000 C 
ATOM    112  H21 UNL A   1      18.792  53.444  -0.758  1.00  0.00    +0.000 H 
ATOM    113  H22 UNL A   1      18.226  50.976  -1.379  1.00  0.00    +0.000 H 
ATOM    114  H23 UNL A   1      15.693  52.165   1.675  1.00  0.00    +0.000 H 
ATOM    115  H24 UNL A   1      11.350  50.697   6.103  1.00  0.00    +0.000 H 
ATOM    116  H25 UNL A   1      11.851  53.126   6.649  1.00  0.00    +0.000 H 
ATOM    117  H26 UNL A   1      14.345  51.983   3.526  1.00  0.00    +0.000 H 
ATOM    118  H27 UNL A   1      12.948  47.301   2.303  1.00  0.00    +0.000 H 
ATOM    119  H28 UNL A   1      14.756  47.369   0.494  1.00  0.00    +0.000 H 
ATOM    120  H29 UNL A   1      16.689  56.983   2.676  1.00  0.00    +0.000 H 
ATOM    121  H30 UNL A   1      15.157  56.835   4.725  1.00  0.00    +0.000 H 
ENDROOT
BRANCH   19   18
ATOM     76  C53 UNL A   1      13.826  55.439   7.223  1.00  0.00    +0.000 C 
ATOM     77  C54 UNL A   1      13.380  56.439   8.087  1.00  0.00    +0.000 C 
ATOM    110  H19 UNL A   1      11.124  57.895   6.073  1.00  0.00    +0.000 H 
ATOM     15  C11 UNL A   1      12.449  57.380   7.637  1.00  0.00    +0.000 C 
ATOM     16  C12 UNL A   1      11.858  57.237   6.378  1.00  0.00    +0.000 C 
ATOM     17  C13 UNL A   1      12.266  56.202   5.534  1.00  0.00    +0.000 C 
ATOM    111  H20 UNL A   1      11.814  56.081   4.613  1.00  0.00    +0.000 H 
ATOM     18  C14 UNL A   1      13.286  55.323   5.933  1.00  0.00    +0.000 C 
ATOM    122  H31 UNL A   1      14.557  54.780   7.535  1.00  0.00    +0.000 H 
ATOM    123  H32 UNL A   1      13.735  56.484   9.054  1.00  0.00    +0.000 H 
BRANCH   15   13
ATOM     13  C10 UNL A   1      12.076  58.543   8.472  1.00  0.00    +0.000 C 
ATOM     14  O2  UNL A   1      12.906  59.417   8.703  1.00  0.00    +0.000 O 
BRANCH   13   12
ATOM     12  N2  UNL A   1      10.813  58.628   9.004  1.00  0.00    +0.000 N 
ATOM    109  H18 UNL A   1      10.130  59.013   8.409  1.00  0.00    +0.000 H 
BRANCH   12   11
ATOM     11  C9  UNL A   1      10.340  58.231  10.321  1.00  0.00    +0.000 C 
ATOM    108  H17 UNL A   1       9.655  58.979  10.660  1.00  0.00    +0.000 H 
ATOM    107  H16 UNL A   1      11.181  58.143  10.977  1.00  0.00    +0.000 H 
BRANCH   11   10
ATOM    105  H14 UNL A   1       8.586  57.085  10.003  1.00  0.00    +0.000 H 
ATOM     10  C8  UNL A   1       9.597  56.897  10.296  1.00  0.00    +0.000 C 
ATOM    106  H15 UNL A   1      10.129  56.271   9.610  1.00  0.00    +0.000 H 
BRANCH   10    9
ATOM      9  C7  UNL A   1       9.573  56.146  11.630  1.00  0.00    +0.000 C 
ATOM    103  H12 UNL A   1       9.618  56.870  12.417  1.00  0.00    +0.000 H 
ATOM    104  H13 UNL A   1       8.671  55.570  11.628  1.00  0.00    +0.000 H 
BRANCH    9    8
ATOM    101  H10 UNL A   1      11.623  55.614  11.521  1.00  0.00    +0.000 H 
ATOM    102  H11 UNL A   1      10.698  54.897  12.881  1.00  0.00    +0.000 H 
ATOM      8  C6  UNL A   1      10.714  55.147  11.840  1.00  0.00    +0.000 C 
BRANCH    8    7
ATOM     99  H8  UNL A   1       9.657  53.836  10.539  1.00  0.00    +0.000 H 
ATOM    100  H9  UNL A   1      11.438  53.736  10.455  1.00  0.00    +0.000 H 
ATOM      7  C5  UNL A   1      10.577  53.816  11.085  1.00  0.00    +0.000 C 
BRANCH    7    6
ATOM     97  H6  UNL A   1      10.159  52.828  12.931  1.00  0.00    +0.000 H 
ATOM     98  H7  UNL A   1       9.989  51.815  11.503  1.00  0.00    +0.000 H 
ATOM      6  C4  UNL A   1      10.575  52.574  11.978  1.00  0.00    +0.000 C 
BRANCH    6    5
ATOM      5  N1  UNL A   1      11.917  52.068  12.168  1.00  0.00    +0.000 N 
ATOM     96  H5  UNL A   1      12.192  51.973  13.108  1.00  0.00    +0.000 H 
BRANCH    5    3
ATOM      3  C3  UNL A   1      12.864  51.699  11.258  1.00  0.00    +0.000 C 
ATOM      4  O1  UNL A   1      12.580  50.739  10.538  1.00  0.00    +0.000 O 
BRANCH    3    2
ATOM      2  C2  UNL A   1      14.215  52.441  11.192  1.00  0.00    +0.000 C 
ATOM     95  H4  UNL A   1      14.685  52.253  12.133  1.00  0.00    +0.000 H 
BRANCH    2    1
ATOM      1  C1  UNL A   1      14.055  53.957  11.031  1.00  0.00    +0.000 C 
ATOM     92  H1  UNL A   1      13.041  54.232  11.235  1.00  0.00    +0.000 H 
ATOM     93  H2  UNL A   1      14.306  54.238  10.030  1.00  0.00    +0.000 H 
ATOM     94  H3  UNL A   1      14.706  54.459  11.716  1.00  0.00    +0.000 H 
ENDBRANCH    2    1
BRANCH    2   78
ATOM    135  H44 UNL A   1      17.891  50.135   9.383  1.00  0.00    +0.000 H 
ATOM     78  C55 UNL A   1      15.108  51.906  10.069  1.00  0.00    +0.000 C 
ATOM     79  C56 UNL A   1      14.738  52.164   8.733  1.00  0.00    +0.000 C 
ATOM     80  C57 UNL A   1      15.490  51.689   7.659  1.00  0.00    +0.000 C 
ATOM     81  C58 UNL A   1      16.632  50.919   7.883  1.00  0.00    +0.000 C 
ATOM     89  C65 UNL A   1      17.032  50.679   9.204  1.00  0.00    +0.000 C 
ATOM     90  C66 UNL A   1      16.282  51.167  10.286  1.00  0.00    +0.000 C 
ATOM     91 Br1  UNL A   1      16.954  50.771  12.021  1.00  0.00    +0.000 Br
ATOM    124  H33 UNL A   1      13.889  52.719   8.545  1.00  0.00    +0.000 H 
ATOM    125  H34 UNL A   1      15.200  51.908   6.693  1.00  0.00    +0.000 H 
BRANCH   81   82
ATOM     82  C59 UNL A   1      17.398  50.334   6.720  1.00  0.00    +0.000 C 
ATOM    126  H35 UNL A   1      17.776  49.381   7.025  1.00  0.00    +0.000 H 
ATOM    127  H36 UNL A   1      18.154  51.054   6.485  1.00  0.00    +0.000 H 
BRANCH   82   83
ATOM    129  H38 UNL A   1      17.722  51.712   4.481  1.00  0.00    +0.000 H 
ATOM    130  H39 UNL A   1      16.312  51.260   3.598  1.00  0.00    +0.000 H 
ATOM    131  H40 UNL A   1      18.954  49.841   3.779  1.00  0.00    +0.000 H 
ATOM    132  H41 UNL A   1      18.023  50.137   2.366  1.00  0.00    +0.000 H 
ATOM    133  H42 UNL A   1      17.973  47.731   3.610  1.00  0.00    +0.000 H 
ATOM    134  H43 UNL A   1      16.575  48.289   2.820  1.00  0.00    +0.000 H 
ATOM     83  C60 UNL A   1      16.605  50.131   5.422  1.00  0.00    +0.000 C 
ATOM     84  C61 UNL A   1      17.119  50.878   4.187  1.00  0.00    +0.000 C 
ATOM     85  C62 UNL A   1      17.954  49.874   3.401  1.00  0.00    +0.000 C 
ATOM     86  C63 UNL A   1      17.265  48.532   3.600  1.00  0.00    +0.000 C 
ATOM     87  C64 UNL A   1      16.611  48.696   4.948  1.00  0.00    +0.000 C 
ATOM     88  O3  UNL A   1      16.117  47.769   5.579  1.00  0.00    +0.000 O 
ATOM    128  H37 UNL A   1      15.648  50.501   5.729  1.00  0.00    +0.000 H 
ENDBRANCH   82   83
ENDBRANCH   81   82
ENDBRANCH    2   78
ENDBRANCH    3    2
ENDBRANCH    5    3
ENDBRANCH    6    5
ENDBRANCH    7    6
ENDBRANCH    8    7
ENDBRANCH    9    8
ENDBRANCH   10    9
ENDBRANCH   11   10
ENDBRANCH   12   11
ENDBRANCH   13   12
ENDBRANCH   15   13
ENDBRANCH   19   18
BRANCH   23   24
ATOM     33  C24 UNL A   1      17.464  56.408  -0.389  1.00  0.00    +0.000 C 
ATOM     34  F5  UNL A   1      16.250  56.175  -0.910  1.00  0.00    +0.000 F 
ATOM     24  C19 UNL A   1      17.908  55.678   0.724  1.00  0.00    +0.000 C 
ATOM     25  C20 UNL A   1      19.187  55.956   1.227  1.00  0.00    +0.000 C 
ATOM     26  F1  UNL A   1      19.652  55.288   2.293  1.00  0.00    +0.000 F 
ATOM     27  C21 UNL A   1      19.988  56.933   0.642  1.00  0.00    +0.000 C 
ATOM     28  F2  UNL A   1      21.199  57.197   1.151  1.00  0.00    +0.000 F 
ATOM     29  C22 UNL A   1      19.536  57.631  -0.469  1.00  0.00    +0.000 C 
ATOM     30  F3  UNL A   1      20.317  58.557  -1.042  1.00  0.00    +0.000 F 
ATOM     31  C23 UNL A   1      18.276  57.369  -0.984  1.00  0.00    +0.000 C 
ATOM     32  F4  UNL A   1      17.843  58.036  -2.064  1.00  0.00    +0.000 F 
ENDBRANCH   23   24
BRANCH   40   41
ATOM     41  C30 UNL A   1      16.510  48.799  -0.810  1.00  0.00    +0.000 C 
ATOM     42  C31 UNL A   1      17.660  48.018  -0.621  1.00  0.00    +0.000 C 
ATOM     43  F6  UNL A   1      18.440  48.215   0.452  1.00  0.00    +0.000 F 
ATOM     44  C32 UNL A   1      18.031  47.056  -1.556  1.00  0.00    +0.000 C 
ATOM     45  F7  UNL A   1      19.156  46.350  -1.377  1.00  0.00    +0.000 F 
ATOM     46  C33 UNL A   1      17.247  46.837  -2.678  1.00  0.00    +0.000 C 
ATOM     47  F8  UNL A   1      17.602  45.905  -3.574  1.00  0.00    +0.000 F 
ATOM     48  C34 UNL A   1      16.097  47.588  -2.877  1.00  0.00    +0.000 C 
ATOM     49  F9  UNL A   1      15.333  47.370  -3.956  1.00  0.00    +0.000 F 
ATOM     50  C35 UNL A   1      15.737  48.569  -1.957  1.00  0.00    +0.000 C 
ATOM     51  F10 UNL A   1      14.627  49.287  -2.179  1.00  0.00    +0.000 F 
ENDBRANCH   40   41
BRANCH   55   56
ATOM     65  C44 UNL A   1      10.602  48.447   3.658  1.00  0.00    +0.000 C 
ATOM     66  F15 UNL A   1      10.282  49.193   2.591  1.00  0.00    +0.000 F 
ATOM     56  C39 UNL A   1      11.817  48.661   4.325  1.00  0.00    +0.000 C 
ATOM     57  C40 UNL A   1      12.102  47.857   5.437  1.00  0.00    +0.000 C 
ATOM     58  F11 UNL A   1      13.263  48.009   6.093  1.00  0.00    +0.000 F 
ATOM     59  C41 UNL A   1      11.220  46.860   5.849  1.00  0.00    +0.000 C 
ATOM     60  F12 UNL A   1      11.540  46.071   6.884  1.00  0.00    +0.000 F 
ATOM     61  C42 UNL A   1      10.022  46.669   5.176  1.00  0.00    +0.000 C 
ATOM     62  F13 UNL A   1       9.176  45.709   5.571  1.00  0.00    +0.000 F 
ATOM     63  C43 UNL A   1       9.709  47.468   4.087  1.00  0.00    +0.000 C 
ATOM     64  F14 UNL A   1       8.547  47.295   3.442  1.00  0.00    +0.000 F 
ENDBRANCH   55   56
TORSDOF 19
ENDMDL
MODEL 10
REMARK VINA RESULT:      -9.7      4.129      6.613
ROOT
ATOM     19  C15 UNL A   1      41.703  26.456  27.061  1.00  0.00    +0.000 C 
ATOM     20  C16 UNL A   1      43.118  26.747  26.650  1.00  0.00    +0.000 C 
ATOM     21  N3  UNL A   1      43.871  27.773  26.957  1.00  0.00    +0.000 N 
ATOM     22  C17 UNL A   1      45.100  27.533  26.357  1.00  0.00    +0.000 C 
ATOM     23  C18 UNL A   1      46.200  28.321  26.351  1.00  0.00    +0.000 C 
ATOM     35  C25 UNL A   1      46.278  29.617  26.973  1.00  0.00    +0.000 C 
ATOM     36  C26 UNL A   1      47.310  30.538  26.919  1.00  0.00    +0.000 C 
ATOM     37  C27 UNL A   1      46.964  31.630  27.721  1.00  0.00    +0.000 C 
ATOM     38  C28 UNL A   1      45.701  31.406  28.244  1.00  0.00    +0.000 C 
ATOM     39  N4  UNL A   1      45.287  30.172  27.768  1.00  0.00    +0.000 N 
ATOM     40  C29 UNL A   1      44.931  32.247  29.121  1.00  0.00    +0.000 C 
ATOM     52  C36 UNL A   1      43.663  31.990  29.525  1.00  0.00    +0.000 C 
ATOM     53  N5  UNL A   1      42.854  30.906  29.217  1.00  0.00    +0.000 N 
ATOM     54  C37 UNL A   1      41.732  31.100  29.863  1.00  0.00    +0.000 C 
ATOM     55  C38 UNL A   1      40.492  30.248  29.889  1.00  0.00    +0.000 C 
ATOM     67  C45 UNL A   1      40.451  29.121  29.153  1.00  0.00    +0.000 C 
ATOM     68  C46 UNL A   1      39.326  28.194  29.093  1.00  0.00    +0.000 C 
ATOM     69  C47 UNL A   1      39.667  27.140  28.336  1.00  0.00    +0.000 C 
ATOM     70  C48 UNL A   1      41.026  27.334  27.826  1.00  0.00    +0.000 C 
ATOM     71  N6  UNL A   1      41.398  28.556  28.334  1.00  0.00    +0.000 N 
ATOM     72  C49 UNL A   1      41.710  32.329  30.670  1.00  0.00    +0.000 C 
ATOM     73  C50 UNL A   1      42.898  32.850  30.401  1.00  0.00    +0.000 C 
ATOM     74  C51 UNL A   1      45.005  26.250  25.695  1.00  0.00    +0.000 C 
ATOM     75  C52 UNL A   1      43.783  25.745  25.803  1.00  0.00    +0.000 C 
ATOM    112  H21 UNL A   1      48.183  30.437  26.379  1.00  0.00    +0.000 H 
ATOM    113  H22 UNL A   1      47.551  32.462  27.896  1.00  0.00    +0.000 H 
ATOM    114  H23 UNL A   1      44.419  29.752  27.965  1.00  0.00    +0.000 H 
ATOM    115  H24 UNL A   1      38.414  28.328  29.558  1.00  0.00    +0.000 H 
ATOM    116  H25 UNL A   1      39.068  26.322  28.145  1.00  0.00    +0.000 H 
ATOM    117  H26 UNL A   1      42.259  28.986  28.128  1.00  0.00    +0.000 H 
ATOM    118  H27 UNL A   1      40.964  32.690  31.286  1.00  0.00    +0.000 H 
ATOM    119  H28 UNL A   1      43.233  33.754  30.768  1.00  0.00    +0.000 H 
ATOM    120  H29 UNL A   1      45.786  25.788  25.203  1.00  0.00    +0.000 H 
ATOM    121  H30 UNL A   1      43.399  24.876  25.400  1.00  0.00    +0.000 H 
ENDROOT
BRANCH   19   18
ATOM     76  C53 UNL A   1      41.805  23.971  26.843  1.00  0.00    +0.000 C 
ATOM     77  C54 UNL A   1      41.199  22.736  26.615  1.00  0.00    +0.000 C 
ATOM    110  H19 UNL A   1      38.106  23.805  25.874  1.00  0.00    +0.000 H 
ATOM     15  C11 UNL A   1      39.831  22.676  26.336  1.00  0.00    +0.000 C 
ATOM     16  C12 UNL A   1      39.100  23.852  26.144  1.00  0.00    +0.000 C 
ATOM     17  C13 UNL A   1      39.722  25.091  26.319  1.00  0.00    +0.000 C 
ATOM    111  H20 UNL A   1      39.190  25.960  26.155  1.00  0.00    +0.000 H 
ATOM     18  C14 UNL A   1      41.068  25.158  26.715  1.00  0.00    +0.000 C 
ATOM    122  H31 UNL A   1      42.802  24.012  27.107  1.00  0.00    +0.000 H 
ATOM    123  H32 UNL A   1      41.759  21.870  26.651  1.00  0.00    +0.000 H 
BRANCH   15   13
ATOM     13  C10 UNL A   1      39.128  21.377  26.246  1.00  0.00    +0.000 C 
ATOM     14  O2  UNL A   1      39.748  20.335  26.440  1.00  0.00    +0.000 O 
BRANCH   13   12
ATOM     12  N2  UNL A   1      37.794  21.340  25.923  1.00  0.00    +0.000 N 
ATOM    109  H18 UNL A   1      37.178  21.590  26.648  1.00  0.00    +0.000 H 
BRANCH   12   11
ATOM     11  C9  UNL A   1      37.162  20.983  24.663  1.00  0.00    +0.000 C 
ATOM    108  H17 UNL A   1      36.360  20.309  24.881  1.00  0.00    +0.000 H 
ATOM    107  H16 UNL A   1      37.894  20.529  24.027  1.00  0.00    +0.000 H 
BRANCH   11   10
ATOM    105  H14 UNL A   1      37.036  23.072  24.335  1.00  0.00    +0.000 H 
ATOM     10  C8  UNL A   1      36.571  22.193  23.943  1.00  0.00    +0.000 C 
ATOM    106  H15 UNL A   1      36.760  22.042  22.901  1.00  0.00    +0.000 H 
BRANCH   10    9
ATOM      9  C7  UNL A   1      35.056  22.353  24.086  1.00  0.00    +0.000 C 
ATOM    103  H12 UNL A   1      34.631  21.380  24.213  1.00  0.00    +0.000 H 
ATOM    104  H13 UNL A   1      34.905  23.000  24.925  1.00  0.00    +0.000 H 
BRANCH    9    8
ATOM    101  H10 UNL A   1      35.099  23.521  22.316  1.00  0.00    +0.000 H 
ATOM    102  H11 UNL A   1      33.844  22.242  22.380  1.00  0.00    +0.000 H 
ATOM      8  C6  UNL A   1      34.354  23.025  22.902  1.00  0.00    +0.000 C 
BRANCH    8    7
ATOM     99  H8  UNL A   1      32.626  24.173  22.427  1.00  0.00    +0.000 H 
ATOM    100  H9  UNL A   1      32.779  23.681  24.137  1.00  0.00    +0.000 H 
ATOM      7  C5  UNL A   1      33.278  24.058  23.268  1.00  0.00    +0.000 C 
BRANCH    7    6
ATOM     97  H6  UNL A   1      34.836  25.516  23.316  1.00  0.00    +0.000 H 
ATOM     98  H7  UNL A   1      33.215  26.182  23.170  1.00  0.00    +0.000 H 
ATOM      6  C4  UNL A   1      33.821  25.438  23.644  1.00  0.00    +0.000 C 
BRANCH    6    5
ATOM      5  N1  UNL A   1      33.768  25.646  25.075  1.00  0.00    +0.000 N 
ATOM     96  H5  UNL A   1      34.380  26.338  25.413  1.00  0.00    +0.000 H 
BRANCH    5    3
ATOM      3  C3  UNL A   1      33.010  25.040  26.033  1.00  0.00    +0.000 C 
ATOM      4  O1  UNL A   1      33.515  24.060  26.586  1.00  0.00    +0.000 O 
BRANCH    3    2
ATOM      2  C2  UNL A   1      31.591  25.556  26.350  1.00  0.00    +0.000 C 
ATOM     95  H4  UNL A   1      31.641  25.913  27.357  1.00  0.00    +0.000 H 
BRANCH    2    1
ATOM      1  C1  UNL A   1      30.528  24.454  26.286  1.00  0.00    +0.000 C 
ATOM     92  H1  UNL A   1      30.489  24.052  25.294  1.00  0.00    +0.000 H 
ATOM     93  H2  UNL A   1      29.573  24.864  26.541  1.00  0.00    +0.000 H 
ATOM     94  H3  UNL A   1      30.777  23.676  26.977  1.00  0.00    +0.000 H 
ENDBRANCH    2    1
BRANCH    2   78
ATOM    135  H44 UNL A   1      31.469  30.019  24.879  1.00  0.00    +0.000 H 
ATOM     78  C55 UNL A   1      31.181  26.708  25.429  1.00  0.00    +0.000 C 
ATOM     79  C56 UNL A   1      30.372  26.420  24.310  1.00  0.00    +0.000 C 
ATOM     80  C57 UNL A   1      29.978  27.414  23.415  1.00  0.00    +0.000 C 
ATOM     81  C58 UNL A   1      30.398  28.733  23.595  1.00  0.00    +0.000 C 
ATOM     89  C65 UNL A   1      31.176  29.042  24.718  1.00  0.00    +0.000 C 
ATOM     90  C66 UNL A   1      31.563  28.045  25.627  1.00  0.00    +0.000 C 
ATOM     91 Br1  UNL A   1      32.610  28.616  27.108  1.00  0.00    +0.000 Br
ATOM    124  H33 UNL A   1      30.062  25.450  24.150  1.00  0.00    +0.000 H 
ATOM    125  H34 UNL A   1      29.373  27.174  22.615  1.00  0.00    +0.000 H 
BRANCH   81   82
ATOM     82  C59 UNL A   1      30.041  29.793  22.580  1.00  0.00    +0.000 C 
ATOM    126  H35 UNL A   1      29.970  29.318  21.624  1.00  0.00    +0.000 H 
ATOM    127  H36 UNL A   1      30.815  30.528  22.650  1.00  0.00    +0.000 H 
BRANCH   82   83
ATOM    129  H38 UNL A   1      29.654  31.648  24.429  1.00  0.00    +0.000 H 
ATOM    130  H39 UNL A   1      27.935  31.789  24.414  1.00  0.00    +0.000 H 
ATOM    131  H40 UNL A   1      29.950  33.155  22.653  1.00  0.00    +0.000 H 
ATOM    132  H41 UNL A   1      28.588  33.862  23.424  1.00  0.00    +0.000 H 
ATOM    133  H42 UNL A   1      28.520  33.159  20.810  1.00  0.00    +0.000 H 
ATOM    134  H43 UNL A   1      27.097  33.062  21.735  1.00  0.00    +0.000 H 
ATOM     83  C60 UNL A   1      28.730  30.550  22.826  1.00  0.00    +0.000 C 
ATOM     84  C61 UNL A   1      28.802  31.740  23.789  1.00  0.00    +0.000 C 
ATOM     85  C62 UNL A   1      28.928  32.984  22.916  1.00  0.00    +0.000 C 
ATOM     86  C63 UNL A   1      28.099  32.692  21.674  1.00  0.00    +0.000 C 
ATOM     87  C64 UNL A   1      28.177  31.191  21.574  1.00  0.00    +0.000 C 
ATOM     88  O3  UNL A   1      27.809  30.557  20.591  1.00  0.00    +0.000 O 
ATOM    128  H37 UNL A   1      28.131  29.760  23.230  1.00  0.00    +0.000 H 
ENDBRANCH   82   83
ENDBRANCH   81   82
ENDBRANCH    2   78
ENDBRANCH    3    2
ENDBRANCH    5    3
ENDBRANCH    6    5
ENDBRANCH    7    6
ENDBRANCH    8    7
ENDBRANCH    9    8
ENDBRANCH   10    9
ENDBRANCH   11   10
ENDBRANCH   12   11
ENDBRANCH   13   12
ENDBRANCH   15   13
ENDBRANCH   19   18
BRANCH   23   24
ATOM     33  C24 UNL A   1      48.519  27.344  26.374  1.00  0.00    +0.000 C 
ATOM     34  F5  UNL A   1      48.454  27.258  27.711  1.00  0.00    +0.000 F 
ATOM     24  C19 UNL A   1      47.422  27.821  25.641  1.00  0.00    +0.000 C 
ATOM     25  C20 UNL A   1      47.544  27.898  24.247  1.00  0.00    +0.000 C 
ATOM     26  F1  UNL A   1      46.519  28.341  23.504  1.00  0.00    +0.000 F 
ATOM     27  C21 UNL A   1      48.719  27.506  23.609  1.00  0.00    +0.000 C 
ATOM     28  F2  UNL A   1      48.807  27.568  22.274  1.00  0.00    +0.000 F 
ATOM     29  C22 UNL A   1      49.798  27.054  24.355  1.00  0.00    +0.000 C 
ATOM     30  F3  UNL A   1      50.934  26.696  23.741  1.00  0.00    +0.000 F 
ATOM     31  C23 UNL A   1      49.700  26.974  25.736  1.00  0.00    +0.000 C 
ATOM     32  F4  UNL A   1      50.746  26.548  26.457  1.00  0.00    +0.000 F 
ENDBRANCH   23   24
BRANCH   40   41
ATOM     41  C30 UNL A   1      45.566  33.509  29.620  1.00  0.00    +0.000 C 
ATOM     42  C31 UNL A   1      45.412  34.722  28.933  1.00  0.00    +0.000 C 
ATOM     43  F6  UNL A   1      44.735  34.761  27.776  1.00  0.00    +0.000 F 
ATOM     44  C32 UNL A   1      45.986  35.894  29.416  1.00  0.00    +0.000 C 
ATOM     45  F7  UNL A   1      45.861  37.034  28.722  1.00  0.00    +0.000 F 
ATOM     46  C33 UNL A   1      46.698  35.882  30.606  1.00  0.00    +0.000 C 
ATOM     47  F8  UNL A   1      47.244  37.014  31.073  1.00  0.00    +0.000 F 
ATOM     48  C34 UNL A   1      46.850  34.696  31.309  1.00  0.00    +0.000 C 
ATOM     49  F9  UNL A   1      47.530  34.685  32.464  1.00  0.00    +0.000 F 
ATOM     50  C35 UNL A   1      46.300  33.517  30.815  1.00  0.00    +0.000 C 
ATOM     51  F10 UNL A   1      46.471  32.383  31.510  1.00  0.00    +0.000 F 
ENDBRANCH   40   41
BRANCH   55   56
ATOM     65  C44 UNL A   1      38.262  31.377  30.189  1.00  0.00    +0.000 C 
ATOM     66  F15 UNL A   1      38.295  31.770  28.907  1.00  0.00    +0.000 F 
ATOM     56  C39 UNL A   1      39.327  30.637  30.724  1.00  0.00    +0.000 C 
ATOM     57  C40 UNL A   1      39.244  30.255  32.070  1.00  0.00    +0.000 C 
ATOM     58  F11 UNL A   1      40.228  29.525  32.619  1.00  0.00    +0.000 F 
ATOM     59  C41 UNL A   1      38.131  30.576  32.843  1.00  0.00    +0.000 C 
ATOM     60  F12 UNL A   1      38.054  30.154  34.112  1.00  0.00    +0.000 F 
ATOM     61  C42 UNL A   1      37.091  31.312  32.293  1.00  0.00    +0.000 C 
ATOM     62  F13 UNL A   1      36.019  31.619  33.035  1.00  0.00    +0.000 F 
ATOM     63  C43 UNL A   1      37.161  31.721  30.970  1.00  0.00    +0.000 C 
ATOM     64  F14 UNL A   1      36.165  32.443  30.438  1.00  0.00    +0.000 F 
ENDBRANCH   55   56
TORSDOF 19
ENDMDL
