MODEL 1
REMARK VINA RESULT:      -5.0      0.000      0.000
ROOT
ATOM    149  H47 UNL A   1      44.641  44.677  20.787  1.00  0.00    +0.000 H 
ATOM    150  H48 UNL A   1      44.721  43.105  22.866  1.00  0.00    +0.000 H 
ATOM    151  H49 UNL A   1      47.566  46.073  23.367  1.00  0.00    +0.000 H 
ATOM    152  H50 UNL A   1      52.273  48.669  26.821  1.00  0.00    +0.000 H 
ATOM    153  H51 UNL A   1      52.190  50.201  24.795  1.00  0.00    +0.000 H 
ATOM    154  H52 UNL A   1      49.301  47.255  24.283  1.00  0.00    +0.000 H 
ATOM    155  H53 UNL A   1      49.529  44.345  28.366  1.00  0.00    +0.000 H 
ATOM    156  H54 UNL A   1      47.775  42.859  27.241  1.00  0.00    +0.000 H 
ATOM    157  H55 UNL A   1      47.267  49.164  19.443  1.00  0.00    +0.000 H 
ATOM    158  H56 UNL A   1      49.361  50.365  20.293  1.00  0.00    +0.000 H 
ATOM     44  C33 UNL A   1      50.250  49.453  22.841  1.00  0.00    +0.000 C 
ATOM     45  C34 UNL A   1      49.136  48.893  22.004  1.00  0.00    +0.000 C 
ATOM     46  N6  UNL A   1      48.343  47.880  22.248  1.00  0.00    +0.000 N 
ATOM     47  C35 UNL A   1      47.472  47.813  21.169  1.00  0.00    +0.000 C 
ATOM     48  C36 UNL A   1      46.509  46.895  20.916  1.00  0.00    +0.000 C 
ATOM     60  C43 UNL A   1      46.207  45.783  21.776  1.00  0.00    +0.000 C 
ATOM     61  C44 UNL A   1      45.270  44.780  21.598  1.00  0.00    +0.000 C 
ATOM     62  C45 UNL A   1      45.324  43.929  22.707  1.00  0.00    +0.000 C 
ATOM     63  C46 UNL A   1      46.320  44.379  23.558  1.00  0.00    +0.000 C 
ATOM     64  N7  UNL A   1      46.845  45.523  22.981  1.00  0.00    +0.000 N 
ATOM     65  C47 UNL A   1      46.763  43.808  24.802  1.00  0.00    +0.000 C 
ATOM     77  C54 UNL A   1      47.732  44.324  25.598  1.00  0.00    +0.000 C 
ATOM     78  N8  UNL A   1      48.501  45.463  25.410  1.00  0.00    +0.000 N 
ATOM     79  C55 UNL A   1      49.283  45.546  26.459  1.00  0.00    +0.000 C 
ATOM     80  C56 UNL A   1      50.348  46.562  26.772  1.00  0.00    +0.000 C 
ATOM     92  C63 UNL A   1      50.610  47.534  25.878  1.00  0.00    +0.000 C 
ATOM     93  C64 UNL A   1      51.627  48.570  26.022  1.00  0.00    +0.000 C 
ATOM     94  C65 UNL A   1      51.589  49.375  24.947  1.00  0.00    +0.000 C 
ATOM     95  C66 UNL A   1      50.558  48.893  24.026  1.00  0.00    +0.000 C 
ATOM     96  N9  UNL A   1      50.028  47.799  24.662  1.00  0.00    +0.000 N 
ATOM     97  C67 UNL A   1      49.074  44.481  27.449  1.00  0.00    +0.000 C 
ATOM     98  C68 UNL A   1      48.150  43.740  26.856  1.00  0.00    +0.000 C 
ATOM     99  C69 UNL A   1      47.795  48.919  20.295  1.00  0.00    +0.000 C 
ATOM    100  C70 UNL A   1      48.858  49.577  20.731  1.00  0.00    +0.000 C 
ENDROOT
BRANCH   44   43
ATOM    101  C71 UNL A   1      52.175  50.502  21.647  1.00  0.00    +0.000 C 
ATOM    102  C72 UNL A   1      52.908  51.621  21.262  1.00  0.00    +0.000 C 
ATOM     40  C29 UNL A   1      52.412  52.902  21.526  1.00  0.00    +0.000 C 
ATOM     41  C30 UNL A   1      51.235  53.065  22.261  1.00  0.00    +0.000 C 
ATOM     42  C31 UNL A   1      50.534  51.942  22.700  1.00  0.00    +0.000 C 
ATOM     43  C32 UNL A   1      50.989  50.653  22.380  1.00  0.00    +0.000 C 
ATOM    147  H45 UNL A   1      50.887  54.012  22.478  1.00  0.00    +0.000 H 
ATOM    148  H46 UNL A   1      49.677  52.060  23.263  1.00  0.00    +0.000 H 
ATOM    159  H57 UNL A   1      52.505  49.559  21.389  1.00  0.00    +0.000 H 
ATOM    160  H58 UNL A   1      53.816  51.507  20.784  1.00  0.00    +0.000 H 
BRANCH   40   38
ATOM     38  C28 UNL A   1      53.116  54.109  21.046  1.00  0.00    +0.000 C 
ATOM     39  O6  UNL A   1      54.019  54.598  21.717  1.00  0.00    +0.000 O 
BRANCH   38   37
ATOM    146  H44 UNL A   1      52.816  55.675  19.831  1.00  0.00    +0.000 H 
ATOM     37  N5  UNL A   1      52.728  54.695  19.869  1.00  0.00    +0.000 N 
BRANCH   37   36
ATOM    145  H43 UNL A   1      52.119  53.018  18.872  1.00  0.00    +0.000 H 
ATOM     36  C27 UNL A   1      52.206  54.065  18.673  1.00  0.00    +0.000 C 
ATOM    144  H42 UNL A   1      52.877  54.261  17.863  1.00  0.00    +0.000 H 
BRANCH   36   35
ATOM     35  C26 UNL A   1      50.823  54.576  18.294  1.00  0.00    +0.000 C 
ATOM    142  H40 UNL A   1      50.940  55.303  17.518  1.00  0.00    +0.000 H 
ATOM    143  H41 UNL A   1      50.260  53.716  17.995  1.00  0.00    +0.000 H 
BRANCH   35   34
ATOM     34  C25 UNL A   1      50.029  55.224  19.432  1.00  0.00    +0.000 C 
ATOM    140  H38 UNL A   1      50.678  55.312  20.277  1.00  0.00    +0.000 H 
ATOM    141  H39 UNL A   1      49.684  56.161  19.048  1.00  0.00    +0.000 H 
BRANCH   34   33
ATOM     33  C24 UNL A   1      48.772  54.470  19.880  1.00  0.00    +0.000 C 
ATOM    138  H36 UNL A   1      48.815  54.361  20.943  1.00  0.00    +0.000 H 
ATOM    139  H37 UNL A   1      47.943  55.053  19.539  1.00  0.00    +0.000 H 
BRANCH   33   32
ATOM    137  H35 UNL A   1      48.148  52.467  20.034  1.00  0.00    +0.000 H 
ATOM    136  H34 UNL A   1      49.540  52.723  18.946  1.00  0.00    +0.000 H 
ATOM     32  C23 UNL A   1      48.584  53.078  19.270  1.00  0.00    +0.000 C 
BRANCH   32   31
ATOM    135  H33 UNL A   1      47.584  54.013  17.656  1.00  0.00    +0.000 H 
ATOM    134  H32 UNL A   1      46.669  52.717  18.423  1.00  0.00    +0.000 H 
ATOM     31  C22 UNL A   1      47.633  53.034  18.084  1.00  0.00    +0.000 C 
BRANCH   31   30
ATOM    133  H31 UNL A   1      48.537  52.529  16.287  1.00  0.00    +0.000 H 
ATOM     30  N4  UNL A   1      48.096  52.118  17.065  1.00  0.00    +0.000 N 
BRANCH   30   28
ATOM     28  C21 UNL A   1      47.998  50.760  17.048  1.00  0.00    +0.000 C 
ATOM     29  O5  UNL A   1      46.879  50.255  17.161  1.00  0.00    +0.000 O 
BRANCH   28    5
ATOM      5  C5  UNL A   1      49.255  49.874  16.962  1.00  0.00    +0.000 C 
ATOM    112  H10 UNL A   1      49.080  49.047  17.619  1.00  0.00    +0.000 H 
BRANCH    5    4
ATOM      4  C4  UNL A   1      50.528  50.511  17.532  1.00  0.00    +0.000 C 
ATOM    110  H8  UNL A   1      50.739  51.387  16.956  1.00  0.00    +0.000 H 
ATOM    111  H9  UNL A   1      50.316  50.700  18.563  1.00  0.00    +0.000 H 
BRANCH    4    2
ATOM      2  C2  UNL A   1      51.800  49.625  17.528  1.00  0.00    +0.000 C 
ATOM    106  H4  UNL A   1      51.897  49.289  16.518  1.00  0.00    +0.000 H 
BRANCH    2    1
ATOM      1  C1  UNL A   1      53.112  50.341  17.861  1.00  0.00    +0.000 C 
ATOM    105  H3  UNL A   1      53.099  50.653  18.885  1.00  0.00    +0.000 H 
ATOM    103  H1  UNL A   1      53.223  51.197  17.228  1.00  0.00    +0.000 H 
ATOM    104  H2  UNL A   1      53.933  49.673  17.703  1.00  0.00    +0.000 H 
ENDBRANCH    2    1
BRANCH    2    3
ATOM      3  C3  UNL A   1      51.618  48.478  18.528  1.00  0.00    +0.000 C 
ATOM    108  H6  UNL A   1      52.525  48.336  19.077  1.00  0.00    +0.000 H 
ATOM    109  H7  UNL A   1      51.377  47.579  17.999  1.00  0.00    +0.000 H 
ATOM    107  H5  UNL A   1      50.825  48.718  19.205  1.00  0.00    +0.000 H 
ENDBRANCH    2    3
ENDBRANCH    4    2
ENDBRANCH    5    4
BRANCH    5    6
ATOM    113  H11 UNL A   1      49.958  49.902  15.002  1.00  0.00    +0.000 H 
ATOM      6  N1  UNL A   1      49.428  49.338  15.611  1.00  0.00    +0.000 N 
BRANCH    6    7
ATOM      7  C6  UNL A   1      48.967  48.177  15.067  1.00  0.00    +0.000 C 
ATOM      8  O1  UNL A   1      48.774  48.182  13.845  1.00  0.00    +0.000 O 
BRANCH    7    9
ATOM      9  C7  UNL A   1      48.639  46.915  15.884  1.00  0.00    +0.000 C 
ATOM    114  H12 UNL A   1      48.066  46.268  15.253  1.00  0.00    +0.000 H 
ATOM    115  H13 UNL A   1      48.136  47.286  16.753  1.00  0.00    +0.000 H 
BRANCH    9   10
ATOM     10  N2  UNL A   1      49.739  46.137  16.411  1.00  0.00    +0.000 N 
ATOM    116  H14 UNL A   1      50.178  46.559  17.185  1.00  0.00    +0.000 H 
BRANCH   10   11
ATOM     11  C8  UNL A   1      50.292  44.950  16.064  1.00  0.00    +0.000 C 
ATOM     12  O2  UNL A   1      49.744  44.388  15.105  1.00  0.00    +0.000 O 
BRANCH   11   13
ATOM    117  H15 UNL A   1      52.127  45.012  17.136  1.00  0.00    +0.000 H 
ATOM     13  C9  UNL A   1      51.467  44.236  16.809  1.00  0.00    +0.000 C 
BRANCH   13   14
ATOM    118  H16 UNL A   1      51.401  42.703  18.202  1.00  0.00    +0.000 H 
ATOM     14  N3  UNL A   1      51.107  43.636  18.101  1.00  0.00    +0.000 N 
BRANCH   14   15
ATOM     15  C10 UNL A   1      50.450  44.123  19.182  1.00  0.00    +0.000 C 
ATOM     16  O3  UNL A   1      49.392  43.623  19.539  1.00  0.00    +0.000 O 
BRANCH   15   17
ATOM     17  O4  UNL A   1      51.025  45.209  19.734  1.00  0.00    +0.000 O 
BRANCH   17   18
ATOM     18  C11 UNL A   1      50.524  45.562  21.032  1.00  0.00    +0.000 C 
ATOM    119  H17 UNL A   1      49.947  44.742  21.406  1.00  0.00    +0.000 H 
ATOM    120  H18 UNL A   1      49.942  46.452  20.909  1.00  0.00    +0.000 H 
BRANCH   18   19
ATOM     19  C12 UNL A   1      51.612  45.883  22.044  1.00  0.00    +0.000 C 
ATOM     20  C13 UNL A   1      52.534  46.901  21.758  1.00  0.00    +0.000 C 
ATOM     21  C14 UNL A   1      53.599  47.169  22.624  1.00  0.00    +0.000 C 
ATOM     22  C15 UNL A   1      53.765  46.418  23.785  1.00  0.00    +0.000 C 
ATOM     23  C16 UNL A   1      52.866  45.403  24.084  1.00  0.00    +0.000 C 
ATOM     24  C17 UNL A   1      51.802  45.138  23.219  1.00  0.00    +0.000 C 
ATOM    121  H19 UNL A   1      52.424  47.460  20.896  1.00  0.00    +0.000 H 
ATOM    122  H20 UNL A   1      54.264  47.925  22.401  1.00  0.00    +0.000 H 
ATOM    123  H21 UNL A   1      54.554  46.616  24.421  1.00  0.00    +0.000 H 
ATOM    124  H22 UNL A   1      52.984  44.844  24.943  1.00  0.00    +0.000 H 
ATOM    125  H23 UNL A   1      51.142  44.378  23.449  1.00  0.00    +0.000 H 
ENDBRANCH   18   19
ENDBRANCH   17   18
ENDBRANCH   15   17
ENDBRANCH   14   15
ENDBRANCH   13   14
BRANCH   13   25
ATOM     25  C18 UNL A   1      52.356  43.397  15.864  1.00  0.00    +0.000 C 
ATOM    126  H24 UNL A   1      51.688  42.832  15.248  1.00  0.00    +0.000 H 
BRANCH   25   26
ATOM    129  H27 UNL A   1      54.279  44.060  15.176  1.00  0.00    +0.000 H 
ATOM     26  C19 UNL A   1      53.251  44.288  14.984  1.00  0.00    +0.000 C 
ATOM    127  H25 UNL A   1      53.065  45.316  15.213  1.00  0.00    +0.000 H 
ATOM    128  H26 UNL A   1      53.032  44.106  13.952  1.00  0.00    +0.000 H 
ENDBRANCH   25   26
BRANCH   25   27
ATOM    130  H28 UNL A   1      53.418  41.551  16.122  1.00  0.00    +0.000 H 
ATOM     27  C20 UNL A   1      53.280  42.465  16.662  1.00  0.00    +0.000 C 
ATOM    132  H30 UNL A   1      54.227  42.940  16.808  1.00  0.00    +0.000 H 
ATOM    131  H29 UNL A   1      52.837  42.253  17.613  1.00  0.00    +0.000 H 
ENDBRANCH   25   27
ENDBRANCH   13   25
ENDBRANCH   11   13
ENDBRANCH   10   11
ENDBRANCH    9   10
ENDBRANCH    7    9
ENDBRANCH    6    7
ENDBRANCH    5    6
ENDBRANCH   28    5
ENDBRANCH   30   28
ENDBRANCH   31   30
ENDBRANCH   32   31
ENDBRANCH   33   32
ENDBRANCH   34   33
ENDBRANCH   35   34
ENDBRANCH   36   35
ENDBRANCH   37   36
ENDBRANCH   38   37
ENDBRANCH   40   38
ENDBRANCH   44   43
BRANCH   48   49
ATOM     49  C37 UNL A   1      45.723  47.052  19.648  1.00  0.00    +0.000 C 
ATOM     50  C38 UNL A   1      45.952  46.222  18.539  1.00  0.00    +0.000 C 
ATOM     51  F1  UNL A   1      46.914  45.288  18.582  1.00  0.00    +0.000 F 
ATOM     52  C39 UNL A   1      45.220  46.376  17.365  1.00  0.00    +0.000 C 
ATOM     53  F2  UNL A   1      45.488  45.603  16.304  1.00  0.00    +0.000 F 
ATOM     54  C40 UNL A   1      44.222  47.337  17.288  1.00  0.00    +0.000 C 
ATOM     55  F3  UNL A   1      43.514  47.481  16.159  1.00  0.00    +0.000 F 
ATOM     56  C41 UNL A   1      43.966  48.154  18.379  1.00  0.00    +0.000 C 
ATOM     57  F4  UNL A   1      42.995  49.077  18.309  1.00  0.00    +0.000 F 
ATOM     58  C42 UNL A   1      44.716  48.022  19.545  1.00  0.00    +0.000 C 
ATOM     59  F5  UNL A   1      44.455  48.839  20.577  1.00  0.00    +0.000 F 
ENDBRANCH   48   49
BRANCH   65   66
ATOM     66  C48 UNL A   1      46.122  42.527  25.249  1.00  0.00    +0.000 C 
ATOM     67  C49 UNL A   1      46.709  41.281  24.990  1.00  0.00    +0.000 C 
ATOM     68  F6  UNL A   1      47.848  41.204  24.286  1.00  0.00    +0.000 F 
ATOM     69  C50 UNL A   1      46.102  40.103  25.418  1.00  0.00    +0.000 C 
ATOM     70  F7  UNL A   1      46.655  38.920  25.118  1.00  0.00    +0.000 F 
ATOM     71  C51 UNL A   1      44.917  40.153  26.140  1.00  0.00    +0.000 C 
ATOM     72  F8  UNL A   1      44.337  39.019  26.554  1.00  0.00    +0.000 F 
ATOM     73  C52 UNL A   1      44.331  41.377  26.426  1.00  0.00    +0.000 C 
ATOM     74  F9  UNL A   1      43.194  41.426  27.132  1.00  0.00    +0.000 F 
ATOM     75  C53 UNL A   1      44.921  42.554  25.976  1.00  0.00    +0.000 C 
ATOM     76  F10 UNL A   1      44.325  43.723  26.254  1.00  0.00    +0.000 F 
ENDBRANCH   65   66
BRANCH   80   81
ATOM     81  C57 UNL A   1      51.130  46.481  28.032  1.00  0.00    +0.000 C 
ATOM     82  C58 UNL A   1      52.245  45.638  28.136  1.00  0.00    +0.000 C 
ATOM     83  F11 UNL A   1      52.611  44.884  27.088  1.00  0.00    +0.000 F 
ATOM     84  C59 UNL A   1      52.960  45.532  29.326  1.00  0.00    +0.000 C 
ATOM     85  F12 UNL A   1      53.992  44.682  29.411  1.00  0.00    +0.000 F 
ATOM     86  C60 UNL A   1      52.593  46.290  30.427  1.00  0.00    +0.000 C 
ATOM     87  F13 UNL A   1      53.280  46.187  31.573  1.00  0.00    +0.000 F 
ATOM     88  C61 UNL A   1      51.506  47.147  30.343  1.00  0.00    +0.000 C 
ATOM     89  F14 UNL A   1      51.157  47.892  31.401  1.00  0.00    +0.000 F 
ATOM     90  C62 UNL A   1      50.775  47.235  29.160  1.00  0.00    +0.000 C 
ATOM     91  F15 UNL A   1      49.721  48.062  29.110  1.00  0.00    +0.000 F 
ENDBRANCH   80   81
TORSDOF 33
ENDMDL
MODEL 2
REMARK VINA RESULT:      -4.6     36.310     38.642
ROOT
ATOM    149  H47 UNL A   1      15.292  47.090  -0.061  1.00  0.00    +0.000 H 
ATOM    150  H48 UNL A   1      13.643  46.763   1.933  1.00  0.00    +0.000 H 
ATOM    151  H49 UNL A   1      15.158  50.613   2.115  1.00  0.00    +0.000 H 
ATOM    152  H50 UNL A   1      15.505  56.266   5.074  1.00  0.00    +0.000 H 
ATOM    153  H51 UNL A   1      17.110  56.581   3.128  1.00  0.00    +0.000 H 
ATOM    154  H52 UNL A   1      15.576  52.724   2.900  1.00  0.00    +0.000 H 
ATOM    155  H53 UNL A   1      12.390  52.253   6.748  1.00  0.00    +0.000 H 
ATOM    156  H54 UNL A   1      12.109  49.809   6.043  1.00  0.00    +0.000 H 
ATOM    157  H55 UNL A   1      18.185  51.258  -1.818  1.00  0.00    +0.000 H 
ATOM    158  H56 UNL A   1      18.879  53.524  -0.849  1.00  0.00    +0.000 H 
ATOM     44  C33 UNL A   1      17.396  54.283   1.463  1.00  0.00    +0.000 C 
ATOM     45  C34 UNL A   1      17.332  52.980   0.719  1.00  0.00    +0.000 C 
ATOM     46  N6  UNL A   1      16.601  51.921   0.962  1.00  0.00    +0.000 N 
ATOM     47  C35 UNL A   1      16.900  51.015  -0.047  1.00  0.00    +0.000 C 
ATOM     48  C36 UNL A   1      16.456  49.745  -0.201  1.00  0.00    +0.000 C 
ATOM     60  C43 UNL A   1      15.543  49.093   0.699  1.00  0.00    +0.000 C 
ATOM     61  C44 UNL A   1      15.054  47.800   0.649  1.00  0.00    +0.000 C 
ATOM     62  C45 UNL A   1      14.180  47.622   1.727  1.00  0.00    +0.000 C 
ATOM     63  C46 UNL A   1      14.155  48.790   2.470  1.00  0.00    +0.000 C 
ATOM     64  N7  UNL A   1      14.987  49.688   1.823  1.00  0.00    +0.000 N 
ATOM     65  C47 UNL A   1      13.432  49.066   3.683  1.00  0.00    +0.000 C 
ATOM     77  C54 UNL A   1      13.435  50.250   4.343  1.00  0.00    +0.000 C 
ATOM     78  N8  UNL A   1      14.114  51.421   4.033  1.00  0.00    +0.000 N 
ATOM     79  C55 UNL A   1      13.784  52.285   4.962  1.00  0.00    +0.000 C 
ATOM     80  C56 UNL A   1      14.249  53.704   5.147  1.00  0.00    +0.000 C 
ATOM     92  C63 UNL A   1      15.156  54.213   4.293  1.00  0.00    +0.000 C 
ATOM     93  C64 UNL A   1      15.724  55.556   4.357  1.00  0.00    +0.000 C 
ATOM     94  C65 UNL A   1      16.578  55.720   3.333  1.00  0.00    +0.000 C 
ATOM     95  C66 UNL A   1      16.635  54.482   2.554  1.00  0.00    +0.000 C 
ATOM     96  N9  UNL A   1      15.757  53.645   3.196  1.00  0.00    +0.000 N 
ATOM     97  C67 UNL A   1      12.830  51.767   5.952  1.00  0.00    +0.000 C 
ATOM     98  C68 UNL A   1      12.685  50.511   5.554  1.00  0.00    +0.000 C 
ATOM     99  C69 UNL A   1      17.836  51.667  -0.937  1.00  0.00    +0.000 C 
ATOM    100  C70 UNL A   1      18.187  52.856  -0.472  1.00  0.00    +0.000 C 
ENDROOT
BRANCH   44   43
ATOM    101  C71 UNL A   1      19.542  55.558   1.535  1.00  0.00    +0.000 C 
ATOM    102  C72 UNL A   1      20.347  56.615   1.121  1.00  0.00    +0.000 C 
ATOM     40  C29 UNL A   1      19.927  57.438   0.071  1.00  0.00    +0.000 C 
ATOM     41  C30 UNL A   1      18.663  57.268  -0.497  1.00  0.00    +0.000 C 
ATOM     42  C31 UNL A   1      17.831  56.247  -0.038  1.00  0.00    +0.000 C 
ATOM     43  C32 UNL A   1      18.273  55.373   0.968  1.00  0.00    +0.000 C 
ATOM    147  H45 UNL A   1      18.346  57.896  -1.253  1.00  0.00    +0.000 H 
ATOM    148  H46 UNL A   1      16.887  56.134  -0.440  1.00  0.00    +0.000 H 
ATOM    159  H57 UNL A   1      19.882  54.907   2.260  1.00  0.00    +0.000 H 
ATOM    160  H58 UNL A   1      21.251  56.792   1.587  1.00  0.00    +0.000 H 
BRANCH   40   38
ATOM     38  C28 UNL A   1      20.799  58.508  -0.458  1.00  0.00    +0.000 C 
ATOM     39  O6  UNL A   1      20.816  59.608   0.084  1.00  0.00    +0.000 O 
BRANCH   38   37
ATOM    146  H44 UNL A   1      21.371  58.852  -2.348  1.00  0.00    +0.000 H 
ATOM     37  N5  UNL A   1      21.558  58.271  -1.576  1.00  0.00    +0.000 N 
BRANCH   37   36
ATOM    145  H43 UNL A   1      22.297  56.653  -2.582  1.00  0.00    +0.000 H 
ATOM     36  C27 UNL A   1      22.599  57.282  -1.771  1.00  0.00    +0.000 C 
ATOM    144  H42 UNL A   1      22.718  56.728  -0.863  1.00  0.00    +0.000 H 
BRANCH   36   35
ATOM     35  C26 UNL A   1      23.938  57.902  -2.144  1.00  0.00    +0.000 C 
ATOM    142  H40 UNL A   1      23.831  58.966  -2.108  1.00  0.00    +0.000 H 
ATOM    143  H41 UNL A   1      24.648  57.519  -1.442  1.00  0.00    +0.000 H 
BRANCH   35   34
ATOM     34  C25 UNL A   1      24.471  57.527  -3.530  1.00  0.00    +0.000 C 
ATOM    140  H38 UNL A   1      23.752  57.846  -4.255  1.00  0.00    +0.000 H 
ATOM    141  H39 UNL A   1      25.420  58.011  -3.617  1.00  0.00    +0.000 H 
BRANCH   34   33
ATOM     33  C24 UNL A   1      24.740  56.036  -3.758  1.00  0.00    +0.000 C 
ATOM    138  H36 UNL A   1      25.503  55.731  -3.073  1.00  0.00    +0.000 H 
ATOM    139  H37 UNL A   1      23.803  55.542  -3.608  1.00  0.00    +0.000 H 
BRANCH   33   32
ATOM    137  H35 UNL A   1      25.482  56.564  -5.654  1.00  0.00    +0.000 H 
ATOM    136  H34 UNL A   1      24.382  55.159  -5.659  1.00  0.00    +0.000 H 
ATOM     32  C23 UNL A   1      25.193  55.654  -5.169  1.00  0.00    +0.000 C 
BRANCH   32   31
ATOM    135  H33 UNL A   1      26.120  53.824  -5.693  1.00  0.00    +0.000 H 
ATOM    134  H32 UNL A   1      26.739  54.552  -4.213  1.00  0.00    +0.000 H 
ATOM     31  C22 UNL A   1      26.406  54.736  -5.213  1.00  0.00    +0.000 C 
BRANCH   31   30
ATOM    133  H31 UNL A   1      28.163  55.814  -5.442  1.00  0.00    +0.000 H 
ATOM     30  N4  UNL A   1      27.490  55.323  -5.968  1.00  0.00    +0.000 N 
BRANCH   30   28
ATOM     28  C21 UNL A   1      27.698  55.282  -7.313  1.00  0.00    +0.000 C 
ATOM     29  O5  UNL A   1      27.642  56.341  -7.944  1.00  0.00    +0.000 O 
BRANCH   28    5
ATOM      5  C5  UNL A   1      27.927  53.944  -8.042  1.00  0.00    +0.000 C 
ATOM    112  H10 UNL A   1      27.673  53.177  -7.340  1.00  0.00    +0.000 H 
BRANCH    5    4
ATOM      4  C4  UNL A   1      29.392  53.641  -8.377  1.00  0.00    +0.000 C 
ATOM    110  H8  UNL A   1      29.858  53.266  -7.490  1.00  0.00    +0.000 H 
ATOM    111  H9  UNL A   1      29.361  52.946  -9.189  1.00  0.00    +0.000 H 
BRANCH    4    2
ATOM      2  C2  UNL A   1      30.240  54.834  -8.888  1.00  0.00    +0.000 C 
ATOM    106  H4  UNL A   1      29.841  55.689  -8.384  1.00  0.00    +0.000 H 
BRANCH    2    1
ATOM      1  C1  UNL A   1      31.729  54.794  -8.535  1.00  0.00    +0.000 C 
ATOM    105  H3  UNL A   1      32.146  53.860  -8.851  1.00  0.00    +0.000 H 
ATOM    103  H1  UNL A   1      31.848  54.897  -7.476  1.00  0.00    +0.000 H 
ATOM    104  H2  UNL A   1      32.236  55.596  -9.031  1.00  0.00    +0.000 H 
ENDBRANCH    2    1
BRANCH    2    3
ATOM      3  C3  UNL A   1      30.116  54.924 -10.413  1.00  0.00    +0.000 C 
ATOM    108  H6  UNL A   1      29.278  55.540 -10.667  1.00  0.00    +0.000 H 
ATOM    109  H7  UNL A   1      29.972  53.943 -10.817  1.00  0.00    +0.000 H 
ATOM    107  H5  UNL A   1      31.009  55.350 -10.819  1.00  0.00    +0.000 H 
ENDBRANCH    2    3
ENDBRANCH    4    2
ENDBRANCH    5    4
BRANCH    5    6
ATOM    113  H11 UNL A   1      27.438  53.996 -10.066  1.00  0.00    +0.000 H 
ATOM      6  N1  UNL A   1      27.028  53.811  -9.189  1.00  0.00    +0.000 N 
BRANCH    6    7
ATOM      7  C6  UNL A   1      25.710  53.471  -9.230  1.00  0.00    +0.000 C 
ATOM      8  O1  UNL A   1      24.913  54.387  -9.466  1.00  0.00    +0.000 O 
BRANCH    7    9
ATOM      9  C7  UNL A   1      25.179  52.052  -8.957  1.00  0.00    +0.000 C 
ATOM    114  H12 UNL A   1      24.344  52.148  -8.294  1.00  0.00    +0.000 H 
ATOM    115  H13 UNL A   1      26.025  51.524  -8.568  1.00  0.00    +0.000 H 
BRANCH    9   10
ATOM     10  N2  UNL A   1      24.744  51.256 -10.083  1.00  0.00    +0.000 N 
ATOM    116  H14 UNL A   1      23.840  50.881  -9.968  1.00  0.00    +0.000 H 
BRANCH   10   11
ATOM     11  C8  UNL A   1      25.317  50.916 -11.262  1.00  0.00    +0.000 C 
ATOM     12  O2  UNL A   1      25.099  51.712 -12.187  1.00  0.00    +0.000 O 
BRANCH   11   13
ATOM    117  H15 UNL A   1      27.129  49.918 -11.754  1.00  0.00    +0.000 H 
ATOM     13  C9  UNL A   1      26.127  49.608 -11.543  1.00  0.00    +0.000 C 
BRANCH   13   14
ATOM    118  H16 UNL A   1      25.532  48.488  -9.904  1.00  0.00    +0.000 H 
ATOM     14  N3  UNL A   1      26.357  48.758 -10.367  1.00  0.00    +0.000 N 
BRANCH   14   15
ATOM     15  C10 UNL A   1      27.488  48.273  -9.799  1.00  0.00    +0.000 C 
ATOM     16  O3  UNL A   1      27.428  47.381  -8.964  1.00  0.00    +0.000 O 
BRANCH   15   17
ATOM     17  O4  UNL A   1      28.614  48.908 -10.182  1.00  0.00    +0.000 O 
BRANCH   17   18
ATOM     18  C11 UNL A   1      29.487  49.286  -9.108  1.00  0.00    +0.000 C 
ATOM    119  H17 UNL A   1      29.361  48.588  -8.307  1.00  0.00    +0.000 H 
ATOM    120  H18 UNL A   1      29.221  50.285  -8.827  1.00  0.00    +0.000 H 
BRANCH   18   19
ATOM     19  C12 UNL A   1      30.957  49.312  -9.492  1.00  0.00    +0.000 C 
ATOM     20  C13 UNL A   1      31.581  50.546  -9.731  1.00  0.00    +0.000 C 
ATOM     21  C14 UNL A   1      32.907  50.607 -10.169  1.00  0.00    +0.000 C 
ATOM     22  C15 UNL A   1      33.630  49.436 -10.384  1.00  0.00    +0.000 C 
ATOM     23  C16 UNL A   1      33.030  48.205 -10.157  1.00  0.00    +0.000 C 
ATOM     24  C17 UNL A   1      31.706  48.145  -9.718  1.00  0.00    +0.000 C 
ATOM    121  H19 UNL A   1      31.052  51.421  -9.582  1.00  0.00    +0.000 H 
ATOM    122  H20 UNL A   1      33.352  51.523 -10.335  1.00  0.00    +0.000 H 
ATOM    123  H21 UNL A   1      34.608  49.484 -10.710  1.00  0.00    +0.000 H 
ATOM    124  H22 UNL A   1      33.561  47.334 -10.313  1.00  0.00    +0.000 H 
ATOM    125  H23 UNL A   1      31.268  47.224  -9.556  1.00  0.00    +0.000 H 
ENDBRANCH   18   19
ENDBRANCH   17   18
ENDBRANCH   15   17
ENDBRANCH   14   15
ENDBRANCH   13   14
BRANCH   13   25
ATOM     25  C18 UNL A   1      25.697  48.904 -12.850  1.00  0.00    +0.000 C 
ATOM    126  H24 UNL A   1      25.021  49.572 -13.341  1.00  0.00    +0.000 H 
BRANCH   25   26
ATOM    129  H27 UNL A   1      27.582  49.439 -13.729  1.00  0.00    +0.000 H 
ATOM     26  C19 UNL A   1      26.901  48.614 -13.763  1.00  0.00    +0.000 C 
ATOM    127  H25 UNL A   1      26.560  48.475 -14.768  1.00  0.00    +0.000 H 
ATOM    128  H26 UNL A   1      27.397  47.727 -13.429  1.00  0.00    +0.000 H 
ENDBRANCH   25   26
BRANCH   25   27
ATOM    130  H28 UNL A   1      24.485  47.229 -13.421  1.00  0.00    +0.000 H 
ATOM     27  C20 UNL A   1      25.014  47.561 -12.551  1.00  0.00    +0.000 C 
ATOM    132  H30 UNL A   1      25.753  46.836 -12.285  1.00  0.00    +0.000 H 
ATOM    131  H29 UNL A   1      24.325  47.684 -11.742  1.00  0.00    +0.000 H 
ENDBRANCH   25   27
ENDBRANCH   13   25
ENDBRANCH   11   13
ENDBRANCH   10   11
ENDBRANCH    9   10
ENDBRANCH    7    9
ENDBRANCH    6    7
ENDBRANCH    5    6
ENDBRANCH   28    5
ENDBRANCH   30   28
ENDBRANCH   31   30
ENDBRANCH   32   31
ENDBRANCH   33   32
ENDBRANCH   34   33
ENDBRANCH   35   34
ENDBRANCH   36   35
ENDBRANCH   37   36
ENDBRANCH   38   37
ENDBRANCH   40   38
ENDBRANCH   44   43
BRANCH   48   49
ATOM     49  C37 UNL A   1      16.966  48.976  -1.383  1.00  0.00    +0.000 C 
ATOM     50  C38 UNL A   1      16.310  49.024  -2.624  1.00  0.00    +0.000 C 
ATOM     51  F1  UNL A   1      15.182  49.736  -2.764  1.00  0.00    +0.000 F 
ATOM     52  C39 UNL A   1      16.789  48.305  -3.716  1.00  0.00    +0.000 C 
ATOM     53  F2  UNL A   1      16.120  48.329  -4.877  1.00  0.00    +0.000 F 
ATOM     54  C40 UNL A   1      17.949  47.554  -3.600  1.00  0.00    +0.000 C 
ATOM     55  F3  UNL A   1      18.412  46.867  -4.654  1.00  0.00    +0.000 F 
ATOM     56  C41 UNL A   1      18.624  47.509  -2.389  1.00  0.00    +0.000 C 
ATOM     57  F4  UNL A   1      19.752  46.791  -2.279  1.00  0.00    +0.000 F 
ATOM     58  C42 UNL A   1      18.132  48.204  -1.287  1.00  0.00    +0.000 C 
ATOM     59  F5  UNL A   1      18.799  48.126  -0.125  1.00  0.00    +0.000 F 
ENDBRANCH   48   49
BRANCH   65   66
ATOM     66  C48 UNL A   1      12.623  47.953   4.282  1.00  0.00    +0.000 C 
ATOM     67  C49 UNL A   1      13.089  47.214   5.378  1.00  0.00    +0.000 C 
ATOM     68  F6  UNL A   1      14.304  47.459   5.891  1.00  0.00    +0.000 F 
ATOM     69  C50 UNL A   1      12.322  46.188   5.925  1.00  0.00    +0.000 C 
ATOM     70  F7  UNL A   1      12.805  45.462   6.942  1.00  0.00    +0.000 F 
ATOM     71  C51 UNL A   1      11.065  45.907   5.408  1.00  0.00    +0.000 C 
ATOM     72  F8  UNL A   1      10.327  44.922   5.937  1.00  0.00    +0.000 F 
ATOM     73  C52 UNL A   1      10.576  46.641   4.337  1.00  0.00    +0.000 C 
ATOM     74  F9  UNL A   1       9.359  46.377   3.844  1.00  0.00    +0.000 F 
ATOM     75  C53 UNL A   1      11.352  47.649   3.771  1.00  0.00    +0.000 C 
ATOM     76  F10 UNL A   1      10.861  48.333   2.727  1.00  0.00    +0.000 F 
ENDBRANCH   65   66
BRANCH   80   81
ATOM     81  C57 UNL A   1      13.746  54.528   6.276  1.00  0.00    +0.000 C 
ATOM     82  C58 UNL A   1      12.747  55.491   6.075  1.00  0.00    +0.000 C 
ATOM     83  F11 UNL A   1      12.240  55.682   4.848  1.00  0.00    +0.000 F 
ATOM     84  C59 UNL A   1      12.296  56.290   7.123  1.00  0.00    +0.000 C 
ATOM     85  F12 UNL A   1      11.374  57.235   6.893  1.00  0.00    +0.000 F 
ATOM     86  C60 UNL A   1      12.814  56.121   8.398  1.00  0.00    +0.000 C 
ATOM     87  F13 UNL A   1      12.381  56.891   9.406  1.00  0.00    +0.000 F 
ATOM     88  C61 UNL A   1      13.788  55.161   8.625  1.00  0.00    +0.000 C 
ATOM     89  F14 UNL A   1      14.281  54.986   9.859  1.00  0.00    +0.000 F 
ATOM     90  C62 UNL A   1      14.257  54.378   7.572  1.00  0.00    +0.000 C 
ATOM     91  F15 UNL A   1      15.209  53.467   7.817  1.00  0.00    +0.000 F 
ENDBRANCH   80   81
TORSDOF 33
ENDMDL
MODEL 3
REMARK VINA RESULT:      -4.5     34.759     41.806
ROOT
ATOM    149  H47 UNL A   1      41.503  14.127  49.251  1.00  0.00    +0.000 H 
ATOM    150  H48 UNL A   1      42.470  12.880  47.175  1.00  0.00    +0.000 H 
ATOM    151  H49 UNL A   1      44.222  16.627  47.375  1.00  0.00    +0.000 H 
ATOM    152  H50 UNL A   1      48.179  21.000  44.916  1.00  0.00    +0.000 H 
ATOM    153  H51 UNL A   1      47.237  22.211  46.942  1.00  0.00    +0.000 H 
ATOM    154  H52 UNL A   1      45.490  18.441  46.787  1.00  0.00    +0.000 H 
ATOM    155  H53 UNL A   1      47.475  16.141  42.792  1.00  0.00    +0.000 H 
ATOM    156  H54 UNL A   1      45.873  14.205  43.278  1.00  0.00    +0.000 H 
ATOM    157  H55 UNL A   1      42.470  18.924  51.462  1.00  0.00    +0.000 H 
ATOM    158  H56 UNL A   1      43.667  21.059  50.713  1.00  0.00    +0.000 H 
ATOM     44  C33 UNL A   1      45.317  20.703  48.419  1.00  0.00    +0.000 C 
ATOM     45  C34 UNL A   1      44.391  19.701  49.047  1.00  0.00    +0.000 C 
ATOM     46  N6  UNL A   1      44.136  18.468  48.688  1.00  0.00    +0.000 N 
ATOM     47  C35 UNL A   1      43.239  17.979  49.628  1.00  0.00    +0.000 C 
ATOM     48  C36 UNL A   1      42.620  16.775  49.658  1.00  0.00    +0.000 C 
ATOM     60  C43 UNL A   1      42.807  15.745  48.672  1.00  0.00    +0.000 C 
ATOM     61  C44 UNL A   1      42.206  14.501  48.595  1.00  0.00    +0.000 C 
ATOM     62  C45 UNL A   1      42.715  13.838  47.473  1.00  0.00    +0.000 C 
ATOM     63  C46 UNL A   1      43.604  14.683  46.830  1.00  0.00    +0.000 C 
ATOM     64  N7  UNL A   1      43.660  15.845  47.582  1.00  0.00    +0.000 N 
ATOM     65  C47 UNL A   1      44.344  14.452  45.618  1.00  0.00    +0.000 C 
ATOM     77  C54 UNL A   1      45.222  15.322  45.060  1.00  0.00    +0.000 C 
ATOM     78  N8  UNL A   1      45.592  16.587  45.493  1.00  0.00    +0.000 N 
ATOM     79  C55 UNL A   1      46.477  17.019  44.628  1.00  0.00    +0.000 C 
ATOM     80  C56 UNL A   1      47.191  18.343  44.580  1.00  0.00    +0.000 C 
ATOM     92  C63 UNL A   1      46.906  19.275  45.508  1.00  0.00    +0.000 C 
ATOM     93  C64 UNL A   1      47.490  20.611  45.579  1.00  0.00    +0.000 C 
ATOM     94  C65 UNL A   1      46.985  21.254  46.645  1.00  0.00    +0.000 C 
ATOM     95  C66 UNL A   1      46.022  20.382  47.319  1.00  0.00    +0.000 C 
ATOM     96  N9  UNL A   1      46.043  19.228  46.576  1.00  0.00    +0.000 N 
ATOM     97  C67 UNL A   1      46.792  16.059  43.562  1.00  0.00    +0.000 C 
ATOM     98  C68 UNL A   1      45.969  15.060  43.847  1.00  0.00    +0.000 C 
ATOM     99  C69 UNL A   1      43.037  19.026  50.605  1.00  0.00    +0.000 C 
ATOM    100  C70 UNL A   1      43.673  20.134  50.256  1.00  0.00    +0.000 C 
ENDROOT
BRANCH   44   43
ATOM    101  C71 UNL A   1      44.631  23.091  48.670  1.00  0.00    +0.000 C 
ATOM    102  C72 UNL A   1      44.821  24.365  49.197  1.00  0.00    +0.000 C 
ATOM     40  C29 UNL A   1      45.807  24.577  50.166  1.00  0.00    +0.000 C 
ATOM     41  C30 UNL A   1      46.668  23.541  50.534  1.00  0.00    +0.000 C 
ATOM     42  C31 UNL A   1      46.518  22.280  49.958  1.00  0.00    +0.000 C 
ATOM     43  C32 UNL A   1      45.486  22.041  49.036  1.00  0.00    +0.000 C 
ATOM    147  H45 UNL A   1      47.413  23.709  51.229  1.00  0.00    +0.000 H 
ATOM    148  H46 UNL A   1      47.168  21.519  50.211  1.00  0.00    +0.000 H 
ATOM    159  H57 UNL A   1      43.858  22.918  48.009  1.00  0.00    +0.000 H 
ATOM    160  H58 UNL A   1      44.236  25.152  48.874  1.00  0.00    +0.000 H 
BRANCH   40   38
ATOM     38  C28 UNL A   1      45.969  25.893  50.817  1.00  0.00    +0.000 C 
ATOM     39  O6  UNL A   1      45.490  26.896  50.298  1.00  0.00    +0.000 O 
BRANCH   38   37
ATOM    146  H44 UNL A   1      47.656  26.122  51.875  1.00  0.00    +0.000 H 
ATOM     37  N5  UNL A   1      46.687  25.989  51.982  1.00  0.00    +0.000 N 
BRANCH   37   36
ATOM    145  H43 UNL A   1      46.232  26.912  53.748  1.00  0.00    +0.000 H 
ATOM     36  C27 UNL A   1      46.209  25.919  53.348  1.00  0.00    +0.000 C 
ATOM    144  H42 UNL A   1      46.841  25.255  53.898  1.00  0.00    +0.000 H 
BRANCH   36   35
ATOM     35  C26 UNL A   1      44.774  25.419  53.445  1.00  0.00    +0.000 C 
ATOM    142  H40 UNL A   1      44.214  26.130  54.016  1.00  0.00    +0.000 H 
ATOM    143  H41 UNL A   1      44.429  25.311  52.439  1.00  0.00    +0.000 H 
BRANCH   35   34
ATOM     34  C25 UNL A   1      44.601  24.046  54.101  1.00  0.00    +0.000 C 
ATOM    140  H38 UNL A   1      45.522  23.794  54.582  1.00  0.00    +0.000 H 
ATOM    141  H39 UNL A   1      43.773  24.146  54.770  1.00  0.00    +0.000 H 
BRANCH   34   33
ATOM     33  C24 UNL A   1      44.235  22.898  53.153  1.00  0.00    +0.000 C 
ATOM    138  H36 UNL A   1      45.065  22.736  52.497  1.00  0.00    +0.000 H 
ATOM    139  H37 UNL A   1      44.011  22.062  53.780  1.00  0.00    +0.000 H 
BRANCH   33   32
ATOM    137  H35 UNL A   1      43.263  22.870  51.289  1.00  0.00    +0.000 H 
ATOM    136  H34 UNL A   1      42.690  24.145  52.397  1.00  0.00    +0.000 H 
ATOM     32  C23 UNL A   1      42.990  23.124  52.292  1.00  0.00    +0.000 C 
BRANCH   32   31
ATOM    135  H33 UNL A   1      41.361  22.626  53.549  1.00  0.00    +0.000 H 
ATOM    134  H32 UNL A   1      42.152  21.239  52.804  1.00  0.00    +0.000 H 
ATOM     31  C22 UNL A   1      41.806  22.241  52.656  1.00  0.00    +0.000 C 
BRANCH   31   30
ATOM    133  H31 UNL A   1      40.966  21.629  50.860  1.00  0.00    +0.000 H 
ATOM     30  N4  UNL A   1      40.803  22.241  51.615  1.00  0.00    +0.000 N 
BRANCH   30   28
ATOM     28  C21 UNL A   1      39.661  22.980  51.547  1.00  0.00    +0.000 C 
ATOM     29  O5  UNL A   1      39.749  24.157  51.188  1.00  0.00    +0.000 O 
BRANCH   28    5
ATOM      5  C5  UNL A   1      38.304  22.388  51.972  1.00  0.00    +0.000 C 
ATOM    112  H10 UNL A   1      38.512  21.407  52.347  1.00  0.00    +0.000 H 
BRANCH    5    4
ATOM      4  C4  UNL A   1      37.332  22.122  50.817  1.00  0.00    +0.000 C 
ATOM    110  H8  UNL A   1      36.364  22.459  51.123  1.00  0.00    +0.000 H 
ATOM    111  H9  UNL A   1      37.737  22.644  49.977  1.00  0.00    +0.000 H 
BRANCH    4    2
ATOM      2  C2  UNL A   1      37.195  20.647  50.360  1.00  0.00    +0.000 C 
ATOM    106  H4  UNL A   1      36.464  20.668  49.580  1.00  0.00    +0.000 H 
BRANCH    2    1
ATOM      1  C1  UNL A   1      38.450  20.020  49.745  1.00  0.00    +0.000 C 
ATOM    105  H3  UNL A   1      38.170  19.188  49.133  1.00  0.00    +0.000 H 
ATOM    103  H1  UNL A   1      39.101  19.686  50.525  1.00  0.00    +0.000 H 
ATOM    104  H2  UNL A   1      38.956  20.749  49.146  1.00  0.00    +0.000 H 
ENDBRANCH    2    1
BRANCH    2    3
ATOM      3  C3  UNL A   1      36.772  19.787  51.556  1.00  0.00    +0.000 C 
ATOM    108  H6  UNL A   1      36.923  18.753  51.323  1.00  0.00    +0.000 H 
ATOM    109  H7  UNL A   1      35.737  19.957  51.769  1.00  0.00    +0.000 H 
ATOM    107  H5  UNL A   1      37.360  20.049  52.410  1.00  0.00    +0.000 H 
ENDBRANCH    2    3
ENDBRANCH    4    2
ENDBRANCH    5    4
BRANCH    5    6
ATOM    113  H11 UNL A   1      37.952  24.118  53.076  1.00  0.00    +0.000 H 
ATOM      6  N1  UNL A   1      37.712  23.163  53.064  1.00  0.00    +0.000 N 
BRANCH    6    7
ATOM      7  C6  UNL A   1      36.881  22.764  54.067  1.00  0.00    +0.000 C 
ATOM      8  O1  UNL A   1      35.672  22.751  53.806  1.00  0.00    +0.000 O 
BRANCH    7    9
ATOM      9  C7  UNL A   1      37.359  22.387  55.481  1.00  0.00    +0.000 C 
ATOM    114  H12 UNL A   1      36.950  23.110  56.157  1.00  0.00    +0.000 H 
ATOM    115  H13 UNL A   1      38.426  22.371  55.404  1.00  0.00    +0.000 H 
BRANCH    9   10
ATOM     10  N2  UNL A   1      37.015  21.079  55.992  1.00  0.00    +0.000 N 
ATOM    116  H14 UNL A   1      37.691  20.714  56.610  1.00  0.00    +0.000 H 
BRANCH   10   11
ATOM     11  C8  UNL A   1      35.962  20.249  55.801  1.00  0.00    +0.000 C 
ATOM     12  O2  UNL A   1      36.050  19.532  54.794  1.00  0.00    +0.000 O 
BRANCH   11   13
ATOM    117  H15 UNL A   1      33.848  20.137  55.993  1.00  0.00    +0.000 H 
ATOM     13  C9  UNL A   1      34.668  20.195  56.677  1.00  0.00    +0.000 C 
BRANCH   13   14
ATOM    118  H16 UNL A   1      33.565  18.581  57.364  1.00  0.00    +0.000 H 
ATOM     14  N3  UNL A   1      34.477  18.944  57.423  1.00  0.00    +0.000 N 
BRANCH   14   15
ATOM     15  C10 UNL A   1      35.317  18.193  58.176  1.00  0.00    +0.000 C 
ATOM     16  O3  UNL A   1      35.317  18.299  59.395  1.00  0.00    +0.000 O 
BRANCH   15   17
ATOM     17  O4  UNL A   1      36.158  17.421  57.460  1.00  0.00    +0.000 O 
BRANCH   17   18
ATOM     18  C11 UNL A   1      36.801  16.376  58.206  1.00  0.00    +0.000 C 
ATOM    119  H17 UNL A   1      36.098  15.983  58.910  1.00  0.00    +0.000 H 
ATOM    120  H18 UNL A   1      37.656  16.813  58.680  1.00  0.00    +0.000 H 
BRANCH   18   19
ATOM     19  C12 UNL A   1      37.310  15.232  57.346  1.00  0.00    +0.000 C 
ATOM     20  C13 UNL A   1      38.627  14.781  57.515  1.00  0.00    +0.000 C 
ATOM     21  C14 UNL A   1      39.159  13.789  56.686  1.00  0.00    +0.000 C 
ATOM     22  C15 UNL A   1      38.385  13.236  55.669  1.00  0.00    +0.000 C 
ATOM     23  C16 UNL A   1      37.080  13.671  55.482  1.00  0.00    +0.000 C 
ATOM     24  C17 UNL A   1      36.550  14.661  56.311  1.00  0.00    +0.000 C 
ATOM    121  H19 UNL A   1      39.212  15.189  58.262  1.00  0.00    +0.000 H 
ATOM    122  H20 UNL A   1      40.128  13.465  56.829  1.00  0.00    +0.000 H 
ATOM    123  H21 UNL A   1      38.781  12.505  55.056  1.00  0.00    +0.000 H 
ATOM    124  H22 UNL A   1      36.502  13.264  54.730  1.00  0.00    +0.000 H 
ATOM    125  H23 UNL A   1      35.580  14.980  56.161  1.00  0.00    +0.000 H 
ENDBRANCH   18   19
ENDBRANCH   17   18
ENDBRANCH   15   17
ENDBRANCH   14   15
ENDBRANCH   13   14
BRANCH   13   25
ATOM     25  C18 UNL A   1      34.398  21.516  57.432  1.00  0.00    +0.000 C 
ATOM    126  H24 UNL A   1      35.357  21.909  57.700  1.00  0.00    +0.000 H 
BRANCH   25   26
ATOM    129  H27 UNL A   1      32.591  22.405  56.690  1.00  0.00    +0.000 H 
ATOM     26  C19 UNL A   1      33.645  22.531  56.554  1.00  0.00    +0.000 C 
ATOM    127  H25 UNL A   1      33.894  22.367  55.527  1.00  0.00    +0.000 H 
ATOM    128  H26 UNL A   1      33.925  23.524  56.835  1.00  0.00    +0.000 H 
ENDBRANCH   25   26
BRANCH   25   27
ATOM    130  H28 UNL A   1      34.065  20.610  59.348  1.00  0.00    +0.000 H 
ATOM     27  C20 UNL A   1      33.543  21.269  58.684  1.00  0.00    +0.000 C 
ATOM    132  H30 UNL A   1      33.356  22.198  59.178  1.00  0.00    +0.000 H 
ATOM    131  H29 UNL A   1      32.614  20.823  58.398  1.00  0.00    +0.000 H 
ENDBRANCH   25   27
ENDBRANCH   13   25
ENDBRANCH   11   13
ENDBRANCH   10   11
ENDBRANCH    9   10
ENDBRANCH    7    9
ENDBRANCH    6    7
ENDBRANCH    5    6
ENDBRANCH   28    5
ENDBRANCH   30   28
ENDBRANCH   31   30
ENDBRANCH   32   31
ENDBRANCH   33   32
ENDBRANCH   34   33
ENDBRANCH   35   34
ENDBRANCH   36   35
ENDBRANCH   37   36
ENDBRANCH   38   37
ENDBRANCH   40   38
ENDBRANCH   44   43
BRANCH   48   49
ATOM     49  C37 UNL A   1      41.671  16.517  50.791  1.00  0.00    +0.000 C 
ATOM     50  C38 UNL A   1      42.130  16.076  52.043  1.00  0.00    +0.000 C 
ATOM     51  F1  UNL A   1      43.436  15.839  52.237  1.00  0.00    +0.000 F 
ATOM     52  C39 UNL A   1      41.242  15.836  53.087  1.00  0.00    +0.000 C 
ATOM     53  F2  UNL A   1      41.698  15.371  54.258  1.00  0.00    +0.000 F 
ATOM     54  C40 UNL A   1      39.885  16.066  52.914  1.00  0.00    +0.000 C 
ATOM     55  F3  UNL A   1      39.032  15.840  53.923  1.00  0.00    +0.000 F 
ATOM     56  C41 UNL A   1      39.412  16.521  51.693  1.00  0.00    +0.000 C 
ATOM     57  F4  UNL A   1      38.102  16.752  51.527  1.00  0.00    +0.000 F 
ATOM     58  C42 UNL A   1      40.294  16.734  50.636  1.00  0.00    +0.000 C 
ATOM     59  F5  UNL A   1      39.804  17.158  49.461  1.00  0.00    +0.000 F 
ENDBRANCH   48   49
BRANCH   65   66
ATOM     66  C48 UNL A   1      44.115  13.157  44.896  1.00  0.00    +0.000 C 
ATOM     67  C49 UNL A   1      43.032  12.982  44.024  1.00  0.00    +0.000 C 
ATOM     68  F6  UNL A   1      42.139  13.969  43.849  1.00  0.00    +0.000 F 
ATOM     69  C50 UNL A   1      42.839  11.775  43.358  1.00  0.00    +0.000 C 
ATOM     70  F7  UNL A   1      41.771  11.612  42.565  1.00  0.00    +0.000 F 
ATOM     71  C51 UNL A   1      43.741  10.734  43.528  1.00  0.00    +0.000 C 
ATOM     72  F8  UNL A   1      43.555   9.573  42.885  1.00  0.00    +0.000 F 
ATOM     73  C52 UNL A   1      44.831  10.893  44.371  1.00  0.00    +0.000 C 
ATOM     74  F9  UNL A   1      45.708   9.893  44.527  1.00  0.00    +0.000 F 
ATOM     75  C53 UNL A   1      45.012  12.090  45.058  1.00  0.00    +0.000 C 
ATOM     76  F10 UNL A   1      46.067  12.211  45.878  1.00  0.00    +0.000 F 
ENDBRANCH   65   66
BRANCH   80   81
ATOM     81  C57 UNL A   1      48.174  18.639  43.506  1.00  0.00    +0.000 C 
ATOM     82  C58 UNL A   1      49.551  18.611  43.763  1.00  0.00    +0.000 C 
ATOM     83  F11 UNL A   1      49.995  18.321  44.995  1.00  0.00    +0.000 F 
ATOM     84  C59 UNL A   1      50.476  18.921  42.768  1.00  0.00    +0.000 C 
ATOM     85  F12 UNL A   1      51.785  18.932  43.053  1.00  0.00    +0.000 F 
ATOM     86  C60 UNL A   1      50.041  19.237  41.489  1.00  0.00    +0.000 C 
ATOM     87  F13 UNL A   1      50.930  19.537  40.533  1.00  0.00    +0.000 F 
ATOM     88  C61 UNL A   1      48.683  19.251  41.207  1.00  0.00    +0.000 C 
ATOM     89  F14 UNL A   1      48.260  19.543  39.969  1.00  0.00    +0.000 F 
ATOM     90  C62 UNL A   1      47.757  18.965  42.207  1.00  0.00    +0.000 C 
ATOM     91  F15 UNL A   1      46.451  19.000  41.910  1.00  0.00    +0.000 F 
ENDBRANCH   80   81
TORSDOF 33
ENDMDL
MODEL 4
REMARK VINA RESULT:      -4.5     36.754     39.548
ROOT
ATOM    149  H47 UNL A   1      15.130  46.772   0.555  1.00  0.00    +0.000 H 
ATOM    150  H48 UNL A   1      13.460  46.457   2.533  1.00  0.00    +0.000 H 
ATOM    151  H49 UNL A   1      14.910  50.334   2.659  1.00  0.00    +0.000 H 
ATOM    152  H50 UNL A   1      15.124  56.049   5.510  1.00  0.00    +0.000 H 
ATOM    153  H51 UNL A   1      16.749  56.353   3.580  1.00  0.00    +0.000 H 
ATOM    154  H52 UNL A   1      15.283  52.467   3.407  1.00  0.00    +0.000 H 
ATOM    155  H53 UNL A   1      12.052  52.019   7.222  1.00  0.00    +0.000 H 
ATOM    156  H54 UNL A   1      11.821  49.556   6.562  1.00  0.00    +0.000 H 
ATOM    157  H55 UNL A   1      17.978  50.953  -1.245  1.00  0.00    +0.000 H 
ATOM    158  H56 UNL A   1      18.622  53.248  -0.312  1.00  0.00    +0.000 H 
ATOM     44  C33 UNL A   1      17.096  54.028   1.964  1.00  0.00    +0.000 C 
ATOM     45  C34 UNL A   1      17.063  52.709   1.246  1.00  0.00    +0.000 C 
ATOM     46  N6  UNL A   1      16.346  51.643   1.500  1.00  0.00    +0.000 N 
ATOM     47  C35 UNL A   1      16.674  50.723   0.513  1.00  0.00    +0.000 C 
ATOM     48  C36 UNL A   1      16.253  49.443   0.378  1.00  0.00    +0.000 C 
ATOM     60  C43 UNL A   1      15.339  48.794   1.279  1.00  0.00    +0.000 C 
ATOM     61  C44 UNL A   1      14.871  47.492   1.248  1.00  0.00    +0.000 C 
ATOM     62  C45 UNL A   1      13.986  47.320   2.317  1.00  0.00    +0.000 C 
ATOM     63  C46 UNL A   1      13.932  48.502   3.037  1.00  0.00    +0.000 C 
ATOM     64  N7  UNL A   1      14.757  49.401   2.383  1.00  0.00    +0.000 N 
ATOM     65  C47 UNL A   1      13.188  48.790   4.234  1.00  0.00    +0.000 C 
ATOM     77  C54 UNL A   1      13.163  49.987   4.871  1.00  0.00    +0.000 C 
ATOM     78  N8  UNL A   1      13.826  51.162   4.547  1.00  0.00    +0.000 N 
ATOM     79  C55 UNL A   1      13.470  52.038   5.454  1.00  0.00    +0.000 C 
ATOM     80  C56 UNL A   1      13.909  53.469   5.617  1.00  0.00    +0.000 C 
ATOM     92  C63 UNL A   1      14.819  53.976   4.765  1.00  0.00    +0.000 C 
ATOM     93  C64 UNL A   1      15.364  55.329   4.810  1.00  0.00    +0.000 C 
ATOM     94  C65 UNL A   1      16.230  55.487   3.795  1.00  0.00    +0.000 C 
ATOM     95  C66 UNL A   1      16.317  54.235   3.042  1.00  0.00    +0.000 C 
ATOM     96  N9  UNL A   1      15.444  53.396   3.688  1.00  0.00    +0.000 N 
ATOM     97  C67 UNL A   1      12.512  51.524   6.441  1.00  0.00    +0.000 C 
ATOM     98  C68 UNL A   1      12.392  50.259   6.066  1.00  0.00    +0.000 C 
ATOM     99  C69 UNL A   1      17.611  51.373  -0.377  1.00  0.00    +0.000 C 
ATOM    100  C70 UNL A   1      17.936  52.577   0.068  1.00  0.00    +0.000 C 
ENDROOT
BRANCH   44   43
ATOM    101  C71 UNL A   1      19.181  55.395   2.095  1.00  0.00    +0.000 C 
ATOM    102  C72 UNL A   1      19.971  56.459   1.668  1.00  0.00    +0.000 C 
ATOM     40  C29 UNL A   1      19.592  57.198   0.543  1.00  0.00    +0.000 C 
ATOM     41  C30 UNL A   1      18.376  56.940  -0.094  1.00  0.00    +0.000 C 
ATOM     42  C31 UNL A   1      17.555  55.914   0.374  1.00  0.00    +0.000 C 
ATOM     43  C32 UNL A   1      17.961  55.122   1.460  1.00  0.00    +0.000 C 
ATOM    147  H45 UNL A   1      18.086  57.507  -0.907  1.00  0.00    +0.000 H 
ATOM    148  H46 UNL A   1      16.646  55.737  -0.081  1.00  0.00    +0.000 H 
ATOM    159  H57 UNL A   1      19.496  54.804   2.880  1.00  0.00    +0.000 H 
ATOM    160  H58 UNL A   1      20.833  56.702   2.180  1.00  0.00    +0.000 H 
BRANCH   40   38
ATOM     38  C28 UNL A   1      20.455  58.270   0.005  1.00  0.00    +0.000 C 
ATOM     39  O6  UNL A   1      20.505  59.358   0.571  1.00  0.00    +0.000 O 
BRANCH   38   37
ATOM    146  H44 UNL A   1      21.020  58.700  -1.869  1.00  0.00    +0.000 H 
ATOM     37  N5  UNL A   1      21.169  58.051  -1.145  1.00  0.00    +0.000 N 
BRANCH   37   36
ATOM    145  H43 UNL A   1      21.803  56.522  -2.344  1.00  0.00    +0.000 H 
ATOM     36  C27 UNL A   1      22.115  56.992  -1.435  1.00  0.00    +0.000 C 
ATOM    144  H42 UNL A   1      22.121  56.305  -0.615  1.00  0.00    +0.000 H 
BRANCH   36   35
ATOM     35  C26 UNL A   1      23.531  57.509  -1.648  1.00  0.00    +0.000 C 
ATOM    142  H40 UNL A   1      23.543  58.550  -1.404  1.00  0.00    +0.000 H 
ATOM    143  H41 UNL A   1      24.162  56.914  -1.021  1.00  0.00    +0.000 H 
BRANCH   35   34
ATOM     34  C25 UNL A   1      24.080  57.351  -3.069  1.00  0.00    +0.000 C 
ATOM    140  H38 UNL A   1      23.256  57.417  -3.748  1.00  0.00    +0.000 H 
ATOM    141  H39 UNL A   1      24.806  58.127  -3.188  1.00  0.00    +0.000 H 
BRANCH   34   33
ATOM     33  C24 UNL A   1      24.821  56.040  -3.354  1.00  0.00    +0.000 C 
ATOM    138  H36 UNL A   1      25.782  56.098  -2.888  1.00  0.00    +0.000 H 
ATOM    139  H37 UNL A   1      24.199  55.262  -2.965  1.00  0.00    +0.000 H 
BRANCH   33   32
ATOM    137  H35 UNL A   1      25.143  56.643  -5.343  1.00  0.00    +0.000 H 
ATOM    136  H34 UNL A   1      24.189  55.144  -5.174  1.00  0.00    +0.000 H 
ATOM     32  C23 UNL A   1      25.032  55.708  -4.833  1.00  0.00    +0.000 C 
BRANCH   32   31
ATOM    135  H33 UNL A   1      26.001  53.905  -5.373  1.00  0.00    +0.000 H 
ATOM    134  H32 UNL A   1      26.918  54.914  -4.256  1.00  0.00    +0.000 H 
ATOM     31  C22 UNL A   1      26.291  54.904  -5.123  1.00  0.00    +0.000 C 
BRANCH   31   30
ATOM    133  H31 UNL A   1      27.985  55.620  -6.082  1.00  0.00    +0.000 H 
ATOM     30  N4  UNL A   1      27.027  55.454  -6.239  1.00  0.00    +0.000 N 
BRANCH   30   28
ATOM     28  C21 UNL A   1      26.563  55.770  -7.480  1.00  0.00    +0.000 C 
ATOM     29  O5  UNL A   1      26.654  56.942  -7.855  1.00  0.00    +0.000 O 
BRANCH   28    5
ATOM      5  C5  UNL A   1      25.877  54.713  -8.366  1.00  0.00    +0.000 C 
ATOM    112  H10 UNL A   1      26.059  53.769  -7.896  1.00  0.00    +0.000 H 
BRANCH    5    4
ATOM      4  C4  UNL A   1      26.504  54.539  -9.754  1.00  0.00    +0.000 C 
ATOM    110  H8  UNL A   1      26.047  53.687 -10.213  1.00  0.00    +0.000 H 
ATOM    111  H9  UNL A   1      26.329  55.462 -10.264  1.00  0.00    +0.000 H 
BRANCH    4    2
ATOM      2  C2  UNL A   1      28.039  54.330  -9.794  1.00  0.00    +0.000 C 
ATOM    106  H4  UNL A   1      28.347  54.370  -8.770  1.00  0.00    +0.000 H 
BRANCH    2    1
ATOM      1  C1  UNL A   1      28.515  52.975 -10.324  1.00  0.00    +0.000 C 
ATOM    105  H3  UNL A   1      28.529  52.995 -11.394  1.00  0.00    +0.000 H 
ATOM    103  H1  UNL A   1      27.849  52.206  -9.990  1.00  0.00    +0.000 H 
ATOM    104  H2  UNL A   1      29.501  52.774  -9.959  1.00  0.00    +0.000 H 
ENDBRANCH    2    1
BRANCH    2    3
ATOM      3  C3  UNL A   1      28.675  55.426 -10.654  1.00  0.00    +0.000 C 
ATOM    108  H6  UNL A   1      28.644  55.135 -11.684  1.00  0.00    +0.000 H 
ATOM    109  H7  UNL A   1      29.693  55.570 -10.355  1.00  0.00    +0.000 H 
ATOM    107  H5  UNL A   1      28.133  56.340 -10.526  1.00  0.00    +0.000 H 
ENDBRANCH    2    3
ENDBRANCH    4    2
ENDBRANCH    5    4
BRANCH    5    6
ATOM    113  H11 UNL A   1      23.930  54.513  -7.656  1.00  0.00    +0.000 H 
ATOM      6  N1  UNL A   1      24.428  54.918  -8.403  1.00  0.00    +0.000 N 
BRANCH    6    7
ATOM      7  C6  UNL A   1      23.664  55.583  -9.313  1.00  0.00    +0.000 C 
ATOM      8  O1  UNL A   1      23.124  54.892 -10.186  1.00  0.00    +0.000 O 
BRANCH    7    9
ATOM      9  C7  UNL A   1      23.487  57.112  -9.335  1.00  0.00    +0.000 C 
ATOM    114  H12 UNL A   1      23.266  57.391 -10.344  1.00  0.00    +0.000 H 
ATOM    115  H13 UNL A   1      24.405  57.490  -8.936  1.00  0.00    +0.000 H 
BRANCH    9   10
ATOM     10  N2  UNL A   1      22.464  57.693  -8.494  1.00  0.00    +0.000 N 
ATOM    116  H14 UNL A   1      21.850  58.287  -8.985  1.00  0.00    +0.000 H 
BRANCH   10   11
ATOM     11  C8  UNL A   1      22.171  57.594  -7.176  1.00  0.00    +0.000 C 
ATOM     12  O2  UNL A   1      23.049  58.035  -6.420  1.00  0.00    +0.000 O 
BRANCH   11   13
ATOM    117  H15 UNL A   1      20.128  57.659  -6.590  1.00  0.00    +0.000 H 
ATOM     13  C9  UNL A   1      20.899  56.917  -6.569  1.00  0.00    +0.000 C 
BRANCH   13   14
ATOM    118  H16 UNL A   1      20.916  55.180  -7.701  1.00  0.00    +0.000 H 
ATOM     14  N3  UNL A   1      20.288  55.880  -7.412  1.00  0.00    +0.000 N 
BRANCH   14   15
ATOM     15  C10 UNL A   1      19.024  55.702  -7.867  1.00  0.00    +0.000 C 
ATOM     16  O3  UNL A   1      18.699  56.119  -8.970  1.00  0.00    +0.000 O 
BRANCH   15   17
ATOM     17  O4  UNL A   1      18.195  55.117  -6.979  1.00  0.00    +0.000 O 
BRANCH   17   18
ATOM     18  C11 UNL A   1      18.529  53.762  -6.646  1.00  0.00    +0.000 C 
ATOM    119  H17 UNL A   1      19.544  53.737  -6.307  1.00  0.00    +0.000 H 
ATOM    120  H18 UNL A   1      18.377  53.177  -7.530  1.00  0.00    +0.000 H 
BRANCH   18   19
ATOM     19  C12 UNL A   1      17.648  53.161  -5.563  1.00  0.00    +0.000 C 
ATOM     20  C13 UNL A   1      17.260  53.959  -4.476  1.00  0.00    +0.000 C 
ATOM     21  C14 UNL A   1      16.521  53.420  -3.418  1.00  0.00    +0.000 C 
ATOM     22  C15 UNL A   1      16.165  52.074  -3.425  1.00  0.00    +0.000 C 
ATOM     23  C16 UNL A   1      16.543  51.267  -4.489  1.00  0.00    +0.000 C 
ATOM     24  C17 UNL A   1      17.279  51.806  -5.545  1.00  0.00    +0.000 C 
ATOM    121  H19 UNL A   1      17.524  54.957  -4.457  1.00  0.00    +0.000 H 
ATOM    122  H20 UNL A   1      16.239  54.023  -2.629  1.00  0.00    +0.000 H 
ATOM    123  H21 UNL A   1      15.622  51.678  -2.641  1.00  0.00    +0.000 H 
ATOM    124  H22 UNL A   1      16.282  50.268  -4.499  1.00  0.00    +0.000 H 
ATOM    125  H23 UNL A   1      17.559  51.196  -6.330  1.00  0.00    +0.000 H 
ENDBRANCH   18   19
ENDBRANCH   17   18
ENDBRANCH   15   17
ENDBRANCH   14   15
ENDBRANCH   13   14
BRANCH   13   25
ATOM     25  C18 UNL A   1      21.044  56.607  -5.062  1.00  0.00    +0.000 C 
ATOM    126  H24 UNL A   1      21.847  57.219  -4.707  1.00  0.00    +0.000 H 
BRANCH   25   26
ATOM    129  H27 UNL A   1      19.610  57.994  -4.268  1.00  0.00    +0.000 H 
ATOM     26  C19 UNL A   1      19.755  56.934  -4.287  1.00  0.00    +0.000 C 
ATOM    127  H25 UNL A   1      19.839  56.567  -3.286  1.00  0.00    +0.000 H 
ATOM    128  H26 UNL A   1      18.921  56.468  -4.769  1.00  0.00    +0.000 H 
ENDBRANCH   25   26
BRANCH   25   27
ATOM    130  H28 UNL A   1      22.410  54.982  -4.755  1.00  0.00    +0.000 H 
ATOM     27  C20 UNL A   1      21.351  55.119  -4.834  1.00  0.00    +0.000 C 
ATOM    132  H30 UNL A   1      20.880  54.792  -3.932  1.00  0.00    +0.000 H 
ATOM    131  H29 UNL A   1      20.979  54.548  -5.659  1.00  0.00    +0.000 H 
ENDBRANCH   25   27
ENDBRANCH   13   25
ENDBRANCH   11   13
ENDBRANCH   10   11
ENDBRANCH    9   10
ENDBRANCH    7    9
ENDBRANCH    6    7
ENDBRANCH    5    6
ENDBRANCH   28    5
ENDBRANCH   30   28
ENDBRANCH   31   30
ENDBRANCH   32   31
ENDBRANCH   33   32
ENDBRANCH   34   33
ENDBRANCH   35   34
ENDBRANCH   36   35
ENDBRANCH   37   36
ENDBRANCH   38   37
ENDBRANCH   40   38
ENDBRANCH   44   43
BRANCH   48   49
ATOM     49  C37 UNL A   1      16.791  48.659  -0.782  1.00  0.00    +0.000 C 
ATOM     50  C38 UNL A   1      16.079  48.557  -1.988  1.00  0.00    +0.000 C 
ATOM     51  F1  UNL A   1      14.874  49.132  -2.110  1.00  0.00    +0.000 F 
ATOM     52  C39 UNL A   1      16.585  47.825  -3.059  1.00  0.00    +0.000 C 
ATOM     53  F2  UNL A   1      15.866  47.702  -4.183  1.00  0.00    +0.000 F 
ATOM     54  C40 UNL A   1      17.826  47.213  -2.959  1.00  0.00    +0.000 C 
ATOM     55  F3  UNL A   1      18.314  46.514  -3.993  1.00  0.00    +0.000 F 
ATOM     56  C41 UNL A   1      18.555  47.319  -1.785  1.00  0.00    +0.000 C 
ATOM     57  F4  UNL A   1      19.759  46.736  -1.691  1.00  0.00    +0.000 F 
ATOM     58  C42 UNL A   1      18.039  48.026  -0.701  1.00  0.00    +0.000 C 
ATOM     59  F5  UNL A   1      18.762  48.095   0.427  1.00  0.00    +0.000 F 
ENDBRANCH   48   49
BRANCH   65   66
ATOM     66  C48 UNL A   1      12.389  47.676   4.845  1.00  0.00    +0.000 C 
ATOM     67  C49 UNL A   1      12.828  46.999   5.991  1.00  0.00    +0.000 C 
ATOM     68  F6  UNL A   1      14.010  47.308   6.547  1.00  0.00    +0.000 F 
ATOM     69  C50 UNL A   1      12.071  45.972   6.548  1.00  0.00    +0.000 C 
ATOM     70  F7  UNL A   1      12.531  45.306   7.616  1.00  0.00    +0.000 F 
ATOM     71  C51 UNL A   1      10.849  45.625   5.988  1.00  0.00    +0.000 C 
ATOM     72  F8  UNL A   1      10.120  44.638   6.526  1.00  0.00    +0.000 F 
ATOM     73  C52 UNL A   1      10.387  46.296   4.865  1.00  0.00    +0.000 C 
ATOM     74  F9  UNL A   1       9.203  45.969   4.331  1.00  0.00    +0.000 F 
ATOM     75  C53 UNL A   1      11.154  47.306   4.292  1.00  0.00    +0.000 C 
ATOM     76  F10 UNL A   1      10.689  47.928   3.198  1.00  0.00    +0.000 F 
ENDBRANCH   65   66
BRANCH   80   81
ATOM     81  C57 UNL A   1      13.377  54.306   6.722  1.00  0.00    +0.000 C 
ATOM     82  C58 UNL A   1      13.945  54.254   8.003  1.00  0.00    +0.000 C 
ATOM     83  F11 UNL A   1      14.977  53.432   8.242  1.00  0.00    +0.000 F 
ATOM     84  C59 UNL A   1      13.428  55.011   9.052  1.00  0.00    +0.000 C 
ATOM     85  F12 UNL A   1      13.960  54.905  10.276  1.00  0.00    +0.000 F 
ATOM     86  C60 UNL A   1      12.352  55.858   8.833  1.00  0.00    +0.000 C 
ATOM     87  F13 UNL A   1      11.853  56.585   9.842  1.00  0.00    +0.000 F 
ATOM     88  C61 UNL A   1      11.787  55.942   7.569  1.00  0.00    +0.000 C 
ATOM     89  F14 UNL A   1      10.755  56.770   7.351  1.00  0.00    +0.000 F 
ATOM     90  C62 UNL A   1      12.287  55.166   6.526  1.00  0.00    +0.000 C 
ATOM     91  F15 UNL A   1      11.713  55.257   5.318  1.00  0.00    +0.000 F 
ENDBRANCH   80   81
TORSDOF 33
ENDMDL
MODEL 5
REMARK VINA RESULT:      -4.5     35.608     38.345
ROOT
ATOM    149  H47 UNL A   1      14.983  46.816   0.560  1.00  0.00    +0.000 H 
ATOM    150  H48 UNL A   1      13.323  46.474   2.542  1.00  0.00    +0.000 H 
ATOM    151  H49 UNL A   1      14.794  50.341   2.729  1.00  0.00    +0.000 H 
ATOM    152  H50 UNL A   1      15.056  56.002   5.680  1.00  0.00    +0.000 H 
ATOM    153  H51 UNL A   1      16.671  56.332   3.746  1.00  0.00    +0.000 H 
ATOM    154  H52 UNL A   1      15.183  52.458   3.513  1.00  0.00    +0.000 H 
ATOM    155  H53 UNL A   1      11.973  51.958   7.339  1.00  0.00    +0.000 H 
ATOM    156  H54 UNL A   1      11.725  49.509   6.636  1.00  0.00    +0.000 H 
ATOM    157  H55 UNL A   1      17.842  51.013  -1.182  1.00  0.00    +0.000 H 
ATOM    158  H56 UNL A   1      18.504  53.288  -0.212  1.00  0.00    +0.000 H 
ATOM     44  C33 UNL A   1      16.996  54.035   2.087  1.00  0.00    +0.000 C 
ATOM     45  C34 UNL A   1      16.952  52.729   1.345  1.00  0.00    +0.000 C 
ATOM     46  N6  UNL A   1      16.230  51.663   1.585  1.00  0.00    +0.000 N 
ATOM     47  C35 UNL A   1      16.547  50.759   0.580  1.00  0.00    +0.000 C 
ATOM     48  C36 UNL A   1      16.119  49.484   0.425  1.00  0.00    +0.000 C 
ATOM     60  C43 UNL A   1      15.206  48.823   1.319  1.00  0.00    +0.000 C 
ATOM     61  C44 UNL A   1      14.731  47.525   1.267  1.00  0.00    +0.000 C 
ATOM     62  C45 UNL A   1      13.851  47.338   2.339  1.00  0.00    +0.000 C 
ATOM     63  C46 UNL A   1      13.808  48.507   3.080  1.00  0.00    +0.000 C 
ATOM     64  N7  UNL A   1      14.635  49.414   2.437  1.00  0.00    +0.000 N 
ATOM     65  C47 UNL A   1      13.073  48.777   4.287  1.00  0.00    +0.000 C 
ATOM     77  C54 UNL A   1      13.058  49.963   4.945  1.00  0.00    +0.000 C 
ATOM     78  N8  UNL A   1      13.726  51.140   4.638  1.00  0.00    +0.000 N 
ATOM     79  C55 UNL A   1      13.379  52.002   5.562  1.00  0.00    +0.000 C 
ATOM     80  C56 UNL A   1      13.827  53.427   5.748  1.00  0.00    +0.000 C 
ATOM     92  C63 UNL A   1      14.735  53.944   4.900  1.00  0.00    +0.000 C 
ATOM     93  C64 UNL A   1      15.288  55.294   4.966  1.00  0.00    +0.000 C 
ATOM     94  C65 UNL A   1      16.148  55.465   3.948  1.00  0.00    +0.000 C 
ATOM     95  C66 UNL A   1      16.224  54.226   3.173  1.00  0.00    +0.000 C 
ATOM     96  N9  UNL A   1      15.351  53.381   3.809  1.00  0.00    +0.000 N 
ATOM     97  C67 UNL A   1      12.425  51.475   6.546  1.00  0.00    +0.000 C 
ATOM     98  C68 UNL A   1      12.296  50.218   6.149  1.00  0.00    +0.000 C 
ATOM     99  C69 UNL A   1      17.482  51.419  -0.305  1.00  0.00    +0.000 C 
ATOM    100  C70 UNL A   1      17.816  52.613   0.160  1.00  0.00    +0.000 C 
ENDROOT
BRANCH   44   43
ATOM    101  C71 UNL A   1      19.129  55.329   2.168  1.00  0.00    +0.000 C 
ATOM    102  C72 UNL A   1      19.926  56.394   1.758  1.00  0.00    +0.000 C 
ATOM     40  C29 UNL A   1      19.502  57.215   0.708  1.00  0.00    +0.000 C 
ATOM     41  C30 UNL A   1      18.241  57.034   0.136  1.00  0.00    +0.000 C 
ATOM     42  C31 UNL A   1      17.417  56.005   0.590  1.00  0.00    +0.000 C 
ATOM     43  C32 UNL A   1      17.863  55.133   1.597  1.00  0.00    +0.000 C 
ATOM    147  H45 UNL A   1      17.921  57.660  -0.620  1.00  0.00    +0.000 H 
ATOM    148  H46 UNL A   1      16.476  55.883   0.185  1.00  0.00    +0.000 H 
ATOM    159  H57 UNL A   1      19.473  54.680   2.894  1.00  0.00    +0.000 H 
ATOM    160  H58 UNL A   1      20.826  56.579   2.228  1.00  0.00    +0.000 H 
BRANCH   40   38
ATOM     38  C28 UNL A   1      20.366  58.293   0.184  1.00  0.00    +0.000 C 
ATOM     39  O6  UNL A   1      20.437  59.364   0.778  1.00  0.00    +0.000 O 
BRANCH   38   37
ATOM    146  H44 UNL A   1      20.851  58.733  -1.711  1.00  0.00    +0.000 H 
ATOM     37  N5  UNL A   1      21.056  58.100  -0.985  1.00  0.00    +0.000 N 
BRANCH   37   36
ATOM    145  H43 UNL A   1      21.940  56.841  -2.331  1.00  0.00    +0.000 H 
ATOM     36  C27 UNL A   1      22.045  57.088  -1.295  1.00  0.00    +0.000 C 
ATOM    144  H42 UNL A   1      21.875  56.239  -0.666  1.00  0.00    +0.000 H 
BRANCH   36   35
ATOM     35  C26 UNL A   1      23.472  57.575  -1.083  1.00  0.00    +0.000 C 
ATOM    142  H40 UNL A   1      23.439  58.630  -0.909  1.00  0.00    +0.000 H 
ATOM    143  H41 UNL A   1      23.856  57.016  -0.254  1.00  0.00    +0.000 H 
BRANCH   35   34
ATOM     34  C25 UNL A   1      24.433  57.317  -2.246  1.00  0.00    +0.000 C 
ATOM    140  H38 UNL A   1      24.676  58.261  -2.687  1.00  0.00    +0.000 H 
ATOM    141  H39 UNL A   1      25.272  56.806  -1.823  1.00  0.00    +0.000 H 
BRANCH   34   33
ATOM     33  C24 UNL A   1      23.904  56.402  -3.356  1.00  0.00    +0.000 C 
ATOM    138  H36 UNL A   1      23.928  55.396  -2.992  1.00  0.00    +0.000 H 
ATOM    139  H37 UNL A   1      22.921  56.756  -3.584  1.00  0.00    +0.000 H 
BRANCH   33   32
ATOM    137  H35 UNL A   1      25.703  56.632  -4.421  1.00  0.00    +0.000 H 
ATOM    136  H34 UNL A   1      24.256  57.211  -5.289  1.00  0.00    +0.000 H 
ATOM     32  C23 UNL A   1      24.681  56.445  -4.675  1.00  0.00    +0.000 C 
BRANCH   32   31
ATOM    135  H33 UNL A   1      24.213  55.330  -6.412  1.00  0.00    +0.000 H 
ATOM    134  H32 UNL A   1      24.098  54.415  -4.911  1.00  0.00    +0.000 H 
ATOM     31  C22 UNL A   1      24.660  55.142  -5.459  1.00  0.00    +0.000 C 
BRANCH   31   30
ATOM    133  H31 UNL A   1      26.161  53.712  -5.370  1.00  0.00    +0.000 H 
ATOM     30  N4  UNL A   1      25.995  54.633  -5.679  1.00  0.00    +0.000 N 
BRANCH   30   28
ATOM     28  C21 UNL A   1      27.052  55.265  -6.260  1.00  0.00    +0.000 C 
ATOM     29  O5  UNL A   1      28.075  55.427  -5.590  1.00  0.00    +0.000 O 
BRANCH   28    5
ATOM      5  C5  UNL A   1      26.953  55.829  -7.690  1.00  0.00    +0.000 C 
ATOM    112  H10 UNL A   1      25.967  55.594  -8.034  1.00  0.00    +0.000 H 
BRANCH    5    4
ATOM      4  C4  UNL A   1      27.857  55.134  -8.715  1.00  0.00    +0.000 C 
ATOM    110  H8  UNL A   1      27.376  55.197  -9.668  1.00  0.00    +0.000 H 
ATOM    111  H9  UNL A   1      28.796  55.642  -8.659  1.00  0.00    +0.000 H 
BRANCH    4    2
ATOM      2  C2  UNL A   1      28.179  53.642  -8.446  1.00  0.00    +0.000 C 
ATOM    106  H4  UNL A   1      27.569  53.376  -7.608  1.00  0.00    +0.000 H 
BRANCH    2    1
ATOM      1  C1  UNL A   1      27.806  52.666  -9.565  1.00  0.00    +0.000 C 
ATOM    105  H3  UNL A   1      28.672  52.451 -10.156  1.00  0.00    +0.000 H 
ATOM    103  H1  UNL A   1      27.051  53.104 -10.184  1.00  0.00    +0.000 H 
ATOM    104  H2  UNL A   1      27.433  51.758  -9.137  1.00  0.00    +0.000 H 
ENDBRANCH    2    1
BRANCH    2    3
ATOM      3  C3  UNL A   1      29.678  53.493  -8.166  1.00  0.00    +0.000 C 
ATOM    108  H6  UNL A   1      30.209  54.300  -8.627  1.00  0.00    +0.000 H 
ATOM    109  H7  UNL A   1      30.025  52.563  -8.568  1.00  0.00    +0.000 H 
ATOM    107  H5  UNL A   1      29.848  53.511  -7.110  1.00  0.00    +0.000 H 
ENDBRANCH    2    3
ENDBRANCH    4    2
ENDBRANCH    5    4
BRANCH    5    6
ATOM    113  H11 UNL A   1      26.281  57.780  -7.413  1.00  0.00    +0.000 H 
ATOM      6  N1  UNL A   1      27.087  57.287  -7.691  1.00  0.00    +0.000 N 
BRANCH    6    7
ATOM      7  C6  UNL A   1      28.156  58.065  -8.017  1.00  0.00    +0.000 C 
ATOM      8  O1  UNL A   1      28.977  58.276  -7.116  1.00  0.00    +0.000 O 
BRANCH    7    9
ATOM      9  C7  UNL A   1      28.358  58.714  -9.398  1.00  0.00    +0.000 C 
ATOM    114  H12 UNL A   1      28.613  59.740  -9.231  1.00  0.00    +0.000 H 
ATOM    115  H13 UNL A   1      27.434  58.539  -9.909  1.00  0.00    +0.000 H 
BRANCH    9   10
ATOM     10  N2  UNL A   1      29.365  58.157 -10.274  1.00  0.00    +0.000 N 
ATOM    116  H14 UNL A   1      29.141  58.248 -11.229  1.00  0.00    +0.000 H 
BRANCH   10   11
ATOM     11  C8  UNL A   1      30.550  57.537 -10.059  1.00  0.00    +0.000 C 
ATOM     12  O2  UNL A   1      30.576  56.346 -10.401  1.00  0.00    +0.000 O 
BRANCH   11   13
ATOM    117  H15 UNL A   1      31.424  58.905  -8.686  1.00  0.00    +0.000 H 
ATOM     13  C9  UNL A   1      31.800  58.169  -9.365  1.00  0.00    +0.000 C 
BRANCH   13   14
ATOM    118  H16 UNL A   1      32.206  57.378  -7.492  1.00  0.00    +0.000 H 
ATOM     14  N3  UNL A   1      32.502  57.282  -8.426  1.00  0.00    +0.000 N 
BRANCH   14   15
ATOM     15  C10 UNL A   1      33.475  56.355  -8.600  1.00  0.00    +0.000 C 
ATOM     16  O3  UNL A   1      34.628  56.703  -8.815  1.00  0.00    +0.000 O 
BRANCH   15   17
ATOM     17  O4  UNL A   1      33.034  55.082  -8.588  1.00  0.00    +0.000 O 
BRANCH   17   18
ATOM     18  C11 UNL A   1      33.544  54.257  -9.646  1.00  0.00    +0.000 C 
ATOM    119  H17 UNL A   1      34.597  54.137  -9.502  1.00  0.00    +0.000 H 
ATOM    120  H18 UNL A   1      33.309  54.751 -10.567  1.00  0.00    +0.000 H 
BRANCH   18   19
ATOM     19  C12 UNL A   1      32.909  52.878  -9.710  1.00  0.00    +0.000 C 
ATOM     20  C13 UNL A   1      32.055  52.566 -10.778  1.00  0.00    +0.000 C 
ATOM     21  C14 UNL A   1      31.386  51.340 -10.827  1.00  0.00    +0.000 C 
ATOM     22  C15 UNL A   1      31.553  50.408  -9.806  1.00  0.00    +0.000 C 
ATOM     23  C16 UNL A   1      32.391  50.699  -8.738  1.00  0.00    +0.000 C 
ATOM     24  C17 UNL A   1      33.059  51.923  -8.691  1.00  0.00    +0.000 C 
ATOM    121  H19 UNL A   1      31.918  53.253 -11.537  1.00  0.00    +0.000 H 
ATOM    122  H20 UNL A   1      30.765  51.124 -11.624  1.00  0.00    +0.000 H 
ATOM    123  H21 UNL A   1      31.055  49.504  -9.844  1.00  0.00    +0.000 H 
ATOM    124  H22 UNL A   1      32.518  50.011  -7.979  1.00  0.00    +0.000 H 
ATOM    125  H23 UNL A   1      33.677  52.131  -7.890  1.00  0.00    +0.000 H 
ENDBRANCH   18   19
ENDBRANCH   17   18
ENDBRANCH   15   17
ENDBRANCH   14   15
ENDBRANCH   13   14
BRANCH   13   25
ATOM     25  C18 UNL A   1      32.670  59.000 -10.335  1.00  0.00    +0.000 C 
ATOM    126  H24 UNL A   1      33.647  59.042  -9.900  1.00  0.00    +0.000 H 
BRANCH   25   26
ATOM    129  H27 UNL A   1      32.308  59.011 -12.451  1.00  0.00    +0.000 H 
ATOM     26  C19 UNL A   1      32.746  58.353 -11.729  1.00  0.00    +0.000 C 
ATOM    127  H25 UNL A   1      32.211  57.427 -11.721  1.00  0.00    +0.000 H 
ATOM    128  H26 UNL A   1      33.769  58.173 -11.984  1.00  0.00    +0.000 H 
ENDBRANCH   25   26
BRANCH   25   27
ATOM    130  H28 UNL A   1      32.576  61.084  -9.833  1.00  0.00    +0.000 H 
ATOM     27  C20 UNL A   1      32.094  60.413 -10.515  1.00  0.00    +0.000 C 
ATOM    132  H30 UNL A   1      32.264  60.742 -11.518  1.00  0.00    +0.000 H 
ATOM    131  H29 UNL A   1      31.043  60.397 -10.317  1.00  0.00    +0.000 H 
ENDBRANCH   25   27
ENDBRANCH   13   25
ENDBRANCH   11   13
ENDBRANCH   10   11
ENDBRANCH    9   10
ENDBRANCH    7    9
ENDBRANCH    6    7
ENDBRANCH    5    6
ENDBRANCH   28    5
ENDBRANCH   30   28
ENDBRANCH   31   30
ENDBRANCH   32   31
ENDBRANCH   33   32
ENDBRANCH   34   33
ENDBRANCH   35   34
ENDBRANCH   36   35
ENDBRANCH   37   36
ENDBRANCH   38   37
ENDBRANCH   40   38
ENDBRANCH   44   43
BRANCH   48   49
ATOM     49  C37 UNL A   1      16.646  48.718  -0.753  1.00  0.00    +0.000 C 
ATOM     50  C38 UNL A   1      17.888  48.065  -0.703  1.00  0.00    +0.000 C 
ATOM     51  F1  UNL A   1      18.651  48.150   0.398  1.00  0.00    +0.000 F 
ATOM     52  C39 UNL A   1      18.371  47.359  -1.801  1.00  0.00    +0.000 C 
ATOM     53  F2  UNL A   1      19.581  46.785  -1.746  1.00  0.00    +0.000 F 
ATOM     54  C40 UNL A   1      17.609  47.261  -2.955  1.00  0.00    +0.000 C 
ATOM     55  F3  UNL A   1      18.073  46.575  -4.009  1.00  0.00    +0.000 F 
ATOM     56  C41 UNL A   1      16.370  47.880  -3.019  1.00  0.00    +0.000 C 
ATOM     57  F4  UNL A   1      15.627  47.777  -4.131  1.00  0.00    +0.000 F 
ATOM     58  C42 UNL A   1      15.896  48.612  -1.932  1.00  0.00    +0.000 C 
ATOM     59  F5  UNL A   1      14.701  49.213  -2.031  1.00  0.00    +0.000 F 
ENDBRANCH   48   49
BRANCH   65   66
ATOM     66  C48 UNL A   1      12.272  47.657   4.882  1.00  0.00    +0.000 C 
ATOM     67  C49 UNL A   1      12.729  46.936   5.994  1.00  0.00    +0.000 C 
ATOM     68  F6  UNL A   1      13.930  47.207   6.527  1.00  0.00    +0.000 F 
ATOM     69  C50 UNL A   1      11.970  45.903   6.537  1.00  0.00    +0.000 C 
ATOM     70  F7  UNL A   1      12.446  45.195   7.570  1.00  0.00    +0.000 F 
ATOM     71  C51 UNL A   1      10.728  45.595   5.999  1.00  0.00    +0.000 C 
ATOM     72  F8  UNL A   1       9.997  44.602   6.524  1.00  0.00    +0.000 F 
ATOM     73  C52 UNL A   1      10.248  46.310   4.911  1.00  0.00    +0.000 C 
ATOM     74  F9  UNL A   1       9.045  46.020   4.399  1.00  0.00    +0.000 F 
ATOM     75  C53 UNL A   1      11.016  47.325   4.351  1.00  0.00    +0.000 C 
ATOM     76  F10 UNL A   1      10.533  47.991   3.290  1.00  0.00    +0.000 F 
ENDBRANCH   65   66
BRANCH   80   81
ATOM     81  C57 UNL A   1      13.307  54.247   6.872  1.00  0.00    +0.000 C 
ATOM     82  C58 UNL A   1      12.232  55.128   6.683  1.00  0.00    +0.000 C 
ATOM     83  F11 UNL A   1      11.668  55.243   5.471  1.00  0.00    +0.000 F 
ATOM     84  C59 UNL A   1      11.763  55.925   7.724  1.00  0.00    +0.000 C 
ATOM     85  F12 UNL A   1      10.766  56.792   7.503  1.00  0.00    +0.000 F 
ATOM     86  C60 UNL A   1      12.338  55.834   8.982  1.00  0.00    +0.000 C 
ATOM     87  F13 UNL A   1      11.887  56.602   9.984  1.00  0.00    +0.000 F 
ATOM     88  C61 UNL A   1      13.389  54.955   9.199  1.00  0.00    +0.000 C 
ATOM     89  F14 UNL A   1      13.938  54.855  10.417  1.00  0.00    +0.000 F 
ATOM     90  C62 UNL A   1      13.876  54.176   8.151  1.00  0.00    +0.000 C 
ATOM     91  F15 UNL A   1      14.901  53.344   8.385  1.00  0.00    +0.000 F 
ENDBRANCH   80   81
TORSDOF 33
ENDMDL
MODEL 6
REMARK VINA RESULT:      -4.3     14.440     20.329
ROOT
ATOM    149  H47 UNL A   1      43.984  27.785  27.359  1.00  0.00    +0.000 H 
ATOM    150  H48 UNL A   1      43.737  30.381  27.285  1.00  0.00    +0.000 H 
ATOM    151  H49 UNL A   1      47.744  29.441  26.820  1.00  0.00    +0.000 H 
ATOM    152  H50 UNL A   1      53.803  31.337  26.101  1.00  0.00    +0.000 H 
ATOM    153  H51 UNL A   1      54.039  28.808  26.171  1.00  0.00    +0.000 H 
ATOM    154  H52 UNL A   1      50.006  29.721  26.604  1.00  0.00    +0.000 H 
ATOM    155  H53 UNL A   1      49.673  34.724  26.388  1.00  0.00    +0.000 H 
ATOM    156  H54 UNL A   1      47.179  34.446  26.893  1.00  0.00    +0.000 H 
ATOM    157  H55 UNL A   1      48.157  24.453  26.797  1.00  0.00    +0.000 H 
ATOM    158  H56 UNL A   1      50.703  24.714  26.812  1.00  0.00    +0.000 H 
ATOM     44  C33 UNL A   1      51.580  27.412  26.547  1.00  0.00    +0.000 C 
ATOM     45  C34 UNL A   1      50.170  26.916  26.694  1.00  0.00    +0.000 C 
ATOM     46  N6  UNL A   1      49.051  27.596  26.736  1.00  0.00    +0.000 N 
ATOM     47  C35 UNL A   1      48.039  26.651  26.845  1.00  0.00    +0.000 C 
ATOM     48  C36 UNL A   1      46.708  26.852  26.992  1.00  0.00    +0.000 C 
ATOM     60  C43 UNL A   1      46.089  28.149  27.055  1.00  0.00    +0.000 C 
ATOM     61  C44 UNL A   1      44.753  28.462  27.231  1.00  0.00    +0.000 C 
ATOM     62  C45 UNL A   1      44.623  29.855  27.205  1.00  0.00    +0.000 C 
ATOM     63  C46 UNL A   1      45.882  30.410  27.051  1.00  0.00    +0.000 C 
ATOM     64  N7  UNL A   1      46.771  29.353  26.949  1.00  0.00    +0.000 N 
ATOM     65  C47 UNL A   1      46.250  31.800  27.006  1.00  0.00    +0.000 C 
ATOM     77  C54 UNL A   1      47.509  32.271  26.825  1.00  0.00    +0.000 C 
ATOM     78  N8  UNL A   1      48.691  31.562  26.660  1.00  0.00    +0.000 N 
ATOM     79  C55 UNL A   1      49.632  32.461  26.507  1.00  0.00    +0.000 C 
ATOM     80  C56 UNL A   1      51.113  32.265  26.325  1.00  0.00    +0.000 C 
ATOM     92  C63 UNL A   1      51.616  31.017  26.344  1.00  0.00    +0.000 C 
ATOM     93  C64 UNL A   1      53.026  30.666  26.211  1.00  0.00    +0.000 C 
ATOM     94  C65 UNL A   1      53.152  29.329  26.257  1.00  0.00    +0.000 C 
ATOM     95  C66 UNL A   1      51.830  28.731  26.447  1.00  0.00    +0.000 C 
ATOM     96  N9  UNL A   1      50.980  29.807  26.485  1.00  0.00    +0.000 N 
ATOM     97  C67 UNL A   1      49.146  33.847  26.525  1.00  0.00    +0.000 C 
ATOM     98  C68 UNL A   1      47.854  33.676  26.765  1.00  0.00    +0.000 C 
ATOM     99  C69 UNL A   1      48.668  25.349  26.804  1.00  0.00    +0.000 C 
ATOM    100  C70 UNL A   1      49.988  25.458  26.780  1.00  0.00    +0.000 C 
ENDROOT
BRANCH   44   43
ATOM    101  C71 UNL A   1      53.528  26.247  27.586  1.00  0.00    +0.000 C 
ATOM    102  C72 UNL A   1      54.619  25.386  27.505  1.00  0.00    +0.000 C 
ATOM     40  C29 UNL A   1      54.832  24.642  26.340  1.00  0.00    +0.000 C 
ATOM     41  C30 UNL A   1      54.018  24.833  25.222  1.00  0.00    +0.000 C 
ATOM     42  C31 UNL A   1      52.964  25.743  25.283  1.00  0.00    +0.000 C 
ATOM     43  C32 UNL A   1      52.699  26.443  26.471  1.00  0.00    +0.000 C 
ATOM    147  H45 UNL A   1      54.196  24.303  24.354  1.00  0.00    +0.000 H 
ATOM    148  H46 UNL A   1      52.374  25.903  24.451  1.00  0.00    +0.000 H 
ATOM    159  H57 UNL A   1      53.328  26.742  28.469  1.00  0.00    +0.000 H 
ATOM    160  H58 UNL A   1      55.268  25.296  28.303  1.00  0.00    +0.000 H 
BRANCH   40   38
ATOM     38  C28 UNL A   1      55.922  23.647  26.257  1.00  0.00    +0.000 C 
ATOM     39  O6  UNL A   1      55.893  22.647  26.967  1.00  0.00    +0.000 O 
BRANCH   38   37
ATOM    146  H44 UNL A   1      56.940  23.391  24.549  1.00  0.00    +0.000 H 
ATOM     37  N5  UNL A   1      56.977  23.868  25.409  1.00  0.00    +0.000 N 
BRANCH   37   36
ATOM    145  H43 UNL A   1      58.981  24.206  25.186  1.00  0.00    +0.000 H 
ATOM     36  C27 UNL A   1      58.138  24.712  25.609  1.00  0.00    +0.000 C 
ATOM    144  H42 UNL A   1      58.262  24.878  26.659  1.00  0.00    +0.000 H 
BRANCH   36   35
ATOM     35  C26 UNL A   1      58.015  26.060  24.913  1.00  0.00    +0.000 C 
ATOM    142  H40 UNL A   1      58.975  26.316  24.517  1.00  0.00    +0.000 H 
ATOM    143  H41 UNL A   1      57.260  25.939  24.164  1.00  0.00    +0.000 H 
BRANCH   35   34
ATOM     34  C25 UNL A   1      57.546  27.216  25.801  1.00  0.00    +0.000 C 
ATOM    140  H38 UNL A   1      57.361  26.825  26.779  1.00  0.00    +0.000 H 
ATOM    141  H39 UNL A   1      58.327  27.946  25.763  1.00  0.00    +0.000 H 
BRANCH   34   33
ATOM     33  C24 UNL A   1      56.277  27.939  25.336  1.00  0.00    +0.000 C 
ATOM    138  H36 UNL A   1      55.463  27.596  25.941  1.00  0.00    +0.000 H 
ATOM    139  H37 UNL A   1      56.481  28.984  25.438  1.00  0.00    +0.000 H 
BRANCH   33   32
ATOM    137  H35 UNL A   1      55.192  26.921  23.849  1.00  0.00    +0.000 H 
ATOM    136  H34 UNL A   1      56.788  27.518  23.318  1.00  0.00    +0.000 H 
ATOM     32  C23 UNL A   1      55.896  27.728  23.868  1.00  0.00    +0.000 C 
BRANCH   32   31
ATOM    135  H33 UNL A   1      55.543  29.809  23.710  1.00  0.00    +0.000 H 
ATOM    134  H32 UNL A   1      54.147  28.806  23.321  1.00  0.00    +0.000 H 
ATOM     31  C22 UNL A   1      55.207  28.920  23.220  1.00  0.00    +0.000 C 
BRANCH   31   30
ATOM    133  H31 UNL A   1      56.496  29.056  21.601  1.00  0.00    +0.000 H 
ATOM     30  N4  UNL A   1      55.536  29.025  21.817  1.00  0.00    +0.000 N 
BRANCH   30   28
ATOM     28  C21 UNL A   1      54.685  29.085  20.755  1.00  0.00    +0.000 C 
ATOM     29  O5  UNL A   1      54.450  30.190  20.259  1.00  0.00    +0.000 O 
BRANCH   28    5
ATOM      5  C5  UNL A   1      53.977  27.822  20.230  1.00  0.00    +0.000 C 
ATOM    112  H10 UNL A   1      53.531  28.098  19.297  1.00  0.00    +0.000 H 
BRANCH    5    4
ATOM      4  C4  UNL A   1      52.778  27.365  21.069  1.00  0.00    +0.000 C 
ATOM    110  H8  UNL A   1      52.275  26.594  20.524  1.00  0.00    +0.000 H 
ATOM    111  H9  UNL A   1      53.189  27.049  22.005  1.00  0.00    +0.000 H 
BRANCH    4    2
ATOM      2  C2  UNL A   1      51.733  28.454  21.424  1.00  0.00    +0.000 C 
ATOM    106  H4  UNL A   1      52.180  29.374  21.113  1.00  0.00    +0.000 H 
BRANCH    2    1
ATOM      1  C1  UNL A   1      50.397  28.363  20.680  1.00  0.00    +0.000 C 
ATOM    105  H3  UNL A   1      49.917  29.320  20.692  1.00  0.00    +0.000 H 
ATOM    103  H1  UNL A   1      49.769  27.643  21.162  1.00  0.00    +0.000 H 
ATOM    104  H2  UNL A   1      50.572  28.064  19.668  1.00  0.00    +0.000 H 
ENDBRANCH    2    1
BRANCH    2    3
ATOM      3  C3  UNL A   1      51.444  28.404  22.927  1.00  0.00    +0.000 C 
ATOM    108  H6  UNL A   1      50.545  28.945  23.136  1.00  0.00    +0.000 H 
ATOM    109  H7  UNL A   1      52.259  28.847  23.462  1.00  0.00    +0.000 H 
ATOM    107  H5  UNL A   1      51.327  27.386  23.235  1.00  0.00    +0.000 H 
ENDBRANCH    2    3
ENDBRANCH    4    2
ENDBRANCH    5    4
BRANCH    5    6
ATOM    113  H11 UNL A   1      55.101  26.137  20.713  1.00  0.00    +0.000 H 
ATOM      6  N1  UNL A   1      54.941  26.753  19.961  1.00  0.00    +0.000 N 
BRANCH    6    7
ATOM      7  C6  UNL A   1      55.650  26.482  18.831  1.00  0.00    +0.000 C 
ATOM      8  O1  UNL A   1      56.837  26.171  18.988  1.00  0.00    +0.000 O 
BRANCH    7    9
ATOM      9  C7  UNL A   1      55.073  26.589  17.408  1.00  0.00    +0.000 C 
ATOM    114  H12 UNL A   1      55.714  27.244  16.855  1.00  0.00    +0.000 H 
ATOM    115  H13 UNL A   1      54.070  26.930  17.554  1.00  0.00    +0.000 H 
BRANCH    9   10
ATOM     10  N2  UNL A   1      54.931  25.374  16.635  1.00  0.00    +0.000 N 
ATOM    116  H14 UNL A   1      55.248  25.466  15.707  1.00  0.00    +0.000 H 
BRANCH   10   11
ATOM     11  C8  UNL A   1      54.454  24.139  16.918  1.00  0.00    +0.000 C 
ATOM     12  O2  UNL A   1      55.310  23.338  17.321  1.00  0.00    +0.000 O 
BRANCH   11   13
ATOM    117  H15 UNL A   1      52.772  22.980  17.506  1.00  0.00    +0.000 H 
ATOM     13  C9  UNL A   1      52.984  23.654  16.702  1.00  0.00    +0.000 C 
BRANCH   13   14
ATOM    118  H16 UNL A   1      51.427  24.899  16.137  1.00  0.00    +0.000 H 
ATOM     14  N3  UNL A   1      51.954  24.675  16.937  1.00  0.00    +0.000 N 
BRANCH   14   15
ATOM     15  C10 UNL A   1      51.590  25.366  18.044  1.00  0.00    +0.000 C 
ATOM     16  O3  UNL A   1      51.187  24.775  19.037  1.00  0.00    +0.000 O 
BRANCH   15   17
ATOM     17  O4  UNL A   1      51.644  26.705  17.902  1.00  0.00    +0.000 O 
BRANCH   17   18
ATOM     18  C11 UNL A   1      51.721  27.164  16.544  1.00  0.00    +0.000 C 
ATOM    119  H17 UNL A   1      50.803  26.918  16.052  1.00  0.00    +0.000 H 
ATOM    120  H18 UNL A   1      52.567  26.682  16.100  1.00  0.00    +0.000 H 
BRANCH   18   19
ATOM     19  C12 UNL A   1      51.947  28.662  16.415  1.00  0.00    +0.000 C 
ATOM     20  C13 UNL A   1      51.930  29.249  15.141  1.00  0.00    +0.000 C 
ATOM     21  C14 UNL A   1      52.217  30.607  14.973  1.00  0.00    +0.000 C 
ATOM     22  C15 UNL A   1      52.534  31.398  16.074  1.00  0.00    +0.000 C 
ATOM     23  C16 UNL A   1      52.560  30.835  17.343  1.00  0.00    +0.000 C 
ATOM     24  C17 UNL A   1      52.271  29.480  17.509  1.00  0.00    +0.000 C 
ATOM    121  H19 UNL A   1      51.703  28.670  14.317  1.00  0.00    +0.000 H 
ATOM    122  H20 UNL A   1      52.194  31.024  14.029  1.00  0.00    +0.000 H 
ATOM    123  H21 UNL A   1      52.749  32.400  15.947  1.00  0.00    +0.000 H 
ATOM    124  H22 UNL A   1      52.794  31.418  18.162  1.00  0.00    +0.000 H 
ATOM    125  H23 UNL A   1      52.298  29.070  18.457  1.00  0.00    +0.000 H 
ENDBRANCH   18   19
ENDBRANCH   17   18
ENDBRANCH   15   17
ENDBRANCH   14   15
ENDBRANCH   13   14
BRANCH   13   25
ATOM     25  C18 UNL A   1      52.823  22.763  15.450  1.00  0.00    +0.000 C 
ATOM    126  H24 UNL A   1      53.807  22.435  15.187  1.00  0.00    +0.000 H 
BRANCH   25   26
ATOM    129  H27 UNL A   1      50.990  21.877  16.134  1.00  0.00    +0.000 H 
ATOM     26  C19 UNL A   1      51.923  21.546  15.728  1.00  0.00    +0.000 C 
ATOM    127  H25 UNL A   1      52.407  20.898  16.429  1.00  0.00    +0.000 H 
ATOM    128  H26 UNL A   1      51.747  21.015  14.815  1.00  0.00    +0.000 H 
ENDBRANCH   25   26
BRANCH   25   27
ATOM    130  H28 UNL A   1      52.263  22.981  13.390  1.00  0.00    +0.000 H 
ATOM     27  C20 UNL A   1      52.185  23.549  14.294  1.00  0.00    +0.000 C 
ATOM    132  H30 UNL A   1      51.154  23.732  14.513  1.00  0.00    +0.000 H 
ATOM    131  H29 UNL A   1      52.695  24.482  14.174  1.00  0.00    +0.000 H 
ENDBRANCH   25   27
ENDBRANCH   13   25
ENDBRANCH   11   13
ENDBRANCH   10   11
ENDBRANCH    9   10
ENDBRANCH    7    9
ENDBRANCH    6    7
ENDBRANCH    5    6
ENDBRANCH   28    5
ENDBRANCH   30   28
ENDBRANCH   31   30
ENDBRANCH   32   31
ENDBRANCH   33   32
ENDBRANCH   34   33
ENDBRANCH   35   34
ENDBRANCH   36   35
ENDBRANCH   37   36
ENDBRANCH   38   37
ENDBRANCH   40   38
ENDBRANCH   44   43
BRANCH   48   49
ATOM     49  C37 UNL A   1      45.836  25.637  27.110  1.00  0.00    +0.000 C 
ATOM     50  C38 UNL A   1      45.640  24.996  28.343  1.00  0.00    +0.000 C 
ATOM     51  F1  UNL A   1      46.267  25.441  29.443  1.00  0.00    +0.000 F 
ATOM     52  C39 UNL A   1      44.832  23.867  28.443  1.00  0.00    +0.000 C 
ATOM     53  F2  UNL A   1      44.697  23.243  29.622  1.00  0.00    +0.000 F 
ATOM     54  C40 UNL A   1      44.176  23.379  27.322  1.00  0.00    +0.000 C 
ATOM     55  F3  UNL A   1      43.393  22.295  27.421  1.00  0.00    +0.000 F 
ATOM     56  C41 UNL A   1      44.340  24.010  26.098  1.00  0.00    +0.000 C 
ATOM     57  F4  UNL A   1      43.699  23.545  25.016  1.00  0.00    +0.000 F 
ATOM     58  C42 UNL A   1      45.171  25.122  25.989  1.00  0.00    +0.000 C 
ATOM     59  F5  UNL A   1      45.322  25.699  24.787  1.00  0.00    +0.000 F 
ENDBRANCH   48   49
BRANCH   65   66
ATOM     66  C48 UNL A   1      45.163  32.817  27.195  1.00  0.00    +0.000 C 
ATOM     67  C49 UNL A   1      44.834  33.315  28.464  1.00  0.00    +0.000 C 
ATOM     68  F6  UNL A   1      45.463  32.852  29.555  1.00  0.00    +0.000 F 
ATOM     69  C50 UNL A   1      43.826  34.262  28.619  1.00  0.00    +0.000 C 
ATOM     70  F7  UNL A   1      43.495  34.690  29.845  1.00  0.00    +0.000 F 
ATOM     71  C51 UNL A   1      43.153  34.751  27.508  1.00  0.00    +0.000 C 
ATOM     72  F8  UNL A   1      42.185  35.665  27.660  1.00  0.00    +0.000 F 
ATOM     73  C52 UNL A   1      43.477  34.287  26.242  1.00  0.00    +0.000 C 
ATOM     74  F9  UNL A   1      42.835  34.767  25.169  1.00  0.00    +0.000 F 
ATOM     75  C53 UNL A   1      44.466  33.321  26.086  1.00  0.00    +0.000 C 
ATOM     76  F10 UNL A   1      44.749  32.880  24.851  1.00  0.00    +0.000 F 
ENDBRANCH   65   66
BRANCH   80   81
ATOM     81  C57 UNL A   1      52.020  33.430  26.161  1.00  0.00    +0.000 C 
ATOM     82  C58 UNL A   1      52.591  34.060  27.275  1.00  0.00    +0.000 C 
ATOM     83  F11 UNL A   1      52.312  33.615  28.510  1.00  0.00    +0.000 F 
ATOM     84  C59 UNL A   1      53.415  35.174  27.130  1.00  0.00    +0.000 C 
ATOM     85  F12 UNL A   1      53.909  35.785  28.214  1.00  0.00    +0.000 F 
ATOM     86  C60 UNL A   1      53.707  35.661  25.865  1.00  0.00    +0.000 C 
ATOM     87  F13 UNL A   1      54.497  36.734  25.724  1.00  0.00    +0.000 F 
ATOM     88  C61 UNL A   1      53.170  35.041  24.746  1.00  0.00    +0.000 C 
ATOM     89  F14 UNL A   1      53.461  35.501  23.521  1.00  0.00    +0.000 F 
ATOM     90  C62 UNL A   1      52.326  33.942  24.892  1.00  0.00    +0.000 C 
ATOM     91  F15 UNL A   1      51.810  33.371  23.795  1.00  0.00    +0.000 F 
ENDBRANCH   80   81
TORSDOF 33
ENDMDL
MODEL 7
REMARK VINA RESULT:      -4.3     55.437     61.727
ROOT
ATOM    149  H47 UNL A   1       1.421  -1.676  25.032  1.00  0.00    +0.000 H 
ATOM    150  H48 UNL A   1       3.304  -3.163  26.053  1.00  0.00    +0.000 H 
ATOM    151  H49 UNL A   1       4.742   0.706  25.716  1.00  0.00    +0.000 H 
ATOM    152  H50 UNL A   1       9.523   4.889  26.401  1.00  0.00    +0.000 H 
ATOM    153  H51 UNL A   1       7.684   6.336  25.409  1.00  0.00    +0.000 H 
ATOM    154  H52 UNL A   1       6.203   2.469  25.771  1.00  0.00    +0.000 H 
ATOM    155  H53 UNL A   1       9.897  -0.263  27.790  1.00  0.00    +0.000 H 
ATOM    156  H54 UNL A   1       8.374  -2.298  27.493  1.00  0.00    +0.000 H 
ATOM    157  H55 UNL A   1       1.049   3.563  23.914  1.00  0.00    +0.000 H 
ATOM    158  H56 UNL A   1       2.711   5.500  23.717  1.00  0.00    +0.000 H 
ATOM     44  C33 UNL A   1       5.271   4.929  24.830  1.00  0.00    +0.000 C 
ATOM     45  C34 UNL A   1       4.111   3.990  24.669  1.00  0.00    +0.000 C 
ATOM     46  N6  UNL A   1       4.017   2.724  24.993  1.00  0.00    +0.000 N 
ATOM     47  C35 UNL A   1       2.722   2.345  24.666  1.00  0.00    +0.000 C 
ATOM     48  C36 UNL A   1       2.155   1.118  24.745  1.00  0.00    +0.000 C 
ATOM     60  C43 UNL A   1       2.837  -0.058  25.216  1.00  0.00    +0.000 C 
ATOM     61  C44 UNL A   1       2.362  -1.354  25.309  1.00  0.00    +0.000 C 
ATOM     62  C45 UNL A   1       3.377  -2.154  25.844  1.00  0.00    +0.000 C 
ATOM     63  C46 UNL A   1       4.497  -1.365  26.048  1.00  0.00    +0.000 C 
ATOM     64  N7  UNL A   1       4.148  -0.079  25.670  1.00  0.00    +0.000 N 
ATOM     65  C47 UNL A   1       5.790  -1.753  26.545  1.00  0.00    +0.000 C 
ATOM     77  C54 UNL A   1       6.835  -0.913  26.745  1.00  0.00    +0.000 C 
ATOM     78  N8  UNL A   1       6.913   0.454  26.517  1.00  0.00    +0.000 N 
ATOM     79  C55 UNL A   1       8.122   0.811  26.878  1.00  0.00    +0.000 C 
ATOM     80  C56 UNL A   1       8.770   2.168  26.816  1.00  0.00    +0.000 C 
ATOM     92  C63 UNL A   1       8.080   3.200  26.299  1.00  0.00    +0.000 C 
ATOM     93  C64 UNL A   1       8.577   4.564  26.144  1.00  0.00    +0.000 C 
ATOM     94  C65 UNL A   1       7.608   5.327  25.612  1.00  0.00    +0.000 C 
ATOM     95  C66 UNL A   1       6.428   4.498  25.365  1.00  0.00    +0.000 C 
ATOM     96  N9  UNL A   1       6.798   3.252  25.806  1.00  0.00    +0.000 N 
ATOM     97  C67 UNL A   1       8.939  -0.289  27.407  1.00  0.00    +0.000 C 
ATOM     98  C68 UNL A   1       8.124  -1.324  27.264  1.00  0.00    +0.000 C 
ATOM     99  C69 UNL A   1       2.048   3.525  24.171  1.00  0.00    +0.000 C 
ATOM    100  C70 UNL A   1       2.881   4.552  24.089  1.00  0.00    +0.000 C 
ENDROOT
BRANCH   44   43
ATOM    101  C71 UNL A   1       5.491   6.753  23.139  1.00  0.00    +0.000 C 
ATOM    102  C72 UNL A   1       5.421   8.095  22.776  1.00  0.00    +0.000 C 
ATOM     40  C29 UNL A   1       4.898   9.031  23.674  1.00  0.00    +0.000 C 
ATOM     41  C30 UNL A   1       4.541   8.645  24.968  1.00  0.00    +0.000 C 
ATOM     42  C31 UNL A   1       4.672   7.310  25.351  1.00  0.00    +0.000 C 
ATOM     43  C32 UNL A   1       5.130   6.351  24.433  1.00  0.00    +0.000 C 
ATOM    147  H45 UNL A   1       4.182   9.344  25.637  1.00  0.00    +0.000 H 
ATOM    148  H46 UNL A   1       4.430   7.026  26.313  1.00  0.00    +0.000 H 
ATOM    159  H57 UNL A   1       5.810   6.052  22.452  1.00  0.00    +0.000 H 
ATOM    160  H58 UNL A   1       5.753   8.399  21.847  1.00  0.00    +0.000 H 
BRANCH   40   38
ATOM     38  C28 UNL A   1       4.719  10.446  23.287  1.00  0.00    +0.000 C 
ATOM     39  O6  UNL A   1       3.607  10.858  22.972  1.00  0.00    +0.000 O 
BRANCH   38   37
ATOM    146  H44 UNL A   1       5.887  11.839  22.442  1.00  0.00    +0.000 H 
ATOM     37  N5  UNL A   1       5.806  11.281  23.249  1.00  0.00    +0.000 N 
BRANCH   37   36
ATOM    145  H43 UNL A   1       6.684  10.730  25.011  1.00  0.00    +0.000 H 
ATOM     36  C27 UNL A   1       6.851  11.451  24.238  1.00  0.00    +0.000 C 
ATOM    144  H42 UNL A   1       6.807  12.452  24.613  1.00  0.00    +0.000 H 
BRANCH   36   35
ATOM     35  C26 UNL A   1       8.243  11.202  23.673  1.00  0.00    +0.000 C 
ATOM    142  H40 UNL A   1       8.314  11.711  22.734  1.00  0.00    +0.000 H 
ATOM    143  H41 UNL A   1       8.931  11.562  24.409  1.00  0.00    +0.000 H 
BRANCH   35   34
ATOM     34  C25 UNL A   1       8.604   9.732  23.442  1.00  0.00    +0.000 C 
ATOM    140  H38 UNL A   1       9.200   9.406  24.268  1.00  0.00    +0.000 H 
ATOM    141  H39 UNL A   1       7.672   9.216  23.347  1.00  0.00    +0.000 H 
BRANCH   34   33
ATOM     33  C24 UNL A   1       9.379   9.432  22.155  1.00  0.00    +0.000 C 
ATOM    138  H36 UNL A   1       9.812  10.348  21.811  1.00  0.00    +0.000 H 
ATOM    139  H37 UNL A   1      10.099   8.685  22.414  1.00  0.00    +0.000 H 
BRANCH   33   32
ATOM    137  H35 UNL A   1       8.978   9.218  20.101  1.00  0.00    +0.000 H 
ATOM    136  H34 UNL A   1       7.534   9.130  21.146  1.00  0.00    +0.000 H 
ATOM     32  C23 UNL A   1       8.555   8.840  21.008  1.00  0.00    +0.000 C 
BRANCH   32   31
ATOM    135  H33 UNL A   1       7.615   6.943  21.019  1.00  0.00    +0.000 H 
ATOM    134  H32 UNL A   1       9.246   6.948  21.688  1.00  0.00    +0.000 H 
ATOM     31  C22 UNL A   1       8.609   7.323  20.913  1.00  0.00    +0.000 C 
BRANCH   31   30
ATOM    133  H31 UNL A   1      10.094   6.720  19.596  1.00  0.00    +0.000 H 
ATOM     30  N4  UNL A   1       9.124   6.889  19.634  1.00  0.00    +0.000 N 
BRANCH   30   28
ATOM     28  C21 UNL A   1       8.437   6.684  18.476  1.00  0.00    +0.000 C 
ATOM     29  O5  UNL A   1       8.096   7.670  17.818  1.00  0.00    +0.000 O 
BRANCH   28    5
ATOM      5  C5  UNL A   1       8.033   5.265  18.032  1.00  0.00    +0.000 C 
ATOM    112  H10 UNL A   1       8.940   4.700  17.980  1.00  0.00    +0.000 H 
BRANCH    5    4
ATOM      4  C4  UNL A   1       7.482   5.175  16.604  1.00  0.00    +0.000 C 
ATOM    110  H8  UNL A   1       6.832   4.327  16.559  1.00  0.00    +0.000 H 
ATOM    111  H9  UNL A   1       7.000   6.113  16.424  1.00  0.00    +0.000 H 
BRANCH    4    2
ATOM      2  C2  UNL A   1       8.532   5.027  15.472  1.00  0.00    +0.000 C 
ATOM    106  H4  UNL A   1       8.790   6.030  15.205  1.00  0.00    +0.000 H 
BRANCH    2    1
ATOM      1  C1  UNL A   1       9.845   4.344  15.864  1.00  0.00    +0.000 C 
ATOM    105  H3  UNL A   1      10.326   4.912  16.633  1.00  0.00    +0.000 H 
ATOM    103  H1  UNL A   1      10.486   4.286  15.010  1.00  0.00    +0.000 H 
ATOM    104  H2  UNL A   1       9.640   3.358  16.225  1.00  0.00    +0.000 H 
ENDBRANCH    2    1
BRANCH    2    3
ATOM      3  C3  UNL A   1       7.914   4.238  14.313  1.00  0.00    +0.000 C 
ATOM    108  H6  UNL A   1       7.619   4.914  13.538  1.00  0.00    +0.000 H 
ATOM    109  H7  UNL A   1       7.056   3.702  14.664  1.00  0.00    +0.000 H 
ATOM    107  H5  UNL A   1       8.634   3.546  13.928  1.00  0.00    +0.000 H 
ENDBRANCH    2    3
ENDBRANCH    4    2
ENDBRANCH    5    4
BRANCH    5    6
ATOM    113  H11 UNL A   1       6.326   5.101  19.214  1.00  0.00    +0.000 H 
ATOM      6  N1  UNL A   1       7.171   4.628  19.029  1.00  0.00    +0.000 N 
BRANCH    6    7
ATOM      7  C6  UNL A   1       7.358   3.482  19.740  1.00  0.00    +0.000 C 
ATOM      8  O1  UNL A   1       6.998   2.432  19.194  1.00  0.00    +0.000 O 
BRANCH    7    9
ATOM      9  C7  UNL A   1       7.934   3.439  21.166  1.00  0.00    +0.000 C 
ATOM    114  H12 UNL A   1       7.817   2.438  21.526  1.00  0.00    +0.000 H 
ATOM    115  H13 UNL A   1       7.387   4.192  21.695  1.00  0.00    +0.000 H 
BRANCH    9   10
ATOM     10  N2  UNL A   1       9.321   3.804  21.355  1.00  0.00    +0.000 N 
ATOM    116  H14 UNL A   1       9.486   4.770  21.251  1.00  0.00    +0.000 H 
BRANCH   10   11
ATOM     11  C8  UNL A   1      10.440   3.099  21.645  1.00  0.00    +0.000 C 
ATOM     12  O2  UNL A   1      10.556   2.788  22.838  1.00  0.00    +0.000 O 
BRANCH   11   13
ATOM    117  H15 UNL A   1      12.436   3.306  20.943  1.00  0.00    +0.000 H 
ATOM     13  C9  UNL A   1      11.581   2.739  20.638  1.00  0.00    +0.000 C 
BRANCH   13   14
ATOM    118  H16 UNL A   1      13.090   1.318  20.671  1.00  0.00    +0.000 H 
ATOM     14  N3  UNL A   1      12.112   1.375  20.765  1.00  0.00    +0.000 N 
BRANCH   14   15
ATOM     15  C10 UNL A   1      11.514   0.180  20.990  1.00  0.00    +0.000 C 
ATOM     16  O3  UNL A   1      10.522  -0.144  20.352  1.00  0.00    +0.000 O 
BRANCH   15   17
ATOM     17  O4  UNL A   1      12.061  -0.530  21.996  1.00  0.00    +0.000 O 
BRANCH   17   18
ATOM     18  C11 UNL A   1      11.118  -1.084  22.926  1.00  0.00    +0.000 C 
ATOM    119  H17 UNL A   1      10.609  -1.895  22.447  1.00  0.00    +0.000 H 
ATOM    120  H18 UNL A   1      10.454  -0.292  23.205  1.00  0.00    +0.000 H 
BRANCH   18   19
ATOM     19  C12 UNL A   1      11.750  -1.604  24.206  1.00  0.00    +0.000 C 
ATOM     20  C13 UNL A   1      10.996  -2.424  25.058  1.00  0.00    +0.000 C 
ATOM     21  C14 UNL A   1      11.513  -2.852  26.285  1.00  0.00    +0.000 C 
ATOM     22  C15 UNL A   1      12.789  -2.461  26.684  1.00  0.00    +0.000 C 
ATOM     23  C16 UNL A   1      13.549  -1.645  25.856  1.00  0.00    +0.000 C 
ATOM     24  C17 UNL A   1      13.033  -1.220  24.631  1.00  0.00    +0.000 C 
ATOM    121  H19 UNL A   1      10.047  -2.715  24.776  1.00  0.00    +0.000 H 
ATOM    122  H20 UNL A   1      10.947  -3.460  26.897  1.00  0.00    +0.000 H 
ATOM    123  H21 UNL A   1      13.166  -2.776  27.592  1.00  0.00    +0.000 H 
ATOM    124  H22 UNL A   1      14.496  -1.353  26.147  1.00  0.00    +0.000 H 
ATOM    125  H23 UNL A   1      13.605  -0.611  24.026  1.00  0.00    +0.000 H 
ENDBRANCH   18   19
ENDBRANCH   17   18
ENDBRANCH   15   17
ENDBRANCH   14   15
ENDBRANCH   13   14
BRANCH   13   25
ATOM     25  C18 UNL A   1      11.310   3.261  19.210  1.00  0.00    +0.000 C 
ATOM    126  H24 UNL A   1      10.248   3.230  19.076  1.00  0.00    +0.000 H 
BRANCH   25   26
ATOM    129  H27 UNL A   1      11.968   4.895  17.981  1.00  0.00    +0.000 H 
ATOM     26  C19 UNL A   1      11.817   4.702  19.023  1.00  0.00    +0.000 C 
ATOM    127  H25 UNL A   1      12.742   4.824  19.546  1.00  0.00    +0.000 H 
ATOM    128  H26 UNL A   1      11.094   5.388  19.412  1.00  0.00    +0.000 H 
ENDBRANCH   25   26
BRANCH   25   27
ATOM    130  H28 UNL A   1      13.070   2.564  18.202  1.00  0.00    +0.000 H 
ATOM     27  C20 UNL A   1      12.015   2.387  18.162  1.00  0.00    +0.000 C 
ATOM    132  H30 UNL A   1      11.818   1.356  18.366  1.00  0.00    +0.000 H 
ATOM    131  H29 UNL A   1      11.650   2.634  17.187  1.00  0.00    +0.000 H 
ENDBRANCH   25   27
ENDBRANCH   13   25
ENDBRANCH   11   13
ENDBRANCH   10   11
ENDBRANCH    9   10
ENDBRANCH    7    9
ENDBRANCH    6    7
ENDBRANCH    5    6
ENDBRANCH   28    5
ENDBRANCH   30   28
ENDBRANCH   31   30
ENDBRANCH   32   31
ENDBRANCH   33   32
ENDBRANCH   34   33
ENDBRANCH   35   34
ENDBRANCH   36   35
ENDBRANCH   37   36
ENDBRANCH   38   37
ENDBRANCH   40   38
ENDBRANCH   44   43
BRANCH   48   49
ATOM     49  C37 UNL A   1       0.730   0.987  24.297  1.00  0.00    +0.000 C 
ATOM     50  C38 UNL A   1       0.408   0.620  22.980  1.00  0.00    +0.000 C 
ATOM     51  F1  UNL A   1       1.382   0.416  22.080  1.00  0.00    +0.000 F 
ATOM     52  C39 UNL A   1      -0.917   0.503  22.573  1.00  0.00    +0.000 C 
ATOM     53  F2  UNL A   1      -1.200   0.198  21.299  1.00  0.00    +0.000 F 
ATOM     54  C40 UNL A   1      -1.946   0.715  23.479  1.00  0.00    +0.000 C 
ATOM     55  F3  UNL A   1      -3.222   0.597  23.086  1.00  0.00    +0.000 F 
ATOM     56  C41 UNL A   1      -1.650   1.059  24.790  1.00  0.00    +0.000 C 
ATOM     57  F4  UNL A   1      -2.644   1.254  25.669  1.00  0.00    +0.000 F 
ATOM     58  C42 UNL A   1      -0.326   1.205  25.194  1.00  0.00    +0.000 C 
ATOM     59  F5  UNL A   1      -0.073   1.554  26.465  1.00  0.00    +0.000 F 
ENDBRANCH   48   49
BRANCH   65   66
ATOM     66  C48 UNL A   1       6.013  -3.205  26.850  1.00  0.00    +0.000 C 
ATOM     67  C49 UNL A   1       6.791  -4.020  26.016  1.00  0.00    +0.000 C 
ATOM     68  F6  UNL A   1       7.320  -3.523  24.888  1.00  0.00    +0.000 F 
ATOM     69  C50 UNL A   1       6.992  -5.364  26.318  1.00  0.00    +0.000 C 
ATOM     70  F7  UNL A   1       7.699  -6.138  25.483  1.00  0.00    +0.000 F 
ATOM     71  C51 UNL A   1       6.448  -5.908  27.474  1.00  0.00    +0.000 C 
ATOM     72  F8  UNL A   1       6.646  -7.201  27.764  1.00  0.00    +0.000 F 
ATOM     73  C52 UNL A   1       5.693  -5.113  28.323  1.00  0.00    +0.000 C 
ATOM     74  F9  UNL A   1       5.177  -5.634  29.444  1.00  0.00    +0.000 F 
ATOM     75  C53 UNL A   1       5.468  -3.776  28.011  1.00  0.00    +0.000 C 
ATOM     76  F10 UNL A   1       4.722  -3.034  28.843  1.00  0.00    +0.000 F 
ENDBRANCH   65   66
BRANCH   80   81
ATOM     81  C57 UNL A   1      10.165   2.366  27.285  1.00  0.00    +0.000 C 
ATOM     82  C58 UNL A   1      10.433   3.036  28.487  1.00  0.00    +0.000 C 
ATOM     83  F11 UNL A   1       9.420   3.515  29.224  1.00  0.00    +0.000 F 
ATOM     84  C59 UNL A   1      11.740   3.255  28.913  1.00  0.00    +0.000 C 
ATOM     85  F12 UNL A   1      11.968   3.941  30.042  1.00  0.00    +0.000 F 
ATOM     86  C60 UNL A   1      12.805   2.782  28.162  1.00  0.00    +0.000 C 
ATOM     87  F13 UNL A   1      14.063   2.994  28.572  1.00  0.00    +0.000 F 
ATOM     88  C61 UNL A   1      12.565   2.098  26.980  1.00  0.00    +0.000 C 
ATOM     89  F14 UNL A   1      13.591   1.627  26.258  1.00  0.00    +0.000 F 
ATOM     90  C62 UNL A   1      11.258   1.900  26.539  1.00  0.00    +0.000 C 
ATOM     91  F15 UNL A   1      11.054   1.247  25.386  1.00  0.00    +0.000 F 
ENDBRANCH   80   81
TORSDOF 33
ENDMDL
MODEL 8
REMARK VINA RESULT:      -4.2     47.026     52.706
ROOT
ATOM    149  H47 UNL A   1       3.872  28.122   2.010  1.00  0.00    +0.000 H 
ATOM    150  H48 UNL A   1       5.891  26.989   3.209  1.00  0.00    +0.000 H 
ATOM    151  H49 UNL A   1       7.370  29.553   0.312  1.00  0.00    +0.000 H 
ATOM    152  H50 UNL A   1      12.351  32.061  -2.806  1.00  0.00    +0.000 H 
ATOM    153  H51 UNL A   1      10.380  33.166  -3.970  1.00  0.00    +0.000 H 
ATOM    154  H52 UNL A   1       8.870  30.627  -1.045  1.00  0.00    +0.000 H 
ATOM    155  H53 UNL A   1      12.850  28.564   1.211  1.00  0.00    +0.000 H 
ATOM    156  H54 UNL A   1      11.190  27.158   2.558  1.00  0.00    +0.000 H 
ATOM    157  H55 UNL A   1       3.475  31.833  -1.850  1.00  0.00    +0.000 H 
ATOM    158  H56 UNL A   1       5.086  32.860  -3.554  1.00  0.00    +0.000 H 
ATOM     44  C33 UNL A   1       7.830  32.341  -2.992  1.00  0.00    +0.000 C 
ATOM     45  C34 UNL A   1       6.629  31.797  -2.275  1.00  0.00    +0.000 C 
ATOM     46  N6  UNL A   1       6.572  30.976  -1.256  1.00  0.00    +0.000 N 
ATOM     47  C35 UNL A   1       5.222  30.828  -0.965  1.00  0.00    +0.000 C 
ATOM     48  C36 UNL A   1       4.640  30.028  -0.041  1.00  0.00    +0.000 C 
ATOM     60  C43 UNL A   1       5.365  29.160   0.848  1.00  0.00    +0.000 C 
ATOM     61  C44 UNL A   1       4.869  28.288   1.802  1.00  0.00    +0.000 C 
ATOM     62  C45 UNL A   1       5.953  27.671   2.435  1.00  0.00    +0.000 C 
ATOM     63  C46 UNL A   1       7.122  28.128   1.850  1.00  0.00    +0.000 C 
ATOM     64  N7  UNL A   1       6.747  29.050   0.886  1.00  0.00    +0.000 N 
ATOM     65  C47 UNL A   1       8.479  27.751   2.144  1.00  0.00    +0.000 C 
ATOM     77  C54 UNL A   1       9.581  28.266   1.544  1.00  0.00    +0.000 C 
ATOM     78  N8  UNL A   1       9.663  29.223   0.543  1.00  0.00    +0.000 N 
ATOM     79  C55 UNL A   1      10.942  29.394   0.313  1.00  0.00    +0.000 C 
ATOM     80  C56 UNL A   1      11.615  30.287  -0.695  1.00  0.00    +0.000 C 
ATOM     92  C63 UNL A   1      10.856  31.017  -1.533  1.00  0.00    +0.000 C 
ATOM     93  C64 UNL A   1      11.356  31.904  -2.579  1.00  0.00    +0.000 C 
ATOM     94  C65 UNL A   1      10.314  32.481  -3.200  1.00  0.00    +0.000 C 
ATOM     95  C66 UNL A   1       9.070  31.984  -2.610  1.00  0.00    +0.000 C 
ATOM     96  N9  UNL A   1       9.490  31.123  -1.627  1.00  0.00    +0.000 N 
ATOM     97  C67 UNL A   1      11.819  28.583   1.167  1.00  0.00    +0.000 C 
ATOM     98  C68 UNL A   1      10.939  27.883   1.869  1.00  0.00    +0.000 C 
ATOM     99  C69 UNL A   1       4.496  31.685  -1.876  1.00  0.00    +0.000 C 
ATOM    100  C70 UNL A   1       5.313  32.253  -2.750  1.00  0.00    +0.000 C 
ENDROOT
BRANCH   44   43
ATOM    101  C71 UNL A   1       7.473  32.842  -5.412  1.00  0.00    +0.000 C 
ATOM    102  C72 UNL A   1       7.367  33.742  -6.468  1.00  0.00    +0.000 C 
ATOM     40  C29 UNL A   1       7.344  35.117  -6.210  1.00  0.00    +0.000 C 
ATOM     41  C30 UNL A   1       7.528  35.594  -4.911  1.00  0.00    +0.000 C 
ATOM     42  C31 UNL A   1       7.698  34.692  -3.861  1.00  0.00    +0.000 C 
ATOM     43  C32 UNL A   1       7.653  33.309  -4.102  1.00  0.00    +0.000 C 
ATOM    147  H45 UNL A   1       7.539  36.610  -4.729  1.00  0.00    +0.000 H 
ATOM    148  H46 UNL A   1       7.857  35.042  -2.904  1.00  0.00    +0.000 H 
ATOM    159  H57 UNL A   1       7.418  31.828  -5.594  1.00  0.00    +0.000 H 
ATOM    160  H58 UNL A   1       7.306  33.397  -7.439  1.00  0.00    +0.000 H 
BRANCH   40   38
ATOM     38  C28 UNL A   1       7.135  36.095  -7.298  1.00  0.00    +0.000 C 
ATOM     39  O6  UNL A   1       7.771  35.996  -8.342  1.00  0.00    +0.000 O 
BRANCH   38   37
ATOM    146  H44 UNL A   1       6.660  38.015  -6.971  1.00  0.00    +0.000 H 
ATOM     37  N5  UNL A   1       6.254  37.130  -7.116  1.00  0.00    +0.000 N 
BRANCH   37   36
ATOM    145  H43 UNL A   1       4.503  36.196  -7.605  1.00  0.00    +0.000 H 
ATOM     36  C27 UNL A   1       4.805  37.095  -7.110  1.00  0.00    +0.000 C 
ATOM    144  H42 UNL A   1       4.440  37.967  -7.612  1.00  0.00    +0.000 H 
BRANCH   36   35
ATOM     35  C26 UNL A   1       4.223  37.063  -5.704  1.00  0.00    +0.000 C 
ATOM    142  H40 UNL A   1       5.002  36.775  -5.030  1.00  0.00    +0.000 H 
ATOM    143  H41 UNL A   1       3.837  38.043  -5.519  1.00  0.00    +0.000 H 
BRANCH   35   34
ATOM     34  C25 UNL A   1       3.047  36.102  -5.503  1.00  0.00    +0.000 C 
ATOM    140  H38 UNL A   1       3.082  35.373  -6.284  1.00  0.00    +0.000 H 
ATOM    141  H39 UNL A   1       3.168  35.696  -4.521  1.00  0.00    +0.000 H 
BRANCH   34   33
ATOM     33  C24 UNL A   1       1.655  36.743  -5.520  1.00  0.00    +0.000 C 
ATOM    138  H36 UNL A   1       1.775  37.785  -5.733  1.00  0.00    +0.000 H 
ATOM    139  H37 UNL A   1       1.097  36.212  -6.261  1.00  0.00    +0.000 H 
BRANCH   33   32
ATOM    137  H35 UNL A   1       1.565  36.468  -3.437  1.00  0.00    +0.000 H 
ATOM    136  H34 UNL A   1       0.170  35.800  -4.328  1.00  0.00    +0.000 H 
ATOM     32  C23 UNL A   1       0.853  36.617  -4.221  1.00  0.00    +0.000 C 
BRANCH   32   31
ATOM    135  H33 UNL A   1      -0.313  38.302  -4.754  1.00  0.00    +0.000 H 
ATOM    134  H32 UNL A   1       0.693  38.538  -3.326  1.00  0.00    +0.000 H 
ATOM     31  C22 UNL A   1       0.055  37.859  -3.852  1.00  0.00    +0.000 C 
BRANCH   31   30
ATOM    133  H31 UNL A   1      -1.946  37.469  -3.471  1.00  0.00    +0.000 H 
ATOM     30  N4  UNL A   1      -1.076  37.534  -3.013  1.00  0.00    +0.000 N 
BRANCH   30   28
ATOM     28  C21 UNL A   1      -1.090  37.305  -1.671  1.00  0.00    +0.000 C 
ATOM     29  O5  UNL A   1      -1.158  38.277  -0.915  1.00  0.00    +0.000 O 
BRANCH   28    5
ATOM      5  C5  UNL A   1      -0.952  35.879  -1.105  1.00  0.00    +0.000 C 
ATOM    112  H10 UNL A   1      -1.460  35.883  -0.164  1.00  0.00    +0.000 H 
BRANCH    5    4
ATOM      4  C4  UNL A   1       0.478  35.474  -0.730  1.00  0.00    +0.000 C 
ATOM    110  H8  UNL A   1       0.734  34.611  -1.307  1.00  0.00    +0.000 H 
ATOM    111  H9  UNL A   1       1.080  36.335  -0.932  1.00  0.00    +0.000 H 
BRANCH    4    2
ATOM      2  C2  UNL A   1       0.727  35.137   0.762  1.00  0.00    +0.000 C 
ATOM    106  H4  UNL A   1       1.235  34.196   0.749  1.00  0.00    +0.000 H 
BRANCH    2    1
ATOM      1  C1  UNL A   1       1.645  36.100   1.520  1.00  0.00    +0.000 C 
ATOM    105  H3  UNL A   1       2.622  35.672   1.602  1.00  0.00    +0.000 H 
ATOM    103  H1  UNL A   1       1.249  36.274   2.499  1.00  0.00    +0.000 H 
ATOM    104  H2  UNL A   1       1.705  37.028   0.990  1.00  0.00    +0.000 H 
ENDBRANCH    2    1
BRANCH    2    3
ATOM      3  C3  UNL A   1      -0.616  35.083   1.497  1.00  0.00    +0.000 C 
ATOM    108  H6  UNL A   1      -0.792  34.087   1.847  1.00  0.00    +0.000 H 
ATOM    109  H7  UNL A   1      -1.401  35.369   0.827  1.00  0.00    +0.000 H 
ATOM    107  H5  UNL A   1      -0.595  35.755   2.329  1.00  0.00    +0.000 H 
ENDBRANCH    2    3
ENDBRANCH    4    2
ENDBRANCH    5    4
BRANCH    5    6
ATOM    113  H11 UNL A   1      -1.755  35.192  -2.900  1.00  0.00    +0.000 H 
ATOM      6  N1  UNL A   1      -1.625  34.905  -1.967  1.00  0.00    +0.000 N 
BRANCH    6    7
ATOM      7  C6  UNL A   1      -2.099  33.662  -1.675  1.00  0.00    +0.000 C 
ATOM      8  O1  UNL A   1      -1.300  32.726  -1.800  1.00  0.00    +0.000 O 
BRANCH    7    9
ATOM      9  C7  UNL A   1      -3.551  33.372  -1.257  1.00  0.00    +0.000 C 
ATOM    114  H12 UNL A   1      -3.765  32.360  -1.534  1.00  0.00    +0.000 H 
ATOM    115  H13 UNL A   1      -4.126  34.124  -1.757  1.00  0.00    +0.000 H 
BRANCH    9   10
ATOM     10  N2  UNL A   1      -3.904  33.518   0.138  1.00  0.00    +0.000 N 
ATOM    116  H14 UNL A   1      -3.226  33.149   0.750  1.00  0.00    +0.000 H 
BRANCH   10   11
ATOM     11  C8  UNL A   1      -4.968  34.056   0.780  1.00  0.00    +0.000 C 
ATOM     12  O2  UNL A   1      -6.005  33.381   0.709  1.00  0.00    +0.000 O 
BRANCH   11   13
ATOM    117  H15 UNL A   1      -5.940  35.886   1.254  1.00  0.00    +0.000 H 
ATOM     13  C9  UNL A   1      -4.998  35.443   1.500  1.00  0.00    +0.000 C 
BRANCH   13   14
ATOM    118  H16 UNL A   1      -5.429  36.215   3.374  1.00  0.00    +0.000 H 
ATOM     14  N3  UNL A   1      -5.113  35.379   2.964  1.00  0.00    +0.000 N 
BRANCH   14   15
ATOM     15  C10 UNL A   1      -4.868  34.389   3.856  1.00  0.00    +0.000 C 
ATOM     16  O3  UNL A   1      -5.766  33.635   4.204  1.00  0.00    +0.000 O 
BRANCH   15   17
ATOM     17  O4  UNL A   1      -3.613  34.385   4.345  1.00  0.00    +0.000 O 
BRANCH   17   18
ATOM     18  C11 UNL A   1      -3.130  33.098   4.759  1.00  0.00    +0.000 C 
ATOM    119  H17 UNL A   1      -2.212  32.901   4.246  1.00  0.00    +0.000 H 
ATOM    120  H18 UNL A   1      -3.895  32.388   4.520  1.00  0.00    +0.000 H 
BRANCH   18   19
ATOM     19  C12 UNL A   1      -2.878  32.989   6.253  1.00  0.00    +0.000 C 
ATOM     20  C13 UNL A   1      -2.395  31.781   6.779  1.00  0.00    +0.000 C 
ATOM     21  C14 UNL A   1      -2.230  31.613   8.158  1.00  0.00    +0.000 C 
ATOM     22  C15 UNL A   1      -2.553  32.647   9.034  1.00  0.00    +0.000 C 
ATOM     23  C16 UNL A   1      -3.036  33.849   8.533  1.00  0.00    +0.000 C 
ATOM     24  C17 UNL A   1      -3.198  34.015   7.157  1.00  0.00    +0.000 C 
ATOM    121  H19 UNL A   1      -2.159  31.005   6.139  1.00  0.00    +0.000 H 
ATOM    122  H20 UNL A   1      -1.869  30.720   8.527  1.00  0.00    +0.000 H 
ATOM    123  H21 UNL A   1      -2.433  32.519  10.051  1.00  0.00    +0.000 H 
ATOM    124  H22 UNL A   1      -3.276  34.618   9.178  1.00  0.00    +0.000 H 
ATOM    125  H23 UNL A   1      -3.562  34.911   6.796  1.00  0.00    +0.000 H 
ENDBRANCH   18   19
ENDBRANCH   17   18
ENDBRANCH   15   17
ENDBRANCH   14   15
ENDBRANCH   13   14
BRANCH   13   25
ATOM     25  C18 UNL A   1      -3.978  36.446   0.915  1.00  0.00    +0.000 C 
ATOM    126  H24 UNL A   1      -3.121  35.871   0.634  1.00  0.00    +0.000 H 
BRANCH   25   26
ATOM    129  H27 UNL A   1      -3.749  37.694  -0.817  1.00  0.00    +0.000 H 
ATOM     26  C19 UNL A   1      -4.542  37.180  -0.314  1.00  0.00    +0.000 C 
ATOM    127  H25 UNL A   1      -5.281  37.886   0.001  1.00  0.00    +0.000 H 
ATOM    128  H26 UNL A   1      -4.987  36.471  -0.981  1.00  0.00    +0.000 H 
ENDBRANCH   25   26
BRANCH   25   27
ATOM    130  H28 UNL A   1      -2.674  37.246   2.419  1.00  0.00    +0.000 H 
ATOM     27  C20 UNL A   1      -3.600  37.514   1.953  1.00  0.00    +0.000 C 
ATOM    132  H30 UNL A   1      -3.494  38.461   1.468  1.00  0.00    +0.000 H 
ATOM    131  H29 UNL A   1      -4.367  37.576   2.696  1.00  0.00    +0.000 H 
ENDBRANCH   25   27
ENDBRANCH   13   25
ENDBRANCH   11   13
ENDBRANCH   10   11
ENDBRANCH    9   10
ENDBRANCH    7    9
ENDBRANCH    6    7
ENDBRANCH    5    6
ENDBRANCH   28    5
ENDBRANCH   30   28
ENDBRANCH   31   30
ENDBRANCH   32   31
ENDBRANCH   33   32
ENDBRANCH   34   33
ENDBRANCH   35   34
ENDBRANCH   36   35
ENDBRANCH   37   36
ENDBRANCH   38   37
ENDBRANCH   40   38
ENDBRANCH   44   43
BRANCH   48   49
ATOM     49  C37 UNL A   1       3.142  30.048   0.043  1.00  0.00    +0.000 C 
ATOM     50  C38 UNL A   1       2.363  29.047  -0.560  1.00  0.00    +0.000 C 
ATOM     51  F1  UNL A   1       2.950  28.066  -1.262  1.00  0.00    +0.000 F 
ATOM     52  C39 UNL A   1       0.974  29.075  -0.479  1.00  0.00    +0.000 C 
ATOM     53  F2  UNL A   1       0.249  28.136  -1.103  1.00  0.00    +0.000 F 
ATOM     54  C40 UNL A   1       0.338  30.081   0.234  1.00  0.00    +0.000 C 
ATOM     55  F3  UNL A   1      -1.000  30.103   0.315  1.00  0.00    +0.000 F 
ATOM     56  C41 UNL A   1       1.089  31.067   0.854  1.00  0.00    +0.000 C 
ATOM     57  F4  UNL A   1       0.476  32.034   1.552  1.00  0.00    +0.000 F 
ATOM     58  C42 UNL A   1       2.478  31.059   0.752  1.00  0.00    +0.000 C 
ATOM     59  F5  UNL A   1       3.175  32.037   1.349  1.00  0.00    +0.000 F 
ENDBRANCH   48   49
BRANCH   65   66
ATOM     66  C48 UNL A   1       8.699  26.688   3.180  1.00  0.00    +0.000 C 
ATOM     67  C49 UNL A   1       8.959  27.011   4.520  1.00  0.00    +0.000 C 
ATOM     68  F6  UNL A   1       9.062  28.294   4.898  1.00  0.00    +0.000 F 
ATOM     69  C50 UNL A   1       9.155  26.012   5.469  1.00  0.00    +0.000 C 
ATOM     70  F7  UNL A   1       9.449  26.341   6.734  1.00  0.00    +0.000 F 
ATOM     71  C51 UNL A   1       9.063  24.676   5.103  1.00  0.00    +0.000 C 
ATOM     72  F8  UNL A   1       9.250  23.716   6.019  1.00  0.00    +0.000 F 
ATOM     73  C52 UNL A   1       8.787  24.335   3.787  1.00  0.00    +0.000 C 
ATOM     74  F9  UNL A   1       8.688  23.047   3.436  1.00  0.00    +0.000 F 
ATOM     75  C53 UNL A   1       8.617  25.332   2.831  1.00  0.00    +0.000 C 
ATOM     76  F10 UNL A   1       8.364  24.974   1.563  1.00  0.00    +0.000 F 
ENDBRANCH   65   66
BRANCH   80   81
ATOM     81  C57 UNL A   1      13.096  30.340  -0.795  1.00  0.00    +0.000 C 
ATOM     82  C58 UNL A   1      13.784  29.543  -1.721  1.00  0.00    +0.000 C 
ATOM     83  F11 UNL A   1      13.102  28.712  -2.524  1.00  0.00    +0.000 F 
ATOM     84  C59 UNL A   1      15.175  29.563  -1.795  1.00  0.00    +0.000 C 
ATOM     85  F12 UNL A   1      15.809  28.756  -2.655  1.00  0.00    +0.000 F 
ATOM     86  C60 UNL A   1      15.902  30.403  -0.965  1.00  0.00    +0.000 C 
ATOM     87  F13 UNL A   1      17.241  30.421  -1.035  1.00  0.00    +0.000 F 
ATOM     88  C61 UNL A   1      15.242  31.216  -0.056  1.00  0.00    +0.000 C 
ATOM     89  F14 UNL A   1      15.942  32.039   0.737  1.00  0.00    +0.000 F 
ATOM     90  C62 UNL A   1      13.853  31.178   0.036  1.00  0.00    +0.000 C 
ATOM     91  F15 UNL A   1      13.241  31.964   0.932  1.00  0.00    +0.000 F 
ENDBRANCH   80   81
TORSDOF 33
ENDMDL
MODEL 9
REMARK VINA RESULT:      -4.1     33.583     39.575
ROOT
ATOM    149  H47 UNL A   1      16.910  35.256  48.948  1.00  0.00    +0.000 H 
ATOM    150  H48 UNL A   1      18.778  33.919  47.714  1.00  0.00    +0.000 H 
ATOM    151  H49 UNL A   1      20.278  37.654  48.688  1.00  0.00    +0.000 H 
ATOM    152  H50 UNL A   1      25.060  41.889  48.520  1.00  0.00    +0.000 H 
ATOM    153  H51 UNL A   1      23.238  43.188  49.725  1.00  0.00    +0.000 H 
ATOM    154  H52 UNL A   1      21.718  39.432  48.793  1.00  0.00    +0.000 H 
ATOM    155  H53 UNL A   1      25.422  36.957  46.480  1.00  0.00    +0.000 H 
ATOM    156  H54 UNL A   1      23.746  35.057  46.118  1.00  0.00    +0.000 H 
ATOM    157  H55 UNL A   1      16.726  40.127  51.200  1.00  0.00    +0.000 H 
ATOM    158  H56 UNL A   1      18.198  42.220  51.122  1.00  0.00    +0.000 H 
ATOM     44  C33 UNL A   1      20.789  41.758  50.031  1.00  0.00    +0.000 C 
ATOM     45  C34 UNL A   1      19.643  40.790  50.115  1.00  0.00    +0.000 C 
ATOM     46  N6  UNL A   1      19.576  39.546  49.711  1.00  0.00    +0.000 N 
ATOM     47  C35 UNL A   1      18.308  39.103  50.062  1.00  0.00    +0.000 C 
ATOM     48  C36 UNL A   1      17.728  37.907  49.800  1.00  0.00    +0.000 C 
ATOM     60  C43 UNL A   1      18.371  36.837  49.085  1.00  0.00    +0.000 C 
ATOM     61  C44 UNL A   1      17.862  35.598  48.742  1.00  0.00    +0.000 C 
ATOM     62  C45 UNL A   1      18.860  34.886  48.068  1.00  0.00    +0.000 C 
ATOM     63  C46 UNL A   1      19.977  35.697  47.957  1.00  0.00    +0.000 C 
ATOM     64  N7  UNL A   1      19.668  36.886  48.595  1.00  0.00    +0.000 N 
ATOM     65  C47 UNL A   1      21.232  35.411  47.313  1.00  0.00    +0.000 C 
ATOM     77  C54 UNL A   1      22.297  36.249  47.268  1.00  0.00    +0.000 C 
ATOM     78  N8  UNL A   1      22.424  37.527  47.794  1.00  0.00    +0.000 N 
ATOM     79  C55 UNL A   1      23.642  37.916  47.503  1.00  0.00    +0.000 C 
ATOM     80  C56 UNL A   1      24.314  39.231  47.796  1.00  0.00    +0.000 C 
ATOM     92  C63 UNL A   1      23.616  40.201  48.413  1.00  0.00    +0.000 C 
ATOM     93  C64 UNL A   1      24.116  41.533  48.739  1.00  0.00    +0.000 C 
ATOM     94  C65 UNL A   1      23.150  42.222  49.368  1.00  0.00    +0.000 C 
ATOM     95  C66 UNL A   1      21.953  41.386  49.468  1.00  0.00    +0.000 C 
ATOM     96  N9  UNL A   1      22.323  40.204  48.877  1.00  0.00    +0.000 N 
ATOM     97  C67 UNL A   1      24.437  36.912  46.784  1.00  0.00    +0.000 C 
ATOM     98  C68 UNL A   1      23.557  35.933  46.629  1.00  0.00    +0.000 C 
ATOM     99  C69 UNL A   1      17.657  40.190  50.761  1.00  0.00    +0.000 C 
ATOM    100  C70 UNL A   1      18.414  41.277  50.761  1.00  0.00    +0.000 C 
ENDROOT
BRANCH   44   43
ATOM    101  C71 UNL A   1      20.966  43.338  51.956  1.00  0.00    +0.000 C 
ATOM    102  C72 UNL A   1      20.781  44.596  52.522  1.00  0.00    +0.000 C 
ATOM     40  C29 UNL A   1      20.370  45.665  51.720  1.00  0.00    +0.000 C 
ATOM     41  C30 UNL A   1      20.047  45.457  50.378  1.00  0.00    +0.000 C 
ATOM     42  C31 UNL A   1      20.172  44.182  49.827  1.00  0.00    +0.000 C 
ATOM     43  C32 UNL A   1      20.651  43.117  50.608  1.00  0.00    +0.000 C 
ATOM    147  H45 UNL A   1      19.718  46.243  49.796  1.00  0.00    +0.000 H 
ATOM    148  H46 UNL A   1      19.913  44.021  48.841  1.00  0.00    +0.000 H 
ATOM    159  H57 UNL A   1      21.337  42.565  52.531  1.00  0.00    +0.000 H 
ATOM    160  H58 UNL A   1      20.947  44.739  53.531  1.00  0.00    +0.000 H 
BRANCH   40   38
ATOM     38  C28 UNL A   1      20.259  47.033  52.268  1.00  0.00    +0.000 C 
ATOM     39  O6  UNL A   1      20.899  47.347  53.267  1.00  0.00    +0.000 O 
BRANCH   38   37
ATOM    146  H44 UNL A   1      18.454  47.715  51.725  1.00  0.00    +0.000 H 
ATOM     37  N5  UNL A   1      19.413  47.933  51.673  1.00  0.00    +0.000 N 
BRANCH   37   36
ATOM    145  H43 UNL A   1      20.323  49.764  51.647  1.00  0.00    +0.000 H 
ATOM     36  C27 UNL A   1      19.740  49.163  50.979  1.00  0.00    +0.000 C 
ATOM    144  H42 UNL A   1      18.830  49.650  50.699  1.00  0.00    +0.000 H 
BRANCH   36   35
ATOM     35  C26 UNL A   1      20.574  48.928  49.728  1.00  0.00    +0.000 C 
ATOM    142  H40 UNL A   1      20.672  47.871  49.589  1.00  0.00    +0.000 H 
ATOM    143  H41 UNL A   1      20.056  49.419  48.930  1.00  0.00    +0.000 H 
BRANCH   35   34
ATOM     34  C25 UNL A   1      21.981  49.533  49.753  1.00  0.00    +0.000 C 
ATOM    140  H38 UNL A   1      22.636  48.862  49.238  1.00  0.00    +0.000 H 
ATOM    141  H39 UNL A   1      21.892  50.494  49.293  1.00  0.00    +0.000 H 
BRANCH   34   33
ATOM     33  C24 UNL A   1      22.569  49.790  51.145  1.00  0.00    +0.000 C 
ATOM    138  H36 UNL A   1      23.079  50.730  51.118  1.00  0.00    +0.000 H 
ATOM    139  H37 UNL A   1      21.741  49.767  51.822  1.00  0.00    +0.000 H 
BRANCH   33   32
ATOM    137  H35 UNL A   1      24.411  48.784  51.013  1.00  0.00    +0.000 H 
ATOM    136  H34 UNL A   1      23.067  47.781  51.623  1.00  0.00    +0.000 H 
ATOM     32  C23 UNL A   1      23.554  48.733  51.652  1.00  0.00    +0.000 C 
BRANCH   32   31
ATOM    135  H33 UNL A   1      23.232  49.305  53.664  1.00  0.00    +0.000 H 
ATOM    134  H32 UNL A   1      24.833  49.703  53.045  1.00  0.00    +0.000 H 
ATOM     31  C22 UNL A   1      24.055  48.969  53.069  1.00  0.00    +0.000 C 
BRANCH   31   30
ATOM    133  H31 UNL A   1      24.125  46.921  53.389  1.00  0.00    +0.000 H 
ATOM     30  N4  UNL A   1      24.574  47.755  53.658  1.00  0.00    +0.000 N 
BRANCH   30   28
ATOM     28  C21 UNL A   1      25.605  47.621  54.537  1.00  0.00    +0.000 C 
ATOM     29  O5  UNL A   1      25.541  48.230  55.608  1.00  0.00    +0.000 O 
BRANCH   28    5
ATOM      5  C5  UNL A   1      26.852  46.790  54.179  1.00  0.00    +0.000 C 
ATOM    112  H10 UNL A   1      26.511  46.007  53.534  1.00  0.00    +0.000 H 
BRANCH    5    4
ATOM      4  C4  UNL A   1      27.472  46.028  55.356  1.00  0.00    +0.000 C 
ATOM    110  H8  UNL A   1      26.724  45.939  56.116  1.00  0.00    +0.000 H 
ATOM    111  H9  UNL A   1      27.805  45.097  54.951  1.00  0.00    +0.000 H 
BRANCH    4    2
ATOM      2  C2  UNL A   1      28.727  46.669  56.003  1.00  0.00    +0.000 C 
ATOM    106  H4  UNL A   1      28.894  47.567  55.446  1.00  0.00    +0.000 H 
BRANCH    2    1
ATOM      1  C1  UNL A   1      28.578  47.101  57.464  1.00  0.00    +0.000 C 
ATOM    105  H3  UNL A   1      28.150  48.082  57.504  1.00  0.00    +0.000 H 
ATOM    103  H1  UNL A   1      29.540  47.113  57.933  1.00  0.00    +0.000 H 
ATOM    104  H2  UNL A   1      27.940  46.413  57.977  1.00  0.00    +0.000 H 
ENDBRANCH    2    1
BRANCH    2    3
ATOM      3  C3  UNL A   1      29.897  45.683  55.916  1.00  0.00    +0.000 C 
ATOM    108  H6  UNL A   1      30.811  46.224  55.786  1.00  0.00    +0.000 H 
ATOM    109  H7  UNL A   1      29.749  45.027  55.083  1.00  0.00    +0.000 H 
ATOM    107  H5  UNL A   1      29.948  45.109  56.818  1.00  0.00    +0.000 H 
ENDBRANCH    2    3
ENDBRANCH    4    2
ENDBRANCH    5    4
BRANCH    5    6
ATOM    113  H11 UNL A   1      28.463  48.094  53.981  1.00  0.00    +0.000 H 
ATOM      6  N1  UNL A   1      27.820  47.591  53.429  1.00  0.00    +0.000 N 
BRANCH    6    7
ATOM      7  C6  UNL A   1      27.967  47.749  52.085  1.00  0.00    +0.000 C 
ATOM      8  O1  UNL A   1      27.334  48.678  51.568  1.00  0.00    +0.000 O 
BRANCH    7    9
ATOM      9  C7  UNL A   1      28.821  46.825  51.199  1.00  0.00    +0.000 C 
ATOM    114  H12 UNL A   1      28.988  45.922  51.749  1.00  0.00    +0.000 H 
ATOM    115  H13 UNL A   1      29.694  47.404  50.976  1.00  0.00    +0.000 H 
BRANCH    9   10
ATOM     10  N2  UNL A   1      28.300  46.448  49.903  1.00  0.00    +0.000 N 
ATOM    116  H14 UNL A   1      28.718  46.939  49.159  1.00  0.00    +0.000 H 
BRANCH   10   11
ATOM     11  C8  UNL A   1      27.360  45.562  49.497  1.00  0.00    +0.000 C 
ATOM     12  O2  UNL A   1      27.687  44.879  48.517  1.00  0.00    +0.000 O 
BRANCH   11   13
ATOM    117  H15 UNL A   1      25.637  46.383  50.434  1.00  0.00    +0.000 H 
ATOM     13  C9  UNL A   1      25.926  45.408  50.102  1.00  0.00    +0.000 C 
BRANCH   13   14
ATOM    118  H16 UNL A   1      24.693  44.183  48.973  1.00  0.00    +0.000 H 
ATOM     14  N3  UNL A   1      24.866  45.141  49.120  1.00  0.00    +0.000 N 
BRANCH   14   15
ATOM     15  C10 UNL A   1      24.079  45.960  48.381  1.00  0.00    +0.000 C 
ATOM     16  O3  UNL A   1      23.227  45.493  47.637  1.00  0.00    +0.000 O 
BRANCH   15   17
ATOM     17  O4  UNL A   1      24.384  47.267  48.493  1.00  0.00    +0.000 O 
BRANCH   17   18
ATOM     18  C11 UNL A   1      25.371  47.739  47.564  1.00  0.00    +0.000 C 
ATOM    119  H17 UNL A   1      24.878  47.992  46.648  1.00  0.00    +0.000 H 
ATOM    120  H18 UNL A   1      26.085  46.951  47.441  1.00  0.00    +0.000 H 
BRANCH   18   19
ATOM     19  C12 UNL A   1      26.138  48.958  48.048  1.00  0.00    +0.000 C 
ATOM     20  C13 UNL A   1      25.458  49.955  48.763  1.00  0.00    +0.000 C 
ATOM     21  C14 UNL A   1      26.108  51.130  49.152  1.00  0.00    +0.000 C 
ATOM     22  C15 UNL A   1      27.447  51.332  48.826  1.00  0.00    +0.000 C 
ATOM     23  C16 UNL A   1      28.137  50.358  48.116  1.00  0.00    +0.000 C 
ATOM     24  C17 UNL A   1      27.487  49.185  47.730  1.00  0.00    +0.000 C 
ATOM    121  H19 UNL A   1      24.463  49.820  49.004  1.00  0.00    +0.000 H 
ATOM    122  H20 UNL A   1      25.594  51.851  49.682  1.00  0.00    +0.000 H 
ATOM    123  H21 UNL A   1      27.924  52.202  49.112  1.00  0.00    +0.000 H 
ATOM    124  H22 UNL A   1      29.130  50.502  47.872  1.00  0.00    +0.000 H 
ATOM    125  H23 UNL A   1      28.008  48.470  47.198  1.00  0.00    +0.000 H 
ENDBRANCH   18   19
ENDBRANCH   17   18
ENDBRANCH   15   17
ENDBRANCH   14   15
ENDBRANCH   13   14
BRANCH   13   25
ATOM     25  C18 UNL A   1      25.909  44.577  51.404  1.00  0.00    +0.000 C 
ATOM    126  H24 UNL A   1      26.549  45.088  52.093  1.00  0.00    +0.000 H 
BRANCH   25   26
ATOM    129  H27 UNL A   1      24.156  43.452  51.928  1.00  0.00    +0.000 H 
ATOM     26  C19 UNL A   1      24.490  44.466  51.991  1.00  0.00    +0.000 C 
ATOM    127  H25 UNL A   1      23.826  45.096  51.437  1.00  0.00    +0.000 H 
ATOM    128  H26 UNL A   1      24.503  44.775  53.015  1.00  0.00    +0.000 H 
ENDBRANCH   25   26
BRANCH   25   27
ATOM    130  H28 UNL A   1      27.053  43.142  50.292  1.00  0.00    +0.000 H 
ATOM     27  C20 UNL A   1      26.413  43.148  51.151  1.00  0.00    +0.000 C 
ATOM    132  H30 UNL A   1      26.958  42.805  52.004  1.00  0.00    +0.000 H 
ATOM    131  H29 UNL A   1      25.578  42.501  50.977  1.00  0.00    +0.000 H 
ENDBRANCH   25   27
ENDBRANCH   13   25
ENDBRANCH   11   13
ENDBRANCH   10   11
ENDBRANCH    9   10
ENDBRANCH    7    9
ENDBRANCH    6    7
ENDBRANCH    5    6
ENDBRANCH   28    5
ENDBRANCH   30   28
ENDBRANCH   31   30
ENDBRANCH   32   31
ENDBRANCH   33   32
ENDBRANCH   34   33
ENDBRANCH   35   34
ENDBRANCH   36   35
ENDBRANCH   37   36
ENDBRANCH   38   37
ENDBRANCH   40   38
ENDBRANCH   44   43
BRANCH   48   49
ATOM     49  C37 UNL A   1      16.322  37.703  50.281  1.00  0.00    +0.000 C 
ATOM     50  C38 UNL A   1      15.239  37.689  49.387  1.00  0.00    +0.000 C 
ATOM     51  F1  UNL A   1      15.442  37.899  48.078  1.00  0.00    +0.000 F 
ATOM     52  C39 UNL A   1      13.937  37.501  49.843  1.00  0.00    +0.000 C 
ATOM     53  F2  UNL A   1      12.915  37.539  48.977  1.00  0.00    +0.000 F 
ATOM     54  C40 UNL A   1      13.695  37.288  51.192  1.00  0.00    +0.000 C 
ATOM     55  F3  UNL A   1      12.442  37.102  51.628  1.00  0.00    +0.000 F 
ATOM     56  C41 UNL A   1      14.753  37.278  52.089  1.00  0.00    +0.000 C 
ATOM     57  F4  UNL A   1      14.521  37.062  53.392  1.00  0.00    +0.000 F 
ATOM     58  C42 UNL A   1      16.054  37.494  51.641  1.00  0.00    +0.000 C 
ATOM     59  F5  UNL A   1      17.053  37.495  52.537  1.00  0.00    +0.000 F 
ENDBRANCH   48   49
BRANCH   65   66
ATOM     66  C48 UNL A   1      21.374  34.090  46.616  1.00  0.00    +0.000 C 
ATOM     67  C49 UNL A   1      21.943  32.979  47.254  1.00  0.00    +0.000 C 
ATOM     68  F6  UNL A   1      22.421  33.089  48.502  1.00  0.00    +0.000 F 
ATOM     69  C50 UNL A   1      22.061  31.759  46.593  1.00  0.00    +0.000 C 
ATOM     70  F7  UNL A   1      22.651  30.723  47.204  1.00  0.00    +0.000 F 
ATOM     71  C51 UNL A   1      21.584  31.620  45.297  1.00  0.00    +0.000 C 
ATOM     72  F8  UNL A   1      21.696  30.445  44.664  1.00  0.00    +0.000 F 
ATOM     73  C52 UNL A   1      20.998  32.702  44.655  1.00  0.00    +0.000 C 
ATOM     74  F9  UNL A   1      20.528  32.565  43.408  1.00  0.00    +0.000 F 
ATOM     75  C53 UNL A   1      20.903  33.929  45.303  1.00  0.00    +0.000 C 
ATOM     76  F10 UNL A   1      20.345  34.962  44.654  1.00  0.00    +0.000 F 
ENDBRANCH   65   66
BRANCH   80   81
ATOM     81  C57 UNL A   1      25.720  39.474  47.381  1.00  0.00    +0.000 C 
ATOM     82  C58 UNL A   1      26.013  40.066  46.144  1.00  0.00    +0.000 C 
ATOM     83  F11 UNL A   1      25.016  40.410  45.316  1.00  0.00    +0.000 F 
ATOM     84  C59 UNL A   1      27.329  40.265  45.735  1.00  0.00    +0.000 C 
ATOM     85  F12 UNL A   1      27.581  40.788  44.528  1.00  0.00    +0.000 F 
ATOM     86  C60 UNL A   1      28.378  39.904  46.568  1.00  0.00    +0.000 C 
ATOM     87  F13 UNL A   1      29.644  40.094  46.174  1.00  0.00    +0.000 F 
ATOM     88  C61 UNL A   1      28.112  39.337  47.805  1.00  0.00    +0.000 C 
ATOM     89  F14 UNL A   1      29.123  39.000  48.618  1.00  0.00    +0.000 F 
ATOM     90  C62 UNL A   1      26.796  39.114  48.204  1.00  0.00    +0.000 C 
ATOM     91  F15 UNL A   1      26.568  38.552  49.399  1.00  0.00    +0.000 F 
ENDBRANCH   80   81
TORSDOF 33
ENDMDL
MODEL 10
REMARK VINA RESULT:      -4.1     36.051     41.374
ROOT
ATOM    149  H47 UNL A   1       7.979  51.712  20.867  1.00  0.00    +0.000 H 
ATOM    150  H48 UNL A   1       6.542  50.075  22.301  1.00  0.00    +0.000 H 
ATOM    151  H49 UNL A   1       7.961  48.013  19.001  1.00  0.00    +0.000 H 
ATOM    152  H50 UNL A   1       8.243  42.632  15.566  1.00  0.00    +0.000 H 
ATOM    153  H51 UNL A   1       9.644  44.230  14.173  1.00  0.00    +0.000 H 
ATOM    154  H52 UNL A   1       8.265  46.314  17.495  1.00  0.00    +0.000 H 
ATOM    155  H53 UNL A   1       5.573  43.041  20.183  1.00  0.00    +0.000 H 
ATOM    156  H54 UNL A   1       5.003  44.991  21.739  1.00  0.00    +0.000 H 
ATOM    157  H55 UNL A   1      10.847  51.137  16.365  1.00  0.00    +0.000 H 
ATOM    158  H56 UNL A   1      11.011  49.359  14.530  1.00  0.00    +0.000 H 
ATOM     44  C33 UNL A   1       9.814  46.872  15.237  1.00  0.00    +0.000 C 
ATOM     45  C34 UNL A   1       9.796  48.153  16.020  1.00  0.00    +0.000 C 
ATOM     46  N6  UNL A   1       9.236  48.412  17.175  1.00  0.00    +0.000 N 
ATOM     47  C35 UNL A   1       9.553  49.734  17.460  1.00  0.00    +0.000 C 
ATOM     48  C36 UNL A   1       9.150  50.492  18.508  1.00  0.00    +0.000 C 
ATOM     60  C43 UNL A   1       8.289  50.023  19.560  1.00  0.00    +0.000 C 
ATOM     61  C44 UNL A   1       7.799  50.719  20.652  1.00  0.00    +0.000 C 
ATOM     62  C45 UNL A   1       7.017  49.843  21.413  1.00  0.00    +0.000 C 
ATOM     63  C46 UNL A   1       6.988  48.614  20.776  1.00  0.00    +0.000 C 
ATOM     64  N7  UNL A   1       7.782  48.735  19.647  1.00  0.00    +0.000 N 
ATOM     65  C47 UNL A   1       6.287  47.419  21.164  1.00  0.00    +0.000 C 
ATOM     77  C54 UNL A   1       6.329  46.237  20.500  1.00  0.00    +0.000 C 
ATOM     78  N8  UNL A   1       7.013  45.913  19.337  1.00  0.00    +0.000 N 
ATOM     79  C55 UNL A   1       6.749  44.650  19.105  1.00  0.00    +0.000 C 
ATOM     80  C56 UNL A   1       7.196  43.781  17.960  1.00  0.00    +0.000 C 
ATOM     92  C63 UNL A   1       7.949  44.321  16.983  1.00  0.00    +0.000 C 
ATOM     93  C64 UNL A   1       8.434  43.620  15.798  1.00  0.00    +0.000 C 
ATOM     94  C65 UNL A   1       9.168  44.467  15.058  1.00  0.00    +0.000 C 
ATOM     95  C66 UNL A   1       9.183  45.779  15.706  1.00  0.00    +0.000 C 
ATOM     96  N9  UNL A   1       8.436  45.597  16.843  1.00  0.00    +0.000 N 
ATOM     97  C67 UNL A   1       5.890  44.021  20.116  1.00  0.00    +0.000 C 
ATOM     98  C68 UNL A   1       5.627  45.042  20.919  1.00  0.00    +0.000 C 
ATOM     99  C69 UNL A   1      10.400  50.207  16.388  1.00  0.00    +0.000 C 
ATOM    100  C70 UNL A   1      10.526  49.292  15.440  1.00  0.00    +0.000 C 
ENDROOT
BRANCH   44   43
ATOM    101  C71 UNL A   1      11.911  46.405  13.966  1.00  0.00    +0.000 C 
ATOM    102  C72 UNL A   1      12.642  46.391  12.781  1.00  0.00    +0.000 C 
ATOM     40  C29 UNL A   1      12.006  46.677  11.569  1.00  0.00    +0.000 C 
ATOM     41  C30 UNL A   1      10.667  47.074  11.551  1.00  0.00    +0.000 C 
ATOM     42  C31 UNL A   1       9.953  47.149  12.747  1.00  0.00    +0.000 C 
ATOM     43  C32 UNL A   1      10.565  46.797  13.960  1.00  0.00    +0.000 C 
ATOM    147  H45 UNL A   1      10.209  47.312  10.658  1.00  0.00    +0.000 H 
ATOM    148  H46 UNL A   1       8.970  47.465  12.739  1.00  0.00    +0.000 H 
ATOM    159  H57 UNL A   1      12.363  46.124  14.851  1.00  0.00    +0.000 H 
ATOM    160  H58 UNL A   1      13.650  46.170  12.796  1.00  0.00    +0.000 H 
BRANCH   40   38
ATOM     38  C28 UNL A   1      12.727  46.575  10.283  1.00  0.00    +0.000 C 
ATOM     39  O6  UNL A   1      12.348  45.780   9.430  1.00  0.00    +0.000 O 
BRANCH   38   37
ATOM    146  H44 UNL A   1      14.044  48.005  10.773  1.00  0.00    +0.000 H 
ATOM     37  N5  UNL A   1      13.839  47.349  10.069  1.00  0.00    +0.000 N 
BRANCH   37   36
ATOM    145  H43 UNL A   1      14.165  47.393   8.051  1.00  0.00    +0.000 H 
ATOM     36  C27 UNL A   1      14.752  47.329   8.944  1.00  0.00    +0.000 C 
ATOM    144  H42 UNL A   1      15.320  46.424   8.981  1.00  0.00    +0.000 H 
BRANCH   36   35
ATOM     35  C26 UNL A   1      15.714  48.509   8.945  1.00  0.00    +0.000 C 
ATOM    142  H40 UNL A   1      16.465  48.324   8.206  1.00  0.00    +0.000 H 
ATOM    143  H41 UNL A   1      15.120  49.377   8.745  1.00  0.00    +0.000 H 
BRANCH   35   34
ATOM     34  C25 UNL A   1      16.419  48.779  10.277  1.00  0.00    +0.000 C 
ATOM    140  H38 UNL A   1      15.671  49.023  11.001  1.00  0.00    +0.000 H 
ATOM    141  H39 UNL A   1      16.967  47.889  10.501  1.00  0.00    +0.000 H 
BRANCH   34   33
ATOM     33  C24 UNL A   1      17.450  49.913  10.266  1.00  0.00    +0.000 C 
ATOM    138  H36 UNL A   1      18.425  49.471  10.278  1.00  0.00    +0.000 H 
ATOM    139  H37 UNL A   1      17.247  50.485   9.386  1.00  0.00    +0.000 H 
BRANCH   33   32
ATOM    137  H35 UNL A   1      17.617  51.860  11.044  1.00  0.00    +0.000 H 
ATOM    136  H34 UNL A   1      18.036  50.567  12.201  1.00  0.00    +0.000 H 
ATOM     32  C23 UNL A   1      17.364  50.897  11.436  1.00  0.00    +0.000 C 
BRANCH   32   31
ATOM    135  H33 UNL A   1      16.087  51.273  13.082  1.00  0.00    +0.000 H 
ATOM    134  H32 UNL A   1      15.457  50.099  11.929  1.00  0.00    +0.000 H 
ATOM     31  C22 UNL A   1      15.977  51.027  12.047  1.00  0.00    +0.000 C 
BRANCH   31   30
ATOM    133  H31 UNL A   1      15.200  52.943  11.880  1.00  0.00    +0.000 H 
ATOM     30  N4  UNL A   1      15.213  52.077  11.411  1.00  0.00    +0.000 N 
BRANCH   30   28
ATOM     28  C21 UNL A   1      14.511  52.018  10.246  1.00  0.00    +0.000 C 
ATOM     29  O5  UNL A   1      14.974  52.594   9.257  1.00  0.00    +0.000 O 
BRANCH   28    5
ATOM      5  C5  UNL A   1      13.142  51.315  10.175  1.00  0.00    +0.000 C 
ATOM    112  H10 UNL A   1      12.412  52.064  10.401  1.00  0.00    +0.000 H 
BRANCH    5    4
ATOM      4  C4  UNL A   1      12.909  50.260  11.263  1.00  0.00    +0.000 C 
ATOM    110  H8  UNL A   1      12.627  49.349  10.777  1.00  0.00    +0.000 H 
ATOM    111  H9  UNL A   1      13.827  50.204  11.809  1.00  0.00    +0.000 H 
BRANCH    4    2
ATOM      2  C2  UNL A   1      11.822  50.590  12.317  1.00  0.00    +0.000 C 
ATOM    106  H4  UNL A   1      11.792  49.734  12.958  1.00  0.00    +0.000 H 
BRANCH    2    1
ATOM      1  C1  UNL A   1      12.115  51.786  13.227  1.00  0.00    +0.000 C 
ATOM    105  H3  UNL A   1      11.282  51.952  13.878  1.00  0.00    +0.000 H 
ATOM    103  H1  UNL A   1      12.280  52.658  12.629  1.00  0.00    +0.000 H 
ATOM    104  H2  UNL A   1      12.989  51.584  13.811  1.00  0.00    +0.000 H 
ENDBRANCH    2    1
BRANCH    2    3
ATOM      3  C3  UNL A   1      10.491  50.851  11.604  1.00  0.00    +0.000 C 
ATOM    108  H6  UNL A   1      10.223  49.993  11.024  1.00  0.00    +0.000 H 
ATOM    109  H7  UNL A   1      10.593  51.700  10.959  1.00  0.00    +0.000 H 
ATOM    107  H5  UNL A   1       9.729  51.044  12.329  1.00  0.00    +0.000 H 
ENDBRANCH    2    3
ENDBRANCH    4    2
ENDBRANCH    5    4
BRANCH    5    6
ATOM    113  H11 UNL A   1      13.661  50.760   8.236  1.00  0.00    +0.000 H 
ATOM      6  N1  UNL A   1      12.872  50.826   8.823  1.00  0.00    +0.000 N 
BRANCH    6    7
ATOM      7  C6  UNL A   1      11.696  50.448   8.250  1.00  0.00    +0.000 C 
ATOM      8  O1  UNL A   1      10.910  51.357   7.958  1.00  0.00    +0.000 O 
BRANCH    7    9
ATOM      9  C7  UNL A   1      11.291  48.983   8.002  1.00  0.00    +0.000 C 
ATOM    114  H12 UNL A   1      10.247  48.978   7.768  1.00  0.00    +0.000 H 
ATOM    115  H13 UNL A   1      11.570  48.476   8.902  1.00  0.00    +0.000 H 
BRANCH    9   10
ATOM     10  N2  UNL A   1      11.970  48.255   6.954  1.00  0.00    +0.000 N 
ATOM    116  H14 UNL A   1      12.915  48.515   6.849  1.00  0.00    +0.000 H 
BRANCH   10   11
ATOM     11  C8  UNL A   1      11.582  47.291   6.085  1.00  0.00    +0.000 C 
ATOM     12  O2  UNL A   1      12.387  46.356   5.962  1.00  0.00    +0.000 O 
BRANCH   11   13
ATOM    117  H15 UNL A   1      10.513  46.747   4.330  1.00  0.00    +0.000 H 
ATOM     13  C9  UNL A   1      10.289  47.317   5.207  1.00  0.00    +0.000 C 
BRANCH   13   14
ATOM    118  H16 UNL A   1       8.593  46.135   5.049  1.00  0.00    +0.000 H 
ATOM     14  N3  UNL A   1       9.161  46.541   5.742  1.00  0.00    +0.000 N 
BRANCH   14   15
ATOM     15  C10 UNL A   1       8.755  46.275   7.008  1.00  0.00    +0.000 C 
ATOM     16  O3  UNL A   1       8.748  45.126   7.426  1.00  0.00    +0.000 O 
BRANCH   15   17
ATOM     17  O4  UNL A   1       8.310  47.354   7.682  1.00  0.00    +0.000 O 
BRANCH   17   18
ATOM     18  C11 UNL A   1       6.882  47.467   7.763  1.00  0.00    +0.000 C 
ATOM    119  H17 UNL A   1       6.455  46.505   7.571  1.00  0.00    +0.000 H 
ATOM    120  H18 UNL A   1       6.587  48.199   7.039  1.00  0.00    +0.000 H 
BRANCH   18   19
ATOM     19  C12 UNL A   1       6.380  47.953   9.112  1.00  0.00    +0.000 C 
ATOM     20  C13 UNL A   1       5.290  48.835   9.161  1.00  0.00    +0.000 C 
ATOM     21  C14 UNL A   1       4.853  49.370  10.376  1.00  0.00    +0.000 C 
ATOM     22  C15 UNL A   1       5.503  49.040  11.562  1.00  0.00    +0.000 C 
ATOM     23  C16 UNL A   1       6.587  48.172  11.536  1.00  0.00    +0.000 C 
ATOM     24  C17 UNL A   1       7.021  47.637  10.322  1.00  0.00    +0.000 C 
ATOM    121  H19 UNL A   1       4.804  49.092   8.286  1.00  0.00    +0.000 H 
ATOM    122  H20 UNL A   1       4.045  50.012  10.394  1.00  0.00    +0.000 H 
ATOM    123  H21 UNL A   1       5.180  49.439  12.458  1.00  0.00    +0.000 H 
ATOM    124  H22 UNL A   1       7.072  47.924  12.412  1.00  0.00    +0.000 H 
ATOM    125  H23 UNL A   1       7.830  46.996  10.313  1.00  0.00    +0.000 H 
ENDBRANCH   18   19
ENDBRANCH   17   18
ENDBRANCH   15   17
ENDBRANCH   14   15
ENDBRANCH   13   14
BRANCH   13   25
ATOM     25  C18 UNL A   1       9.975  48.719   4.640  1.00  0.00    +0.000 C 
ATOM    126  H24 UNL A   1       9.964  49.385   5.478  1.00  0.00    +0.000 H 
BRANCH   25   26
ATOM    129  H27 UNL A   1      11.946  48.634   3.793  1.00  0.00    +0.000 H 
ATOM     26  C19 UNL A   1      11.038  49.175   3.625  1.00  0.00    +0.000 C 
ATOM    127  H25 UNL A   1      11.219  50.222   3.745  1.00  0.00    +0.000 H 
ATOM    128  H26 UNL A   1      10.687  48.985   2.632  1.00  0.00    +0.000 H 
ENDBRANCH   25   26
BRANCH   25   27
ATOM    130  H28 UNL A   1       8.325  47.725   3.696  1.00  0.00    +0.000 H 
ATOM     27  C20 UNL A   1       8.618  48.730   3.920  1.00  0.00    +0.000 C 
ATOM    132  H30 UNL A   1       7.883  49.184   4.550  1.00  0.00    +0.000 H 
ATOM    131  H29 UNL A   1       8.702  49.287   3.010  1.00  0.00    +0.000 H 
ENDBRANCH   25   27
ENDBRANCH   13   25
ENDBRANCH   11   13
ENDBRANCH   10   11
ENDBRANCH    9   10
ENDBRANCH    7    9
ENDBRANCH    6    7
ENDBRANCH    5    6
ENDBRANCH   28    5
ENDBRANCH   30   28
ENDBRANCH   31   30
ENDBRANCH   32   31
ENDBRANCH   33   32
ENDBRANCH   34   33
ENDBRANCH   35   34
ENDBRANCH   36   35
ENDBRANCH   37   36
ENDBRANCH   38   37
ENDBRANCH   40   38
ENDBRANCH   44   43
BRANCH   48   49
ATOM     49  C37 UNL A   1       9.630  51.912  18.556  1.00  0.00    +0.000 C 
ATOM     50  C38 UNL A   1       8.945  52.938  17.885  1.00  0.00    +0.000 C 
ATOM     51  F1  UNL A   1       7.859  52.655  17.149  1.00  0.00    +0.000 F 
ATOM     52  C39 UNL A   1       9.398  54.253  17.932  1.00  0.00    +0.000 C 
ATOM     53  F2  UNL A   1       8.755  55.207  17.245  1.00  0.00    +0.000 F 
ATOM     54  C40 UNL A   1      10.522  54.575  18.678  1.00  0.00    +0.000 C 
ATOM     55  F3  UNL A   1      10.955  55.843  18.727  1.00  0.00    +0.000 F 
ATOM     56  C41 UNL A   1      11.203  53.581  19.365  1.00  0.00    +0.000 C 
ATOM     57  F4  UNL A   1      12.284  53.893  20.095  1.00  0.00    +0.000 F 
ATOM     58  C42 UNL A   1      10.768  52.259  19.297  1.00  0.00    +0.000 C 
ATOM     59  F5  UNL A   1      11.458  51.318  19.959  1.00  0.00    +0.000 F 
ENDBRANCH   48   49
BRANCH   65   66
ATOM     66  C48 UNL A   1       5.421  47.484  22.388  1.00  0.00    +0.000 C 
ATOM     67  C49 UNL A   1       4.031  47.638  22.297  1.00  0.00    +0.000 C 
ATOM     68  F6  UNL A   1       3.443  47.778  21.099  1.00  0.00    +0.000 F 
ATOM     69  C50 UNL A   1       3.242  47.690  23.444  1.00  0.00    +0.000 C 
ATOM     70  F7  UNL A   1       1.921  47.885  23.337  1.00  0.00    +0.000 F 
ATOM     71  C51 UNL A   1       3.825  47.557  24.696  1.00  0.00    +0.000 C 
ATOM     72  F8  UNL A   1       3.064  47.605  25.798  1.00  0.00    +0.000 F 
ATOM     73  C52 UNL A   1       5.197  47.383  24.807  1.00  0.00    +0.000 C 
ATOM     74  F9  UNL A   1       5.758  47.244  26.015  1.00  0.00    +0.000 F 
ATOM     75  C53 UNL A   1       5.990  47.357  23.664  1.00  0.00    +0.000 C 
ATOM     76  F10 UNL A   1       7.316  47.202  23.801  1.00  0.00    +0.000 F 
ENDBRANCH   65   66
BRANCH   80   81
ATOM     81  C57 UNL A   1       6.787  42.356  17.882  1.00  0.00    +0.000 C 
ATOM     82  C58 UNL A   1       5.513  41.997  17.420  1.00  0.00    +0.000 C 
ATOM     83  F11 UNL A   1       4.644  42.949  17.050  1.00  0.00    +0.000 F 
ATOM     84  C59 UNL A   1       5.112  40.664  17.378  1.00  0.00    +0.000 C 
ATOM     85  F12 UNL A   1       3.872  40.352  16.977  1.00  0.00    +0.000 F 
ATOM     86  C60 UNL A   1       5.987  39.662  17.769  1.00  0.00    +0.000 C 
ATOM     87  F13 UNL A   1       5.600  38.379  17.730  1.00  0.00    +0.000 F 
ATOM     88  C61 UNL A   1       7.260  39.991  18.210  1.00  0.00    +0.000 C 
ATOM     89  F14 UNL A   1       8.113  39.025  18.575  1.00  0.00    +0.000 F 
ATOM     90  C62 UNL A   1       7.653  41.326  18.276  1.00  0.00    +0.000 C 
ATOM     91  F15 UNL A   1       8.885  41.617  18.719  1.00  0.00    +0.000 F 
ENDBRANCH   80   81
TORSDOF 33
ENDMDL
