MODEL 1
REMARK VINA RESULT:     -11.4      0.000      0.000
ROOT
ATOM    129  H31 UNL A   1      43.783  30.023  28.568  1.00  0.00    +0.000 H 
ATOM    130  H32 UNL A   1      48.243  31.969  27.326  1.00  0.00    +0.000 H 
ATOM    131  H33 UNL A   1      48.551  29.942  25.796  1.00  0.00    +0.000 H 
ATOM    132  H34 UNL A   1      39.874  26.054  29.033  1.00  0.00    +0.000 H 
ATOM    133  H35 UNL A   1      39.302  28.282  30.160  1.00  0.00    +0.000 H 
ATOM     36  C27 UNL A   1      41.406  30.206  30.034  1.00  0.00    +0.000 C 
ATOM     37  C28 UNL A   1      41.359  28.848  29.388  1.00  0.00    +0.000 C 
ATOM     38  N4  UNL A   1      42.254  28.258  28.637  1.00  0.00    +0.000 N 
ATOM     39  C29 UNL A   1      41.724  27.014  28.324  1.00  0.00    +0.000 C 
ATOM     40  C30 UNL A   1      42.231  26.063  27.503  1.00  0.00    +0.000 C 
ATOM     52  C37 UNL A   1      43.483  26.181  26.804  1.00  0.00    +0.000 C 
ATOM     53  C38 UNL A   1      44.071  25.285  25.929  1.00  0.00    +0.000 C 
ATOM     54  C39 UNL A   1      45.308  25.804  25.534  1.00  0.00    +0.000 C 
ATOM     55  C40 UNL A   1      45.464  27.051  26.116  1.00  0.00    +0.000 C 
ATOM     56  N5  UNL A   1      44.343  27.266  26.902  1.00  0.00    +0.000 N 
ATOM     57  C41 UNL A   1      46.556  27.979  25.966  1.00  0.00    +0.000 C 
ATOM     69  C48 UNL A   1      46.635  29.188  26.574  1.00  0.00    +0.000 C 
ATOM     70  N6  UNL A   1      45.733  29.796  27.437  1.00  0.00    +0.000 N 
ATOM     71  C49 UNL A   1      46.272  30.943  27.773  1.00  0.00    +0.000 C 
ATOM     72  C50 UNL A   1      45.723  32.031  28.658  1.00  0.00    +0.000 C 
ATOM     84  C57 UNL A   1      44.501  31.873  29.202  1.00  0.00    +0.000 C 
ATOM     85  C58 UNL A   1      43.829  32.838  30.066  1.00  0.00    +0.000 C 
ATOM     86  C59 UNL A   1      42.657  32.322  30.469  1.00  0.00    +0.000 C 
ATOM     87  C60 UNL A   1      42.475  31.006  29.855  1.00  0.00    +0.000 C 
ATOM     88  N7  UNL A   1      43.616  30.826  29.113  1.00  0.00    +0.000 N 
ATOM     89  C61 UNL A   1      47.597  31.177  27.183  1.00  0.00    +0.000 C 
ATOM     90  C62 UNL A   1      47.746  30.104  26.421  1.00  0.00    +0.000 C 
ATOM     91  C63 UNL A   1      40.461  26.903  29.020  1.00  0.00    +0.000 C 
ATOM     92  C64 UNL A   1      40.158  28.035  29.638  1.00  0.00    +0.000 C 
ATOM    124  H26 UNL A   1      43.665  24.388  25.619  1.00  0.00    +0.000 H 
ATOM    125  H27 UNL A   1      45.989  25.338  24.915  1.00  0.00    +0.000 H 
ATOM    126  H28 UNL A   1      44.180  28.068  27.449  1.00  0.00    +0.000 H 
ATOM    127  H29 UNL A   1      44.196  33.767  30.326  1.00  0.00    +0.000 H 
ATOM    128  H30 UNL A   1      41.991  32.782  31.109  1.00  0.00    +0.000 H 
ENDROOT
BRANCH   36   35
ATOM     33  C24 UNL A   1      39.303  30.907  33.113  1.00  0.00    +0.000 C 
ATOM     34  C25 UNL A   1      40.381  30.543  32.304  1.00  0.00    +0.000 C 
ATOM     35  C26 UNL A   1      40.294  30.660  30.907  1.00  0.00    +0.000 C 
ATOM    134  H36 UNL A   1      39.061  31.292  29.310  1.00  0.00    +0.000 H 
ATOM    135  H37 UNL A   1      37.285  32.129  30.731  1.00  0.00    +0.000 H 
ATOM    122  H24 UNL A   1      39.359  30.786  34.136  1.00  0.00    +0.000 H 
ATOM    123  H25 UNL A   1      41.248  30.186  32.736  1.00  0.00    +0.000 H 
ATOM     93  C65 UNL A   1      39.139  31.211  30.336  1.00  0.00    +0.000 C 
ATOM     94  C66 UNL A   1      38.096  31.648  31.147  1.00  0.00    +0.000 C 
ATOM     32  C23 UNL A   1      38.151  31.435  32.529  1.00  0.00    +0.000 C 
BRANCH   32   30
ATOM     30  C22 UNL A   1      37.008  31.790  33.397  1.00  0.00    +0.000 C 
ATOM     31  O4  UNL A   1      37.142  31.795  34.616  1.00  0.00    +0.000 O 
BRANCH   30   29
ATOM    121  H23 UNL A   1      35.578  31.648  32.000  1.00  0.00    +0.000 H 
ATOM     29  N3  UNL A   1      35.801  32.118  32.835  1.00  0.00    +0.000 N 
BRANCH   29   28
ATOM     28  C21 UNL A   1      34.806  33.068  33.310  1.00  0.00    +0.000 C 
ATOM    119  H21 UNL A   1      33.985  32.528  33.735  1.00  0.00    +0.000 H 
ATOM    120  H22 UNL A   1      35.269  33.698  34.040  1.00  0.00    +0.000 H 
BRANCH   28   27
ATOM     27  C20 UNL A   1      34.285  33.950  32.180  1.00  0.00    +0.000 C 
ATOM    117  H19 UNL A   1      33.430  33.473  31.749  1.00  0.00    +0.000 H 
ATOM    118  H20 UNL A   1      34.053  34.901  32.612  1.00  0.00    +0.000 H 
BRANCH   27   26
ATOM     26  C19 UNL A   1      35.305  34.206  31.068  1.00  0.00    +0.000 C 
ATOM    115  H17 UNL A   1      35.586  35.238  31.103  1.00  0.00    +0.000 H 
ATOM    116  H18 UNL A   1      36.123  33.539  31.248  1.00  0.00    +0.000 H 
BRANCH   26   25
ATOM     25  C18 UNL A   1      34.803  33.897  29.649  1.00  0.00    +0.000 C 
ATOM    114  H16 UNL A   1      35.577  34.209  28.980  1.00  0.00    +0.000 H 
ATOM    113  H15 UNL A   1      33.881  34.419  29.502  1.00  0.00    +0.000 H 
BRANCH   25   24
ATOM    112  H14 UNL A   1      33.537  32.198  29.601  1.00  0.00    +0.000 H 
ATOM    111  H13 UNL A   1      35.233  31.832  29.966  1.00  0.00    +0.000 H 
ATOM     24  C17 UNL A   1      34.559  32.407  29.366  1.00  0.00    +0.000 C 
BRANCH   24   23
ATOM    109  H11 UNL A   1      34.214  32.698  27.275  1.00  0.00    +0.000 H 
ATOM    110  H12 UNL A   1      35.818  32.110  27.667  1.00  0.00    +0.000 H 
ATOM     23  C16 UNL A   1      34.775  32.033  27.897  1.00  0.00    +0.000 C 
BRANCH   23   22
ATOM    108  H10 UNL A   1      35.032  30.006  27.869  1.00  0.00    +0.000 H 
ATOM     22  N2  UNL A   1      34.339  30.672  27.659  1.00  0.00    +0.000 N 
BRANCH   22   20
ATOM     20  C15 UNL A   1      33.171  30.106  27.204  1.00  0.00    +0.000 C 
ATOM     21  O3  UNL A   1      32.176  30.835  27.246  1.00  0.00    +0.000 O 
BRANCH   20   19
ATOM    136  H38 UNL A   1      34.647  26.784  24.617  1.00  0.00    +0.000 H 
ATOM    106  H8  UNL A   1      31.163  25.928  26.727  1.00  0.00    +0.000 H 
ATOM    107  H9  UNL A   1      31.389  28.057  27.878  1.00  0.00    +0.000 H 
ATOM     16  C11 UNL A   1      32.853  26.198  25.495  1.00  0.00    +0.000 C 
ATOM     17  C12 UNL A   1      31.931  26.570  26.476  1.00  0.00    +0.000 C 
ATOM     18  C13 UNL A   1      32.039  27.803  27.119  1.00  0.00    +0.000 C 
ATOM     19  C14 UNL A   1      33.035  28.683  26.722  1.00  0.00    +0.000 C 
ATOM     95  N8  UNL A   1      33.989  28.309  25.823  1.00  0.00    +0.000 N 
ATOM     96  C67 UNL A   1      33.896  27.080  25.260  1.00  0.00    +0.000 C 
BRANCH   16   15
ATOM    104  H6  UNL A   1      30.693  23.408  22.514  1.00  0.00    +0.000 H 
ATOM      9  C6  UNL A   1      31.630  24.836  23.764  1.00  0.00    +0.000 C 
ATOM     10  C7  UNL A   1      31.447  23.564  23.200  1.00  0.00    +0.000 C 
ATOM     11  C8  UNL A   1      32.283  22.514  23.566  1.00  0.00    +0.000 C 
ATOM     12 Cl1  UNL A   1      32.042  20.942  22.920  1.00  0.00    +0.000 Cl
ATOM     13  C9  UNL A   1      33.301  22.760  24.471  1.00  0.00    +0.000 C 
ATOM     14  N1  UNL A   1      33.516  23.964  25.050  1.00  0.00    +0.000 N 
ATOM     15  C10 UNL A   1      32.671  24.973  24.714  1.00  0.00    +0.000 C 
ATOM    105  H7  UNL A   1      33.931  21.982  24.719  1.00  0.00    +0.000 H 
BRANCH    9    8
ATOM     97  C68 UNL A   1      29.456  26.072  23.952  1.00  0.00    +0.000 C 
ATOM     98  C69 UNL A   1      28.657  27.192  23.700  1.00  0.00    +0.000 C 
ATOM      5  C2  UNL A   1      29.139  28.210  22.876  1.00  0.00    +0.000 C 
ATOM    102  H4  UNL A   1      30.757  28.873  21.690  1.00  0.00    +0.000 H 
ATOM      6  C3  UNL A   1      30.403  28.115  22.295  1.00  0.00    +0.000 C 
ATOM      7  C4  UNL A   1      31.187  26.985  22.539  1.00  0.00    +0.000 C 
ATOM    103  H5  UNL A   1      32.109  26.900  22.084  1.00  0.00    +0.000 H 
ATOM    138  H40 UNL A   1      27.717  27.264  24.118  1.00  0.00    +0.000 H 
ATOM      8  C5  UNL A   1      30.741  25.959  23.395  1.00  0.00    +0.000 C 
ATOM    137  H39 UNL A   1      29.096  25.318  24.558  1.00  0.00    +0.000 H 
BRANCH    5    2
ATOM      2  S1  UNL A   1      28.171  29.676  22.609  1.00  0.00    +0.000 S 
ATOM      3  O1  UNL A   1      26.910  29.481  23.304  1.00  0.00    +0.000 O 
ATOM      4  O2  UNL A   1      28.198  29.968  21.191  1.00  0.00    +0.000 O 
BRANCH    2    1
ATOM      1  C1  UNL A   1      29.089  30.941  23.447  1.00  0.00    +0.000 C 
ATOM     99  H1  UNL A   1      30.136  30.741  23.356  1.00  0.00    +0.000 H 
ATOM    100  H2  UNL A   1      28.817  30.954  24.482  1.00  0.00    +0.000 H 
ATOM    101  H3  UNL A   1      28.869  31.892  23.009  1.00  0.00    +0.000 H 
ENDBRANCH    2    1
ENDBRANCH    5    2
ENDBRANCH    9    8
ENDBRANCH   16   15
ENDBRANCH   20   19
ENDBRANCH   22   20
ENDBRANCH   23   22
ENDBRANCH   24   23
ENDBRANCH   25   24
ENDBRANCH   26   25
ENDBRANCH   27   26
ENDBRANCH   28   27
ENDBRANCH   29   28
ENDBRANCH   30   29
ENDBRANCH   32   30
ENDBRANCH   36   35
BRANCH   40   41
ATOM     41  C31 UNL A   1      41.422  24.813  27.298  1.00  0.00    +0.000 C 
ATOM     42  C32 UNL A   1      41.766  23.608  27.931  1.00  0.00    +0.000 C 
ATOM     43  F1  UNL A   1      42.874  23.532  28.682  1.00  0.00    +0.000 F 
ATOM     44  C33 UNL A   1      40.985  22.467  27.771  1.00  0.00    +0.000 C 
ATOM     45  F2  UNL A   1      41.355  21.318  28.354  1.00  0.00    +0.000 F 
ATOM     46  C34 UNL A   1      39.829  22.515  27.008  1.00  0.00    +0.000 C 
ATOM     47  F3  UNL A   1      39.069  21.420  26.870  1.00  0.00    +0.000 F 
ATOM     48  C35 UNL A   1      39.462  23.698  26.384  1.00  0.00    +0.000 C 
ATOM     49  F4  UNL A   1      38.337  23.751  25.658  1.00  0.00    +0.000 F 
ATOM     50  C36 UNL A   1      40.259  24.833  26.515  1.00  0.00    +0.000 C 
ATOM     51  F5  UNL A   1      39.881  25.960  25.891  1.00  0.00    +0.000 F 
ENDBRANCH   40   41
BRANCH   57   58
ATOM     65  C46 UNL A   1      49.903  26.662  24.725  1.00  0.00    +0.000 C 
ATOM     66  F9  UNL A   1      51.012  26.113  25.241  1.00  0.00    +0.000 F 
ATOM     67  C47 UNL A   1      48.841  26.995  25.559  1.00  0.00    +0.000 C 
ATOM     68  F10 UNL A   1      48.949  26.742  26.872  1.00  0.00    +0.000 F 
ATOM     58  C42 UNL A   1      47.680  27.596  25.047  1.00  0.00    +0.000 C 
ATOM     59  C43 UNL A   1      47.625  27.846  23.668  1.00  0.00    +0.000 C 
ATOM     60  F6  UNL A   1      46.532  28.404  23.125  1.00  0.00    +0.000 F 
ATOM     61  C44 UNL A   1      48.675  27.477  22.831  1.00  0.00    +0.000 C 
ATOM     62  F7  UNL A   1      48.574  27.671  21.508  1.00  0.00    +0.000 F 
ATOM     63  C45 UNL A   1      49.815  26.893  23.361  1.00  0.00    +0.000 C 
ATOM     64  F8  UNL A   1      50.827  26.544  22.554  1.00  0.00    +0.000 F 
ENDBRANCH   57   58
BRANCH   72   73
ATOM     73  C51 UNL A   1      46.513  33.262  28.928  1.00  0.00    +0.000 C 
ATOM     74  C52 UNL A   1      47.408  33.328  30.006  1.00  0.00    +0.000 C 
ATOM     75  F11 UNL A   1      47.577  32.263  30.802  1.00  0.00    +0.000 F 
ATOM     76  C53 UNL A   1      48.086  34.507  30.307  1.00  0.00    +0.000 C 
ATOM     77  F12 UNL A   1      48.879  34.563  31.386  1.00  0.00    +0.000 F 
ATOM     78  C54 UNL A   1      47.918  35.630  29.513  1.00  0.00    +0.000 C 
ATOM     79  F13 UNL A   1      48.565  36.767  29.808  1.00  0.00    +0.000 F 
ATOM     80  C55 UNL A   1      47.067  35.578  28.419  1.00  0.00    +0.000 C 
ATOM     81  F14 UNL A   1      46.913  36.657  27.638  1.00  0.00    +0.000 F 
ATOM     82  C56 UNL A   1      46.360  34.412  28.139  1.00  0.00    +0.000 C 
ATOM     83  F15 UNL A   1      45.523  34.402  27.091  1.00  0.00    +0.000 F 
ENDBRANCH   72   73
TORSDOF 19
ENDMDL
MODEL 2
REMARK VINA RESULT:     -10.9      0.697      2.015
ROOT
ATOM    129  H31 UNL A   1      44.021  30.024  28.889  1.00  0.00    +0.000 H 
ATOM    130  H32 UNL A   1      48.523  31.828  27.589  1.00  0.00    +0.000 H 
ATOM    131  H33 UNL A   1      48.707  29.842  25.986  1.00  0.00    +0.000 H 
ATOM    132  H34 UNL A   1      39.966  26.202  29.334  1.00  0.00    +0.000 H 
ATOM    133  H35 UNL A   1      39.515  28.413  30.547  1.00  0.00    +0.000 H 
ATOM     36  C27 UNL A   1      41.692  30.253  30.425  1.00  0.00    +0.000 C 
ATOM     37  C28 UNL A   1      41.572  28.921  29.738  1.00  0.00    +0.000 C 
ATOM     38  N4  UNL A   1      42.423  28.320  28.944  1.00  0.00    +0.000 N 
ATOM     39  C29 UNL A   1      41.833  27.109  28.605  1.00  0.00    +0.000 C 
ATOM     40  C30 UNL A   1      42.279  26.167  27.741  1.00  0.00    +0.000 C 
ATOM     52  C37 UNL A   1      43.517  26.257  27.012  1.00  0.00    +0.000 C 
ATOM     53  C38 UNL A   1      44.044  25.368  26.093  1.00  0.00    +0.000 C 
ATOM     54  C39 UNL A   1      45.291  25.850  25.681  1.00  0.00    +0.000 C 
ATOM     55  C40 UNL A   1      45.514  27.070  26.298  1.00  0.00    +0.000 C 
ATOM     56  N5  UNL A   1      44.423  27.303  27.121  1.00  0.00    +0.000 N 
ATOM     57  C41 UNL A   1      46.638  27.957  26.148  1.00  0.00    +0.000 C 
ATOM     69  C48 UNL A   1      46.783  29.141  26.792  1.00  0.00    +0.000 C 
ATOM     70  N6  UNL A   1      45.929  29.756  27.698  1.00  0.00    +0.000 N 
ATOM     71  C49 UNL A   1      46.524  30.869  28.057  1.00  0.00    +0.000 C 
ATOM     72  C50 UNL A   1      46.043  31.948  28.990  1.00  0.00    +0.000 C 
ATOM     84  C57 UNL A   1      44.830  31.821  29.563  1.00  0.00    +0.000 C 
ATOM     85  C58 UNL A   1      44.222  32.783  30.475  1.00  0.00    +0.000 C 
ATOM     86  C59 UNL A   1      43.041  32.302  30.893  1.00  0.00    +0.000 C 
ATOM     87  C60 UNL A   1      42.788  31.015  30.243  1.00  0.00    +0.000 C 
ATOM     88  N7  UNL A   1      43.901  30.815  29.464  1.00  0.00    +0.000 N 
ATOM     89  C61 UNL A   1      47.841  31.068  27.438  1.00  0.00    +0.000 C 
ATOM     90  C62 UNL A   1      47.926  30.016  26.638  1.00  0.00    +0.000 C 
ATOM     91  C63 UNL A   1      40.586  27.027  29.333  1.00  0.00    +0.000 C 
ATOM     92  C64 UNL A   1      40.346  28.149  29.994  1.00  0.00    +0.000 C 
ATOM    124  H26 UNL A   1      43.594  24.498  25.765  1.00  0.00    +0.000 H 
ATOM    125  H27 UNL A   1      45.936  25.377  25.029  1.00  0.00    +0.000 H 
ATOM    126  H28 UNL A   1      44.307  28.093  27.698  1.00  0.00    +0.000 H 
ATOM    127  H29 UNL A   1      44.633  33.687  30.755  1.00  0.00    +0.000 H 
ATOM    128  H30 UNL A   1      42.410  32.766  31.566  1.00  0.00    +0.000 H 
ENDROOT
BRANCH   36   35
ATOM     33  C24 UNL A   1      39.633  30.822  33.560  1.00  0.00    +0.000 C 
ATOM     34  C25 UNL A   1      40.677  30.438  32.717  1.00  0.00    +0.000 C 
ATOM     35  C26 UNL A   1      40.623  30.722  31.343  1.00  0.00    +0.000 C 
ATOM    134  H36 UNL A   1      39.487  31.662  29.826  1.00  0.00    +0.000 H 
ATOM    135  H37 UNL A   1      37.791  32.519  31.331  1.00  0.00    +0.000 H 
ATOM    122  H24 UNL A   1      39.661  30.581  34.563  1.00  0.00    +0.000 H 
ATOM    123  H25 UNL A   1      41.495  29.943  33.107  1.00  0.00    +0.000 H 
ATOM     93  C65 UNL A   1      39.542  31.457  30.837  1.00  0.00    +0.000 C 
ATOM     94  C66 UNL A   1      38.541  31.909  31.691  1.00  0.00    +0.000 C 
ATOM     32  C23 UNL A   1      38.553  31.536  33.039  1.00  0.00    +0.000 C 
BRANCH   32   30
ATOM     30  C22 UNL A   1      37.442  31.910  33.940  1.00  0.00    +0.000 C 
ATOM     31  O4  UNL A   1      37.561  31.767  35.153  1.00  0.00    +0.000 O 
BRANCH   30   29
ATOM    121  H23 UNL A   1      36.038  32.096  32.522  1.00  0.00    +0.000 H 
ATOM     29  N3  UNL A   1      36.283  32.423  33.417  1.00  0.00    +0.000 N 
BRANCH   29   28
ATOM     28  C21 UNL A   1      35.368  33.387  34.010  1.00  0.00    +0.000 C 
ATOM    119  H21 UNL A   1      34.907  32.944  34.869  1.00  0.00    +0.000 H 
ATOM    120  H22 UNL A   1      35.928  34.257  34.281  1.00  0.00    +0.000 H 
BRANCH   28   27
ATOM     27  C20 UNL A   1      34.279  33.808  33.028  1.00  0.00    +0.000 C 
ATOM    117  H19 UNL A   1      33.726  32.937  32.746  1.00  0.00    +0.000 H 
ATOM    118  H20 UNL A   1      33.676  34.536  33.528  1.00  0.00    +0.000 H 
BRANCH   27   26
ATOM     26  C19 UNL A   1      34.811  34.472  31.755  1.00  0.00    +0.000 C 
ATOM    115  H17 UNL A   1      34.617  35.522  31.820  1.00  0.00    +0.000 H 
ATOM    116  H18 UNL A   1      35.855  34.238  31.705  1.00  0.00    +0.000 H 
BRANCH   26   25
ATOM     25  C18 UNL A   1      34.191  33.952  30.449  1.00  0.00    +0.000 C 
ATOM    114  H16 UNL A   1      34.483  34.638  29.682  1.00  0.00    +0.000 H 
ATOM    113  H15 UNL A   1      33.131  33.895  30.584  1.00  0.00    +0.000 H 
BRANCH   25   24
ATOM    112  H14 UNL A   1      33.898  31.871  30.175  1.00  0.00    +0.000 H 
ATOM    111  H13 UNL A   1      35.565  32.325  30.576  1.00  0.00    +0.000 H 
ATOM     24  C17 UNL A   1      34.692  32.569  30.008  1.00  0.00    +0.000 C 
BRANCH   24   23
ATOM    109  H11 UNL A   1      34.511  33.269  27.995  1.00  0.00    +0.000 H 
ATOM    110  H12 UNL A   1      36.101  32.656  28.406  1.00  0.00    +0.000 H 
ATOM     23  C16 UNL A   1      35.047  32.506  28.519  1.00  0.00    +0.000 C 
BRANCH   23   22
ATOM    108  H10 UNL A   1      35.439  30.570  27.997  1.00  0.00    +0.000 H 
ATOM     22  N2  UNL A   1      34.693  31.212  27.976  1.00  0.00    +0.000 N 
BRANCH   22   20
ATOM     20  C15 UNL A   1      33.545  30.680  27.436  1.00  0.00    +0.000 C 
ATOM     21  O3  UNL A   1      32.617  31.477  27.272  1.00  0.00    +0.000 O 
BRANCH   20   19
ATOM    136  H38 UNL A   1      35.019  26.993  25.401  1.00  0.00    +0.000 H 
ATOM    106  H8  UNL A   1      31.273  26.620  27.176  1.00  0.00    +0.000 H 
ATOM    107  H9  UNL A   1      31.544  28.846  28.114  1.00  0.00    +0.000 H 
ATOM     16  C11 UNL A   1      33.100  26.633  26.125  1.00  0.00    +0.000 C 
ATOM     17  C12 UNL A   1      32.111  27.176  26.948  1.00  0.00    +0.000 C 
ATOM     18  C13 UNL A   1      32.249  28.464  27.465  1.00  0.00    +0.000 C 
ATOM     19  C14 UNL A   1      33.348  29.224  27.095  1.00  0.00    +0.000 C 
ATOM     95  N8  UNL A   1      34.360  28.686  26.356  1.00  0.00    +0.000 N 
ATOM     96  C67 UNL A   1      34.229  27.411  25.918  1.00  0.00    +0.000 C 
BRANCH   16   15
ATOM    104  H6  UNL A   1      31.031  23.663  23.255  1.00  0.00    +0.000 H 
ATOM      9  C6  UNL A   1      31.948  25.163  24.435  1.00  0.00    +0.000 C 
ATOM     10  C7  UNL A   1      31.729  23.849  23.991  1.00  0.00    +0.000 C 
ATOM     11  C8  UNL A   1      32.455  22.799  24.544  1.00  0.00    +0.000 C 
ATOM     12 Cl1  UNL A   1      32.166  21.182  24.044  1.00  0.00    +0.000 Cl
ATOM     13  C9  UNL A   1      33.402  23.083  25.512  1.00  0.00    +0.000 C 
ATOM     14  N1  UNL A   1      33.646  24.329  25.981  1.00  0.00    +0.000 N 
ATOM     15  C10 UNL A   1      32.906  25.343  25.461  1.00  0.00    +0.000 C 
ATOM    105  H7  UNL A   1      33.953  22.302  25.899  1.00  0.00    +0.000 H 
BRANCH    9    8
ATOM     97  C68 UNL A   1      29.824  26.478  24.208  1.00  0.00    +0.000 C 
ATOM     98  C69 UNL A   1      29.122  27.605  23.769  1.00  0.00    +0.000 C 
ATOM      5  C2  UNL A   1      29.768  28.552  22.974  1.00  0.00    +0.000 C 
ATOM    102  H4  UNL A   1      31.576  29.086  22.020  1.00  0.00    +0.000 H 
ATOM      6  C3  UNL A   1      31.101  28.380  22.604  1.00  0.00    +0.000 C 
ATOM      7  C4  UNL A   1      31.790  27.242  23.034  1.00  0.00    +0.000 C 
ATOM    103  H5  UNL A   1      32.767  27.100  22.735  1.00  0.00    +0.000 H 
ATOM    138  H40 UNL A   1      28.132  27.734  24.030  1.00  0.00    +0.000 H 
ATOM      8  C5  UNL A   1      31.175  26.288  23.867  1.00  0.00    +0.000 C 
ATOM    137  H39 UNL A   1      29.344  25.776  24.792  1.00  0.00    +0.000 H 
BRANCH    5    2
ATOM      2  S1  UNL A   1      28.914  30.029  22.474  1.00  0.00    +0.000 S 
ATOM      3  O1  UNL A   1      29.425  30.389  21.163  1.00  0.00    +0.000 O 
ATOM      4  O2  UNL A   1      28.978  30.967  23.576  1.00  0.00    +0.000 O 
BRANCH    2    1
ATOM      1  C1  UNL A   1      27.231  29.499  22.301  1.00  0.00    +0.000 C 
ATOM     99  H1  UNL A   1      26.880  29.741  21.320  1.00  0.00    +0.000 H 
ATOM    100  H2  UNL A   1      26.624  29.994  23.029  1.00  0.00    +0.000 H 
ATOM    101  H3  UNL A   1      27.173  28.440  22.448  1.00  0.00    +0.000 H 
ENDBRANCH    2    1
ENDBRANCH    5    2
ENDBRANCH    9    8
ENDBRANCH   16   15
ENDBRANCH   20   19
ENDBRANCH   22   20
ENDBRANCH   23   22
ENDBRANCH   24   23
ENDBRANCH   25   24
ENDBRANCH   26   25
ENDBRANCH   27   26
ENDBRANCH   28   27
ENDBRANCH   29   28
ENDBRANCH   30   29
ENDBRANCH   32   30
ENDBRANCH   36   35
BRANCH   40   41
ATOM     41  C31 UNL A   1      41.415  24.958  27.518  1.00  0.00    +0.000 C 
ATOM     42  C32 UNL A   1      40.272  25.016  26.705  1.00  0.00    +0.000 C 
ATOM     43  F1  UNL A   1      39.887  26.182  26.164  1.00  0.00    +0.000 F 
ATOM     44  C33 UNL A   1      39.503  23.881  26.467  1.00  0.00    +0.000 C 
ATOM     45  F2  UNL A   1      38.394  23.970  25.718  1.00  0.00    +0.000 F 
ATOM     46  C34 UNL A   1      39.879  22.660  27.005  1.00  0.00    +0.000 C 
ATOM     47  F3  UNL A   1      39.147  21.564  26.760  1.00  0.00    +0.000 F 
ATOM     48  C35 UNL A   1      41.011  22.575  27.801  1.00  0.00    +0.000 C 
ATOM     49  F4  UNL A   1      41.385  21.393  28.310  1.00  0.00    +0.000 F 
ATOM     50  C36 UNL A   1      41.765  23.716  28.068  1.00  0.00    +0.000 C 
ATOM     51  F5  UNL A   1      42.851  23.602  28.848  1.00  0.00    +0.000 F 
ENDBRANCH   40   41
BRANCH   57   58
ATOM     65  C46 UNL A   1      48.545  27.396  22.903  1.00  0.00    +0.000 C 
ATOM     66  F9  UNL A   1      48.362  27.597  21.591  1.00  0.00    +0.000 F 
ATOM     67  C47 UNL A   1      47.564  27.785  23.810  1.00  0.00    +0.000 C 
ATOM     68  F10 UNL A   1      46.453  28.372  23.342  1.00  0.00    +0.000 F 
ATOM     58  C42 UNL A   1      47.721  27.560  25.187  1.00  0.00    +0.000 C 
ATOM     59  C43 UNL A   1      48.900  26.934  25.618  1.00  0.00    +0.000 C 
ATOM     60  F6  UNL A   1      49.106  26.710  26.925  1.00  0.00    +0.000 F 
ATOM     61  C44 UNL A   1      49.896  26.580  24.713  1.00  0.00    +0.000 C 
ATOM     62  F7  UNL A   1      51.039  26.037  25.155  1.00  0.00    +0.000 F 
ATOM     63  C45 UNL A   1      49.714  26.804  23.356  1.00  0.00    +0.000 C 
ATOM     64  F8  UNL A   1      50.672  26.456  22.485  1.00  0.00    +0.000 F 
ENDBRANCH   57   58
BRANCH   72   73
ATOM     73  C51 UNL A   1      46.890  33.137  29.278  1.00  0.00    +0.000 C 
ATOM     74  C52 UNL A   1      46.817  34.289  28.483  1.00  0.00    +0.000 C 
ATOM     75  F11 UNL A   1      45.958  34.340  27.454  1.00  0.00    +0.000 F 
ATOM     76  C53 UNL A   1      47.668  35.370  28.702  1.00  0.00    +0.000 C 
ATOM     77  F12 UNL A   1      47.626  36.428  27.881  1.00  0.00    +0.000 F 
ATOM     78  C54 UNL A   1      48.578  35.340  29.747  1.00  0.00    +0.000 C 
ATOM     79  F13 UNL A   1      49.402  36.377  29.952  1.00  0.00    +0.000 F 
ATOM     80  C55 UNL A   1      48.643  34.226  30.570  1.00  0.00    +0.000 C 
ATOM     81  F14 UNL A   1      49.510  34.198  31.592  1.00  0.00    +0.000 F 
ATOM     82  C56 UNL A   1      47.819  33.130  30.329  1.00  0.00    +0.000 C 
ATOM     83  F15 UNL A   1      47.926  32.056  31.126  1.00  0.00    +0.000 F 
ENDBRANCH   72   73
TORSDOF 19
ENDMDL
MODEL 3
REMARK VINA RESULT:     -10.4     37.536     42.132
ROOT
ATOM    129  H31 UNL A   1      14.864  51.754   2.638  1.00  0.00    +0.000 H 
ATOM    130  H32 UNL A   1      13.707  46.999   1.510  1.00  0.00    +0.000 H 
ATOM    131  H33 UNL A   1      15.511  47.130  -0.300  1.00  0.00    +0.000 H 
ATOM    132  H34 UNL A   1      17.068  56.824   1.815  1.00  0.00    +0.000 H 
ATOM    133  H35 UNL A   1      15.663  56.581   3.943  1.00  0.00    +0.000 H 
ATOM     36  C27 UNL A   1      14.428  54.024   4.216  1.00  0.00    +0.000 C 
ATOM     37  C28 UNL A   1      15.398  54.470   3.157  1.00  0.00    +0.000 C 
ATOM     38  N4  UNL A   1      15.885  53.797   2.145  1.00  0.00    +0.000 N 
ATOM     39  C29 UNL A   1      16.716  54.680   1.469  1.00  0.00    +0.000 C 
ATOM     40  C30 UNL A   1      17.515  54.438   0.402  1.00  0.00    +0.000 C 
ATOM     52  C37 UNL A   1      17.619  53.163  -0.258  1.00  0.00    +0.000 C 
ATOM     53  C38 UNL A   1      18.420  52.809  -1.330  1.00  0.00    +0.000 C 
ATOM     54  C39 UNL A   1      18.149  51.477  -1.659  1.00  0.00    +0.000 C 
ATOM     55  C40 UNL A   1      17.224  50.983  -0.755  1.00  0.00    +0.000 C 
ATOM     56  N5  UNL A   1      16.898  52.031   0.093  1.00  0.00    +0.000 N 
ATOM     57  C41 UNL A   1      16.677  49.653  -0.669  1.00  0.00    +0.000 C 
ATOM     69  C48 UNL A   1      15.769  49.245   0.251  1.00  0.00    +0.000 C 
ATOM     70  N6  UNL A   1      15.181  49.967   1.281  1.00  0.00    +0.000 N 
ATOM     71  C49 UNL A   1      14.354  49.140   1.876  1.00  0.00    +0.000 C 
ATOM     72  C50 UNL A   1      13.477  49.370   3.077  1.00  0.00    +0.000 C 
ATOM     84  C57 UNL A   1      13.508  50.571   3.687  1.00  0.00    +0.000 C 
ATOM     85  C58 UNL A   1      12.730  50.941   4.864  1.00  0.00    +0.000 C 
ATOM     86  C59 UNL A   1      12.968  52.229   5.157  1.00  0.00    +0.000 C 
ATOM     87  C60 UNL A   1      13.951  52.764   4.212  1.00  0.00    +0.000 C 
ATOM     88  N7  UNL A   1      14.220  51.705   3.382  1.00  0.00    +0.000 N 
ATOM     89  C61 UNL A   1      14.303  47.805   1.265  1.00  0.00    +0.000 C 
ATOM     90  C62 UNL A   1      15.221  47.906   0.315  1.00  0.00    +0.000 C 
ATOM     91  C63 UNL A   1      16.615  55.957   2.141  1.00  0.00    +0.000 C 
ATOM     92  C64 UNL A   1      15.866  55.863   3.229  1.00  0.00    +0.000 C 
ATOM    124  H26 UNL A   1      19.101  53.422  -1.804  1.00  0.00    +0.000 H 
ATOM    125  H27 UNL A   1      18.566  50.952  -2.443  1.00  0.00    +0.000 H 
ATOM    126  H28 UNL A   1      16.252  51.980   0.834  1.00  0.00    +0.000 H 
ATOM    127  H29 UNL A   1      12.099  50.315   5.387  1.00  0.00    +0.000 H 
ATOM    128  H30 UNL A   1      12.529  52.759   5.926  1.00  0.00    +0.000 H 
ENDROOT
BRANCH   36   35
ATOM     33  C24 UNL A   1      14.086  55.907   7.491  1.00  0.00    +0.000 C 
ATOM     34  C25 UNL A   1      14.582  55.056   6.503  1.00  0.00    +0.000 C 
ATOM     35  C26 UNL A   1      13.954  54.979   5.249  1.00  0.00    +0.000 C 
ATOM    134  H36 UNL A   1      12.389  55.762   4.061  1.00  0.00    +0.000 H 
ATOM    135  H37 UNL A   1      11.672  57.395   5.702  1.00  0.00    +0.000 H 
ATOM    122  H24 UNL A   1      14.530  55.934   8.423  1.00  0.00    +0.000 H 
ATOM    123  H25 UNL A   1      15.417  54.480   6.694  1.00  0.00    +0.000 H 
ATOM     93  C65 UNL A   1      12.864  55.817   4.976  1.00  0.00    +0.000 C 
ATOM     94  C66 UNL A   1      12.419  56.723   5.934  1.00  0.00    +0.000 C 
ATOM     32  C23 UNL A   1      12.987  56.721   7.213  1.00  0.00    +0.000 C 
BRANCH   32   30
ATOM     30  C22 UNL A   1      12.456  57.596   8.280  1.00  0.00    +0.000 C 
ATOM     31  O4  UNL A   1      12.897  58.733   8.416  1.00  0.00    +0.000 O 
BRANCH   30   29
ATOM    121  H23 UNL A   1      10.559  57.459   8.912  1.00  0.00    +0.000 H 
ATOM     29  N3  UNL A   1      11.467  57.136   9.110  1.00  0.00    +0.000 N 
BRANCH   29   28
ATOM     28  C21 UNL A   1      11.582  56.233  10.245  1.00  0.00    +0.000 C 
ATOM    119  H21 UNL A   1      12.570  56.309  10.652  1.00  0.00    +0.000 H 
ATOM    120  H22 UNL A   1      10.847  56.513  10.971  1.00  0.00    +0.000 H 
BRANCH   28   27
ATOM     27  C20 UNL A   1      11.325  54.784   9.842  1.00  0.00    +0.000 C 
ATOM    117  H19 UNL A   1      10.274  54.599   9.907  1.00  0.00    +0.000 H 
ATOM    118  H20 UNL A   1      11.705  54.668   8.849  1.00  0.00    +0.000 H 
BRANCH   27   26
ATOM     26  C19 UNL A   1      12.049  53.756  10.716  1.00  0.00    +0.000 C 
ATOM    115  H17 UNL A   1      11.498  53.645  11.626  1.00  0.00    +0.000 H 
ATOM    116  H18 UNL A   1      12.102  52.855  10.141  1.00  0.00    +0.000 H 
BRANCH   26   25
ATOM     25  C18 UNL A   1      13.497  54.123  11.076  1.00  0.00    +0.000 C 
ATOM    114  H16 UNL A   1      13.555  55.190  11.043  1.00  0.00    +0.000 H 
ATOM    113  H15 UNL A   1      14.146  53.642  10.375  1.00  0.00    +0.000 H 
BRANCH   25   24
ATOM    112  H14 UNL A   1      13.055  53.380  13.011  1.00  0.00    +0.000 H 
ATOM    111  H13 UNL A   1      14.387  54.550  12.967  1.00  0.00    +0.000 H 
ATOM     24  C17 UNL A   1      13.930  53.708  12.490  1.00  0.00    +0.000 C 
BRANCH   24   23
ATOM    109  H11 UNL A   1      14.882  52.036  11.557  1.00  0.00    +0.000 H 
ATOM    110  H12 UNL A   1      15.913  52.933  12.655  1.00  0.00    +0.000 H 
ATOM     23  C16 UNL A   1      14.928  52.546  12.496  1.00  0.00    +0.000 C 
BRANCH   23   22
ATOM    108  H10 UNL A   1      15.397  51.341  14.078  1.00  0.00    +0.000 H 
ATOM     22  N2  UNL A   1      14.608  51.619  13.561  1.00  0.00    +0.000 N 
BRANCH   22   20
ATOM     20  C15 UNL A   1      13.443  51.040  14.010  1.00  0.00    +0.000 C 
ATOM     21  O3  UNL A   1      13.220  51.163  15.218  1.00  0.00    +0.000 O 
BRANCH   20   19
ATOM    136  H38 UNL A   1      12.274  47.146  12.172  1.00  0.00    +0.000 H 
ATOM    106  H8  UNL A   1       9.885  50.372  11.076  1.00  0.00    +0.000 H 
ATOM    107  H9  UNL A   1      11.090  51.752  12.674  1.00  0.00    +0.000 H 
ATOM     16  C11 UNL A   1      11.033  48.637  11.420  1.00  0.00    +0.000 C 
ATOM     17  C12 UNL A   1      10.677  49.975  11.605  1.00  0.00    +0.000 C 
ATOM     18  C13 UNL A   1      11.384  50.778  12.499  1.00  0.00    +0.000 C 
ATOM     19  C14 UNL A   1      12.488  50.249  13.150  1.00  0.00    +0.000 C 
ATOM     95  N8  UNL A   1      12.805  48.928  13.041  1.00  0.00    +0.000 N 
ATOM     96  C67 UNL A   1      12.061  48.155  12.213  1.00  0.00    +0.000 C 
BRANCH   16   15
ATOM    104  H6  UNL A   1      10.528  46.894   7.171  1.00  0.00    +0.000 H 
ATOM      9  C6  UNL A   1      10.954  47.675   9.092  1.00  0.00    +0.000 C 
ATOM     10  C7  UNL A   1      10.172  47.014   8.132  1.00  0.00    +0.000 C 
ATOM     11  C8  UNL A   1       8.918  46.520   8.475  1.00  0.00    +0.000 C 
ATOM     12 Cl1  UNL A   1       7.932  45.750   7.300  1.00  0.00    +0.000 Cl
ATOM     13  C9  UNL A   1       8.478  46.675   9.778  1.00  0.00    +0.000 C 
ATOM     14  N1  UNL A   1       9.186  47.311  10.740  1.00  0.00    +0.000 N 
ATOM     15  C10 UNL A   1      10.394  47.822  10.385  1.00  0.00    +0.000 C 
ATOM    105  H7  UNL A   1       7.557  46.285  10.031  1.00  0.00    +0.000 H 
BRANCH    9    8
ATOM     97  C68 UNL A   1      13.388  47.365   8.577  1.00  0.00    +0.000 C 
ATOM     98  C69 UNL A   1      14.618  47.856   8.127  1.00  0.00    +0.000 C 
ATOM      5  C2  UNL A   1      14.753  49.215   7.842  1.00  0.00    +0.000 C 
ATOM    102  H4  UNL A   1      13.783  51.091   7.796  1.00  0.00    +0.000 H 
ATOM      6  C3  UNL A   1      13.679  50.088   8.012  1.00  0.00    +0.000 C 
ATOM      7  C4  UNL A   1      12.459  49.590   8.478  1.00  0.00    +0.000 C 
ATOM    103  H5  UNL A   1      11.674  50.241   8.633  1.00  0.00    +0.000 H 
ATOM    138  H40 UNL A   1      15.420  47.218   8.008  1.00  0.00    +0.000 H 
ATOM      8  C5  UNL A   1      12.283  48.217   8.739  1.00  0.00    +0.000 C 
ATOM    137  H39 UNL A   1      13.291  46.360   8.791  1.00  0.00    +0.000 H 
BRANCH    5    2
ATOM      2  S1  UNL A   1      16.285  49.843   7.194  1.00  0.00    +0.000 S 
ATOM      3  O1  UNL A   1      16.009  51.168   6.667  1.00  0.00    +0.000 O 
ATOM      4  O2  UNL A   1      16.858  48.815   6.350  1.00  0.00    +0.000 O 
BRANCH    2    1
ATOM      1  C1  UNL A   1      17.310  50.007   8.632  1.00  0.00    +0.000 C 
ATOM     99  H1  UNL A   1      17.682  49.045   8.917  1.00  0.00    +0.000 H 
ATOM    100  H2  UNL A   1      16.736  50.420   9.435  1.00  0.00    +0.000 H 
ATOM    101  H3  UNL A   1      18.133  50.656   8.412  1.00  0.00    +0.000 H 
ENDBRANCH    2    1
ENDBRANCH    5    2
ENDBRANCH    9    8
ENDBRANCH   16   15
ENDBRANCH   20   19
ENDBRANCH   22   20
ENDBRANCH   23   22
ENDBRANCH   24   23
ENDBRANCH   25   24
ENDBRANCH   26   25
ENDBRANCH   27   26
ENDBRANCH   28   27
ENDBRANCH   29   28
ENDBRANCH   30   29
ENDBRANCH   32   30
ENDBRANCH   36   35
BRANCH   40   41
ATOM     41  C31 UNL A   1      18.358  55.571  -0.112  1.00  0.00    +0.000 C 
ATOM     42  C32 UNL A   1      17.975  56.313  -1.240  1.00  0.00    +0.000 C 
ATOM     43  F1  UNL A   1      16.875  55.976  -1.929  1.00  0.00    +0.000 F 
ATOM     44  C33 UNL A   1      18.738  57.390  -1.682  1.00  0.00    +0.000 C 
ATOM     45  F2  UNL A   1      18.373  58.060  -2.784  1.00  0.00    +0.000 F 
ATOM     46  C34 UNL A   1      19.876  57.769  -0.987  1.00  0.00    +0.000 C 
ATOM     47  F3  UNL A   1      20.600  58.817  -1.404  1.00  0.00    +0.000 F 
ATOM     48  C35 UNL A   1      20.267  57.058   0.138  1.00  0.00    +0.000 C 
ATOM     49  F4  UNL A   1      21.358  57.432   0.819  1.00  0.00    +0.000 F 
ATOM     50  C36 UNL A   1      19.523  55.960   0.564  1.00  0.00    +0.000 C 
ATOM     51  F5  UNL A   1      19.932  55.288   1.651  1.00  0.00    +0.000 F 
ENDBRANCH   40   41
BRANCH   57   58
ATOM     65  C46 UNL A   1      16.999  47.567  -3.836  1.00  0.00    +0.000 C 
ATOM     66  F9  UNL A   1      16.403  47.473  -5.033  1.00  0.00    +0.000 F 
ATOM     67  C47 UNL A   1      16.577  48.529  -2.923  1.00  0.00    +0.000 C 
ATOM     68  F10 UNL A   1      15.584  49.358  -3.276  1.00  0.00    +0.000 F 
ATOM     58  C42 UNL A   1      17.166  48.630  -1.653  1.00  0.00    +0.000 C 
ATOM     59  C43 UNL A   1      18.195  47.731  -1.335  1.00  0.00    +0.000 C 
ATOM     60  F6  UNL A   1      18.802  47.794  -0.140  1.00  0.00    +0.000 F 
ATOM     61  C44 UNL A   1      18.640  46.794  -2.264  1.00  0.00    +0.000 C 
ATOM     62  F7  UNL A   1      19.665  45.985  -1.958  1.00  0.00    +0.000 F 
ATOM     63  C45 UNL A   1      18.037  46.708  -3.509  1.00  0.00    +0.000 C 
ATOM     64  F8  UNL A   1      18.462  45.800  -4.400  1.00  0.00    +0.000 F 
ENDBRANCH   57   58
BRANCH   72   73
ATOM     73  C51 UNL A   1      12.589  48.290   3.588  1.00  0.00    +0.000 C 
ATOM     74  C52 UNL A   1      11.272  48.154   3.125  1.00  0.00    +0.000 C 
ATOM     75  F11 UNL A   1      10.800  48.995   2.193  1.00  0.00    +0.000 F 
ATOM     76  C53 UNL A   1      10.416  47.196   3.662  1.00  0.00    +0.000 C 
ATOM     77  F12 UNL A   1       9.142  47.137   3.253  1.00  0.00    +0.000 F 
ATOM     78  C54 UNL A   1      10.871  46.325   4.640  1.00  0.00    +0.000 C 
ATOM     79  F13 UNL A   1      10.044  45.408   5.162  1.00  0.00    +0.000 F 
ATOM     80  C55 UNL A   1      12.180  46.415   5.086  1.00  0.00    +0.000 C 
ATOM     81  F14 UNL A   1      12.630  45.564   6.020  1.00  0.00    +0.000 F 
ATOM     82  C56 UNL A   1      13.026  47.397   4.577  1.00  0.00    +0.000 C 
ATOM     83  F15 UNL A   1      14.279  47.477   5.050  1.00  0.00    +0.000 F 
ENDBRANCH   72   73
TORSDOF 19
ENDMDL
MODEL 4
REMARK VINA RESULT:     -10.2     39.282     44.428
ROOT
ATOM    129  H31 UNL A   1      26.198 -12.032  32.985  1.00  0.00    +0.000 H 
ATOM    130  H32 UNL A   1      22.983 -11.733  36.830  1.00  0.00    +0.000 H 
ATOM    131  H33 UNL A   1      24.575 -13.275  38.108  1.00  0.00    +0.000 H 
ATOM    132  H34 UNL A   1      30.407 -14.152  29.978  1.00  0.00    +0.000 H 
ATOM    133  H35 UNL A   1      29.134 -12.229  28.863  1.00  0.00    +0.000 H 
ATOM     36  C27 UNL A   1      26.895 -11.307  30.373  1.00  0.00    +0.000 C 
ATOM     37  C28 UNL A   1      27.916 -12.335  30.774  1.00  0.00    +0.000 C 
ATOM     38  N4  UNL A   1      28.006 -13.022  31.885  1.00  0.00    +0.000 N 
ATOM     39  C29 UNL A   1      29.116 -13.844  31.733  1.00  0.00    +0.000 C 
ATOM     40  C30 UNL A   1      29.674 -14.683  32.637  1.00  0.00    +0.000 C 
ATOM     52  C37 UNL A   1      29.167 -14.893  33.968  1.00  0.00    +0.000 C 
ATOM     53  C38 UNL A   1      29.677 -15.701  34.969  1.00  0.00    +0.000 C 
ATOM     54  C39 UNL A   1      28.823 -15.624  36.074  1.00  0.00    +0.000 C 
ATOM     55  C40 UNL A   1      27.814 -14.720  35.783  1.00  0.00    +0.000 C 
ATOM     56  N5  UNL A   1      28.030 -14.287  34.484  1.00  0.00    +0.000 N 
ATOM     57  C41 UNL A   1      26.733 -14.284  36.629  1.00  0.00    +0.000 C 
ATOM     69  C48 UNL A   1      25.779 -13.391  36.269  1.00  0.00    +0.000 C 
ATOM     70  N6  UNL A   1      25.622 -12.713  35.067  1.00  0.00    +0.000 N 
ATOM     71  C49 UNL A   1      24.537 -11.987  35.201  1.00  0.00    +0.000 C 
ATOM     72  C50 UNL A   1      23.909 -11.026  34.228  1.00  0.00    +0.000 C 
ATOM     84  C57 UNL A   1      24.501 -10.825  33.035  1.00  0.00    +0.000 C 
ATOM     85  C58 UNL A   1      24.023  -9.920  31.995  1.00  0.00    +0.000 C 
ATOM     86  C59 UNL A   1      24.827 -10.022  30.925  1.00  0.00    +0.000 C 
ATOM     87  C60 UNL A   1      25.904 -10.969  31.219  1.00  0.00    +0.000 C 
ATOM     88  N7  UNL A   1      25.633 -11.388  32.498  1.00  0.00    +0.000 N 
ATOM     89  C61 UNL A   1      23.866 -12.149  36.498  1.00  0.00    +0.000 C 
ATOM     90  C62 UNL A   1      24.691 -12.972  37.128  1.00  0.00    +0.000 C 
ATOM     91  C63 UNL A   1      29.627 -13.623  30.398  1.00  0.00    +0.000 C 
ATOM     92  C64 UNL A   1      28.963 -12.652  29.789  1.00  0.00    +0.000 C 
ATOM    124  H26 UNL A   1      30.541 -16.264  34.910  1.00  0.00    +0.000 H 
ATOM    125  H27 UNL A   1      28.927 -16.150  36.954  1.00  0.00    +0.000 H 
ATOM    126  H28 UNL A   1      27.462 -13.647  33.999  1.00  0.00    +0.000 H 
ATOM    127  H29 UNL A   1      23.201  -9.302  32.070  1.00  0.00    +0.000 H 
ATOM    128  H30 UNL A   1      24.705  -9.513  30.035  1.00  0.00    +0.000 H 
ENDROOT
BRANCH   36   35
ATOM     33  C24 UNL A   1      26.435 -10.748  26.649  1.00  0.00    +0.000 C 
ATOM     34  C25 UNL A   1      26.323 -11.302  27.925  1.00  0.00    +0.000 C 
ATOM     35  C26 UNL A   1      26.945 -10.688  29.024  1.00  0.00    +0.000 C 
ATOM    134  H36 UNL A   1      28.091  -9.019  29.638  1.00  0.00    +0.000 H 
ATOM    135  H37 UNL A   1      28.092  -7.949  27.464  1.00  0.00    +0.000 H 
ATOM    122  H24 UNL A   1      26.006 -11.222  25.839  1.00  0.00    +0.000 H 
ATOM    123  H25 UNL A   1      25.779 -12.168  28.062  1.00  0.00    +0.000 H 
ATOM     93  C65 UNL A   1      27.622  -9.474  28.839  1.00  0.00    +0.000 C 
ATOM     94  C66 UNL A   1      27.665  -8.881  27.581  1.00  0.00    +0.000 C 
ATOM     32  C23 UNL A   1      27.130  -9.550  26.475  1.00  0.00    +0.000 C 
BRANCH   32   30
ATOM     30  C22 UNL A   1      27.263  -8.992  25.113  1.00  0.00    +0.000 C 
ATOM     31  O4  UNL A   1      27.698  -7.855  24.957  1.00  0.00    +0.000 O 
BRANCH   30   29
ATOM    121  H23 UNL A   1      25.946  -9.757  23.810  1.00  0.00    +0.000 H 
ATOM     29  N3  UNL A   1      26.906  -9.749  24.027  1.00  0.00    +0.000 N 
BRANCH   29   28
ATOM     28  C21 UNL A   1      27.757 -10.542  23.153  1.00  0.00    +0.000 C 
ATOM    119  H21 UNL A   1      28.421 -11.129  23.755  1.00  0.00    +0.000 H 
ATOM    120  H22 UNL A   1      27.130 -11.167  22.554  1.00  0.00    +0.000 H 
BRANCH   28   27
ATOM     27  C20 UNL A   1      28.584  -9.662  22.221  1.00  0.00    +0.000 C 
ATOM    117  H19 UNL A   1      28.037  -9.529  21.311  1.00  0.00    +0.000 H 
ATOM    118  H20 UNL A   1      28.756  -8.741  22.738  1.00  0.00    +0.000 H 
BRANCH   27   26
ATOM     26  C19 UNL A   1      29.959 -10.239  21.875  1.00  0.00    +0.000 C 
ATOM    115  H17 UNL A   1      30.514 -10.348  22.784  1.00  0.00    +0.000 H 
ATOM    116  H18 UNL A   1      29.779 -11.169  21.376  1.00  0.00    +0.000 H 
BRANCH   26   25
ATOM     25  C18 UNL A   1      30.791  -9.385  20.907  1.00  0.00    +0.000 C 
ATOM    114  H16 UNL A   1      31.124  -8.535  21.464  1.00  0.00    +0.000 H 
ATOM    113  H15 UNL A   1      30.172  -9.128  20.073  1.00  0.00    +0.000 H 
BRANCH   25   24
ATOM    112  H14 UNL A   1      31.758 -10.696  19.552  1.00  0.00    +0.000 H 
ATOM    111  H13 UNL A   1      32.499 -10.638  21.162  1.00  0.00    +0.000 H 
ATOM     24  C17 UNL A   1      32.055 -10.073  20.369  1.00  0.00    +0.000 C 
BRANCH   24   23
ATOM    109  H11 UNL A   1      33.719  -9.578  19.120  1.00  0.00    +0.000 H 
ATOM    110  H12 UNL A   1      32.589  -8.262  19.372  1.00  0.00    +0.000 H 
ATOM     23  C16 UNL A   1      33.095  -9.084  19.834  1.00  0.00    +0.000 C 
BRANCH   23   22
ATOM    108  H10 UNL A   1      33.931  -7.601  20.965  1.00  0.00    +0.000 H 
ATOM     22  N2  UNL A   1      33.912  -8.584  20.920  1.00  0.00    +0.000 N 
BRANCH   22   20
ATOM     20  C15 UNL A   1      34.669  -9.179  21.903  1.00  0.00    +0.000 C 
ATOM     21  O3  UNL A   1      35.781  -9.581  21.547  1.00  0.00    +0.000 O 
BRANCH   20   19
ATOM    136  H38 UNL A   1      31.566  -8.620  25.059  1.00  0.00    +0.000 H 
ATOM    106  H8  UNL A   1      35.054 -10.481  26.361  1.00  0.00    +0.000 H 
ATOM    107  H9  UNL A   1      35.837 -10.526  24.060  1.00  0.00    +0.000 H 
ATOM     16  C11 UNL A   1      33.258  -9.463  25.930  1.00  0.00    +0.000 C 
ATOM     17  C12 UNL A   1      34.487 -10.048  25.616  1.00  0.00    +0.000 C 
ATOM     18  C13 UNL A   1      34.954 -10.050  24.301  1.00  0.00    +0.000 C 
ATOM     19  C14 UNL A   1      34.213  -9.404  23.323  1.00  0.00    +0.000 C 
ATOM     95  N8  UNL A   1      32.978  -8.894  23.595  1.00  0.00    +0.000 N 
ATOM     96  C67 UNL A   1      32.521  -8.962  24.869  1.00  0.00    +0.000 C 
BRANCH   16   15
ATOM    104  H6  UNL A   1      30.718 -10.499  29.648  1.00  0.00    +0.000 H 
ATOM      9  C6  UNL A   1      31.886 -10.216  27.904  1.00  0.00    +0.000 C 
ATOM     10  C7  UNL A   1      31.412  -9.891  29.185  1.00  0.00    +0.000 C 
ATOM     11  C8  UNL A   1      31.877  -8.749  29.830  1.00  0.00    +0.000 C 
ATOM     12 Cl1  UNL A   1      31.272  -8.314  31.375  1.00  0.00    +0.000 Cl
ATOM     13  C9  UNL A   1      32.825  -7.967  29.193  1.00  0.00    +0.000 C 
ATOM     14  N1  UNL A   1      33.309  -8.230  27.957  1.00  0.00    +0.000 N 
ATOM     15  C10 UNL A   1      32.821  -9.327  27.321  1.00  0.00    +0.000 C 
ATOM    105  H7  UNL A   1      33.183  -7.136  29.688  1.00  0.00    +0.000 H 
BRANCH    9    8
ATOM     97  C68 UNL A   1      30.169 -11.395  26.507  1.00  0.00    +0.000 C 
ATOM     98  C69 UNL A   1      29.753 -12.490  25.742  1.00  0.00    +0.000 C 
ATOM      5  C2  UNL A   1      30.559 -13.626  25.672  1.00  0.00    +0.000 C 
ATOM    102  H4  UNL A   1      32.362 -14.527  26.307  1.00  0.00    +0.000 H 
ATOM      6  C3  UNL A   1      31.767 -13.686  26.365  1.00  0.00    +0.000 C 
ATOM      7  C4  UNL A   1      32.167 -12.593  27.141  1.00  0.00    +0.000 C 
ATOM    103  H5  UNL A   1      33.045 -12.649  27.678  1.00  0.00    +0.000 H 
ATOM    138  H40 UNL A   1      28.855 -12.457  25.234  1.00  0.00    +0.000 H 
ATOM      8  C5  UNL A   1      31.392 -11.419  27.201  1.00  0.00    +0.000 C 
ATOM    137  H39 UNL A   1      29.570 -10.556  26.562  1.00  0.00    +0.000 H 
BRANCH    5    2
ATOM      2  S1  UNL A   1      30.084 -14.994  24.641  1.00  0.00    +0.000 S 
ATOM      3  O1  UNL A   1      31.235 -15.876  24.553  1.00  0.00    +0.000 O 
ATOM      4  O2  UNL A   1      29.474 -14.451  23.445  1.00  0.00    +0.000 O 
BRANCH    2    1
ATOM      1  C1  UNL A   1      28.819 -15.806  25.582  1.00  0.00    +0.000 C 
ATOM     99  H1  UNL A   1      29.264 -16.537  26.223  1.00  0.00    +0.000 H 
ATOM    100  H2  UNL A   1      28.131 -16.285  24.917  1.00  0.00    +0.000 H 
ATOM    101  H3  UNL A   1      28.297 -15.084  26.176  1.00  0.00    +0.000 H 
ENDBRANCH    2    1
ENDBRANCH    5    2
ENDBRANCH    9    8
ENDBRANCH   16   15
ENDBRANCH   20   19
ENDBRANCH   22   20
ENDBRANCH   23   22
ENDBRANCH   24   23
ENDBRANCH   25   24
ENDBRANCH   26   25
ENDBRANCH   27   26
ENDBRANCH   28   27
ENDBRANCH   29   28
ENDBRANCH   30   29
ENDBRANCH   32   30
ENDBRANCH   36   35
BRANCH   40   41
ATOM     41  C31 UNL A   1      30.913 -15.428  32.228  1.00  0.00    +0.000 C 
ATOM     42  C32 UNL A   1      30.838 -16.662  31.564  1.00  0.00    +0.000 C 
ATOM     43  F1  UNL A   1      29.648 -17.240  31.344  1.00  0.00    +0.000 F 
ATOM     44  C33 UNL A   1      31.990 -17.324  31.148  1.00  0.00    +0.000 C 
ATOM     45  F2  UNL A   1      31.895 -18.520  30.550  1.00  0.00    +0.000 F 
ATOM     46  C34 UNL A   1      33.235 -16.749  31.353  1.00  0.00    +0.000 C 
ATOM     47  F3  UNL A   1      34.342 -17.379  30.936  1.00  0.00    +0.000 F 
ATOM     48  C35 UNL A   1      33.333 -15.524  31.995  1.00  0.00    +0.000 C 
ATOM     49  F4  UNL A   1      34.535 -14.961  32.181  1.00  0.00    +0.000 F 
ATOM     50  C36 UNL A   1      32.184 -14.875  32.442  1.00  0.00    +0.000 C 
ATOM     51  F5  UNL A   1      32.314 -13.695  33.067  1.00  0.00    +0.000 F 
ENDBRANCH   40   41
BRANCH   57   58
ATOM     65  C46 UNL A   1      27.368 -14.742  40.353  1.00  0.00    +0.000 C 
ATOM     66  F9  UNL A   1      28.091 -14.159  41.321  1.00  0.00    +0.000 F 
ATOM     67  C47 UNL A   1      27.394 -14.227  39.061  1.00  0.00    +0.000 C 
ATOM     68  F10 UNL A   1      28.138 -13.138  38.817  1.00  0.00    +0.000 F 
ATOM     58  C42 UNL A   1      26.668 -14.834  38.025  1.00  0.00    +0.000 C 
ATOM     59  C43 UNL A   1      25.914 -15.976  38.335  1.00  0.00    +0.000 C 
ATOM     60  F6  UNL A   1      25.190 -16.586  37.384  1.00  0.00    +0.000 F 
ATOM     61  C44 UNL A   1      25.861 -16.467  39.636  1.00  0.00    +0.000 C 
ATOM     62  F7  UNL A   1      25.086 -17.523  39.920  1.00  0.00    +0.000 F 
ATOM     63  C45 UNL A   1      26.594 -15.855  40.642  1.00  0.00    +0.000 C 
ATOM     64  F8  UNL A   1      26.546 -16.333  41.894  1.00  0.00    +0.000 F 
ENDBRANCH   57   58
BRANCH   72   73
ATOM     73  C51 UNL A   1      22.653 -10.306  34.574  1.00  0.00    +0.000 C 
ATOM     74  C52 UNL A   1      22.683  -9.088  35.267  1.00  0.00    +0.000 C 
ATOM     75  F11 UNL A   1      23.858  -8.542  35.612  1.00  0.00    +0.000 F 
ATOM     76  C53 UNL A   1      21.506  -8.456  35.664  1.00  0.00    +0.000 C 
ATOM     77  F12 UNL A   1      21.566  -7.330  36.388  1.00  0.00    +0.000 F 
ATOM     78  C54 UNL A   1      20.276  -9.005  35.337  1.00  0.00    +0.000 C 
ATOM     79  F13 UNL A   1      19.145  -8.401  35.726  1.00  0.00    +0.000 F 
ATOM     80  C55 UNL A   1      20.221 -10.191  34.620  1.00  0.00    +0.000 C 
ATOM     81  F14 UNL A   1      19.034 -10.718  34.287  1.00  0.00    +0.000 F 
ATOM     82  C56 UNL A   1      21.397 -10.842  34.255  1.00  0.00    +0.000 C 
ATOM     83  F15 UNL A   1      21.310 -12.002  33.587  1.00  0.00    +0.000 F 
ENDBRANCH   72   73
TORSDOF 19
ENDMDL
MODEL 5
REMARK VINA RESULT:     -10.0     26.281     34.637
ROOT
ATOM    129  H31 UNL A   1       6.318  27.695  19.587  1.00  0.00    +0.000 H 
ATOM    130  H32 UNL A   1       5.237  30.058  15.290  1.00  0.00    +0.000 H 
ATOM    131  H33 UNL A   1       4.383  31.996  16.725  1.00  0.00    +0.000 H 
ATOM    132  H34 UNL A   1       6.073  26.682  25.079  1.00  0.00    +0.000 H 
ATOM    133  H35 UNL A   1       7.396  24.965  23.714  1.00  0.00    +0.000 H 
ATOM     36  C27 UNL A   1       7.338  25.445  20.902  1.00  0.00    +0.000 C 
ATOM     37  C28 UNL A   1       6.768  26.306  21.995  1.00  0.00    +0.000 C 
ATOM     38  N4  UNL A   1       6.133  27.447  21.903  1.00  0.00    +0.000 N 
ATOM     39  C29 UNL A   1       5.805  27.803  23.205  1.00  0.00    +0.000 C 
ATOM     40  C30 UNL A   1       5.216  28.940  23.645  1.00  0.00    +0.000 C 
ATOM     52  C37 UNL A   1       4.785  30.013  22.787  1.00  0.00    +0.000 C 
ATOM     53  C38 UNL A   1       4.202  31.218  23.139  1.00  0.00    +0.000 C 
ATOM     54  C39 UNL A   1       3.911  31.923  21.967  1.00  0.00    +0.000 C 
ATOM     55  C40 UNL A   1       4.367  31.184  20.888  1.00  0.00    +0.000 C 
ATOM     56  N5  UNL A   1       4.891  30.009  21.404  1.00  0.00    +0.000 N 
ATOM     57  C41 UNL A   1       4.328  31.525  19.489  1.00  0.00    +0.000 C 
ATOM     69  C48 UNL A   1       4.797  30.743  18.486  1.00  0.00    +0.000 C 
ATOM     70  N6  UNL A   1       5.401  29.494  18.559  1.00  0.00    +0.000 N 
ATOM     71  C49 UNL A   1       5.651  29.142  17.321  1.00  0.00    +0.000 C 
ATOM     72  C50 UNL A   1       6.328  27.901  16.802  1.00  0.00    +0.000 C 
ATOM     84  C57 UNL A   1       6.779  26.987  17.683  1.00  0.00    +0.000 C 
ATOM     85  C58 UNL A   1       7.464  25.747  17.339  1.00  0.00    +0.000 C 
ATOM     86  C59 UNL A   1       7.713  25.058  18.463  1.00  0.00    +0.000 C 
ATOM     87  C60 UNL A   1       7.243  25.831  19.615  1.00  0.00    +0.000 C 
ATOM     88  N7  UNL A   1       6.711  26.966  19.055  1.00  0.00    +0.000 N 
ATOM     89  C61 UNL A   1       5.202  30.118  16.319  1.00  0.00    +0.000 C 
ATOM     90  C62 UNL A   1       4.739  31.096  17.083  1.00  0.00    +0.000 C 
ATOM     91  C63 UNL A   1       6.249  26.727  24.063  1.00  0.00    +0.000 C 
ATOM     92  C64 UNL A   1       6.909  25.810  23.373  1.00  0.00    +0.000 C 
ATOM    124  H26 UNL A   1       4.016  31.542  24.102  1.00  0.00    +0.000 H 
ATOM    125  H27 UNL A   1       3.437  32.837  21.915  1.00  0.00    +0.000 H 
ATOM    126  H28 UNL A   1       5.280  29.280  20.870  1.00  0.00    +0.000 H 
ATOM    127  H29 UNL A   1       7.717  25.446  16.384  1.00  0.00    +0.000 H 
ATOM    128  H30 UNL A   1       8.165  24.131  18.509  1.00  0.00    +0.000 H 
ENDROOT
BRANCH   36   35
ATOM     33  C24 UNL A   1       9.948  22.821  21.738  1.00  0.00    +0.000 C 
ATOM     34  C25 UNL A   1       9.347  24.059  21.503  1.00  0.00    +0.000 C 
ATOM     35  C26 UNL A   1       7.973  24.143  21.227  1.00  0.00    +0.000 C 
ATOM    134  H36 UNL A   1       6.186  23.026  21.047  1.00  0.00    +0.000 H 
ATOM    135  H37 UNL A   1       7.192  20.912  21.676  1.00  0.00    +0.000 H 
ATOM    122  H24 UNL A   1      10.964  22.761  21.906  1.00  0.00    +0.000 H 
ATOM    123  H25 UNL A   1       9.918  24.919  21.532  1.00  0.00    +0.000 H 
ATOM     93  C65 UNL A   1       7.195  22.977  21.258  1.00  0.00    +0.000 C 
ATOM     94  C66 UNL A   1       7.779  21.753  21.572  1.00  0.00    +0.000 C 
ATOM     32  C23 UNL A   1       9.165  21.665  21.747  1.00  0.00    +0.000 C 
BRANCH   32   30
ATOM     30  C22 UNL A   1       9.820  20.359  21.969  1.00  0.00    +0.000 C 
ATOM     31  O4  UNL A   1       9.147  19.381  22.277  1.00  0.00    +0.000 O 
BRANCH   30   29
ATOM    121  H23 UNL A   1      11.560  20.671  21.025  1.00  0.00    +0.000 H 
ATOM     29  N3  UNL A   1      11.178  20.244  21.826  1.00  0.00    +0.000 N 
BRANCH   29   28
ATOM     28  C21 UNL A   1      12.131  19.576  22.699  1.00  0.00    +0.000 C 
ATOM    119  H21 UNL A   1      11.646  19.337  23.624  1.00  0.00    +0.000 H 
ATOM    120  H22 UNL A   1      12.472  18.690  22.206  1.00  0.00    +0.000 H 
BRANCH   28   27
ATOM     27  C20 UNL A   1      13.342  20.455  22.991  1.00  0.00    +0.000 C 
ATOM    117  H19 UNL A   1      14.225  19.905  22.741  1.00  0.00    +0.000 H 
ATOM    118  H20 UNL A   1      13.229  21.342  22.404  1.00  0.00    +0.000 H 
BRANCH   27   26
ATOM     26  C19 UNL A   1      13.451  20.902  24.451  1.00  0.00    +0.000 C 
ATOM    115  H17 UNL A   1      13.421  20.030  25.070  1.00  0.00    +0.000 H 
ATOM    116  H18 UNL A   1      14.369  21.446  24.533  1.00  0.00    +0.000 H 
BRANCH   26   25
ATOM     25  C18 UNL A   1      12.341  21.856  24.917  1.00  0.00    +0.000 C 
ATOM    114  H16 UNL A   1      11.461  21.260  25.036  1.00  0.00    +0.000 H 
ATOM    113  H15 UNL A   1      12.235  22.627  24.183  1.00  0.00    +0.000 H 
BRANCH   25   24
ATOM    112  H14 UNL A   1      11.983  23.397  26.327  1.00  0.00    +0.000 H 
ATOM    111  H13 UNL A   1      13.639  22.763  26.347  1.00  0.00    +0.000 H 
ATOM     24  C17 UNL A   1      12.599  22.524  26.277  1.00  0.00    +0.000 C 
BRANCH   24   23
ATOM    109  H11 UNL A   1      11.555  22.163  28.108  1.00  0.00    +0.000 H 
ATOM    110  H12 UNL A   1      11.751  20.744  27.097  1.00  0.00    +0.000 H 
ATOM     23  C16 UNL A   1      12.223  21.632  27.464  1.00  0.00    +0.000 C 
BRANCH   23   22
ATOM    108  H10 UNL A   1      13.240  20.567  28.881  1.00  0.00    +0.000 H 
ATOM     22  N2  UNL A   1      13.411  21.262  28.206  1.00  0.00    +0.000 N 
BRANCH   22   20
ATOM     20  C15 UNL A   1      14.725  21.669  28.176  1.00  0.00    +0.000 C 
ATOM     21  O3  UNL A   1      15.001  22.626  28.905  1.00  0.00    +0.000 O 
BRANCH   20   19
ATOM    136  H38 UNL A   1      16.325  18.130  25.979  1.00  0.00    +0.000 H 
ATOM    106  H8  UNL A   1      18.781  21.489  25.889  1.00  0.00    +0.000 H 
ATOM    107  H9  UNL A   1      17.029  22.746  27.011  1.00  0.00    +0.000 H 
ATOM     16  C11 UNL A   1      17.738  19.656  25.905  1.00  0.00    +0.000 C 
ATOM     17  C12 UNL A   1      17.913  21.014  26.181  1.00  0.00    +0.000 C 
ATOM     18  C13 UNL A   1      16.923  21.733  26.851  1.00  0.00    +0.000 C 
ATOM     19  C14 UNL A   1      15.793  21.065  27.298  1.00  0.00    +0.000 C 
ATOM     95  N8  UNL A   1      15.570  19.760  26.972  1.00  0.00    +0.000 N 
ATOM     96  C67 UNL A   1      16.520  19.102  26.265  1.00  0.00    +0.000 C 
BRANCH   16   15
ATOM    104  H6  UNL A   1      20.294  17.898  22.480  1.00  0.00    +0.000 H 
ATOM      9  C6  UNL A   1      19.113  18.870  23.945  1.00  0.00    +0.000 C 
ATOM     10  C7  UNL A   1      20.058  17.940  23.484  1.00  0.00    +0.000 C 
ATOM     11  C8  UNL A   1      20.676  17.074  24.380  1.00  0.00    +0.000 C 
ATOM     12 Cl1  UNL A   1      21.798  15.900  23.825  1.00  0.00    +0.000 Cl
ATOM     13  C9  UNL A   1      20.356  17.170  25.724  1.00  0.00    +0.000 C 
ATOM     14  N1  UNL A   1      19.448  18.042  26.219  1.00  0.00    +0.000 N 
ATOM     15  C10 UNL A   1      18.823  18.857  25.331  1.00  0.00    +0.000 C 
ATOM    105  H7  UNL A   1      20.837  16.541  26.385  1.00  0.00    +0.000 H 
BRANCH    9    8
ATOM     97  C68 UNL A   1      18.927  21.087  22.789  1.00  0.00    +0.000 C 
ATOM     98  C69 UNL A   1      18.365  21.918  21.813  1.00  0.00    +0.000 C 
ATOM      5  C2  UNL A   1      17.297  21.452  21.046  1.00  0.00    +0.000 C 
ATOM    102  H4  UNL A   1      15.991  19.833  20.677  1.00  0.00    +0.000 H 
ATOM      6  C3  UNL A   1      16.778  20.174  21.250  1.00  0.00    +0.000 C 
ATOM      7  C4  UNL A   1      17.335  19.358  22.238  1.00  0.00    +0.000 C 
ATOM    103  H5  UNL A   1      16.932  18.424  22.410  1.00  0.00    +0.000 H 
ATOM    138  H40 UNL A   1      18.737  22.868  21.663  1.00  0.00    +0.000 H 
ATOM      8  C5  UNL A   1      18.437  19.787  23.003  1.00  0.00    +0.000 C 
ATOM    137  H39 UNL A   1      19.714  21.435  23.359  1.00  0.00    +0.000 H 
BRANCH    5    2
ATOM      2  S1  UNL A   1      16.623  22.463  19.748  1.00  0.00    +0.000 S 
ATOM      3  O1  UNL A   1      16.296  23.749  20.340  1.00  0.00    +0.000 O 
ATOM      4  O2  UNL A   1      15.610  21.684  19.066  1.00  0.00    +0.000 O 
BRANCH    2    1
ATOM      1  C1  UNL A   1      17.989  22.681  18.638  1.00  0.00    +0.000 C 
ATOM     99  H1  UNL A   1      18.894  22.389  19.125  1.00  0.00    +0.000 H 
ATOM    100  H2  UNL A   1      18.054  23.709  18.350  1.00  0.00    +0.000 H 
ATOM    101  H3  UNL A   1      17.841  22.076  17.767  1.00  0.00    +0.000 H 
ENDBRANCH    2    1
ENDBRANCH    5    2
ENDBRANCH    9    8
ENDBRANCH   16   15
ENDBRANCH   20   19
ENDBRANCH   22   20
ENDBRANCH   23   22
ENDBRANCH   24   23
ENDBRANCH   25   24
ENDBRANCH   26   25
ENDBRANCH   27   26
ENDBRANCH   28   27
ENDBRANCH   29   28
ENDBRANCH   30   29
ENDBRANCH   32   30
ENDBRANCH   36   35
BRANCH   40   41
ATOM     41  C31 UNL A   1       5.017  29.096  25.126  1.00  0.00    +0.000 C 
ATOM     42  C32 UNL A   1       4.009  28.396  25.806  1.00  0.00    +0.000 C 
ATOM     43  F1  UNL A   1       3.150  27.621  25.127  1.00  0.00    +0.000 F 
ATOM     44  C33 UNL A   1       3.861  28.511  27.185  1.00  0.00    +0.000 C 
ATOM     45  F2  UNL A   1       2.866  27.862  27.807  1.00  0.00    +0.000 F 
ATOM     46  C34 UNL A   1       4.737  29.298  27.916  1.00  0.00    +0.000 C 
ATOM     47  F3  UNL A   1       4.605  29.394  29.247  1.00  0.00    +0.000 F 
ATOM     48  C35 UNL A   1       5.749  29.989  27.268  1.00  0.00    +0.000 C 
ATOM     49  F4  UNL A   1       6.607  30.739  27.974  1.00  0.00    +0.000 F 
ATOM     50  C36 UNL A   1       5.880  29.902  25.883  1.00  0.00    +0.000 C 
ATOM     51  F5  UNL A   1       6.865  30.590  25.285  1.00  0.00    +0.000 F 
ENDBRANCH   40   41
BRANCH   57   58
ATOM     65  C46 UNL A   1       1.838  34.200  18.427  1.00  0.00    +0.000 C 
ATOM     66  F9  UNL A   1       0.536  34.286  18.122  1.00  0.00    +0.000 F 
ATOM     67  C47 UNL A   1       2.383  32.979  18.810  1.00  0.00    +0.000 C 
ATOM     68  F10 UNL A   1       1.578  31.908  18.880  1.00  0.00    +0.000 F 
ATOM     58  C42 UNL A   1       3.750  32.858  19.108  1.00  0.00    +0.000 C 
ATOM     59  C43 UNL A   1       4.546  34.008  19.009  1.00  0.00    +0.000 C 
ATOM     60  F6  UNL A   1       5.856  33.950  19.298  1.00  0.00    +0.000 F 
ATOM     61  C44 UNL A   1       3.991  35.236  18.662  1.00  0.00    +0.000 C 
ATOM     62  F7  UNL A   1       4.761  36.333  18.632  1.00  0.00    +0.000 F 
ATOM     63  C45 UNL A   1       2.640  35.330  18.363  1.00  0.00    +0.000 C 
ATOM     64  F8  UNL A   1       2.108  36.512  18.022  1.00  0.00    +0.000 F 
ENDBRANCH   57   58
BRANCH   72   73
ATOM     73  C51 UNL A   1       6.500  27.684  15.340  1.00  0.00    +0.000 C 
ATOM     74  C52 UNL A   1       5.495  27.074  14.574  1.00  0.00    +0.000 C 
ATOM     75  F11 UNL A   1       4.349  26.693  15.155  1.00  0.00    +0.000 F 
ATOM     76  C53 UNL A   1       5.689  26.797  13.223  1.00  0.00    +0.000 C 
ATOM     77  F12 UNL A   1       4.741  26.148  12.533  1.00  0.00    +0.000 F 
ATOM     78  C54 UNL A   1       6.871  27.163  12.598  1.00  0.00    +0.000 C 
ATOM     79  F13 UNL A   1       7.059  26.888  11.300  1.00  0.00    +0.000 F 
ATOM     80  C55 UNL A   1       7.864  27.800  13.326  1.00  0.00    +0.000 C 
ATOM     81  F14 UNL A   1       9.003  28.171  12.724  1.00  0.00    +0.000 F 
ATOM     82  C56 UNL A   1       7.687  28.045  14.686  1.00  0.00    +0.000 C 
ATOM     83  F15 UNL A   1       8.678  28.638  15.368  1.00  0.00    +0.000 F 
ENDBRANCH   72   73
TORSDOF 19
ENDMDL
MODEL 6
REMARK VINA RESULT:     -10.0     38.301     42.461
ROOT
ATOM    129  H31 UNL A   1      14.532  51.520   3.496  1.00  0.00    +0.000 H 
ATOM    130  H32 UNL A   1      13.621  46.673   2.550  1.00  0.00    +0.000 H 
ATOM    131  H33 UNL A   1      15.323  46.861   0.650  1.00  0.00    +0.000 H 
ATOM    132  H34 UNL A   1      16.373  56.690   2.432  1.00  0.00    +0.000 H 
ATOM    133  H35 UNL A   1      15.091  56.423   4.634  1.00  0.00    +0.000 H 
ATOM     36  C27 UNL A   1      14.033  53.803   5.035  1.00  0.00    +0.000 C 
ATOM     37  C28 UNL A   1      14.921  54.277   3.917  1.00  0.00    +0.000 C 
ATOM     38  N4  UNL A   1      15.400  53.606   2.900  1.00  0.00    +0.000 N 
ATOM     39  C29 UNL A   1      16.140  54.519   2.160  1.00  0.00    +0.000 C 
ATOM     40  C30 UNL A   1      16.899  54.295   1.061  1.00  0.00    +0.000 C 
ATOM     52  C37 UNL A   1      17.050  53.010   0.429  1.00  0.00    +0.000 C 
ATOM     53  C38 UNL A   1      17.819  52.675  -0.672  1.00  0.00    +0.000 C 
ATOM     54  C39 UNL A   1      17.616  51.320  -0.953  1.00  0.00    +0.000 C 
ATOM     55  C40 UNL A   1      16.768  50.797   0.010  1.00  0.00    +0.000 C 
ATOM     56  N5  UNL A   1      16.420  51.847   0.846  1.00  0.00    +0.000 N 
ATOM     57  C41 UNL A   1      16.311  49.439   0.157  1.00  0.00    +0.000 C 
ATOM     69  C48 UNL A   1      15.476  49.003   1.132  1.00  0.00    +0.000 C 
ATOM     70  N6  UNL A   1      14.895  49.717   2.172  1.00  0.00    +0.000 N 
ATOM     71  C49 UNL A   1      14.151  48.859   2.828  1.00  0.00    +0.000 C 
ATOM     72  C50 UNL A   1      13.320  49.070   4.066  1.00  0.00    +0.000 C 
ATOM     84  C57 UNL A   1      13.306  50.287   4.642  1.00  0.00    +0.000 C 
ATOM     85  C58 UNL A   1      12.564  50.643   5.846  1.00  0.00    +0.000 C 
ATOM     86  C59 UNL A   1      12.736  51.951   6.094  1.00  0.00    +0.000 C 
ATOM     87  C60 UNL A   1      13.636  52.518   5.088  1.00  0.00    +0.000 C 
ATOM     88  N7  UNL A   1      13.930  51.453   4.272  1.00  0.00    +0.000 N 
ATOM     89  C61 UNL A   1      14.153  47.506   2.255  1.00  0.00    +0.000 C 
ATOM     90  C62 UNL A   1      15.016  47.636   1.258  1.00  0.00    +0.000 C 
ATOM     91  C63 UNL A   1      15.992  55.806   2.803  1.00  0.00    +0.000 C 
ATOM     92  C64 UNL A   1      15.304  55.698   3.930  1.00  0.00    +0.000 C 
ATOM    124  H26 UNL A   1      18.437  53.315  -1.196  1.00  0.00    +0.000 H 
ATOM    125  H27 UNL A   1      18.026  50.799  -1.742  1.00  0.00    +0.000 H 
ATOM    126  H28 UNL A   1      15.815  51.778   1.619  1.00  0.00    +0.000 H 
ATOM    127  H29 UNL A   1      11.999  49.995   6.417  1.00  0.00    +0.000 H 
ATOM    128  H30 UNL A   1      12.302  52.475   6.870  1.00  0.00    +0.000 H 
ENDROOT
BRANCH   36   35
ATOM     33  C24 UNL A   1      13.809  55.852   8.220  1.00  0.00    +0.000 C 
ATOM     34  C25 UNL A   1      14.303  55.007   7.225  1.00  0.00    +0.000 C 
ATOM     35  C26 UNL A   1      13.551  54.758   6.065  1.00  0.00    +0.000 C 
ATOM    134  H36 UNL A   1      11.764  55.237   5.041  1.00  0.00    +0.000 H 
ATOM    135  H37 UNL A   1      11.018  56.871   6.667  1.00  0.00    +0.000 H 
ATOM    122  H24 UNL A   1      14.349  56.005   9.086  1.00  0.00    +0.000 H 
ATOM    123  H25 UNL A   1      15.227  54.563   7.342  1.00  0.00    +0.000 H 
ATOM     93  C65 UNL A   1      12.329  55.420   5.885  1.00  0.00    +0.000 C 
ATOM     94  C66 UNL A   1      11.874  56.324   6.840  1.00  0.00    +0.000 C 
ATOM     32  C23 UNL A   1      12.581  56.490   8.037  1.00  0.00    +0.000 C 
BRANCH   32   30
ATOM     30  C22 UNL A   1      12.058  57.359   9.112  1.00  0.00    +0.000 C 
ATOM     31  O4  UNL A   1      12.174  58.577   9.026  1.00  0.00    +0.000 O 
BRANCH   30   29
ATOM    121  H23 UNL A   1      11.287  57.405  10.961  1.00  0.00    +0.000 H 
ATOM     29  N3  UNL A   1      11.439  56.800  10.200  1.00  0.00    +0.000 N 
BRANCH   29   28
ATOM     28  C21 UNL A   1      10.976  55.432  10.379  1.00  0.00    +0.000 C 
ATOM    119  H21 UNL A   1       9.921  55.444  10.564  1.00  0.00    +0.000 H 
ATOM    120  H22 UNL A   1      11.201  54.884   9.488  1.00  0.00    +0.000 H 
BRANCH   28   27
ATOM     27  C20 UNL A   1      11.675  54.748  11.549  1.00  0.00    +0.000 C 
ATOM    117  H19 UNL A   1      11.617  55.395  12.399  1.00  0.00    +0.000 H 
ATOM    118  H20 UNL A   1      11.177  53.815  11.704  1.00  0.00    +0.000 H 
BRANCH   27   26
ATOM     26  C19 UNL A   1      13.150  54.426  11.291  1.00  0.00    +0.000 C 
ATOM    115  H17 UNL A   1      13.203  53.730  10.480  1.00  0.00    +0.000 H 
ATOM    116  H18 UNL A   1      13.631  55.359  11.079  1.00  0.00    +0.000 H 
BRANCH   26   25
ATOM     25  C18 UNL A   1      13.896  53.820  12.490  1.00  0.00    +0.000 C 
ATOM    114  H16 UNL A   1      13.584  54.374  13.350  1.00  0.00    +0.000 H 
ATOM    113  H15 UNL A   1      14.946  53.890  12.299  1.00  0.00    +0.000 H 
BRANCH   25   24
ATOM    112  H14 UNL A   1      12.668  52.112  12.236  1.00  0.00    +0.000 H 
ATOM    111  H13 UNL A   1      13.431  52.228  13.832  1.00  0.00    +0.000 H 
ATOM     24  C17 UNL A   1      13.559  52.349  12.777  1.00  0.00    +0.000 C 
BRANCH   24   23
ATOM    109  H11 UNL A   1      15.531  51.528  12.893  1.00  0.00    +0.000 H 
ATOM    110  H12 UNL A   1      14.296  50.377  12.418  1.00  0.00    +0.000 H 
ATOM     23  C16 UNL A   1      14.649  51.381  12.306  1.00  0.00    +0.000 C 
BRANCH   23   22
ATOM    108  H10 UNL A   1      15.651  52.305  10.783  1.00  0.00    +0.000 H 
ATOM     22  N2  UNL A   1      14.958  51.619  10.911  1.00  0.00    +0.000 N 
BRANCH   22   20
ATOM     20  C15 UNL A   1      14.496  51.097   9.724  1.00  0.00    +0.000 C 
ATOM     21  O3  UNL A   1      15.257  51.215   8.760  1.00  0.00    +0.000 O 
BRANCH   20   19
ATOM    136  H38 UNL A   1      10.051  51.415   9.946  1.00  0.00    +0.000 H 
ATOM    106  H8  UNL A   1      11.474  47.651   8.883  1.00  0.00    +0.000 H 
ATOM    107  H9  UNL A   1      13.722  48.573   8.799  1.00  0.00    +0.000 H 
ATOM     16  C11 UNL A   1      10.557  49.444   9.508  1.00  0.00    +0.000 C 
ATOM     17  C12 UNL A   1      11.636  48.637   9.141  1.00  0.00    +0.000 C 
ATOM     18  C13 UNL A   1      12.932  49.153   9.119  1.00  0.00    +0.000 C 
ATOM     19  C14 UNL A   1      13.142  50.460   9.534  1.00  0.00    +0.000 C 
ATOM     95  N8  UNL A   1      12.096  51.284   9.823  1.00  0.00    +0.000 N 
ATOM     96  C67 UNL A   1      10.842  50.774   9.775  1.00  0.00    +0.000 C 
BRANCH   16   15
ATOM    104  H6  UNL A   1       6.108  48.829   8.427  1.00  0.00    +0.000 H 
ATOM      9  C6  UNL A   1       8.184  49.114   8.730  1.00  0.00    +0.000 C 
ATOM     10  C7  UNL A   1       6.897  48.671   9.073  1.00  0.00    +0.000 C 
ATOM     11  C8  UNL A   1       6.686  48.019  10.284  1.00  0.00    +0.000 C 
ATOM     12 Cl1  UNL A   1       5.110  47.513  10.737  1.00  0.00    +0.000 Cl
ATOM     13  C9  UNL A   1       7.768  47.801  11.118  1.00  0.00    +0.000 C 
ATOM     14  N1  UNL A   1       9.027  48.213  10.839  1.00  0.00    +0.000 N 
ATOM     15  C10 UNL A   1       9.215  48.882   9.672  1.00  0.00    +0.000 C 
ATOM    105  H7  UNL A   1       7.607  47.295  12.002  1.00  0.00    +0.000 H 
BRANCH    9    8
ATOM     97  C68 UNL A   1       8.329  51.221   7.378  1.00  0.00    +0.000 C 
ATOM     98  C69 UNL A   1       8.669  51.904   6.205  1.00  0.00    +0.000 C 
ATOM      5  C2  UNL A   1       9.098  51.184   5.089  1.00  0.00    +0.000 C 
ATOM    102  H4  UNL A   1       9.503  49.265   4.303  1.00  0.00    +0.000 H 
ATOM      6  C3  UNL A   1       9.181  49.793   5.129  1.00  0.00    +0.000 C 
ATOM      7  C4  UNL A   1       8.824  49.118   6.300  1.00  0.00    +0.000 C 
ATOM    103  H5  UNL A   1       8.856  48.088   6.320  1.00  0.00    +0.000 H 
ATOM    138  H40 UNL A   1       8.600  52.933   6.164  1.00  0.00    +0.000 H 
ATOM      8  C5  UNL A   1       8.422  49.821   7.453  1.00  0.00    +0.000 C 
ATOM    137  H39 UNL A   1       8.008  51.755   8.200  1.00  0.00    +0.000 H 
BRANCH    5    2
ATOM      2  S1  UNL A   1       9.609  52.040   3.618  1.00  0.00    +0.000 S 
ATOM      3  O1  UNL A   1      10.425  51.114   2.852  1.00  0.00    +0.000 O 
ATOM      4  O2  UNL A   1      10.132  53.330   4.019  1.00  0.00    +0.000 O 
BRANCH    2    1
ATOM      1  C1  UNL A   1       8.090  52.312   2.744  1.00  0.00    +0.000 C 
ATOM     99  H1  UNL A   1       8.283  52.345   1.693  1.00  0.00    +0.000 H 
ATOM    100  H2  UNL A   1       7.659  53.239   3.057  1.00  0.00    +0.000 H 
ATOM    101  H3  UNL A   1       7.409  51.513   2.956  1.00  0.00    +0.000 H 
ENDBRANCH    2    1
ENDBRANCH    5    2
ENDBRANCH    9    8
ENDBRANCH   16   15
ENDBRANCH   20   19
ENDBRANCH   22   20
ENDBRANCH   23   22
ENDBRANCH   24   23
ENDBRANCH   25   24
ENDBRANCH   26   25
ENDBRANCH   27   26
ENDBRANCH   28   27
ENDBRANCH   29   28
ENDBRANCH   30   29
ENDBRANCH   32   30
ENDBRANCH   36   35
BRANCH   40   41
ATOM     41  C31 UNL A   1      17.644  55.462   0.476  1.00  0.00    +0.000 C 
ATOM     42  C32 UNL A   1      18.952  55.770   0.879  1.00  0.00    +0.000 C 
ATOM     43  F1  UNL A   1      19.542  55.064   1.855  1.00  0.00    +0.000 F 
ATOM     44  C33 UNL A   1      19.652  56.825   0.300  1.00  0.00    +0.000 C 
ATOM     45  F2  UNL A   1      20.886  57.124   0.728  1.00  0.00    +0.000 F 
ATOM     46  C34 UNL A   1      19.072  57.568  -0.717  1.00  0.00    +0.000 C 
ATOM     47  F3  UNL A   1      19.754  58.573  -1.287  1.00  0.00    +0.000 F 
ATOM     48  C35 UNL A   1      17.786  57.274  -1.141  1.00  0.00    +0.000 C 
ATOM     49  F4  UNL A   1      17.230  57.982  -2.134  1.00  0.00    +0.000 F 
ATOM     50  C36 UNL A   1      17.071  56.240  -0.540  1.00  0.00    +0.000 C 
ATOM     51  F5  UNL A   1      15.824  55.986  -0.968  1.00  0.00    +0.000 F 
ENDBRANCH   40   41
BRANCH   57   58
ATOM     65  C46 UNL A   1      18.561  46.889  -1.551  1.00  0.00    +0.000 C 
ATOM     66  F9  UNL A   1      19.771  46.343  -1.364  1.00  0.00    +0.000 F 
ATOM     67  C47 UNL A   1      18.067  47.813  -0.636  1.00  0.00    +0.000 C 
ATOM     68  F10 UNL A   1      18.817  48.127   0.431  1.00  0.00    +0.000 F 
ATOM     58  C42 UNL A   1      16.814  48.419  -0.823  1.00  0.00    +0.000 C 
ATOM     59  C43 UNL A   1      16.077  48.060  -1.961  1.00  0.00    +0.000 C 
ATOM     60  F6  UNL A   1      14.867  48.599  -2.180  1.00  0.00    +0.000 F 
ATOM     61  C44 UNL A   1      16.557  47.108  -2.855  1.00  0.00    +0.000 C 
ATOM     62  F7  UNL A   1      15.808  46.737  -3.903  1.00  0.00    +0.000 F 
ATOM     63  C45 UNL A   1      17.801  46.529  -2.653  1.00  0.00    +0.000 C 
ATOM     64  F8  UNL A   1      18.265  45.616  -3.519  1.00  0.00    +0.000 F 
ENDBRANCH   57   58
BRANCH   72   73
ATOM     73  C51 UNL A   1      12.527  47.953   4.648  1.00  0.00    +0.000 C 
ATOM     74  C52 UNL A   1      12.934  47.311   5.826  1.00  0.00    +0.000 C 
ATOM     75  F11 UNL A   1      14.044  47.716   6.460  1.00  0.00    +0.000 F 
ATOM     76  C53 UNL A   1      12.237  46.213   6.326  1.00  0.00    +0.000 C 
ATOM     77  F12 UNL A   1      12.690  45.575   7.413  1.00  0.00    +0.000 F 
ATOM     78  C54 UNL A   1      11.095  45.761   5.683  1.00  0.00    +0.000 C 
ATOM     79  F13 UNL A   1      10.430  44.700   6.159  1.00  0.00    +0.000 F 
ATOM     80  C55 UNL A   1      10.652  46.403   4.536  1.00  0.00    +0.000 C 
ATOM     81  F14 UNL A   1       9.540  45.981   3.919  1.00  0.00    +0.000 F 
ATOM     82  C56 UNL A   1      11.369  47.477   4.015  1.00  0.00    +0.000 C 
ATOM     83  F15 UNL A   1      10.931  48.059   2.889  1.00  0.00    +0.000 F 
ENDBRANCH   72   73
TORSDOF 19
ENDMDL
MODEL 7
REMARK VINA RESULT:      -9.9     27.887     32.518
ROOT
ATOM    129  H31 UNL A   1      43.976  10.501  53.178  1.00  0.00    +0.000 H 
ATOM    130  H32 UNL A   1      45.124   6.865  56.445  1.00  0.00    +0.000 H 
ATOM    131  H33 UNL A   1      46.914   6.115  54.778  1.00  0.00    +0.000 H 
ATOM    132  H34 UNL A   1      43.880  13.102  48.230  1.00  0.00    +0.000 H 
ATOM    133  H35 UNL A   1      42.454  14.190  50.059  1.00  0.00    +0.000 H 
ATOM     36  C27 UNL A   1      42.410  12.722  52.505  1.00  0.00    +0.000 C 
ATOM     37  C28 UNL A   1      43.224  12.435  51.273  1.00  0.00    +0.000 C 
ATOM     38  N4  UNL A   1      44.078  11.467  51.053  1.00  0.00    +0.000 N 
ATOM     39  C29 UNL A   1      44.529  11.651  49.752  1.00  0.00    +0.000 C 
ATOM     40  C30 UNL A   1      45.484  10.960  49.086  1.00  0.00    +0.000 C 
ATOM     52  C37 UNL A   1      46.209   9.844  49.635  1.00  0.00    +0.000 C 
ATOM     53  C38 UNL A   1      47.214   9.095  49.050  1.00  0.00    +0.000 C 
ATOM     54  C39 UNL A   1      47.585   8.084  49.943  1.00  0.00    +0.000 C 
ATOM     55  C40 UNL A   1      46.853   8.241  51.108  1.00  0.00    +0.000 C 
ATOM     56  N5  UNL A   1      46.005   9.317  50.903  1.00  0.00    +0.000 N 
ATOM     57  C41 UNL A   1      46.923   7.466  52.320  1.00  0.00    +0.000 C 
ATOM     69  C48 UNL A   1      46.168   7.683  53.425  1.00  0.00    +0.000 C 
ATOM     70  N6  UNL A   1      45.200   8.653  53.647  1.00  0.00    +0.000 N 
ATOM     71  C49 UNL A   1      44.739   8.433  54.855  1.00  0.00    +0.000 C 
ATOM     72  C50 UNL A   1      43.701   9.198  55.632  1.00  0.00    +0.000 C 
ATOM     84  C57 UNL A   1      43.135  10.285  55.071  1.00  0.00    +0.000 C 
ATOM     85  C58 UNL A   1      42.129  11.134  55.699  1.00  0.00    +0.000 C 
ATOM     86  C59 UNL A   1      41.753  12.082  54.828  1.00  0.00    +0.000 C 
ATOM     87  C60 UNL A   1      42.524  11.934  53.592  1.00  0.00    +0.000 C 
ATOM     88  N7  UNL A   1      43.326  10.846  53.832  1.00  0.00    +0.000 N 
ATOM     89  C61 UNL A   1      45.344   7.273  55.523  1.00  0.00    +0.000 C 
ATOM     90  C62 UNL A   1      46.243   6.886  54.631  1.00  0.00    +0.000 C 
ATOM     91  C63 UNL A   1      43.806  12.778  49.207  1.00  0.00    +0.000 C 
ATOM     92  C64 UNL A   1      43.036  13.339  50.127  1.00  0.00    +0.000 C 
ATOM    124  H26 UNL A   1      47.622   9.256  48.115  1.00  0.00    +0.000 H 
ATOM    125  H27 UNL A   1      48.284   7.348  49.764  1.00  0.00    +0.000 H 
ATOM    126  H28 UNL A   1      45.353   9.658  51.557  1.00  0.00    +0.000 H 
ATOM    127  H29 UNL A   1      41.766  11.023  56.658  1.00  0.00    +0.000 H 
ATOM    128  H30 UNL A   1      41.034  12.802  55.001  1.00  0.00    +0.000 H 
ENDROOT
BRANCH   36   35
ATOM     33  C24 UNL A   1      39.240  14.751  52.036  1.00  0.00    +0.000 C 
ATOM     34  C25 UNL A   1      40.121  13.670  52.085  1.00  0.00    +0.000 C 
ATOM     35  C26 UNL A   1      41.444  13.849  52.520  1.00  0.00    +0.000 C 
ATOM    134  H36 UNL A   1      42.826  15.256  53.284  1.00  0.00    +0.000 H 
ATOM    135  H37 UNL A   1      41.230  17.076  53.407  1.00  0.00    +0.000 H 
ATOM    122  H24 UNL A   1      38.279  14.622  51.683  1.00  0.00    +0.000 H 
ATOM    123  H25 UNL A   1      39.797  12.732  51.800  1.00  0.00    +0.000 H 
ATOM     93  C65 UNL A   1      41.852  15.112  52.971  1.00  0.00    +0.000 C 
ATOM     94  C66 UNL A   1      40.951  16.172  52.998  1.00  0.00    +0.000 C 
ATOM     32  C23 UNL A   1      39.666  16.008  52.469  1.00  0.00    +0.000 C 
BRANCH   32   30
ATOM     30  C22 UNL A   1      38.730  17.149  52.385  1.00  0.00    +0.000 C 
ATOM     31  O4  UNL A   1      37.745  17.189  53.116  1.00  0.00    +0.000 O 
BRANCH   30   29
ATOM    121  H23 UNL A   1      38.605  19.043  51.742  1.00  0.00    +0.000 H 
ATOM     29  N3  UNL A   1      38.969  18.163  51.494  1.00  0.00    +0.000 N 
BRANCH   29   28
ATOM     28  C21 UNL A   1      39.691  18.112  50.232  1.00  0.00    +0.000 C 
ATOM    119  H21 UNL A   1      40.126  17.139  50.120  1.00  0.00    +0.000 H 
ATOM    120  H22 UNL A   1      38.998  18.314  49.442  1.00  0.00    +0.000 H 
BRANCH   28   27
ATOM     27  C20 UNL A   1      40.800  19.158  50.173  1.00  0.00    +0.000 C 
ATOM    117  H19 UNL A   1      40.890  19.495  49.162  1.00  0.00    +0.000 H 
ATOM    118  H20 UNL A   1      40.522  19.941  50.846  1.00  0.00    +0.000 H 
BRANCH   27   26
ATOM     26  C19 UNL A   1      42.167  18.643  50.632  1.00  0.00    +0.000 C 
ATOM    115  H17 UNL A   1      42.884  19.424  50.485  1.00  0.00    +0.000 H 
ATOM    116  H18 UNL A   1      42.054  18.361  51.659  1.00  0.00    +0.000 H 
BRANCH   26   25
ATOM     25  C18 UNL A   1      42.665  17.392  49.894  1.00  0.00    +0.000 C 
ATOM    114  H16 UNL A   1      41.804  16.941  49.449  1.00  0.00    +0.000 H 
ATOM    113  H15 UNL A   1      43.155  16.759  50.604  1.00  0.00    +0.000 H 
BRANCH   25   24
ATOM    112  H14 UNL A   1      44.011  18.672  48.873  1.00  0.00    +0.000 H 
ATOM    111  H13 UNL A   1      43.132  17.550  47.818  1.00  0.00    +0.000 H 
ATOM     24  C17 UNL A   1      43.648  17.673  48.747  1.00  0.00    +0.000 C 
BRANCH   24   23
ATOM    109  H11 UNL A   1      44.606  15.828  49.249  1.00  0.00    +0.000 H 
ATOM    110  H12 UNL A   1      45.157  16.542  47.746  1.00  0.00    +0.000 H 
ATOM     23  C16 UNL A   1      44.863  16.741  48.756  1.00  0.00    +0.000 C 
BRANCH   23   22
ATOM    108  H10 UNL A   1      46.583  17.841  48.850  1.00  0.00    +0.000 H 
ATOM     22  N2  UNL A   1      45.967  17.368  49.453  1.00  0.00    +0.000 N 
BRANCH   22   20
ATOM     20  C15 UNL A   1      46.345  17.447  50.774  1.00  0.00    +0.000 C 
ATOM     21  O3  UNL A   1      46.619  18.579  51.181  1.00  0.00    +0.000 O 
BRANCH   20   19
ATOM    136  H38 UNL A   1      48.536  15.429  54.095  1.00  0.00    +0.000 H 
ATOM    106  H8  UNL A   1      45.443  13.190  52.441  1.00  0.00    +0.000 H 
ATOM    107  H9  UNL A   1      44.831  15.115  51.088  1.00  0.00    +0.000 H 
ATOM     16  C11 UNL A   1      47.111  14.113  53.341  1.00  0.00    +0.000 C 
ATOM     17  C12 UNL A   1      46.011  14.050  52.484  1.00  0.00    +0.000 C 
ATOM     18  C13 UNL A   1      45.673  15.142  51.684  1.00  0.00    +0.000 C 
ATOM     19  C14 UNL A   1      46.486  16.265  51.701  1.00  0.00    +0.000 C 
ATOM     95  N8  UNL A   1      47.519  16.375  52.584  1.00  0.00    +0.000 N 
ATOM     96  C67 UNL A   1      47.786  15.322  53.395  1.00  0.00    +0.000 C 
BRANCH   16   15
ATOM    104  H6  UNL A   1      49.480  10.191  53.936  1.00  0.00    +0.000 H 
ATOM      9  C6  UNL A   1      48.550  12.057  53.565  1.00  0.00    +0.000 C 
ATOM     10  C7  UNL A   1      48.780  10.869  54.276  1.00  0.00    +0.000 C 
ATOM     11  C8  UNL A   1      48.065  10.605  55.440  1.00  0.00    +0.000 C 
ATOM     12 Cl1  UNL A   1      48.302   9.135  56.294  1.00  0.00    +0.000 Cl
ATOM     13  C9  UNL A   1      47.150  11.544  55.884  1.00  0.00    +0.000 C 
ATOM     14  N1  UNL A   1      46.885  12.700  55.233  1.00  0.00    +0.000 N 
ATOM     15  C10 UNL A   1      47.562  12.931  54.079  1.00  0.00    +0.000 C 
ATOM    105  H7  UNL A   1      46.642  11.352  56.761  1.00  0.00    +0.000 H 
BRANCH    9    8
ATOM     97  C68 UNL A   1      50.515  13.037  52.354  1.00  0.00    +0.000 C 
ATOM     98  C69 UNL A   1      51.280  13.209  51.195  1.00  0.00    +0.000 C 
ATOM      5  C2  UNL A   1      50.819  12.692  49.984  1.00  0.00    +0.000 C 
ATOM    102  H4  UNL A   1      49.266  11.633  49.019  1.00  0.00    +0.000 H 
ATOM      6  C3  UNL A   1      49.601  12.017  49.916  1.00  0.00    +0.000 C 
ATOM      7  C4  UNL A   1      48.836  11.865  51.076  1.00  0.00    +0.000 C 
ATOM    103  H5  UNL A   1      47.920  11.394  51.020  1.00  0.00    +0.000 H 
ATOM    138  H40 UNL A   1      52.178  13.715  51.236  1.00  0.00    +0.000 H 
ATOM      8  C5  UNL A   1      49.293  12.345  52.320  1.00  0.00    +0.000 C 
ATOM    137  H39 UNL A   1      50.855  13.424  53.249  1.00  0.00    +0.000 H 
BRANCH    5    2
ATOM      2  S1  UNL A   1      51.815  12.830  48.518  1.00  0.00    +0.000 S 
ATOM      3  O1  UNL A   1      51.413  14.055  47.849  1.00  0.00    +0.000 O 
ATOM      4  O2  UNL A   1      51.761  11.557  47.829  1.00  0.00    +0.000 O 
BRANCH    2    1
ATOM      1  C1  UNL A   1      53.458  13.043  49.150  1.00  0.00    +0.000 C 
ATOM     99  H1  UNL A   1      53.564  12.494  50.062  1.00  0.00    +0.000 H 
ATOM    100  H2  UNL A   1      53.638  14.081  49.334  1.00  0.00    +0.000 H 
ATOM    101  H3  UNL A   1      54.166  12.681  48.432  1.00  0.00    +0.000 H 
ENDBRANCH    2    1
ENDBRANCH    5    2
ENDBRANCH    9    8
ENDBRANCH   16   15
ENDBRANCH   20   19
ENDBRANCH   22   20
ENDBRANCH   23   22
ENDBRANCH   24   23
ENDBRANCH   25   24
ENDBRANCH   26   25
ENDBRANCH   27   26
ENDBRANCH   28   27
ENDBRANCH   29   28
ENDBRANCH   30   29
ENDBRANCH   32   30
ENDBRANCH   36   35
BRANCH   40   41
ATOM     41  C31 UNL A   1      45.819  11.400  47.688  1.00  0.00    +0.000 C 
ATOM     42  C32 UNL A   1      45.343  10.701  46.568  1.00  0.00    +0.000 C 
ATOM     43  F1  UNL A   1      44.632   9.574  46.727  1.00  0.00    +0.000 F 
ATOM     44  C33 UNL A   1      45.619  11.142  45.277  1.00  0.00    +0.000 C 
ATOM     45  F2  UNL A   1      45.187  10.436  44.223  1.00  0.00    +0.000 F 
ATOM     46  C34 UNL A   1      46.344  12.307  45.080  1.00  0.00    +0.000 C 
ATOM     47  F3  UNL A   1      46.595  12.740  43.836  1.00  0.00    +0.000 F 
ATOM     48  C35 UNL A   1      46.814  13.021  46.171  1.00  0.00    +0.000 C 
ATOM     49  F4  UNL A   1      47.502  14.155  45.983  1.00  0.00    +0.000 F 
ATOM     50  C36 UNL A   1      46.567  12.565  47.464  1.00  0.00    +0.000 C 
ATOM     51  F5  UNL A   1      47.042  13.275  48.499  1.00  0.00    +0.000 F 
ENDBRANCH   40   41
BRANCH   57   58
ATOM     65  C46 UNL A   1      48.458   3.988  52.130  1.00  0.00    +0.000 C 
ATOM     66  F9  UNL A   1      48.068   2.741  51.833  1.00  0.00    +0.000 F 
ATOM     67  C47 UNL A   1      47.549   5.039  52.050  1.00  0.00    +0.000 C 
ATOM     68  F10 UNL A   1      46.293   4.775  51.658  1.00  0.00    +0.000 F 
ATOM     58  C42 UNL A   1      47.926   6.349  52.381  1.00  0.00    +0.000 C 
ATOM     59  C43 UNL A   1      49.249   6.566  52.793  1.00  0.00    +0.000 C 
ATOM     60  F6  UNL A   1      49.666   7.803  53.107  1.00  0.00    +0.000 F 
ATOM     61  C44 UNL A   1      50.167   5.520  52.836  1.00  0.00    +0.000 C 
ATOM     62  F7  UNL A   1      51.441   5.762  53.175  1.00  0.00    +0.000 F 
ATOM     63  C45 UNL A   1      49.768   4.231  52.512  1.00  0.00    +0.000 C 
ATOM     64  F8  UNL A   1      50.651   3.224  52.561  1.00  0.00    +0.000 F 
ENDBRANCH   57   58
BRANCH   72   73
ATOM     73  C51 UNL A   1      43.304   8.765  56.999  1.00  0.00    +0.000 C 
ATOM     74  C52 UNL A   1      44.020   9.184  58.130  1.00  0.00    +0.000 C 
ATOM     75  F11 UNL A   1      45.071  10.005  57.990  1.00  0.00    +0.000 F 
ATOM     76  C53 UNL A   1      43.699   8.714  59.401  1.00  0.00    +0.000 C 
ATOM     77  F12 UNL A   1      44.446   9.074  60.453  1.00  0.00    +0.000 F 
ATOM     78  C54 UNL A   1      42.628   7.850  59.575  1.00  0.00    +0.000 C 
ATOM     79  F13 UNL A   1      42.325   7.392  60.797  1.00  0.00    +0.000 F 
ATOM     80  C55 UNL A   1      41.882   7.451  58.476  1.00  0.00    +0.000 C 
ATOM     81  F14 UNL A   1      40.835   6.630  58.640  1.00  0.00    +0.000 F 
ATOM     82  C56 UNL A   1      42.225   7.892  57.201  1.00  0.00    +0.000 C 
ATOM     83  F15 UNL A   1      41.501   7.465  56.155  1.00  0.00    +0.000 F 
ENDBRANCH   72   73
TORSDOF 19
ENDMDL
MODEL 8
REMARK VINA RESULT:      -9.8     30.997     34.686
ROOT
ATOM    129  H31 UNL A   1      17.137  20.281   5.614  1.00  0.00    +0.000 H 
ATOM    130  H32 UNL A   1      21.498  19.997   3.142  1.00  0.00    +0.000 H 
ATOM    131  H33 UNL A   1      21.847  17.736   4.288  1.00  0.00    +0.000 H 
ATOM    132  H34 UNL A   1      13.382  18.983   9.546  1.00  0.00    +0.000 H 
ATOM    133  H35 UNL A   1      12.753  20.969   8.055  1.00  0.00    +0.000 H 
ATOM     36  C27 UNL A   1      14.784  21.686   6.184  1.00  0.00    +0.000 C 
ATOM     37  C28 UNL A   1      14.773  20.515   7.126  1.00  0.00    +0.000 C 
ATOM     38  N4  UNL A   1      15.673  19.579   7.295  1.00  0.00    +0.000 N 
ATOM     39  C29 UNL A   1      15.181  18.757   8.300  1.00  0.00    +0.000 C 
ATOM     40  C30 UNL A   1      15.705  17.603   8.778  1.00  0.00    +0.000 C 
ATOM     52  C37 UNL A   1      16.938  17.022   8.316  1.00  0.00    +0.000 C 
ATOM     53  C38 UNL A   1      17.539  15.842   8.718  1.00  0.00    +0.000 C 
ATOM     54  C39 UNL A   1      18.749  15.710   8.029  1.00  0.00    +0.000 C 
ATOM     55  C40 UNL A   1      18.873  16.776   7.153  1.00  0.00    +0.000 C 
ATOM     56  N5  UNL A   1      17.760  17.580   7.348  1.00  0.00    +0.000 N 
ATOM     57  C41 UNL A   1      19.927  17.041   6.209  1.00  0.00    +0.000 C 
ATOM     69  C48 UNL A   1      19.975  18.114   5.382  1.00  0.00    +0.000 C 
ATOM     70  N6  UNL A   1      19.070  19.158   5.247  1.00  0.00    +0.000 N 
ATOM     71  C49 UNL A   1      19.575  19.959   4.339  1.00  0.00    +0.000 C 
ATOM     72  C50 UNL A   1      19.004  21.230   3.768  1.00  0.00    +0.000 C 
ATOM     84  C57 UNL A   1      17.800  21.655   4.196  1.00  0.00    +0.000 C 
ATOM     85  C58 UNL A   1      17.113  22.854   3.731  1.00  0.00    +0.000 C 
ATOM     86  C59 UNL A   1      15.968  22.995   4.418  1.00  0.00    +0.000 C 
ATOM     87  C60 UNL A   1      15.820  21.871   5.343  1.00  0.00    +0.000 C 
ATOM     88  N7  UNL A   1      16.951  21.122   5.135  1.00  0.00    +0.000 N 
ATOM     89  C61 UNL A   1      20.878  19.525   3.818  1.00  0.00    +0.000 C 
ATOM     90  C62 UNL A   1      21.050  18.372   4.446  1.00  0.00    +0.000 C 
ATOM     91  C63 UNL A   1      13.937  19.340   8.753  1.00  0.00    +0.000 C 
ATOM     92  C64 UNL A   1      13.607  20.389   8.016  1.00  0.00    +0.000 C 
ATOM    124  H26 UNL A   1      17.160  15.174   9.407  1.00  0.00    +0.000 H 
ATOM    125  H27 UNL A   1      19.433  14.948   8.152  1.00  0.00    +0.000 H 
ATOM    126  H28 UNL A   1      17.580  18.421   6.870  1.00  0.00    +0.000 H 
ATOM    127  H29 UNL A   1      17.451  23.491   2.993  1.00  0.00    +0.000 H 
ATOM    128  H30 UNL A   1      15.298  23.774   4.310  1.00  0.00    +0.000 H 
ENDROOT
BRANCH   36   35
ATOM     33  C24 UNL A   1      11.555  23.487   5.334  1.00  0.00    +0.000 C 
ATOM     34  C25 UNL A   1      12.559  22.518   5.362  1.00  0.00    +0.000 C 
ATOM     35  C26 UNL A   1      13.675  22.673   6.200  1.00  0.00    +0.000 C 
ATOM    134  H36 UNL A   1      14.557  23.906   7.675  1.00  0.00    +0.000 H 
ATOM    135  H37 UNL A   1      12.707  25.467   7.783  1.00  0.00    +0.000 H 
ATOM    122  H24 UNL A   1      10.755  23.387   4.691  1.00  0.00    +0.000 H 
ATOM    123  H25 UNL A   1      12.481  21.682   4.762  1.00  0.00    +0.000 H 
ATOM     93  C65 UNL A   1      13.737  23.778   7.061  1.00  0.00    +0.000 C 
ATOM     94  C66 UNL A   1      12.697  24.702   7.091  1.00  0.00    +0.000 C 
ATOM     32  C23 UNL A   1      11.640  24.593   6.182  1.00  0.00    +0.000 C 
BRANCH   32   30
ATOM     30  C22 UNL A   1      10.583  25.624   6.120  1.00  0.00    +0.000 C 
ATOM     31  O4  UNL A   1      10.177  26.148   7.153  1.00  0.00    +0.000 O 
BRANCH   30   29
ATOM    121  H23 UNL A   1       9.222  25.558   4.651  1.00  0.00    +0.000 H 
ATOM     29  N3  UNL A   1      10.064  25.998   4.908  1.00  0.00    +0.000 N 
BRANCH   29   28
ATOM     28  C21 UNL A   1      10.593  26.957   3.950  1.00  0.00    +0.000 C 
ATOM    119  H21 UNL A   1      11.634  27.109   4.149  1.00  0.00    +0.000 H 
ATOM    120  H22 UNL A   1      10.445  26.564   2.966  1.00  0.00    +0.000 H 
BRANCH   28   27
ATOM     27  C20 UNL A   1       9.873  28.299   4.040  1.00  0.00    +0.000 C 
ATOM    117  H19 UNL A   1       8.860  28.118   4.334  1.00  0.00    +0.000 H 
ATOM    118  H20 UNL A   1      10.410  28.891   4.751  1.00  0.00    +0.000 H 
BRANCH   27   26
ATOM     26  C19 UNL A   1       9.859  29.088   2.727  1.00  0.00    +0.000 C 
ATOM    115  H17 UNL A   1       9.284  28.537   2.013  1.00  0.00    +0.000 H 
ATOM    116  H18 UNL A   1       9.442  30.047   2.956  1.00  0.00    +0.000 H 
BRANCH   26   25
ATOM     25  C18 UNL A   1      11.245  29.354   2.121  1.00  0.00    +0.000 C 
ATOM    114  H16 UNL A   1      11.093  29.498   1.073  1.00  0.00    +0.000 H 
ATOM    113  H15 UNL A   1      11.873  28.518   2.347  1.00  0.00    +0.000 H 
BRANCH   25   24
ATOM    112  H14 UNL A   1      12.801  30.319   3.188  1.00  0.00    +0.000 H 
ATOM    111  H13 UNL A   1      11.245  31.165   3.248  1.00  0.00    +0.000 H 
ATOM     24  C17 UNL A   1      11.937  30.625   2.638  1.00  0.00    +0.000 C 
BRANCH   24   23
ATOM    109  H11 UNL A   1      11.607  31.731   0.837  1.00  0.00    +0.000 H 
ATOM    110  H12 UNL A   1      12.754  32.469   1.937  1.00  0.00    +0.000 H 
ATOM     23  C16 UNL A   1      12.416  31.547   1.512  1.00  0.00    +0.000 C 
BRANCH   23   22
ATOM    108  H10 UNL A   1      13.777  30.062   1.173  1.00  0.00    +0.000 H 
ATOM     22  N2  UNL A   1      13.510  30.929   0.793  1.00  0.00    +0.000 N 
BRANCH   22   20
ATOM     20  C15 UNL A   1      14.259  31.287  -0.304  1.00  0.00    +0.000 C 
ATOM     21  O3  UNL A   1      13.894  32.314  -0.884  1.00  0.00    +0.000 O 
BRANCH   20   19
ATOM    136  H38 UNL A   1      18.576  30.187  -0.069  1.00  0.00    +0.000 H 
ATOM    106  H8  UNL A   1      16.535  28.535  -3.298  1.00  0.00    +0.000 H 
ATOM    107  H9  UNL A   1      14.467  29.446  -2.401  1.00  0.00    +0.000 H 
ATOM     16  C11 UNL A   1      17.770  29.354  -1.797  1.00  0.00    +0.000 C 
ATOM     17  C12 UNL A   1      16.556  29.117  -2.446  1.00  0.00    +0.000 C 
ATOM     18  C13 UNL A   1      15.370  29.662  -1.951  1.00  0.00    +0.000 C 
ATOM     19  C14 UNL A   1      15.424  30.497  -0.846  1.00  0.00    +0.000 C 
ATOM     95  N8  UNL A   1      16.585  30.679  -0.155  1.00  0.00    +0.000 N 
ATOM     96  C67 UNL A   1      17.711  30.086  -0.622  1.00  0.00    +0.000 C 
BRANCH   16   15
ATOM    104  H6  UNL A   1      20.979  26.250  -2.983  1.00  0.00    +0.000 H 
ATOM      9  C6  UNL A   1      19.373  27.538  -2.488  1.00  0.00    +0.000 C 
ATOM     10  C7  UNL A   1      20.679  27.234  -2.904  1.00  0.00    +0.000 C 
ATOM     11  C8  UNL A   1      21.569  28.259  -3.208  1.00  0.00    +0.000 C 
ATOM     12 Cl1  UNL A   1      23.182  27.904  -3.673  1.00  0.00    +0.000 Cl
ATOM     13  C9  UNL A   1      21.130  29.568  -3.114  1.00  0.00    +0.000 C 
ATOM     14  N1  UNL A   1      19.886  29.916  -2.711  1.00  0.00    +0.000 N 
ATOM     15  C10 UNL A   1      19.037  28.909  -2.381  1.00  0.00    +0.000 C 
ATOM    105  H7  UNL A   1      21.788  30.322  -3.365  1.00  0.00    +0.000 H 
BRANCH    9    8
ATOM     97  C68 UNL A   1      17.263  26.253  -2.917  1.00  0.00    +0.000 C 
ATOM     98  C69 UNL A   1      16.420  25.163  -2.674  1.00  0.00    +0.000 C 
ATOM      5  C2  UNL A   1      16.729  24.271  -1.647  1.00  0.00    +0.000 C 
ATOM    102  H4  UNL A   1      18.087  23.796  -0.099  1.00  0.00    +0.000 H 
ATOM      6  C3  UNL A   1      17.861  24.461  -0.855  1.00  0.00    +0.000 C 
ATOM      7  C4  UNL A   1      18.688  25.562  -1.095  1.00  0.00    +0.000 C 
ATOM    103  H5  UNL A   1      19.508  25.721  -0.489  1.00  0.00    +0.000 H 
ATOM    138  H40 UNL A   1      15.576  25.021  -3.249  1.00  0.00    +0.000 H 
ATOM      8  C5  UNL A   1      18.421  26.459  -2.148  1.00  0.00    +0.000 C 
ATOM    137  H39 UNL A   1      17.031  26.915  -3.674  1.00  0.00    +0.000 H 
BRANCH    5    2
ATOM      2  S1  UNL A   1      15.714  22.836  -1.376  1.00  0.00    +0.000 S 
ATOM      3  O1  UNL A   1      14.873  22.686  -2.550  1.00  0.00    +0.000 O 
ATOM      4  O2  UNL A   1      15.129  22.956  -0.056  1.00  0.00    +0.000 O 
BRANCH    2    1
ATOM      1  C1  UNL A   1      16.881  21.501  -1.340  1.00  0.00    +0.000 C 
ATOM     99  H1  UNL A   1      17.783  21.828  -0.867  1.00  0.00    +0.000 H 
ATOM    100  H2  UNL A   1      17.095  21.187  -2.340  1.00  0.00    +0.000 H 
ATOM    101  H3  UNL A   1      16.468  20.681  -0.790  1.00  0.00    +0.000 H 
ENDBRANCH    2    1
ENDBRANCH    5    2
ENDBRANCH    9    8
ENDBRANCH   16   15
ENDBRANCH   20   19
ENDBRANCH   22   20
ENDBRANCH   23   22
ENDBRANCH   24   23
ENDBRANCH   25   24
ENDBRANCH   26   25
ENDBRANCH   27   26
ENDBRANCH   28   27
ENDBRANCH   29   28
ENDBRANCH   30   29
ENDBRANCH   32   30
ENDBRANCH   36   35
BRANCH   40   41
ATOM     41  C31 UNL A   1      14.937  16.877   9.846  1.00  0.00    +0.000 C 
ATOM     42  C32 UNL A   1      14.023  15.860   9.526  1.00  0.00    +0.000 C 
ATOM     43  F1  UNL A   1      13.763  15.565   8.244  1.00  0.00    +0.000 F 
ATOM     44  C33 UNL A   1      13.351  15.161  10.524  1.00  0.00    +0.000 C 
ATOM     45  F2  UNL A   1      12.454  14.221  10.193  1.00  0.00    +0.000 F 
ATOM     46  C34 UNL A   1      13.604  15.438  11.859  1.00  0.00    +0.000 C 
ATOM     47  F3  UNL A   1      12.968  14.751  12.819  1.00  0.00    +0.000 F 
ATOM     48  C35 UNL A   1      14.512  16.428  12.199  1.00  0.00    +0.000 C 
ATOM     49  F4  UNL A   1      14.769  16.687  13.489  1.00  0.00    +0.000 F 
ATOM     50  C36 UNL A   1      15.163  17.152  11.202  1.00  0.00    +0.000 C 
ATOM     51  F5  UNL A   1      16.030  18.110  11.564  1.00  0.00    +0.000 F 
ENDBRANCH   40   41
BRANCH   57   58
ATOM     65  C46 UNL A   1      21.969  14.016   5.131  1.00  0.00    +0.000 C 
ATOM     66  F9  UNL A   1      21.848  12.980   4.290  1.00  0.00    +0.000 F 
ATOM     67  C47 UNL A   1      20.955  14.965   5.215  1.00  0.00    +0.000 C 
ATOM     68  F10 UNL A   1      19.875  14.824   4.431  1.00  0.00    +0.000 F 
ATOM     58  C42 UNL A   1      21.045  16.044   6.108  1.00  0.00    +0.000 C 
ATOM     59  C43 UNL A   1      22.192  16.136   6.910  1.00  0.00    +0.000 C 
ATOM     60  F6  UNL A   1      22.336  17.157   7.769  1.00  0.00    +0.000 F 
ATOM     61  C44 UNL A   1      23.222  15.206   6.797  1.00  0.00    +0.000 C 
ATOM     62  F7  UNL A   1      24.335  15.349   7.531  1.00  0.00    +0.000 F 
ATOM     63  C45 UNL A   1      23.106  14.143   5.914  1.00  0.00    +0.000 C 
ATOM     64  F8  UNL A   1      24.096  13.245   5.811  1.00  0.00    +0.000 F 
ENDBRANCH   57   58
BRANCH   72   73
ATOM     73  C51 UNL A   1      19.756  22.007   2.745  1.00  0.00    +0.000 C 
ATOM     74  C52 UNL A   1      20.482  23.154   3.094  1.00  0.00    +0.000 C 
ATOM     75  F11 UNL A   1      20.524  23.557   4.372  1.00  0.00    +0.000 F 
ATOM     76  C53 UNL A   1      21.118  23.927   2.125  1.00  0.00    +0.000 C 
ATOM     77  F12 UNL A   1      21.743  25.058   2.479  1.00  0.00    +0.000 F 
ATOM     78  C54 UNL A   1      21.078  23.546   0.793  1.00  0.00    +0.000 C 
ATOM     79  F13 UNL A   1      21.682  24.294  -0.140  1.00  0.00    +0.000 F 
ATOM     80  C55 UNL A   1      20.396  22.394   0.428  1.00  0.00    +0.000 C 
ATOM     81  F14 UNL A   1      20.368  22.012  -0.857  1.00  0.00    +0.000 F 
ATOM     82  C56 UNL A   1      19.730  21.641   1.391  1.00  0.00    +0.000 C 
ATOM     83  F15 UNL A   1      19.056  20.548   1.002  1.00  0.00    +0.000 F 
ENDBRANCH   72   73
TORSDOF 19
ENDMDL
MODEL 9
REMARK VINA RESULT:      -9.8     32.727     38.894
ROOT
ATOM    129  H31 UNL A   1      11.703  24.435   3.950  1.00  0.00    +0.000 H 
ATOM    130  H32 UNL A   1      10.907  23.101   8.726  1.00  0.00    +0.000 H 
ATOM    131  H33 UNL A   1      13.085  21.766   8.576  1.00  0.00    +0.000 H 
ATOM    132  H34 UNL A   1      13.971  24.117  -1.149  1.00  0.00    +0.000 H 
ATOM    133  H35 UNL A   1      12.108  25.856  -0.894  1.00  0.00    +0.000 H 
ATOM     36  C27 UNL A   1      10.877  25.849   1.681  1.00  0.00    +0.000 C 
ATOM     37  C28 UNL A   1      12.064  25.046   1.225  1.00  0.00    +0.000 C 
ATOM     38  N4  UNL A   1      12.785  24.182   1.895  1.00  0.00    +0.000 N 
ATOM     39  C29 UNL A   1      13.740  23.713   1.002  1.00  0.00    +0.000 C 
ATOM     40  C30 UNL A   1      14.770  22.866   1.237  1.00  0.00    +0.000 C 
ATOM     52  C37 UNL A   1      15.044  22.259   2.513  1.00  0.00    +0.000 C 
ATOM     53  C38 UNL A   1      16.079  21.408   2.859  1.00  0.00    +0.000 C 
ATOM     54  C39 UNL A   1      15.911  21.034   4.196  1.00  0.00    +0.000 C 
ATOM     55  C40 UNL A   1      14.805  21.699   4.700  1.00  0.00    +0.000 C 
ATOM     56  N5  UNL A   1      14.276  22.439   3.654  1.00  0.00    +0.000 N 
ATOM     57  C41 UNL A   1      14.272  21.664   6.037  1.00  0.00    +0.000 C 
ATOM     69  C48 UNL A   1      13.178  22.347   6.455  1.00  0.00    +0.000 C 
ATOM     70  N6  UNL A   1      12.355  23.204   5.738  1.00  0.00    +0.000 N 
ATOM     71  C49 UNL A   1      11.422  23.593   6.574  1.00  0.00    +0.000 C 
ATOM     72  C50 UNL A   1      10.283  24.553   6.352  1.00  0.00    +0.000 C 
ATOM     84  C57 UNL A   1      10.154  25.144   5.149  1.00  0.00    +0.000 C 
ATOM     85  C58 UNL A   1       9.116  26.101   4.785  1.00  0.00    +0.000 C 
ATOM     86  C59 UNL A   1       9.261  26.433   3.492  1.00  0.00    +0.000 C 
ATOM     87  C60 UNL A   1      10.431  25.743   2.947  1.00  0.00    +0.000 C 
ATOM     88  N7  UNL A   1      10.903  25.007   4.006  1.00  0.00    +0.000 N 
ATOM     89  C61 UNL A   1      11.534  22.997   7.913  1.00  0.00    +0.000 C 
ATOM     90  C62 UNL A   1      12.648  22.290   7.801  1.00  0.00    +0.000 C 
ATOM     91  C63 UNL A   1      13.466  24.334  -0.276  1.00  0.00    +0.000 C 
ATOM     92  C64 UNL A   1      12.483  25.216  -0.175  1.00  0.00    +0.000 C 
ATOM    124  H26 UNL A   1      16.845  21.103   2.238  1.00  0.00    +0.000 H 
ATOM    125  H27 UNL A   1      16.508  20.375   4.718  1.00  0.00    +0.000 H 
ATOM    126  H28 UNL A   1      13.474  23.007   3.711  1.00  0.00    +0.000 H 
ATOM    127  H29 UNL A   1       8.387  26.466   5.418  1.00  0.00    +0.000 H 
ATOM    128  H30 UNL A   1       8.645  27.073   2.967  1.00  0.00    +0.000 H 
ENDROOT
BRANCH   36   35
ATOM     33  C24 UNL A   1       8.479  27.066  -0.996  1.00  0.00    +0.000 C 
ATOM     34  C25 UNL A   1       9.100  26.245  -0.053  1.00  0.00    +0.000 C 
ATOM     35  C26 UNL A   1      10.161  26.734   0.728  1.00  0.00    +0.000 C 
ATOM    134  H36 UNL A   1      11.328  28.443   1.162  1.00  0.00    +0.000 H 
ATOM    135  H37 UNL A   1      10.100  29.921  -0.315  1.00  0.00    +0.000 H 
ATOM    122  H24 UNL A   1       7.724  26.692  -1.591  1.00  0.00    +0.000 H 
ATOM    123  H25 UNL A   1       8.778  25.272   0.072  1.00  0.00    +0.000 H 
ATOM     93  C65 UNL A   1      10.544  28.076   0.600  1.00  0.00    +0.000 C 
ATOM     94  C66 UNL A   1       9.871  28.916  -0.283  1.00  0.00    +0.000 C 
ATOM     32  C23 UNL A   1       8.885  28.395  -1.127  1.00  0.00    +0.000 C 
BRANCH   32   30
ATOM     30  C22 UNL A   1       8.236  29.243  -2.150  1.00  0.00    +0.000 C 
ATOM     31  O4  UNL A   1       8.790  30.266  -2.538  1.00  0.00    +0.000 O 
BRANCH   30   29
ATOM    121  H23 UNL A   1       7.050  28.313  -3.471  1.00  0.00    +0.000 H 
ATOM     29  N3  UNL A   1       7.020  28.879  -2.666  1.00  0.00    +0.000 N 
BRANCH   29   28
ATOM     28  C21 UNL A   1       5.690  29.217  -2.182  1.00  0.00    +0.000 C 
ATOM    119  H21 UNL A   1       4.975  28.568  -2.647  1.00  0.00    +0.000 H 
ATOM    120  H22 UNL A   1       5.680  29.097  -1.119  1.00  0.00    +0.000 H 
BRANCH   28   27
ATOM     27  C20 UNL A   1       5.324  30.663  -2.501  1.00  0.00    +0.000 C 
ATOM    117  H19 UNL A   1       6.147  31.112  -3.015  1.00  0.00    +0.000 H 
ATOM    118  H20 UNL A   1       4.434  30.633  -3.093  1.00  0.00    +0.000 H 
BRANCH   27   26
ATOM     26  C19 UNL A   1       5.007  31.512  -1.267  1.00  0.00    +0.000 C 
ATOM    115  H17 UNL A   1       4.893  32.528  -1.582  1.00  0.00    +0.000 H 
ATOM    116  H18 UNL A   1       4.117  31.101  -0.838  1.00  0.00    +0.000 H 
BRANCH   26   25
ATOM     25  C18 UNL A   1       6.075  31.471  -0.165  1.00  0.00    +0.000 C 
ATOM    114  H16 UNL A   1       7.016  31.351  -0.660  1.00  0.00    +0.000 H 
ATOM    113  H15 UNL A   1       5.840  30.663   0.497  1.00  0.00    +0.000 H 
BRANCH   25   24
ATOM    112  H14 UNL A   1       6.184  32.470   1.701  1.00  0.00    +0.000 H 
ATOM    111  H13 UNL A   1       5.359  33.390   0.429  1.00  0.00    +0.000 H 
ATOM     24  C17 UNL A   1       6.186  32.755   0.670  1.00  0.00    +0.000 C 
BRANCH   24   23
ATOM    109  H11 UNL A   1       7.304  34.575   0.542  1.00  0.00    +0.000 H 
ATOM    110  H12 UNL A   1       8.229  33.196   1.105  1.00  0.00    +0.000 H 
ATOM     23  C16 UNL A   1       7.483  33.528   0.413  1.00  0.00    +0.000 C 
BRANCH   23   22
ATOM    108  H10 UNL A   1       7.233  32.996  -1.544  1.00  0.00    +0.000 H 
ATOM     22  N2  UNL A   1       7.950  33.285  -0.936  1.00  0.00    +0.000 N 
BRANCH   22   20
ATOM     20  C15 UNL A   1       9.176  33.367  -1.555  1.00  0.00    +0.000 C 
ATOM     21  O3  UNL A   1       9.144  33.576  -2.772  1.00  0.00    +0.000 O 
BRANCH   20   19
ATOM    136  H38 UNL A   1      13.543  34.255  -1.340  1.00  0.00    +0.000 H 
ATOM    106  H8  UNL A   1      12.191  31.490   1.461  1.00  0.00    +0.000 H 
ATOM    107  H9  UNL A   1       9.916  31.917   0.720  1.00  0.00    +0.000 H 
ATOM     16  C11 UNL A   1      13.093  32.783   0.061  1.00  0.00    +0.000 C 
ATOM     17  C12 UNL A   1      12.019  32.135   0.675  1.00  0.00    +0.000 C 
ATOM     18  C13 UNL A   1      10.713  32.355   0.234  1.00  0.00    +0.000 C 
ATOM     19  C14 UNL A   1      10.504  33.172  -0.866  1.00  0.00    +0.000 C 
ATOM     95  N8  UNL A   1      11.529  33.871  -1.431  1.00  0.00    +0.000 N 
ATOM     96  C67 UNL A   1      12.779  33.687  -0.942  1.00  0.00    +0.000 C 
BRANCH   16   15
ATOM    104  H6  UNL A   1      16.919  30.194   0.076  1.00  0.00    +0.000 H 
ATOM      9  C6  UNL A   1      15.141  31.327  -0.118  1.00  0.00    +0.000 C 
ATOM     10  C7  UNL A   1      16.399  31.016   0.421  1.00  0.00    +0.000 C 
ATOM     11  C8  UNL A   1      16.944  31.815   1.421  1.00  0.00    +0.000 C 
ATOM     12 Cl1  UNL A   1      18.460  31.421   2.123  1.00  0.00    +0.000 Cl
ATOM     13  C9  UNL A   1      16.233  32.924   1.846  1.00  0.00    +0.000 C 
ATOM     14  N1  UNL A   1      15.014  33.264   1.366  1.00  0.00    +0.000 N 
ATOM     15  C10 UNL A   1      14.475  32.456   0.417  1.00  0.00    +0.000 C 
ATOM    105  H7  UNL A   1      16.655  33.525   2.570  1.00  0.00    +0.000 H 
BRANCH    9    8
ATOM     97  C68 UNL A   1      13.929  29.257  -0.849  1.00  0.00    +0.000 C 
ATOM     98  C69 UNL A   1      13.258  28.509  -1.822  1.00  0.00    +0.000 C 
ATOM      5  C2  UNL A   1      13.203  28.978  -3.135  1.00  0.00    +0.000 C 
ATOM    102  H4  UNL A   1      13.773  30.523  -4.459  1.00  0.00    +0.000 H 
ATOM      6  C3  UNL A   1      13.820  30.178  -3.487  1.00  0.00    +0.000 C 
ATOM      7  C4  UNL A   1      14.502  30.910  -2.512  1.00  0.00    +0.000 C 
ATOM    103  H5  UNL A   1      14.984  31.782  -2.779  1.00  0.00    +0.000 H 
ATOM    138  H40 UNL A   1      12.807  27.615  -1.571  1.00  0.00    +0.000 H 
ATOM      8  C5  UNL A   1      14.543  30.480  -1.172  1.00  0.00    +0.000 C 
ATOM    137  H39 UNL A   1      13.972  28.907   0.120  1.00  0.00    +0.000 H 
BRANCH    5    2
ATOM      2  S1  UNL A   1      12.287  28.081  -4.366  1.00  0.00    +0.000 S 
ATOM      3  O1  UNL A   1      11.037  27.673  -3.748  1.00  0.00    +0.000 O 
ATOM      4  O2  UNL A   1      13.179  27.101  -4.949  1.00  0.00    +0.000 O 
BRANCH    2    1
ATOM      1  C1  UNL A   1      11.936  29.306  -5.599  1.00  0.00    +0.000 C 
ATOM     99  H1  UNL A   1      11.982  28.859  -6.569  1.00  0.00    +0.000 H 
ATOM    100  H2  UNL A   1      12.656  30.095  -5.534  1.00  0.00    +0.000 H 
ATOM    101  H3  UNL A   1      10.955  29.705  -5.437  1.00  0.00    +0.000 H 
ENDBRANCH    2    1
ENDBRANCH    5    2
ENDBRANCH    9    8
ENDBRANCH   16   15
ENDBRANCH   20   19
ENDBRANCH   22   20
ENDBRANCH   23   22
ENDBRANCH   24   23
ENDBRANCH   25   24
ENDBRANCH   26   25
ENDBRANCH   27   26
ENDBRANCH   28   27
ENDBRANCH   29   28
ENDBRANCH   30   29
ENDBRANCH   32   30
ENDBRANCH   36   35
BRANCH   40   41
ATOM     41  C31 UNL A   1      15.695  22.557   0.094  1.00  0.00    +0.000 C 
ATOM     42  C32 UNL A   1      15.349  21.623  -0.895  1.00  0.00    +0.000 C 
ATOM     43  F1  UNL A   1      14.205  20.929  -0.797  1.00  0.00    +0.000 F 
ATOM     44  C33 UNL A   1      16.191  21.376  -1.975  1.00  0.00    +0.000 C 
ATOM     45  F2  UNL A   1      15.857  20.451  -2.885  1.00  0.00    +0.000 F 
ATOM     46  C34 UNL A   1      17.377  22.082  -2.108  1.00  0.00    +0.000 C 
ATOM     47  F3  UNL A   1      18.179  21.856  -3.158  1.00  0.00    +0.000 F 
ATOM     48  C35 UNL A   1      17.734  23.020  -1.151  1.00  0.00    +0.000 C 
ATOM     49  F4  UNL A   1      18.872  23.713  -1.286  1.00  0.00    +0.000 F 
ATOM     50  C36 UNL A   1      16.908  23.245  -0.052  1.00  0.00    +0.000 C 
ATOM     51  F5  UNL A   1      17.286  24.153   0.861  1.00  0.00    +0.000 F 
ENDBRANCH   40   41
BRANCH   57   58
ATOM     65  C46 UNL A   1      15.383  18.670   8.108  1.00  0.00    +0.000 C 
ATOM     66  F9  UNL A   1      15.112  17.360   8.193  1.00  0.00    +0.000 F 
ATOM     67  C47 UNL A   1      14.746  19.451   7.149  1.00  0.00    +0.000 C 
ATOM     68  F10 UNL A   1      13.877  18.863   6.314  1.00  0.00    +0.000 F 
ATOM     58  C42 UNL A   1      14.993  20.830   7.058  1.00  0.00    +0.000 C 
ATOM     59  C43 UNL A   1      15.905  21.393   7.962  1.00  0.00    +0.000 C 
ATOM     60  F6  UNL A   1      16.188  22.704   7.908  1.00  0.00    +0.000 F 
ATOM     61  C44 UNL A   1      16.569  20.603   8.896  1.00  0.00    +0.000 C 
ATOM     62  F7  UNL A   1      17.480  21.154   9.711  1.00  0.00    +0.000 F 
ATOM     63  C45 UNL A   1      16.302  19.244   8.973  1.00  0.00    +0.000 C 
ATOM     64  F8  UNL A   1      16.937  18.486   9.878  1.00  0.00    +0.000 F 
ENDBRANCH   57   58
BRANCH   72   73
ATOM     73  C51 UNL A   1       9.315  24.847   7.443  1.00  0.00    +0.000 C 
ATOM     74  C52 UNL A   1       8.030  24.286   7.444  1.00  0.00    +0.000 C 
ATOM     75  F11 UNL A   1       7.663  23.451   6.460  1.00  0.00    +0.000 F 
ATOM     76  C53 UNL A   1       7.096  24.625   8.420  1.00  0.00    +0.000 C 
ATOM     77  F12 UNL A   1       5.853  24.130   8.354  1.00  0.00    +0.000 F 
ATOM     78  C54 UNL A   1       7.440  25.499   9.440  1.00  0.00    +0.000 C 
ATOM     79  F13 UNL A   1       6.539  25.832  10.374  1.00  0.00    +0.000 F 
ATOM     80  C55 UNL A   1       8.717  26.039   9.481  1.00  0.00    +0.000 C 
ATOM     81  F14 UNL A   1       9.061  26.871  10.474  1.00  0.00    +0.000 F 
ATOM     82  C56 UNL A   1       9.639  25.729   8.485  1.00  0.00    +0.000 C 
ATOM     83  F15 UNL A   1      10.857  26.289   8.537  1.00  0.00    +0.000 F 
ENDBRANCH   72   73
TORSDOF 19
ENDMDL
MODEL 10
REMARK VINA RESULT:      -9.8     39.227     44.768
ROOT
ATOM    129  H31 UNL A   1      26.760  63.476   1.421  1.00  0.00    +0.000 H 
ATOM    130  H32 UNL A   1      31.173  65.681   2.360  1.00  0.00    +0.000 H 
ATOM    131  H33 UNL A   1      29.944  67.097   4.100  1.00  0.00    +0.000 H 
ATOM    132  H34 UNL A   1      21.198  62.917   1.469  1.00  0.00    +0.000 H 
ATOM    133  H35 UNL A   1      22.458  61.147   0.113  1.00  0.00    +0.000 H 
ATOM     36  C27 UNL A   1      25.275  61.587  -0.013  1.00  0.00    +0.000 C 
ATOM     37  C28 UNL A   1      24.256  62.359   0.780  1.00  0.00    +0.000 C 
ATOM     38  N4  UNL A   1      24.431  63.384   1.576  1.00  0.00    +0.000 N 
ATOM     39  C29 UNL A   1      23.165  63.726   2.035  1.00  0.00    +0.000 C 
ATOM     40  C30 UNL A   1      22.825  64.667   2.947  1.00  0.00    +0.000 C 
ATOM     52  C37 UNL A   1      23.767  65.534   3.606  1.00  0.00    +0.000 C 
ATOM     53  C38 UNL A   1      23.525  66.502   4.564  1.00  0.00    +0.000 C 
ATOM     54  C39 UNL A   1      24.738  67.123   4.877  1.00  0.00    +0.000 C 
ATOM     55  C40 UNL A   1      25.745  66.502   4.158  1.00  0.00    +0.000 C 
ATOM     56  N5  UNL A   1      25.135  65.535   3.373  1.00  0.00    +0.000 N 
ATOM     57  C41 UNL A   1      27.160  66.768   4.184  1.00  0.00    +0.000 C 
ATOM     69  C48 UNL A   1      28.088  66.112   3.445  1.00  0.00    +0.000 C 
ATOM     70  N6  UNL A   1      27.911  65.078   2.536  1.00  0.00    +0.000 N 
ATOM     71  C49 UNL A   1      29.104  64.804   2.065  1.00  0.00    +0.000 C 
ATOM     72  C50 UNL A   1      29.518  63.747   1.075  1.00  0.00    +0.000 C 
ATOM     84  C57 UNL A   1      28.580  62.921   0.573  1.00  0.00    +0.000 C 
ATOM     85  C58 UNL A   1      28.824  61.845  -0.380  1.00  0.00    +0.000 C 
ATOM     86  C59 UNL A   1      27.654  61.272  -0.702  1.00  0.00    +0.000 C 
ATOM     87  C60 UNL A   1      26.579  61.914   0.057  1.00  0.00    +0.000 C 
ATOM     88  N7  UNL A   1      27.225  62.876   0.794  1.00  0.00    +0.000 N 
ATOM     89  C61 UNL A   1      30.170  65.661   2.602  1.00  0.00    +0.000 C 
ATOM     90  C62 UNL A   1      29.506  66.402   3.476  1.00  0.00    +0.000 C 
ATOM     91  C63 UNL A   1      22.224  62.847   1.378  1.00  0.00    +0.000 C 
ATOM     92  C64 UNL A   1      22.852  61.940   0.643  1.00  0.00    +0.000 C 
ATOM    124  H26 UNL A   1      22.606  66.726   4.979  1.00  0.00    +0.000 H 
ATOM    125  H27 UNL A   1      24.862  67.910   5.531  1.00  0.00    +0.000 H 
ATOM    126  H28 UNL A   1      25.601  64.940   2.744  1.00  0.00    +0.000 H 
ATOM    127  H29 UNL A   1      29.748  61.568  -0.748  1.00  0.00    +0.000 H 
ATOM    128  H30 UNL A   1      27.531  60.501  -1.378  1.00  0.00    +0.000 H 
ENDROOT
BRANCH   36   35
ATOM     33  C24 UNL A   1      24.274  58.150  -1.270  1.00  0.00    +0.000 C 
ATOM     34  C25 UNL A   1      24.608  59.195  -0.408  1.00  0.00    +0.000 C 
ATOM     35  C26 UNL A   1      24.847  60.485  -0.911  1.00  0.00    +0.000 C 
ATOM    134  H36 UNL A   1      24.863  61.669  -2.664  1.00  0.00    +0.000 H 
ATOM    135  H37 UNL A   1      24.068  59.903  -4.121  1.00  0.00    +0.000 H 
ATOM    122  H24 UNL A   1      24.134  57.197  -0.900  1.00  0.00    +0.000 H 
ATOM    123  H25 UNL A   1      24.678  59.020   0.607  1.00  0.00    +0.000 H 
ATOM     93  C65 UNL A   1      24.680  60.727  -2.282  1.00  0.00    +0.000 C 
ATOM     94  C66 UNL A   1      24.270  59.703  -3.130  1.00  0.00    +0.000 C 
ATOM     32  C23 UNL A   1      24.131  58.401  -2.636  1.00  0.00    +0.000 C 
BRANCH   32   30
ATOM     30  C22 UNL A   1      23.806  57.278  -3.540  1.00  0.00    +0.000 C 
ATOM     31  O4  UNL A   1      24.485  56.256  -3.516  1.00  0.00    +0.000 O 
BRANCH   30   29
ATOM    121  H23 UNL A   1      22.967  57.566  -5.337  1.00  0.00    +0.000 H 
ATOM     29  N3  UNL A   1      22.742  57.379  -4.397  1.00  0.00    +0.000 N 
BRANCH   29   28
ATOM     28  C21 UNL A   1      21.322  57.245  -4.104  1.00  0.00    +0.000 C 
ATOM    119  H21 UNL A   1      20.877  58.219  -4.093  1.00  0.00    +0.000 H 
ATOM    120  H22 UNL A   1      20.881  56.631  -4.860  1.00  0.00    +0.000 H 
BRANCH   28   27
ATOM     27  C20 UNL A   1      21.087  56.580  -2.752  1.00  0.00    +0.000 C 
ATOM    117  H19 UNL A   1      20.336  55.827  -2.874  1.00  0.00    +0.000 H 
ATOM    118  H20 UNL A   1      22.027  56.178  -2.437  1.00  0.00    +0.000 H 
BRANCH   27   26
ATOM     26  C19 UNL A   1      20.627  57.544  -1.654  1.00  0.00    +0.000 C 
ATOM    115  H17 UNL A   1      21.180  58.454  -1.757  1.00  0.00    +0.000 H 
ATOM    116  H18 UNL A   1      19.573  57.672  -1.788  1.00  0.00    +0.000 H 
BRANCH   26   25
ATOM     25  C18 UNL A   1      20.820  57.027  -0.221  1.00  0.00    +0.000 C 
ATOM    114  H16 UNL A   1      21.630  57.588   0.196  1.00  0.00    +0.000 H 
ATOM    113  H15 UNL A   1      21.015  55.976  -0.269  1.00  0.00    +0.000 H 
BRANCH   25   24
ATOM    112  H14 UNL A   1      19.592  58.286   0.961  1.00  0.00    +0.000 H 
ATOM    111  H13 UNL A   1      19.735  56.628   1.572  1.00  0.00    +0.000 H 
ATOM     24  C17 UNL A   1      19.617  57.247   0.708  1.00  0.00    +0.000 C 
BRANCH   24   23
ATOM    109  H11 UNL A   1      17.514  57.541   0.445  1.00  0.00    +0.000 H 
ATOM    110  H12 UNL A   1      18.363  57.059  -1.011  1.00  0.00    +0.000 H 
ATOM     23  C16 UNL A   1      18.278  56.908   0.045  1.00  0.00    +0.000 C 
BRANCH   23   22
ATOM    108  H10 UNL A   1      18.721  54.937   0.354  1.00  0.00    +0.000 H 
ATOM     22  N2  UNL A   1      17.933  55.524   0.297  1.00  0.00    +0.000 N 
BRANCH   22   20
ATOM     20  C15 UNL A   1      16.748  54.848   0.473  1.00  0.00    +0.000 C 
ATOM     21  O3  UNL A   1      15.845  55.147  -0.313  1.00  0.00    +0.000 O 
BRANCH   20   19
ATOM    136  H38 UNL A   1      18.306  52.327   3.808  1.00  0.00    +0.000 H 
ATOM    106  H8  UNL A   1      14.280  51.749   2.927  1.00  0.00    +0.000 H 
ATOM    107  H9  UNL A   1      14.405  53.595   1.350  1.00  0.00    +0.000 H 
ATOM     16  C11 UNL A   1      16.320  51.814   3.457  1.00  0.00    +0.000 C 
ATOM     17  C12 UNL A   1      15.182  52.221   2.758  1.00  0.00    +0.000 C 
ATOM     18  C13 UNL A   1      15.255  53.261   1.830  1.00  0.00    +0.000 C 
ATOM     19  C14 UNL A   1      16.487  53.838   1.563  1.00  0.00    +0.000 C 
ATOM     95  N8  UNL A   1      17.592  53.508   2.289  1.00  0.00    +0.000 N 
ATOM     96  C67 UNL A   1      17.479  52.538   3.228  1.00  0.00    +0.000 C 
BRANCH   16   15
ATOM    104  H6  UNL A   1      16.244  47.289   4.386  1.00  0.00    +0.000 H 
ATOM      9  C6  UNL A   1      16.401  49.321   3.812  1.00  0.00    +0.000 C 
ATOM     10  C7  UNL A   1      16.190  48.266   4.714  1.00  0.00    +0.000 C 
ATOM     11  C8  UNL A   1      15.907  48.538   6.048  1.00  0.00    +0.000 C 
ATOM     12 Cl1  UNL A   1      15.600  47.259   7.152  1.00  0.00    +0.000 Cl
ATOM     13  C9  UNL A   1      15.864  49.858   6.463  1.00  0.00    +0.000 C 
ATOM     14  N1  UNL A   1      16.052  50.911   5.635  1.00  0.00    +0.000 N 
ATOM     15  C10 UNL A   1      16.291  50.636   4.326  1.00  0.00    +0.000 C 
ATOM    105  H7  UNL A   1      15.678  50.049   7.459  1.00  0.00    +0.000 H 
BRANCH    9    8
ATOM     97  C68 UNL A   1      18.005  49.097   1.898  1.00  0.00    +0.000 C 
ATOM     98  C69 UNL A   1      18.298  48.725   0.581  1.00  0.00    +0.000 C 
ATOM      5  C2  UNL A   1      17.268  48.308  -0.261  1.00  0.00    +0.000 C 
ATOM    102  H4  UNL A   1      15.192  47.956  -0.434  1.00  0.00    +0.000 H 
ATOM      6  C3  UNL A   1      15.950  48.269   0.192  1.00  0.00    +0.000 C 
ATOM      7  C4  UNL A   1      15.664  48.658   1.504  1.00  0.00    +0.000 C 
ATOM    103  H5  UNL A   1      14.686  48.659   1.829  1.00  0.00    +0.000 H 
ATOM    138  H40 UNL A   1      19.270  48.761   0.236  1.00  0.00    +0.000 H 
ATOM      8  C5  UNL A   1      16.689  49.049   2.388  1.00  0.00    +0.000 C 
ATOM    137  H39 UNL A   1      18.768  49.410   2.519  1.00  0.00    +0.000 H 
BRANCH    5    2
ATOM      2  S1  UNL A   1      17.633  47.756  -1.911  1.00  0.00    +0.000 S 
ATOM      3  O1  UNL A   1      17.279  46.349  -1.974  1.00  0.00    +0.000 O 
ATOM      4  O2  UNL A   1      18.974  48.197  -2.235  1.00  0.00    +0.000 O 
BRANCH    2    1
ATOM      1  C1  UNL A   1      16.496  48.672  -2.918  1.00  0.00    +0.000 C 
ATOM     99  H1  UNL A   1      15.513  48.266  -2.806  1.00  0.00    +0.000 H 
ATOM    100  H2  UNL A   1      16.794  48.607  -3.943  1.00  0.00    +0.000 H 
ATOM    101  H3  UNL A   1      16.494  49.698  -2.612  1.00  0.00    +0.000 H 
ENDBRANCH    2    1
ENDBRANCH    5    2
ENDBRANCH    9    8
ENDBRANCH   16   15
ENDBRANCH   20   19
ENDBRANCH   22   20
ENDBRANCH   23   22
ENDBRANCH   24   23
ENDBRANCH   25   24
ENDBRANCH   26   25
ENDBRANCH   27   26
ENDBRANCH   28   27
ENDBRANCH   29   28
ENDBRANCH   30   29
ENDBRANCH   32   30
ENDBRANCH   36   35
BRANCH   40   41
ATOM     41  C31 UNL A   1      21.372  64.802   3.304  1.00  0.00    +0.000 C 
ATOM     42  C32 UNL A   1      20.470  65.467   2.458  1.00  0.00    +0.000 C 
ATOM     43  F1  UNL A   1      20.907  66.062   1.339  1.00  0.00    +0.000 F 
ATOM     44  C33 UNL A   1      19.117  65.547   2.774  1.00  0.00    +0.000 C 
ATOM     45  F2  UNL A   1      18.281  66.220   1.971  1.00  0.00    +0.000 F 
ATOM     46  C34 UNL A   1      18.633  64.935   3.921  1.00  0.00    +0.000 C 
ATOM     47  F3  UNL A   1      17.326  64.998   4.215  1.00  0.00    +0.000 F 
ATOM     48  C35 UNL A   1      19.502  64.262   4.764  1.00  0.00    +0.000 C 
ATOM     49  F4  UNL A   1      19.034  63.657   5.865  1.00  0.00    +0.000 F 
ATOM     50  C36 UNL A   1      20.863  64.207   4.467  1.00  0.00    +0.000 C 
ATOM     51  F5  UNL A   1      21.680  63.555   5.309  1.00  0.00    +0.000 F 
ENDBRANCH   40   41
BRANCH   57   58
ATOM     65  C46 UNL A   1      28.498  70.089   5.478  1.00  0.00    +0.000 C 
ATOM     66  F9  UNL A   1      28.855  71.281   4.981  1.00  0.00    +0.000 F 
ATOM     67  C47 UNL A   1      28.010  69.100   4.629  1.00  0.00    +0.000 C 
ATOM     68  F10 UNL A   1      27.894  69.375   3.321  1.00  0.00    +0.000 F 
ATOM     58  C42 UNL A   1      27.655  67.834   5.120  1.00  0.00    +0.000 C 
ATOM     59  C43 UNL A   1      27.806  67.599   6.495  1.00  0.00    +0.000 C 
ATOM     60  F6  UNL A   1      27.467  66.411   7.018  1.00  0.00    +0.000 F 
ATOM     61  C44 UNL A   1      28.259  68.602   7.348  1.00  0.00    +0.000 C 
ATOM     62  F7  UNL A   1      28.338  68.372   8.666  1.00  0.00    +0.000 F 
ATOM     63  C45 UNL A   1      28.612  69.842   6.837  1.00  0.00    +0.000 C 
ATOM     64  F8  UNL A   1      29.054  70.805   7.659  1.00  0.00    +0.000 F 
ENDBRANCH   57   58
BRANCH   72   73
ATOM     73  C51 UNL A   1      30.939  63.614   0.656  1.00  0.00    +0.000 C 
ATOM     74  C52 UNL A   1      31.811  62.734   1.314  1.00  0.00    +0.000 C 
ATOM     75  F11 UNL A   1      31.361  61.981   2.328  1.00  0.00    +0.000 F 
ATOM     76  C53 UNL A   1      33.161  62.670   0.975  1.00  0.00    +0.000 C 
ATOM     77  F12 UNL A   1      33.984  61.874   1.670  1.00  0.00    +0.000 F 
ATOM     78  C54 UNL A   1      33.658  63.450  -0.057  1.00  0.00    +0.000 C 
ATOM     79  F13 UNL A   1      34.958  63.393  -0.377  1.00  0.00    +0.000 F 
ATOM     80  C55 UNL A   1      32.808  64.300  -0.748  1.00  0.00    +0.000 C 
ATOM     81  F14 UNL A   1      33.280  65.044  -1.758  1.00  0.00    +0.000 F 
ATOM     82  C56 UNL A   1      31.466  64.393  -0.386  1.00  0.00    +0.000 C 
ATOM     83  F15 UNL A   1      30.676  65.245  -1.054  1.00  0.00    +0.000 F 
ENDBRANCH   72   73
TORSDOF 19
ENDMDL
