MODEL 1
REMARK VINA RESULT:      -8.0      0.000      0.000
ROOT
ATOM    129  H37 UNL A   1      26.982  36.989  45.581  1.00  0.00    +0.000 H 
ATOM     34  C27 UNL A   1      25.716  39.315  46.651  1.00  0.00    +0.000 C 
ATOM     35  C28 UNL A   1      25.134  37.938  46.490  1.00  0.00    +0.000 C 
ATOM     36  N3  UNL A   1      23.940  37.502  46.812  1.00  0.00    +0.000 N 
ATOM     37  C29 UNL A   1      23.901  36.170  46.422  1.00  0.00    +0.000 C 
ATOM     38  C30 UNL A   1      22.888  35.279  46.560  1.00  0.00    +0.000 C 
ATOM     50  C37 UNL A   1      21.624  35.572  47.186  1.00  0.00    +0.000 C 
ATOM     51  C38 UNL A   1      20.559  34.720  47.420  1.00  0.00    +0.000 C 
ATOM     52  C39 UNL A   1      19.529  35.457  48.015  1.00  0.00    +0.000 C 
ATOM     53  C40 UNL A   1      19.969  36.759  48.193  1.00  0.00    +0.000 C 
ATOM     54  N4  UNL A   1      21.255  36.816  47.675  1.00  0.00    +0.000 N 
ATOM     55  C41 UNL A   1      19.272  37.869  48.787  1.00  0.00    +0.000 C 
ATOM     67  C48 UNL A   1      19.780  39.117  48.936  1.00  0.00    +0.000 C 
ATOM     68  N5  UNL A   1      21.028  39.599  48.570  1.00  0.00    +0.000 N 
ATOM     69  C49 UNL A   1      21.033  40.867  48.899  1.00  0.00    +0.000 C 
ATOM     70  C50 UNL A   1      22.133  41.879  48.751  1.00  0.00    +0.000 C 
ATOM     82  C57 UNL A   1      23.290  41.512  48.169  1.00  0.00    +0.000 C 
ATOM     83  C58 UNL A   1      24.443  42.383  47.968  1.00  0.00    +0.000 C 
ATOM     84  C59 UNL A   1      25.411  41.688  47.353  1.00  0.00    +0.000 C 
ATOM     85  C60 UNL A   1      24.964  40.308  47.164  1.00  0.00    +0.000 C 
ATOM     86  N6  UNL A   1      23.678  40.305  47.643  1.00  0.00    +0.000 N 
ATOM     87  C61 UNL A   1      19.779  41.340  49.498  1.00  0.00    +0.000 C 
ATOM     88  C62 UNL A   1      19.062  40.225  49.532  1.00  0.00    +0.000 C 
ATOM     89  C63 UNL A   1      25.183  35.869  45.822  1.00  0.00    +0.000 C 
ATOM     90  C64 UNL A   1      25.997  36.914  45.882  1.00  0.00    +0.000 C 
ATOM    120  H28 UNL A   1      20.528  33.714  47.193  1.00  0.00    +0.000 H 
ATOM    121  H29 UNL A   1      18.600  35.094  48.278  1.00  0.00    +0.000 H 
ATOM    122  H30 UNL A   1      21.821  37.621  47.658  1.00  0.00    +0.000 H 
ATOM    123  H31 UNL A   1      24.503  43.373  48.253  1.00  0.00    +0.000 H 
ATOM    124  H32 UNL A   1      26.325  42.066  47.060  1.00  0.00    +0.000 H 
ATOM    125  H33 UNL A   1      23.092  39.515  47.613  1.00  0.00    +0.000 H 
ATOM    126  H34 UNL A   1      19.523  42.291  49.810  1.00  0.00    +0.000 H 
ATOM    127  H35 UNL A   1      18.113  40.157  49.933  1.00  0.00    +0.000 H 
ATOM    128  H36 UNL A   1      25.430  34.960  45.402  1.00  0.00    +0.000 H 
ENDROOT
BRANCH   34   33
ATOM     33  C26 UNL A   1      27.131  39.599  46.296  1.00  0.00    +0.000 C 
ATOM    130  H38 UNL A   1      27.989  38.822  48.068  1.00  0.00    +0.000 H 
ATOM    131  H39 UNL A   1      30.268  39.438  47.495  1.00  0.00    +0.000 H 
ATOM    118  H26 UNL A   1      28.960  40.741  43.718  1.00  0.00    +0.000 H 
ATOM    119  H27 UNL A   1      26.660  40.386  44.390  1.00  0.00    +0.000 H 
ATOM     91  C65 UNL A   1      28.185  39.295  47.171  1.00  0.00    +0.000 C 
ATOM     92  C66 UNL A   1      29.500  39.630  46.834  1.00  0.00    +0.000 C 
ATOM     30  C23 UNL A   1      29.773  40.224  45.598  1.00  0.00    +0.000 C 
ATOM     31  C24 UNL A   1      28.744  40.414  44.673  1.00  0.00    +0.000 C 
ATOM     32  C25 UNL A   1      27.427  40.160  45.042  1.00  0.00    +0.000 C 
BRANCH   30    2
ATOM      1  O1  UNL A   1      31.625  41.637  45.868  1.00  0.00    +0.000 O 
ATOM      2  C1  UNL A   1      31.157  40.655  45.299  1.00  0.00    +0.000 C 
BRANCH    2    3
ATOM      3  N1  UNL A   1      31.898  39.981  44.358  1.00  0.00    +0.000 N 
ATOM     93  H1  UNL A   1      32.251  40.534  43.623  1.00  0.00    +0.000 H 
BRANCH    3    4
ATOM      4  C2  UNL A   1      32.235  38.568  44.289  1.00  0.00    +0.000 C 
ATOM     94  H2  UNL A   1      32.319  38.192  45.287  1.00  0.00    +0.000 H 
ATOM     95  H3  UNL A   1      33.155  38.488  43.748  1.00  0.00    +0.000 H 
BRANCH    4    5
ATOM     97  H5  UNL A   1      30.471  38.433  43.183  1.00  0.00    +0.000 H 
ATOM      5  C3  UNL A   1      31.198  37.738  43.544  1.00  0.00    +0.000 C 
ATOM     96  H4  UNL A   1      31.702  37.197  42.771  1.00  0.00    +0.000 H 
BRANCH    5    6
ATOM     98  H6  UNL A   1      30.412  37.093  45.401  1.00  0.00    +0.000 H 
ATOM     99  H7  UNL A   1      30.935  35.798  44.274  1.00  0.00    +0.000 H 
ATOM      6  C4  UNL A   1      30.426  36.731  44.395  1.00  0.00    +0.000 C 
BRANCH    6    7
ATOM    100  H8  UNL A   1      28.696  37.234  43.280  1.00  0.00    +0.000 H 
ATOM    101  H9  UNL A   1      28.410  36.464  44.878  1.00  0.00    +0.000 H 
ATOM      7  C5  UNL A   1      28.978  36.468  43.972  1.00  0.00    +0.000 C 
BRANCH    7    8
ATOM    102  H10 UNL A   1      29.620  34.765  42.881  1.00  0.00    +0.000 H 
ATOM    103  H11 UNL A   1      27.929  35.294  42.591  1.00  0.00    +0.000 H 
ATOM      8  C6  UNL A   1      28.703  35.114  43.309  1.00  0.00    +0.000 C 
BRANCH    8    9
ATOM      9  C7  UNL A   1      28.169  34.022  44.230  1.00  0.00    +0.000 C 
ATOM    105  H13 UNL A   1      27.499  34.480  44.928  1.00  0.00    +0.000 H 
ATOM    104  H12 UNL A   1      27.668  33.285  43.637  1.00  0.00    +0.000 H 
BRANCH    9   10
ATOM     10  N2  UNL A   1      29.223  33.375  44.985  1.00  0.00    +0.000 N 
ATOM    106  H14 UNL A   1      29.984  33.040  44.458  1.00  0.00    +0.000 H 
BRANCH   10   11
ATOM     11  C8  UNL A   1      29.297  33.170  46.340  1.00  0.00    +0.000 C 
ATOM     12  O2  UNL A   1      29.392  32.031  46.788  1.00  0.00    +0.000 O 
BRANCH   11   13
ATOM    107  H15 UNL A   1      27.282  34.253  47.599  1.00  0.00    +0.000 H 
ATOM     13  C9  UNL A   1      29.365  34.319  47.262  1.00  0.00    +0.000 C 
ATOM     14  C10 UNL A   1      28.157  34.747  47.831  1.00  0.00    +0.000 C 
ATOM     15  C11 UNL A   1      28.125  35.835  48.711  1.00  0.00    +0.000 C 
ATOM    115  H23 UNL A   1      29.336  37.282  49.659  1.00  0.00    +0.000 H 
ATOM    116  H24 UNL A   1      31.417  36.579  48.635  1.00  0.00    +0.000 H 
ATOM     26  C20 UNL A   1      29.335  36.487  49.001  1.00  0.00    +0.000 C 
ATOM     27  C21 UNL A   1      30.540  36.080  48.416  1.00  0.00    +0.000 C 
ATOM     28  C22 UNL A   1      30.553  35.001  47.537  1.00  0.00    +0.000 C 
BRANCH   15   16
ATOM    108  H16 UNL A   1      26.863  37.338  49.592  1.00  0.00    +0.000 H 
ATOM     16  C12 UNL A   1      26.887  36.337  49.339  1.00  0.00    +0.000 C 
BRANCH   16   17
ATOM     17  C13 UNL A   1      25.792  35.611  49.614  1.00  0.00    +0.000 C 
ATOM    109  H17 UNL A   1      25.829  34.591  49.464  1.00  0.00    +0.000 H 
BRANCH   17   18
ATOM    110  H18 UNL A   1      23.441  34.391  50.211  1.00  0.00    +0.000 H 
ATOM    112  H20 UNL A   1      21.357  37.789  51.549  1.00  0.00    +0.000 H 
ATOM     18  C14 UNL A   1      24.540  36.198  50.116  1.00  0.00    +0.000 C 
ATOM     19  C15 UNL A   1      23.417  35.407  50.393  1.00  0.00    +0.000 C 
ATOM    114  H22 UNL A   1      25.324  38.163  50.209  1.00  0.00    +0.000 H 
ATOM     20  C16 UNL A   1      22.265  35.995  50.913  1.00  0.00    +0.000 C 
ATOM     22  C17 UNL A   1      22.215  37.359  51.170  1.00  0.00    +0.000 C 
ATOM     23  C18 UNL A   1      23.334  38.140  50.910  1.00  0.00    +0.000 C 
ATOM     25  C19 UNL A   1      24.497  37.573  50.390  1.00  0.00    +0.000 C 
BRANCH   20   21
ATOM     21  O3  UNL A   1      21.157  35.252  51.198  1.00  0.00    +0.000 O 
ATOM    111  H19 UNL A   1      21.206  34.557  51.823  1.00  0.00    +0.000 H 
ENDBRANCH   20   21
BRANCH   23   24
ATOM    113  H21 UNL A   1      22.636  40.010  50.730  1.00  0.00    +0.000 H 
ATOM     24  O4  UNL A   1      23.258  39.474  51.183  1.00  0.00    +0.000 O 
ENDBRANCH   23   24
ENDBRANCH   17   18
ENDBRANCH   16   17
ENDBRANCH   15   16
BRANCH   28   29
ATOM    117  H25 UNL A   1      31.942  33.708  46.886  1.00  0.00    +0.000 H 
ATOM     29  O5  UNL A   1      31.727  34.618  46.953  1.00  0.00    +0.000 O 
ENDBRANCH   28   29
ENDBRANCH   11   13
ENDBRANCH   10   11
ENDBRANCH    9   10
ENDBRANCH    8    9
ENDBRANCH    7    8
ENDBRANCH    6    7
ENDBRANCH    5    6
ENDBRANCH    4    5
ENDBRANCH    3    4
ENDBRANCH    2    3
ENDBRANCH   30    2
ENDBRANCH   34   33
BRANCH   38   39
ATOM     39  C31 UNL A   1      23.097  33.898  46.010  1.00  0.00    +0.000 C 
ATOM     40  C32 UNL A   1      23.851  32.935  46.697  1.00  0.00    +0.000 C 
ATOM     41  F1  UNL A   1      24.459  33.250  47.851  1.00  0.00    +0.000 F 
ATOM     42  C33 UNL A   1      24.011  31.650  46.183  1.00  0.00    +0.000 C 
ATOM     43  F2  UNL A   1      24.768  30.758  46.838  1.00  0.00    +0.000 F 
ATOM     44  C34 UNL A   1      23.396  31.293  44.992  1.00  0.00    +0.000 C 
ATOM     45  F3  UNL A   1      23.544  30.054  44.504  1.00  0.00    +0.000 F 
ATOM     46  C35 UNL A   1      22.632  32.224  44.305  1.00  0.00    +0.000 C 
ATOM     47  F4  UNL A   1      22.027  31.878  43.160  1.00  0.00    +0.000 F 
ATOM     48  C36 UNL A   1      22.492  33.518  44.803  1.00  0.00    +0.000 C 
ATOM     49  F5  UNL A   1      21.753  34.397  44.110  1.00  0.00    +0.000 F 
ENDBRANCH   38   39
BRANCH   55   56
ATOM     65  C47 UNL A   1      16.825  37.396  48.419  1.00  0.00    +0.000 C 
ATOM     66  F10 UNL A   1      17.044  37.367  47.096  1.00  0.00    +0.000 F 
ATOM     56  C42 UNL A   1      17.885  37.633  49.308  1.00  0.00    +0.000 C 
ATOM     57  C43 UNL A   1      17.602  37.657  50.680  1.00  0.00    +0.000 C 
ATOM     58  F6  UNL A   1      18.586  37.863  51.568  1.00  0.00    +0.000 F 
ATOM     59  C44 UNL A   1      16.311  37.423  51.148  1.00  0.00    +0.000 C 
ATOM     60  F7  UNL A   1      16.073  37.400  52.466  1.00  0.00    +0.000 F 
ATOM     61  C45 UNL A   1      15.277  37.194  50.252  1.00  0.00    +0.000 C 
ATOM     62  F8  UNL A   1      14.036  36.968  50.705  1.00  0.00    +0.000 F 
ATOM     63  C46 UNL A   1      15.531  37.189  48.890  1.00  0.00    +0.000 C 
ATOM     64  F9  UNL A   1      14.531  36.976  48.023  1.00  0.00    +0.000 F 
ENDBRANCH   55   56
BRANCH   70   71
ATOM     71  C51 UNL A   1      21.968  43.267  49.251  1.00  0.00    +0.000 C 
ATOM     72  C52 UNL A   1      21.537  44.292  48.400  1.00  0.00    +0.000 C 
ATOM     73  F11 UNL A   1      21.298  44.032  47.106  1.00  0.00    +0.000 F 
ATOM     74  C53 UNL A   1      21.377  45.594  48.867  1.00  0.00    +0.000 C 
ATOM     75  F12 UNL A   1      20.997  46.565  48.024  1.00  0.00    +0.000 F 
ATOM     76  C54 UNL A   1      21.620  45.890  50.200  1.00  0.00    +0.000 C 
ATOM     77  F13 UNL A   1      21.458  47.141  50.651  1.00  0.00    +0.000 F 
ATOM     78  C55 UNL A   1      22.039  44.889  51.063  1.00  0.00    +0.000 C 
ATOM     79  F14 UNL A   1      22.260  45.167  52.356  1.00  0.00    +0.000 F 
ATOM     80  C56 UNL A   1      22.225  43.593  50.591  1.00  0.00    +0.000 C 
ATOM     81  F15 UNL A   1      22.636  42.645  51.446  1.00  0.00    +0.000 F 
ENDBRANCH   70   71
TORSDOF 21
ENDMDL
MODEL 2
REMARK VINA RESULT:      -8.0     44.144     46.965
ROOT
ATOM    129  H37 UNL A   1      11.643  52.339   7.511  1.00  0.00    +0.000 H 
ATOM     34  C27 UNL A   1      13.421  53.657   5.705  1.00  0.00    +0.000 C 
ATOM     35  C28 UNL A   1      12.945  52.232   5.658  1.00  0.00    +0.000 C 
ATOM     36  N3  UNL A   1      13.225  51.295   4.784  1.00  0.00    +0.000 N 
ATOM     37  C29 UNL A   1      12.561  50.156   5.217  1.00  0.00    +0.000 C 
ATOM     38  C30 UNL A   1      12.521  48.930   4.640  1.00  0.00    +0.000 C 
ATOM     50  C37 UNL A   1      13.178  48.590   3.403  1.00  0.00    +0.000 C 
ATOM     51  C38 UNL A   1      13.150  47.390   2.713  1.00  0.00    +0.000 C 
ATOM     52  C39 UNL A   1      13.971  47.513   1.586  1.00  0.00    +0.000 C 
ATOM     53  C40 UNL A   1      14.474  48.803   1.550  1.00  0.00    +0.000 C 
ATOM     54  N4  UNL A   1      13.983  49.451   2.674  1.00  0.00    +0.000 N 
ATOM     55  C41 UNL A   1      15.340  49.402   0.568  1.00  0.00    +0.000 C 
ATOM     67  C48 UNL A   1      15.781  50.683   0.598  1.00  0.00    +0.000 C 
ATOM     68  N5  UNL A   1      15.519  51.673   1.533  1.00  0.00    +0.000 N 
ATOM     69  C49 UNL A   1      16.191  52.726   1.138  1.00  0.00    +0.000 C 
ATOM     70  C50 UNL A   1      16.262  54.092   1.760  1.00  0.00    +0.000 C 
ATOM     82  C57 UNL A   1      15.600  54.326   2.908  1.00  0.00    +0.000 C 
ATOM     83  C58 UNL A   1      15.573  55.601   3.617  1.00  0.00    +0.000 C 
ATOM     84  C59 UNL A   1      14.826  55.468   4.723  1.00  0.00    +0.000 C 
ATOM     85  C60 UNL A   1      14.281  54.111   4.773  1.00  0.00    +0.000 C 
ATOM     86  N6  UNL A   1      14.825  53.493   3.676  1.00  0.00    +0.000 N 
ATOM     87  C61 UNL A   1      16.971  52.519  -0.088  1.00  0.00    +0.000 C 
ATOM     88  C62 UNL A   1      16.656  51.269  -0.397  1.00  0.00    +0.000 C 
ATOM     89  C63 UNL A   1      11.876  50.508   6.442  1.00  0.00    +0.000 C 
ATOM     90  C64 UNL A   1      12.044  51.792   6.733  1.00  0.00    +0.000 C 
ATOM    120  H28 UNL A   1      12.617  46.549   2.983  1.00  0.00    +0.000 H 
ATOM    121  H29 UNL A   1      14.168  46.770   0.898  1.00  0.00    +0.000 H 
ATOM    122  H30 UNL A   1      14.177  50.386   2.917  1.00  0.00    +0.000 H 
ATOM    123  H31 UNL A   1      16.050  56.465   3.316  1.00  0.00    +0.000 H 
ATOM    124  H32 UNL A   1      14.662  56.205   5.427  1.00  0.00    +0.000 H 
ATOM    125  H33 UNL A   1      14.675  52.544   3.460  1.00  0.00    +0.000 H 
ATOM    126  H34 UNL A   1      17.599  53.175  -0.580  1.00  0.00    +0.000 H 
ATOM    127  H35 UNL A   1      16.993  50.777  -1.239  1.00  0.00    +0.000 H 
ATOM    128  H36 UNL A   1      11.331  49.847   7.016  1.00  0.00    +0.000 H 
ENDROOT
BRANCH   34   33
ATOM     33  C26 UNL A   1      12.924  54.600   6.741  1.00  0.00    +0.000 C 
ATOM    130  H38 UNL A   1      14.394  54.161   8.199  1.00  0.00    +0.000 H 
ATOM    131  H39 UNL A   1      13.452  55.613   9.903  1.00  0.00    +0.000 H 
ATOM    118  H26 UNL A   1      10.599  56.994   7.141  1.00  0.00    +0.000 H 
ATOM    119  H27 UNL A   1      11.360  55.351   5.532  1.00  0.00    +0.000 H 
ATOM     91  C65 UNL A   1      13.544  54.710   7.995  1.00  0.00    +0.000 C 
ATOM     92  C66 UNL A   1      13.015  55.562   8.970  1.00  0.00    +0.000 C 
ATOM     30  C23 UNL A   1      11.894  56.344   8.678  1.00  0.00    +0.000 C 
ATOM     31  C24 UNL A   1      11.349  56.331   7.392  1.00  0.00    +0.000 C 
ATOM     32  C25 UNL A   1      11.822  55.422   6.451  1.00  0.00    +0.000 C 
BRANCH   30    2
ATOM      1  O1  UNL A   1      11.299  58.392   9.653  1.00  0.00    +0.000 O 
ATOM      2  C1  UNL A   1      11.294  57.168   9.752  1.00  0.00    +0.000 C 
BRANCH    2    3
ATOM      3  N1  UNL A   1      10.771  56.565  10.870  1.00  0.00    +0.000 N 
ATOM     93  H1  UNL A   1      11.068  55.639  11.028  1.00  0.00    +0.000 H 
BRANCH    3    4
ATOM      4  C2  UNL A   1       9.841  57.095  11.854  1.00  0.00    +0.000 C 
ATOM     94  H2  UNL A   1       9.261  56.285  12.243  1.00  0.00    +0.000 H 
ATOM     95  H3  UNL A   1       9.235  57.824  11.357  1.00  0.00    +0.000 H 
BRANCH    4    5
ATOM     97  H5  UNL A   1      11.564  57.859  12.749  1.00  0.00    +0.000 H 
ATOM      5  C3  UNL A   1      10.530  57.797  13.017  1.00  0.00    +0.000 C 
ATOM     96  H4  UNL A   1      10.061  58.748  13.154  1.00  0.00    +0.000 H 
BRANCH    5    6
ATOM     98  H6  UNL A   1       9.642  56.403  14.339  1.00  0.00    +0.000 H 
ATOM     99  H7  UNL A   1      10.443  57.816  15.104  1.00  0.00    +0.000 H 
ATOM      6  C4  UNL A   1      10.489  57.056  14.352  1.00  0.00    +0.000 C 
BRANCH    6    7
ATOM    100  H8  UNL A   1      11.734  56.062  15.749  1.00  0.00    +0.000 H 
ATOM    101  H9  UNL A   1      12.560  56.770  14.319  1.00  0.00    +0.000 H 
ATOM      7  C5  UNL A   1      11.724  56.215  14.690  1.00  0.00    +0.000 C 
BRANCH    7    8
ATOM    102  H10 UNL A   1      10.916  54.699  13.446  1.00  0.00    +0.000 H 
ATOM    103  H11 UNL A   1      11.937  54.136  14.811  1.00  0.00    +0.000 H 
ATOM      8  C6  UNL A   1      11.810  54.842  14.016  1.00  0.00    +0.000 C 
BRANCH    8    9
ATOM      9  C7  UNL A   1      13.001  54.635  13.084  1.00  0.00    +0.000 C 
ATOM    105  H13 UNL A   1      13.208  55.569  12.605  1.00  0.00    +0.000 H 
ATOM    104  H12 UNL A   1      13.837  54.299  13.662  1.00  0.00    +0.000 H 
BRANCH    9   10
ATOM     10  N2  UNL A   1      12.726  53.657  12.051  1.00  0.00    +0.000 N 
ATOM    106  H14 UNL A   1      12.252  53.994  11.257  1.00  0.00    +0.000 H 
BRANCH   10   11
ATOM     11  C8  UNL A   1      13.043  52.322  12.037  1.00  0.00    +0.000 C 
ATOM     12  O2  UNL A   1      12.259  51.497  12.499  1.00  0.00    +0.000 O 
BRANCH   11   13
ATOM    107  H15 UNL A   1      13.272  51.608   9.535  1.00  0.00    +0.000 H 
ATOM     13  C9  UNL A   1      14.277  51.859  11.376  1.00  0.00    +0.000 C 
ATOM     14  C10 UNL A   1      14.179  51.519  10.019  1.00  0.00    +0.000 C 
ATOM     15  C11 UNL A   1      15.298  51.062   9.312  1.00  0.00    +0.000 C 
ATOM    115  H23 UNL A   1      17.356  50.628   9.496  1.00  0.00    +0.000 H 
ATOM    116  H24 UNL A   1      17.515  51.162  11.855  1.00  0.00    +0.000 H 
ATOM     26  C20 UNL A   1      16.515  50.948  10.002  1.00  0.00    +0.000 C 
ATOM     27  C21 UNL A   1      16.613  51.262  11.364  1.00  0.00    +0.000 C 
ATOM     28  C22 UNL A   1      15.489  51.707  12.054  1.00  0.00    +0.000 C 
BRANCH   15   16
ATOM    108  H16 UNL A   1      14.485  50.074   7.582  1.00  0.00    +0.000 H 
ATOM     16  C12 UNL A   1      15.260  50.684   7.886  1.00  0.00    +0.000 C 
BRANCH   16   17
ATOM     17  C13 UNL A   1      16.144  51.061   6.947  1.00  0.00    +0.000 C 
ATOM    109  H17 UNL A   1      16.552  52.007   7.008  1.00  0.00    +0.000 H 
BRANCH   17   18
ATOM    110  H18 UNL A   1      15.559  48.448   6.500  1.00  0.00    +0.000 H 
ATOM    112  H20 UNL A   1      17.573  48.029   2.833  1.00  0.00    +0.000 H 
ATOM     18  C14 UNL A   1      16.558  50.192   5.835  1.00  0.00    +0.000 C 
ATOM     19  C15 UNL A   1      16.141  48.856   5.752  1.00  0.00    +0.000 C 
ATOM    114  H22 UNL A   1      17.627  51.724   4.838  1.00  0.00    +0.000 H 
ATOM     20  C16 UNL A   1      16.516  48.080   4.657  1.00  0.00    +0.000 C 
ATOM     22  C17 UNL A   1      17.294  48.613   3.637  1.00  0.00    +0.000 C 
ATOM     23  C18 UNL A   1      17.694  49.941   3.713  1.00  0.00    +0.000 C 
ATOM     25  C19 UNL A   1      17.330  50.737   4.798  1.00  0.00    +0.000 C 
BRANCH   20   21
ATOM     21  O3  UNL A   1      16.124  46.778   4.544  1.00  0.00    +0.000 O 
ATOM    111  H19 UNL A   1      15.229  46.573   4.361  1.00  0.00    +0.000 H 
ENDBRANCH   20   21
BRANCH   23   24
ATOM    113  H21 UNL A   1      18.303  50.141   1.814  1.00  0.00    +0.000 H 
ATOM     24  O4  UNL A   1      18.448  50.438   2.691  1.00  0.00    +0.000 O 
ENDBRANCH   23   24
ENDBRANCH   17   18
ENDBRANCH   16   17
ENDBRANCH   15   16
BRANCH   28   29
ATOM    117  H25 UNL A   1      14.986  51.602  13.993  1.00  0.00    +0.000 H 
ATOM     29  O5  UNL A   1      15.582  51.995  13.386  1.00  0.00    +0.000 O 
ENDBRANCH   28   29
ENDBRANCH   11   13
ENDBRANCH   10   11
ENDBRANCH    9   10
ENDBRANCH    8    9
ENDBRANCH    7    8
ENDBRANCH    6    7
ENDBRANCH    5    6
ENDBRANCH    4    5
ENDBRANCH    3    4
ENDBRANCH    2    3
ENDBRANCH   30    2
ENDBRANCH   34   33
BRANCH   38   39
ATOM     39  C31 UNL A   1      11.750  47.853   5.346  1.00  0.00    +0.000 C 
ATOM     40  C32 UNL A   1      10.404  47.591   5.051  1.00  0.00    +0.000 C 
ATOM     41  F1  UNL A   1       9.751  48.348   4.156  1.00  0.00    +0.000 F 
ATOM     42  C33 UNL A   1       9.714  46.569   5.697  1.00  0.00    +0.000 C 
ATOM     43  F2  UNL A   1       8.418  46.363   5.427  1.00  0.00    +0.000 F 
ATOM     44  C34 UNL A   1      10.361  45.769   6.627  1.00  0.00    +0.000 C 
ATOM     45  F3  UNL A   1       9.698  44.781   7.243  1.00  0.00    +0.000 F 
ATOM     46  C35 UNL A   1      11.696  45.999   6.924  1.00  0.00    +0.000 C 
ATOM     47  F4  UNL A   1      12.328  45.220   7.813  1.00  0.00    +0.000 F 
ATOM     48  C36 UNL A   1      12.383  47.037   6.297  1.00  0.00    +0.000 C 
ATOM     49  F5  UNL A   1      13.671  47.239   6.611  1.00  0.00    +0.000 F 
ENDBRANCH   38   39
BRANCH   55   56
ATOM     65  C47 UNL A   1      17.041  47.958  -0.602  1.00  0.00    +0.000 C 
ATOM     66  F10 UNL A   1      17.873  48.120   0.437  1.00  0.00    +0.000 F 
ATOM     56  C42 UNL A   1      15.774  48.561  -0.596  1.00  0.00    +0.000 C 
ATOM     57  C43 UNL A   1      14.944  48.363  -1.708  1.00  0.00    +0.000 C 
ATOM     58  F6  UNL A   1      13.717  48.905  -1.740  1.00  0.00    +0.000 F 
ATOM     59  C44 UNL A   1      15.356  47.568  -2.775  1.00  0.00    +0.000 C 
ATOM     60  F7  UNL A   1      14.528  47.353  -3.806  1.00  0.00    +0.000 F 
ATOM     61  C45 UNL A   1      16.615  46.986  -2.763  1.00  0.00    +0.000 C 
ATOM     62  F8  UNL A   1      17.009  46.220  -3.790  1.00  0.00    +0.000 F 
ATOM     63  C46 UNL A   1      17.459  47.186  -1.682  1.00  0.00    +0.000 C 
ATOM     64  F9  UNL A   1      18.679  46.630  -1.674  1.00  0.00    +0.000 F 
ENDBRANCH   55   56
BRANCH   70   71
ATOM     71  C51 UNL A   1      17.033  55.186   1.118  1.00  0.00    +0.000 C 
ATOM     72  C52 UNL A   1      18.350  55.462   1.508  1.00  0.00    +0.000 C 
ATOM     73  F11 UNL A   1      18.918  54.755   2.496  1.00  0.00    +0.000 F 
ATOM     74  C53 UNL A   1      19.078  56.485   0.905  1.00  0.00    +0.000 C 
ATOM     75  F12 UNL A   1      20.324  56.752   1.320  1.00  0.00    +0.000 F 
ATOM     76  C54 UNL A   1      18.513  57.232  -0.117  1.00  0.00    +0.000 C 
ATOM     77  F13 UNL A   1      19.217  58.210  -0.703  1.00  0.00    +0.000 F 
ATOM     78  C55 UNL A   1      17.214  56.970  -0.526  1.00  0.00    +0.000 C 
ATOM     79  F14 UNL A   1      16.669  57.680  -1.524  1.00  0.00    +0.000 F 
ATOM     80  C56 UNL A   1      16.476  55.966   0.095  1.00  0.00    +0.000 C 
ATOM     81  F15 UNL A   1      15.220  55.737  -0.316  1.00  0.00    +0.000 F 
ENDBRANCH   70   71
TORSDOF 21
ENDMDL
MODEL 3
REMARK VINA RESULT:      -7.6     44.851     51.702
ROOT
ATOM    129  H37 UNL A   1      54.119  18.685   9.367  1.00  0.00    +0.000 H 
ATOM     34  C27 UNL A   1      53.153  20.010  11.707  1.00  0.00    +0.000 C 
ATOM     35  C28 UNL A   1      54.506  19.390  11.487  1.00  0.00    +0.000 C 
ATOM     36  N3  UNL A   1      55.531  19.334  12.303  1.00  0.00    +0.000 N 
ATOM     37  C29 UNL A   1      56.517  18.624  11.630  1.00  0.00    +0.000 C 
ATOM     38  C30 UNL A   1      57.770  18.318  12.045  1.00  0.00    +0.000 C 
ATOM     50  C37 UNL A   1      58.329  18.715  13.313  1.00  0.00    +0.000 C 
ATOM     51  C38 UNL A   1      59.607  18.498  13.799  1.00  0.00    +0.000 C 
ATOM     52  C39 UNL A   1      59.680  19.028  15.093  1.00  0.00    +0.000 C 
ATOM     53  C40 UNL A   1      58.461  19.613  15.395  1.00  0.00    +0.000 C 
ATOM     54  N4  UNL A   1      57.641  19.410  14.295  1.00  0.00    +0.000 N 
ATOM     55  C41 UNL A   1      58.071  20.305  16.597  1.00  0.00    +0.000 C 
ATOM     67  C48 UNL A   1      56.856  20.864  16.812  1.00  0.00    +0.000 C 
ATOM     68  N5  UNL A   1      55.753  20.903  15.971  1.00  0.00    +0.000 N 
ATOM     69  C49 UNL A   1      54.816  21.531  16.637  1.00  0.00    +0.000 C 
ATOM     70  C50 UNL A   1      53.419  21.877  16.208  1.00  0.00    +0.000 C 
ATOM     82  C57 UNL A   1      52.986  21.480  14.997  1.00  0.00    +0.000 C 
ATOM     83  C58 UNL A   1      51.663  21.751  14.448  1.00  0.00    +0.000 C 
ATOM     84  C59 UNL A   1      51.577  21.201  13.227  1.00  0.00    +0.000 C 
ATOM     85  C60 UNL A   1      52.860  20.583  12.890  1.00  0.00    +0.000 C 
ATOM     86  N6  UNL A   1      53.624  20.763  14.014  1.00  0.00    +0.000 N 
ATOM     87  C61 UNL A   1      55.214  21.951  17.987  1.00  0.00    +0.000 C 
ATOM     88  C62 UNL A   1      56.478  21.553  18.029  1.00  0.00    +0.000 C 
ATOM     89  C63 UNL A   1      55.965  18.253  10.344  1.00  0.00    +0.000 C 
ATOM     90  C64 UNL A   1      54.742  18.743  10.188  1.00  0.00    +0.000 C 
ATOM    120  H28 UNL A   1      60.373  18.027  13.295  1.00  0.00    +0.000 H 
ATOM    121  H29 UNL A   1      60.501  18.989  15.716  1.00  0.00    +0.000 H 
ATOM    122  H30 UNL A   1      56.707  19.715  14.224  1.00  0.00    +0.000 H 
ATOM    123  H31 UNL A   1      50.913  22.281  14.921  1.00  0.00    +0.000 H 
ATOM    124  H32 UNL A   1      50.741  21.212  12.624  1.00  0.00    +0.000 H 
ATOM    125  H33 UNL A   1      54.539  20.414  14.109  1.00  0.00    +0.000 H 
ATOM    126  H34 UNL A   1      54.656  22.429  18.712  1.00  0.00    +0.000 H 
ATOM    127  H35 UNL A   1      57.111  21.714  18.828  1.00  0.00    +0.000 H 
ATOM    128  H36 UNL A   1      56.458  17.681   9.642  1.00  0.00    +0.000 H 
ENDROOT
BRANCH   34   33
ATOM     33  C26 UNL A   1      52.138  20.044  10.622  1.00  0.00    +0.000 C 
ATOM    130  H38 UNL A   1      52.689  21.928   9.830  1.00  0.00    +0.000 H 
ATOM    131  H39 UNL A   1      50.919  21.992   8.167  1.00  0.00    +0.000 H 
ATOM    118  H26 UNL A   1      49.782  18.088   9.238  1.00  0.00    +0.000 H 
ATOM    119  H27 UNL A   1      51.360  18.130  11.074  1.00  0.00    +0.000 H 
ATOM     91  C65 UNL A   1      52.026  21.140   9.753  1.00  0.00    +0.000 C 
ATOM     92  C66 UNL A   1      51.022  21.169   8.781  1.00  0.00    +0.000 C 
ATOM     30  C23 UNL A   1      50.155  20.080   8.641  1.00  0.00    +0.000 C 
ATOM     31  C24 UNL A   1      50.341  18.936   9.420  1.00  0.00    +0.000 C 
ATOM     32  C25 UNL A   1      51.285  18.942  10.443  1.00  0.00    +0.000 C 
BRANCH   30    2
ATOM      1  O1  UNL A   1      48.216  21.073   7.773  1.00  0.00    +0.000 O 
ATOM      2  C1  UNL A   1      49.041  20.169   7.671  1.00  0.00    +0.000 C 
BRANCH    2    3
ATOM      3  N1  UNL A   1      48.911  19.220   6.685  1.00  0.00    +0.000 N 
ATOM     93  H1  UNL A   1      47.998  19.093   6.339  1.00  0.00    +0.000 H 
BRANCH    3    4
ATOM      4  C2  UNL A   1      49.928  18.374   6.080  1.00  0.00    +0.000 C 
ATOM     94  H2  UNL A   1      49.467  17.461   5.768  1.00  0.00    +0.000 H 
ATOM     95  H3  UNL A   1      50.685  18.212   6.818  1.00  0.00    +0.000 H 
BRANCH    4    5
ATOM     97  H5  UNL A   1      50.730  18.226   4.159  1.00  0.00    +0.000 H 
ATOM      5  C3  UNL A   1      50.601  19.013   4.873  1.00  0.00    +0.000 C 
ATOM     96  H4  UNL A   1      49.977  19.810   4.530  1.00  0.00    +0.000 H 
BRANCH    5    6
ATOM     98  H6  UNL A   1      51.901  20.640   5.250  1.00  0.00    +0.000 H 
ATOM     99  H7  UNL A   1      52.582  19.297   4.272  1.00  0.00    +0.000 H 
ATOM      6  C4  UNL A   1      51.997  19.583   5.121  1.00  0.00    +0.000 C 
BRANCH    6    7
ATOM    100  H8  UNL A   1      52.787  17.964   6.236  1.00  0.00    +0.000 H 
ATOM    101  H9  UNL A   1      52.185  19.362   7.191  1.00  0.00    +0.000 H 
ATOM      7  C5  UNL A   1      52.740  19.028   6.339  1.00  0.00    +0.000 C 
BRANCH    7    8
ATOM    102  H10 UNL A   1      54.255  19.858   7.570  1.00  0.00    +0.000 H 
ATOM    103  H11 UNL A   1      54.303  20.329   5.838  1.00  0.00    +0.000 H 
ATOM      8  C6  UNL A   1      54.168  19.542   6.551  1.00  0.00    +0.000 C 
BRANCH    8    9
ATOM      9  C7  UNL A   1      55.282  18.536   6.275  1.00  0.00    +0.000 C 
ATOM    105  H13 UNL A   1      56.158  19.085   6.001  1.00  0.00    +0.000 H 
ATOM    104  H12 UNL A   1      55.447  17.953   7.157  1.00  0.00    +0.000 H 
BRANCH    9   10
ATOM     10  N2  UNL A   1      54.957  17.643   5.181  1.00  0.00    +0.000 N 
ATOM    106  H14 UNL A   1      54.905  18.058   4.290  1.00  0.00    +0.000 H 
BRANCH   10   11
ATOM     11  C8  UNL A   1      54.712  16.294   5.228  1.00  0.00    +0.000 C 
ATOM     12  O2  UNL A   1      55.320  15.583   6.023  1.00  0.00    +0.000 O 
BRANCH   11   13
ATOM    107  H15 UNL A   1      52.199  16.050   5.898  1.00  0.00    +0.000 H 
ATOM     13  C9  UNL A   1      53.645  15.703   4.398  1.00  0.00    +0.000 C 
ATOM     14  C10 UNL A   1      52.358  15.667   4.954  1.00  0.00    +0.000 C 
ATOM     15  C11 UNL A   1      51.285  15.117   4.241  1.00  0.00    +0.000 C 
ATOM    115  H23 UNL A   1      50.758  14.205   2.412  1.00  0.00    +0.000 H 
ATOM    116  H24 UNL A   1      52.991  14.219   1.471  1.00  0.00    +0.000 H 
ATOM     26  C20 UNL A   1      51.537  14.601   2.960  1.00  0.00    +0.000 C 
ATOM     27  C21 UNL A   1      52.825  14.612   2.410  1.00  0.00    +0.000 C 
ATOM     28  C22 UNL A   1      53.882  15.155   3.136  1.00  0.00    +0.000 C 
BRANCH   15   16
ATOM    108  H16 UNL A   1      49.795  15.127   5.793  1.00  0.00    +0.000 H 
ATOM     16  C12 UNL A   1      49.909  15.044   4.771  1.00  0.00    +0.000 C 
BRANCH   16   17
ATOM     17  C13 UNL A   1      48.792  14.877   4.043  1.00  0.00    +0.000 C 
ATOM    109  H17 UNL A   1      48.853  14.334   3.168  1.00  0.00    +0.000 H 
BRANCH   17   18
ATOM    110  H18 UNL A   1      46.601  13.597   5.007  1.00  0.00    +0.000 H 
ATOM    112  H20 UNL A   1      44.157  16.975   5.550  1.00  0.00    +0.000 H 
ATOM     18  C14 UNL A   1      47.487  15.432   4.432  1.00  0.00    +0.000 C 
ATOM     19  C15 UNL A   1      46.463  14.617   4.935  1.00  0.00    +0.000 C 
ATOM    114  H22 UNL A   1      48.044  17.432   4.014  1.00  0.00    +0.000 H 
ATOM     20  C16 UNL A   1      45.257  15.189   5.338  1.00  0.00    +0.000 C 
ATOM     22  C17 UNL A   1      45.055  16.560   5.256  1.00  0.00    +0.000 C 
ATOM     23  C18 UNL A   1      46.076  17.368   4.772  1.00  0.00    +0.000 C 
ATOM     25  C19 UNL A   1      47.291  16.819   4.364  1.00  0.00    +0.000 C 
BRANCH   20   21
ATOM     21  O3  UNL A   1      44.243  14.424   5.836  1.00  0.00    +0.000 O 
ATOM    111  H19 UNL A   1      44.136  13.540   5.546  1.00  0.00    +0.000 H 
ENDBRANCH   20   21
BRANCH   23   24
ATOM    113  H21 UNL A   1      45.103  19.043   4.256  1.00  0.00    +0.000 H 
ATOM     24  O4  UNL A   1      45.852  18.712   4.714  1.00  0.00    +0.000 O 
ENDBRANCH   23   24
ENDBRANCH   17   18
ENDBRANCH   16   17
ENDBRANCH   15   16
BRANCH   28   29
ATOM    117  H25 UNL A   1      55.564  14.335   2.412  1.00  0.00    +0.000 H 
ATOM     29  O5  UNL A   1      55.141  15.148   2.605  1.00  0.00    +0.000 O 
ENDBRANCH   28   29
ENDBRANCH   11   13
ENDBRANCH   10   11
ENDBRANCH    9   10
ENDBRANCH    8    9
ENDBRANCH    7    8
ENDBRANCH    6    7
ENDBRANCH    5    6
ENDBRANCH    4    5
ENDBRANCH    3    4
ENDBRANCH    2    3
ENDBRANCH   30    2
ENDBRANCH   34   33
BRANCH   38   39
ATOM     39  C31 UNL A   1      58.628  17.498  11.125  1.00  0.00    +0.000 C 
ATOM     40  C32 UNL A   1      58.623  16.096  11.163  1.00  0.00    +0.000 C 
ATOM     41  F1  UNL A   1      57.883  15.448  12.076  1.00  0.00    +0.000 F 
ATOM     42  C33 UNL A   1      59.406  15.353  10.283  1.00  0.00    +0.000 C 
ATOM     43  F2  UNL A   1      59.415  14.015  10.363  1.00  0.00    +0.000 F 
ATOM     44  C34 UNL A   1      60.182  15.993   9.328  1.00  0.00    +0.000 C 
ATOM     45  F3  UNL A   1      60.928  15.276   8.477  1.00  0.00    +0.000 F 
ATOM     46  C35 UNL A   1      60.190  17.378   9.262  1.00  0.00    +0.000 C 
ATOM     47  F4  UNL A   1      60.931  17.999   8.333  1.00  0.00    +0.000 F 
ATOM     48  C36 UNL A   1      59.428  18.125  10.158  1.00  0.00    +0.000 C 
ATOM     49  F5  UNL A   1      59.463  19.463  10.073  1.00  0.00    +0.000 F 
ENDBRANCH   38   39
BRANCH   55   56
ATOM     65  C47 UNL A   1      59.796  21.645  17.852  1.00  0.00    +0.000 C 
ATOM     66  F10 UNL A   1      59.562  22.684  17.036  1.00  0.00    +0.000 F 
ATOM     56  C42 UNL A   1      59.088  20.444  17.691  1.00  0.00    +0.000 C 
ATOM     57  C43 UNL A   1      59.372  19.388  18.567  1.00  0.00    +0.000 C 
ATOM     58  F6  UNL A   1      58.709  18.227  18.462  1.00  0.00    +0.000 F 
ATOM     59  C44 UNL A   1      60.310  19.537  19.586  1.00  0.00    +0.000 C 
ATOM     60  F7  UNL A   1      60.530  18.532  20.443  1.00  0.00    +0.000 F 
ATOM     61  C45 UNL A   1      61.002  20.732  19.725  1.00  0.00    +0.000 C 
ATOM     62  F8  UNL A   1      61.903  20.874  20.707  1.00  0.00    +0.000 F 
ATOM     63  C46 UNL A   1      60.751  21.782  18.855  1.00  0.00    +0.000 C 
ATOM     64  F9  UNL A   1      61.426  22.933  18.984  1.00  0.00    +0.000 F 
ENDBRANCH   55   56
BRANCH   70   71
ATOM     71  C51 UNL A   1      52.519  22.662  17.091  1.00  0.00    +0.000 C 
ATOM     72  C52 UNL A   1      52.453  24.057  16.992  1.00  0.00    +0.000 C 
ATOM     73  F11 UNL A   1      53.234  24.704  16.113  1.00  0.00    +0.000 F 
ATOM     74  C53 UNL A   1      51.607  24.797  17.814  1.00  0.00    +0.000 C 
ATOM     75  F12 UNL A   1      51.588  26.134  17.724  1.00  0.00    +0.000 F 
ATOM     76  C54 UNL A   1      50.792  24.153  18.733  1.00  0.00    +0.000 C 
ATOM     77  F13 UNL A   1      49.972  24.863  19.518  1.00  0.00    +0.000 F 
ATOM     78  C55 UNL A   1      50.834  22.770  18.841  1.00  0.00    +0.000 C 
ATOM     79  F14 UNL A   1      50.036  22.142  19.717  1.00  0.00    +0.000 F 
ATOM     80  C56 UNL A   1      51.699  22.033  18.038  1.00  0.00    +0.000 C 
ATOM     81  F15 UNL A   1      51.724  20.698  18.168  1.00  0.00    +0.000 F 
ENDBRANCH   70   71
TORSDOF 21
ENDMDL
MODEL 4
REMARK VINA RESULT:      -7.6     44.257     47.056
ROOT
ATOM    129  H37 UNL A   1      11.822  52.710   7.314  1.00  0.00    +0.000 H 
ATOM     34  C27 UNL A   1      13.645  53.925   5.480  1.00  0.00    +0.000 C 
ATOM     35  C28 UNL A   1      13.132  52.512   5.473  1.00  0.00    +0.000 C 
ATOM     36  N3  UNL A   1      13.391  51.542   4.629  1.00  0.00    +0.000 N 
ATOM     37  C29 UNL A   1      12.694  50.434   5.092  1.00  0.00    +0.000 C 
ATOM     38  C30 UNL A   1      12.625  49.193   4.552  1.00  0.00    +0.000 C 
ATOM     50  C37 UNL A   1      13.279  48.798   3.330  1.00  0.00    +0.000 C 
ATOM     51  C38 UNL A   1      13.223  47.579   2.676  1.00  0.00    +0.000 C 
ATOM     52  C39 UNL A   1      14.053  47.646   1.551  1.00  0.00    +0.000 C 
ATOM     53  C40 UNL A   1      14.591  48.921   1.480  1.00  0.00    +0.000 C 
ATOM     54  N4  UNL A   1      14.111  49.616   2.580  1.00  0.00    +0.000 N 
ATOM     55  C41 UNL A   1      15.478  49.467   0.485  1.00  0.00    +0.000 C 
ATOM     67  C48 UNL A   1      15.953  50.736   0.480  1.00  0.00    +0.000 C 
ATOM     68  N5  UNL A   1      15.712  51.761   1.383  1.00  0.00    +0.000 N 
ATOM     69  C49 UNL A   1      16.414  52.783   0.961  1.00  0.00    +0.000 C 
ATOM     70  C50 UNL A   1      16.518  54.164   1.542  1.00  0.00    +0.000 C 
ATOM     82  C57 UNL A   1      15.857  54.451   2.678  1.00  0.00    +0.000 C 
ATOM     83  C58 UNL A   1      15.859  55.747   3.348  1.00  0.00    +0.000 C 
ATOM     84  C59 UNL A   1      15.103  55.668   4.453  1.00  0.00    +0.000 C 
ATOM     85  C60 UNL A   1      14.522  54.328   4.540  1.00  0.00    +0.000 C 
ATOM     86  N6  UNL A   1      15.055  53.662   3.466  1.00  0.00    +0.000 N 
ATOM     87  C61 UNL A   1      17.195  52.518  -0.253  1.00  0.00    +0.000 C 
ATOM     88  C62 UNL A   1      16.849  51.268  -0.527  1.00  0.00    +0.000 C 
ATOM     89  C63 UNL A   1      12.012  50.842   6.302  1.00  0.00    +0.000 C 
ATOM     90  C64 UNL A   1      12.213  52.128   6.555  1.00  0.00    +0.000 C 
ATOM    120  H28 UNL A   1      12.666  46.761   2.969  1.00  0.00    +0.000 H 
ATOM    121  H29 UNL A   1      14.234  46.878   0.887  1.00  0.00    +0.000 H 
ATOM    122  H30 UNL A   1      14.329  50.551   2.796  1.00  0.00    +0.000 H 
ATOM    123  H31 UNL A   1      16.361  56.589   3.024  1.00  0.00    +0.000 H 
ATOM    124  H32 UNL A   1      14.955  56.429   5.133  1.00  0.00    +0.000 H 
ATOM    125  H33 UNL A   1      14.881  52.712   3.277  1.00  0.00    +0.000 H 
ATOM    126  H34 UNL A   1      17.843  53.142  -0.761  1.00  0.00    +0.000 H 
ATOM    127  H35 UNL A   1      17.177  50.741  -1.352  1.00  0.00    +0.000 H 
ATOM    128  H36 UNL A   1      11.446  50.213   6.892  1.00  0.00    +0.000 H 
ENDROOT
BRANCH   34   33
ATOM     33  C26 UNL A   1      13.168  54.912   6.484  1.00  0.00    +0.000 C 
ATOM    130  H38 UNL A   1      14.634  54.497   7.953  1.00  0.00    +0.000 H 
ATOM    131  H39 UNL A   1      13.723  56.024   9.608  1.00  0.00    +0.000 H 
ATOM    118  H26 UNL A   1      10.886  57.358   6.806  1.00  0.00    +0.000 H 
ATOM    119  H27 UNL A   1      11.613  55.648   5.253  1.00  0.00    +0.000 H 
ATOM     91  C65 UNL A   1      13.793  55.054   7.732  1.00  0.00    +0.000 C 
ATOM     92  C66 UNL A   1      13.283  55.948   8.678  1.00  0.00    +0.000 C 
ATOM     30  C23 UNL A   1      12.174  56.739   8.362  1.00  0.00    +0.000 C 
ATOM     31  C24 UNL A   1      11.625  56.691   7.079  1.00  0.00    +0.000 C 
ATOM     32  C25 UNL A   1      12.079  55.742   6.169  1.00  0.00    +0.000 C 
BRANCH   30    2
ATOM      1  O1  UNL A   1      11.768  58.824   9.355  1.00  0.00    +0.000 O 
ATOM      2  C1  UNL A   1      11.592  57.611   9.408  1.00  0.00    +0.000 C 
BRANCH    2    3
ATOM      3  N1  UNL A   1      10.893  57.056  10.453  1.00  0.00    +0.000 N 
ATOM     93  H1  UNL A   1      11.026  56.089  10.584  1.00  0.00    +0.000 H 
BRANCH    3    4
ATOM      4  C2  UNL A   1       9.984  57.691  11.394  1.00  0.00    +0.000 C 
ATOM     94  H2  UNL A   1       9.194  57.005  11.617  1.00  0.00    +0.000 H 
ATOM     95  H3  UNL A   1       9.622  58.585  10.930  1.00  0.00    +0.000 H 
BRANCH    4    5
ATOM     97  H5  UNL A   1      11.704  58.126  12.491  1.00  0.00    +0.000 H 
ATOM      5  C3  UNL A   1      10.655  58.098  12.699  1.00  0.00    +0.000 C 
ATOM     96  H4  UNL A   1      10.248  59.039  13.000  1.00  0.00    +0.000 H 
BRANCH    5    6
ATOM     98  H6  UNL A   1       9.531  56.648  13.755  1.00  0.00    +0.000 H 
ATOM     99  H7  UNL A   1      10.588  57.705  14.750  1.00  0.00    +0.000 H 
ATOM      6  C4  UNL A   1      10.486  57.120  13.860  1.00  0.00    +0.000 C 
BRANCH    6    7
ATOM    100  H8  UNL A   1      11.649  55.767  15.002  1.00  0.00    +0.000 H 
ATOM    101  H9  UNL A   1      12.428  56.423  13.522  1.00  0.00    +0.000 H 
ATOM      7  C5  UNL A   1      11.544  56.018  13.967  1.00  0.00    +0.000 C 
BRANCH    7    8
ATOM    102  H10 UNL A   1      10.426  54.910  12.544  1.00  0.00    +0.000 H 
ATOM    103  H11 UNL A   1      11.058  53.981  13.944  1.00  0.00    +0.000 H 
ATOM      8  C6  UNL A   1      11.252  54.725  13.199  1.00  0.00    +0.000 C 
BRANCH    8    9
ATOM      9  C7  UNL A   1      12.404  54.180  12.359  1.00  0.00    +0.000 C 
ATOM    105  H13 UNL A   1      12.490  54.791  11.485  1.00  0.00    +0.000 H 
ATOM    104  H12 UNL A   1      13.300  54.206  12.943  1.00  0.00    +0.000 H 
BRANCH    9   10
ATOM     10  N2  UNL A   1      12.171  52.817  11.925  1.00  0.00    +0.000 N 
ATOM    106  H14 UNL A   1      11.377  52.676  11.360  1.00  0.00    +0.000 H 
BRANCH   10   11
ATOM     11  C8  UNL A   1      12.914  51.697  12.202  1.00  0.00    +0.000 C 
ATOM     12  O2  UNL A   1      12.465  50.824  12.939  1.00  0.00    +0.000 O 
BRANCH   11   13
ATOM    107  H15 UNL A   1      13.269  50.852   9.756  1.00  0.00    +0.000 H 
ATOM     13  C9  UNL A   1      14.213  51.486  11.535  1.00  0.00    +0.000 C 
ATOM     14  C10 UNL A   1      14.178  51.021  10.212  1.00  0.00    +0.000 C 
ATOM     15  C11 UNL A   1      15.362  50.784   9.504  1.00  0.00    +0.000 C 
ATOM    115  H23 UNL A   1      17.467  50.866   9.649  1.00  0.00    +0.000 H 
ATOM    116  H24 UNL A   1      17.531  51.617  11.953  1.00  0.00    +0.000 H 
ATOM     26  C20 UNL A   1      16.582  51.020  10.158  1.00  0.00    +0.000 C 
ATOM     27  C21 UNL A   1      16.623  51.460  11.487  1.00  0.00    +0.000 C 
ATOM     28  C22 UNL A   1      15.437  51.682  12.180  1.00  0.00    +0.000 C 
BRANCH   15   16
ATOM    108  H16 UNL A   1      14.860  49.431   7.909  1.00  0.00    +0.000 H 
ATOM     16  C12 UNL A   1      15.394  50.291   8.113  1.00  0.00    +0.000 C 
BRANCH   16   17
ATOM     17  C13 UNL A   1      16.054  50.858   7.091  1.00  0.00    +0.000 C 
ATOM    109  H17 UNL A   1      16.286  51.861   7.152  1.00  0.00    +0.000 H 
BRANCH   17   18
ATOM    110  H18 UNL A   1      17.577  51.686   5.001  1.00  0.00    +0.000 H 
ATOM    112  H20 UNL A   1      17.596  48.079   2.841  1.00  0.00    +0.000 H 
ATOM     18  C14 UNL A   1      16.463  50.118   5.887  1.00  0.00    +0.000 C 
ATOM     19  C15 UNL A   1      17.278  50.703   4.907  1.00  0.00    +0.000 C 
ATOM    114  H22 UNL A   1      15.502  48.327   6.478  1.00  0.00    +0.000 H 
ATOM     20  C16 UNL A   1      17.684  49.953   3.805  1.00  0.00    +0.000 C 
ATOM     22  C17 UNL A   1      17.297  48.626   3.663  1.00  0.00    +0.000 C 
ATOM     23  C18 UNL A   1      16.503  48.044   4.643  1.00  0.00    +0.000 C 
ATOM     25  C19 UNL A   1      16.086  48.774   5.755  1.00  0.00    +0.000 C 
BRANCH   20   21
ATOM     21  O3  UNL A   1      18.480  50.491   2.836  1.00  0.00    +0.000 O 
ATOM    111  H19 UNL A   1      18.967  51.272   3.010  1.00  0.00    +0.000 H 
ENDBRANCH   20   21
BRANCH   23   24
ATOM    113  H21 UNL A   1      15.586  46.487   3.774  1.00  0.00    +0.000 H 
ATOM     24  O4  UNL A   1      16.149  46.736   4.481  1.00  0.00    +0.000 O 
ENDBRANCH   23   24
ENDBRANCH   17   18
ENDBRANCH   16   17
ENDBRANCH   15   16
BRANCH   28   29
ATOM    117  H25 UNL A   1      14.715  52.027  14.020  1.00  0.00    +0.000 H 
ATOM     29  O5  UNL A   1      15.479  52.094  13.481  1.00  0.00    +0.000 O 
ENDBRANCH   28   29
ENDBRANCH   11   13
ENDBRANCH   10   11
ENDBRANCH    9   10
ENDBRANCH    8    9
ENDBRANCH    7    8
ENDBRANCH    6    7
ENDBRANCH    5    6
ENDBRANCH    4    5
ENDBRANCH    3    4
ENDBRANCH    2    3
ENDBRANCH   30    2
ENDBRANCH   34   33
BRANCH   38   39
ATOM     39  C31 UNL A   1      11.821  48.159   5.285  1.00  0.00    +0.000 C 
ATOM     40  C32 UNL A   1      12.382  47.369   6.299  1.00  0.00    +0.000 C 
ATOM     41  F1  UNL A   1      13.684  47.483   6.602  1.00  0.00    +0.000 F 
ATOM     42  C33 UNL A   1      11.612  46.433   6.987  1.00  0.00    +0.000 C 
ATOM     43  F2  UNL A   1      12.179  45.662   7.925  1.00  0.00    +0.000 F 
ATOM     44  C34 UNL A   1      10.263  46.290   6.697  1.00  0.00    +0.000 C 
ATOM     45  F3  UNL A   1       9.523  45.395   7.365  1.00  0.00    +0.000 F 
ATOM     46  C35 UNL A   1       9.684  47.072   5.709  1.00  0.00    +0.000 C 
ATOM     47  F4  UNL A   1       8.378  46.945   5.436  1.00  0.00    +0.000 F 
ATOM     48  C36 UNL A   1      10.457  47.991   5.003  1.00  0.00    +0.000 C 
ATOM     49  F5  UNL A   1       9.869  48.727   4.048  1.00  0.00    +0.000 F 
ENDBRANCH   38   39
BRANCH   55   56
ATOM     65  C47 UNL A   1      15.031  48.361  -1.734  1.00  0.00    +0.000 C 
ATOM     66  F10 UNL A   1      13.829  48.953  -1.771  1.00  0.00    +0.000 F 
ATOM     56  C42 UNL A   1      15.895  48.579  -0.650  1.00  0.00    +0.000 C 
ATOM     57  C43 UNL A   1      17.139  47.933  -0.657  1.00  0.00    +0.000 C 
ATOM     58  F6  UNL A   1      18.005  48.125   0.349  1.00  0.00    +0.000 F 
ATOM     59  C44 UNL A   1      17.517  47.122  -1.724  1.00  0.00    +0.000 C 
ATOM     60  F7  UNL A   1      18.730  46.555  -1.735  1.00  0.00    +0.000 F 
ATOM     61  C45 UNL A   1      16.646  46.917  -2.784  1.00  0.00    +0.000 C 
ATOM     62  F8  UNL A   1      17.012  46.137  -3.812  1.00  0.00    +0.000 F 
ATOM     63  C46 UNL A   1      15.402  47.528  -2.786  1.00  0.00    +0.000 C 
ATOM     64  F9  UNL A   1      14.557  47.323  -3.806  1.00  0.00    +0.000 F 
ENDBRANCH   55   56
BRANCH   70   71
ATOM     71  C51 UNL A   1      17.322  55.218   0.872  1.00  0.00    +0.000 C 
ATOM     72  C52 UNL A   1      16.798  55.947  -0.203  1.00  0.00    +0.000 C 
ATOM     73  F11 UNL A   1      15.567  55.675  -0.661  1.00  0.00    +0.000 F 
ATOM     74  C53 UNL A   1      17.548  56.939  -0.830  1.00  0.00    +0.000 C 
ATOM     75  F12 UNL A   1      17.037  57.599  -1.880  1.00  0.00    +0.000 F 
ATOM     76  C54 UNL A   1      18.824  57.238  -0.378  1.00  0.00    +0.000 C 
ATOM     77  F13 UNL A   1      19.541  58.199  -0.976  1.00  0.00    +0.000 F 
ATOM     78  C55 UNL A   1      19.359  56.535   0.691  1.00  0.00    +0.000 C 
ATOM     79  F14 UNL A   1      20.586  56.832   1.142  1.00  0.00    +0.000 F 
ATOM     80  C56 UNL A   1      18.621  55.525   1.301  1.00  0.00    +0.000 C 
ATOM     81  F15 UNL A   1      19.164  54.857   2.330  1.00  0.00    +0.000 F 
ENDBRANCH   70   71
TORSDOF 21
ENDMDL
MODEL 5
REMARK VINA RESULT:      -7.5      0.698      1.993
ROOT
ATOM    129  H37 UNL A   1      27.267  37.018  45.623  1.00  0.00    +0.000 H 
ATOM     34  C27 UNL A   1      26.015  39.353  46.690  1.00  0.00    +0.000 C 
ATOM     35  C28 UNL A   1      25.424  37.980  46.528  1.00  0.00    +0.000 C 
ATOM     36  N3  UNL A   1      24.226  37.553  46.846  1.00  0.00    +0.000 N 
ATOM     37  C29 UNL A   1      24.178  36.221  46.457  1.00  0.00    +0.000 C 
ATOM     38  C30 UNL A   1      23.160  35.337  46.592  1.00  0.00    +0.000 C 
ATOM     50  C37 UNL A   1      21.896  35.639  47.214  1.00  0.00    +0.000 C 
ATOM     51  C38 UNL A   1      20.824  34.794  47.446  1.00  0.00    +0.000 C 
ATOM     52  C39 UNL A   1      19.798  35.539  48.038  1.00  0.00    +0.000 C 
ATOM     53  C40 UNL A   1      20.247  36.837  48.217  1.00  0.00    +0.000 C 
ATOM     54  N4  UNL A   1      21.534  36.885  47.703  1.00  0.00    +0.000 N 
ATOM     55  C41 UNL A   1      19.555  37.952  48.810  1.00  0.00    +0.000 C 
ATOM     67  C48 UNL A   1      20.071  39.196  48.960  1.00  0.00    +0.000 C 
ATOM     68  N5  UNL A   1      21.324  39.670  48.598  1.00  0.00    +0.000 N 
ATOM     69  C49 UNL A   1      21.337  40.937  48.926  1.00  0.00    +0.000 C 
ATOM     70  C50 UNL A   1      22.444  41.942  48.781  1.00  0.00    +0.000 C 
ATOM     82  C57 UNL A   1      23.600  41.567  48.203  1.00  0.00    +0.000 C 
ATOM     83  C58 UNL A   1      24.760  42.430  48.005  1.00  0.00    +0.000 C 
ATOM     84  C59 UNL A   1      25.725  41.728  47.392  1.00  0.00    +0.000 C 
ATOM     85  C60 UNL A   1      25.268  40.351  47.201  1.00  0.00    +0.000 C 
ATOM     86  N6  UNL A   1      23.982  40.357  47.677  1.00  0.00    +0.000 N 
ATOM     87  C61 UNL A   1      20.085  41.419  49.522  1.00  0.00    +0.000 C 
ATOM     88  C62 UNL A   1      19.360  40.309  49.555  1.00  0.00    +0.000 C 
ATOM     89  C63 UNL A   1      25.460  35.911  45.860  1.00  0.00    +0.000 C 
ATOM     90  C64 UNL A   1      26.281  36.950  45.922  1.00  0.00    +0.000 C 
ATOM    120  H28 UNL A   1      20.787  33.788  47.219  1.00  0.00    +0.000 H 
ATOM    121  H29 UNL A   1      18.865  35.182  48.299  1.00  0.00    +0.000 H 
ATOM    122  H30 UNL A   1      22.106  37.686  47.688  1.00  0.00    +0.000 H 
ATOM    123  H31 UNL A   1      24.826  43.419  48.290  1.00  0.00    +0.000 H 
ATOM    124  H32 UNL A   1      26.642  42.100  47.102  1.00  0.00    +0.000 H 
ATOM    125  H33 UNL A   1      23.390  39.571  47.646  1.00  0.00    +0.000 H 
ATOM    126  H34 UNL A   1      19.835  42.371  49.834  1.00  0.00    +0.000 H 
ATOM    127  H35 UNL A   1      18.410  40.247  49.953  1.00  0.00    +0.000 H 
ATOM    128  H36 UNL A   1      25.702  35.000  45.440  1.00  0.00    +0.000 H 
ENDROOT
BRANCH   34   33
ATOM     33  C26 UNL A   1      27.433  39.627  46.339  1.00  0.00    +0.000 C 
ATOM    130  H38 UNL A   1      28.250  39.166  48.236  1.00  0.00    +0.000 H 
ATOM    131  H39 UNL A   1      30.528  39.763  47.645  1.00  0.00    +0.000 H 
ATOM    118  H26 UNL A   1      29.318  40.417  43.672  1.00  0.00    +0.000 H 
ATOM    119  H27 UNL A   1      27.007  40.091  44.320  1.00  0.00    +0.000 H 
ATOM     91  C65 UNL A   1      28.463  39.500  47.283  1.00  0.00    +0.000 C 
ATOM     92  C66 UNL A   1      29.779  39.823  46.938  1.00  0.00    +0.000 C 
ATOM     30  C23 UNL A   1      30.078  40.227  45.633  1.00  0.00    +0.000 C 
ATOM     31  C24 UNL A   1      29.078  40.235  44.659  1.00  0.00    +0.000 C 
ATOM     32  C25 UNL A   1      27.757  39.997  45.023  1.00  0.00    +0.000 C 
BRANCH   30    2
ATOM      1  O1  UNL A   1      31.922  41.661  45.841  1.00  0.00    +0.000 O 
ATOM      2  C1  UNL A   1      31.459  40.654  45.313  1.00  0.00    +0.000 C 
BRANCH    2    3
ATOM      3  N1  UNL A   1      32.202  39.946  44.399  1.00  0.00    +0.000 N 
ATOM     93  H1  UNL A   1      32.803  40.486  43.835  1.00  0.00    +0.000 H 
BRANCH    3    4
ATOM      4  C2  UNL A   1      32.228  38.515  44.142  1.00  0.00    +0.000 C 
ATOM     94  H2  UNL A   1      31.769  38.015  44.969  1.00  0.00    +0.000 H 
ATOM     95  H3  UNL A   1      33.253  38.234  44.019  1.00  0.00    +0.000 H 
BRANCH    4    5
ATOM     97  H5  UNL A   1      30.669  38.795  42.784  1.00  0.00    +0.000 H 
ATOM      5  C3  UNL A   1      31.493  38.118  42.869  1.00  0.00    +0.000 C 
ATOM     96  H4  UNL A   1      32.186  38.176  42.056  1.00  0.00    +0.000 H 
BRANCH    5    6
ATOM     98  H6  UNL A   1      31.609  36.044  43.276  1.00  0.00    +0.000 H 
ATOM     99  H7  UNL A   1      30.625  36.514  41.850  1.00  0.00    +0.000 H 
ATOM      6  C4  UNL A   1      30.885  36.717  42.868  1.00  0.00    +0.000 C 
BRANCH    6    7
ATOM    100  H8  UNL A   1      29.033  37.460  43.581  1.00  0.00    +0.000 H 
ATOM    101  H9  UNL A   1      29.894  36.312  44.663  1.00  0.00    +0.000 H 
ATOM      7  C5  UNL A   1      29.589  36.549  43.665  1.00  0.00    +0.000 C 
BRANCH    7    8
ATOM    102  H10 UNL A   1      29.014  35.049  42.280  1.00  0.00    +0.000 H 
ATOM    103  H11 UNL A   1      27.683  35.807  43.216  1.00  0.00    +0.000 H 
ATOM      8  C6  UNL A   1      28.672  35.400  43.232  1.00  0.00    +0.000 C 
BRANCH    8    9
ATOM      9  C7  UNL A   1      28.614  34.206  44.180  1.00  0.00    +0.000 C 
ATOM    105  H13 UNL A   1      28.257  34.555  45.126  1.00  0.00    +0.000 H 
ATOM    104  H12 UNL A   1      27.960  33.468  43.765  1.00  0.00    +0.000 H 
BRANCH    9   10
ATOM     10  N2  UNL A   1      29.917  33.608  44.391  1.00  0.00    +0.000 N 
ATOM    106  H14 UNL A   1      30.352  33.234  43.591  1.00  0.00    +0.000 H 
BRANCH   10   11
ATOM     11  C8  UNL A   1      30.622  33.495  45.563  1.00  0.00    +0.000 C 
ATOM     12  O2  UNL A   1      31.207  32.451  45.834  1.00  0.00    +0.000 O 
BRANCH   11   13
ATOM    107  H15 UNL A   1      28.883  34.297  47.339  1.00  0.00    +0.000 H 
ATOM     13  C9  UNL A   1      30.767  34.660  46.457  1.00  0.00    +0.000 C 
ATOM     14  C10 UNL A   1      29.707  34.917  47.338  1.00  0.00    +0.000 C 
ATOM     15  C11 UNL A   1      29.754  36.006  48.217  1.00  0.00    +0.000 C 
ATOM    115  H23 UNL A   1      30.950  37.632  48.835  1.00  0.00    +0.000 H 
ATOM    116  H24 UNL A   1      32.759  37.221  47.276  1.00  0.00    +0.000 H 
ATOM     26  C20 UNL A   1      30.889  36.833  48.185  1.00  0.00    +0.000 C 
ATOM     27  C21 UNL A   1      31.939  36.595  47.290  1.00  0.00    +0.000 C 
ATOM     28  C22 UNL A   1      31.872  35.513  46.417  1.00  0.00    +0.000 C 
BRANCH   15   16
ATOM    108  H16 UNL A   1      28.850  37.098  49.835  1.00  0.00    +0.000 H 
ATOM     16  C12 UNL A   1      28.671  36.334  49.165  1.00  0.00    +0.000 C 
BRANCH   16   17
ATOM     17  C13 UNL A   1      27.474  35.729  49.234  1.00  0.00    +0.000 C 
ATOM    109  H17 UNL A   1      27.397  34.755  48.902  1.00  0.00    +0.000 H 
BRANCH   17   18
ATOM    110  H18 UNL A   1      27.097  38.327  49.925  1.00  0.00    +0.000 H 
ATOM    112  H20 UNL A   1      23.042  38.050  51.002  1.00  0.00    +0.000 H 
ATOM     18  C14 UNL A   1      26.268  36.386  49.760  1.00  0.00    +0.000 C 
ATOM     19  C15 UNL A   1      26.245  37.758  50.047  1.00  0.00    +0.000 C 
ATOM    114  H22 UNL A   1      25.093  34.626  49.683  1.00  0.00    +0.000 H 
ATOM     20  C16 UNL A   1      25.067  38.352  50.497  1.00  0.00    +0.000 C 
ATOM     22  C17 UNL A   1      23.908  37.604  50.661  1.00  0.00    +0.000 C 
ATOM     23  C18 UNL A   1      23.929  36.248  50.362  1.00  0.00    +0.000 C 
ATOM     25  C19 UNL A   1      25.094  35.632  49.909  1.00  0.00    +0.000 C 
BRANCH   20   21
ATOM     21  O3  UNL A   1      25.011  39.685  50.781  1.00  0.00    +0.000 O 
ATOM    111  H19 UNL A   1      25.423  40.304  50.212  1.00  0.00    +0.000 H 
ENDBRANCH   20   21
BRANCH   23   24
ATOM    113  H21 UNL A   1      22.146  35.505  49.826  1.00  0.00    +0.000 H 
ATOM     24  O4  UNL A   1      22.772  35.543  50.523  1.00  0.00    +0.000 O 
ENDBRANCH   23   24
ENDBRANCH   17   18
ENDBRANCH   16   17
ENDBRANCH   15   16
BRANCH   28   29
ATOM    117  H25 UNL A   1      33.658  35.828  45.559  1.00  0.00    +0.000 H 
ATOM     29  O5  UNL A   1      32.889  35.294  45.532  1.00  0.00    +0.000 O 
ENDBRANCH   28   29
ENDBRANCH   11   13
ENDBRANCH   10   11
ENDBRANCH    9   10
ENDBRANCH    8    9
ENDBRANCH    7    8
ENDBRANCH    6    7
ENDBRANCH    5    6
ENDBRANCH    4    5
ENDBRANCH    3    4
ENDBRANCH    2    3
ENDBRANCH   30    2
ENDBRANCH   34   33
BRANCH   38   39
ATOM     39  C31 UNL A   1      23.360  33.954  46.043  1.00  0.00    +0.000 C 
ATOM     40  C32 UNL A   1      24.065  32.972  46.752  1.00  0.00    +0.000 C 
ATOM     41  F1  UNL A   1      24.634  33.268  47.931  1.00  0.00    +0.000 F 
ATOM     42  C33 UNL A   1      24.218  31.686  46.238  1.00  0.00    +0.000 C 
ATOM     43  F2  UNL A   1      24.929  30.775  46.916  1.00  0.00    +0.000 F 
ATOM     44  C34 UNL A   1      23.642  31.349  45.021  1.00  0.00    +0.000 C 
ATOM     45  F3  UNL A   1      23.783  30.110  44.532  1.00  0.00    +0.000 F 
ATOM     46  C35 UNL A   1      22.927  32.300  44.310  1.00  0.00    +0.000 C 
ATOM     47  F4  UNL A   1      22.360  31.973  43.140  1.00  0.00    +0.000 F 
ATOM     48  C36 UNL A   1      22.794  33.594  44.810  1.00  0.00    +0.000 C 
ATOM     49  F5  UNL A   1      22.103  34.493  44.094  1.00  0.00    +0.000 F 
ENDBRANCH   38   39
BRANCH   55   56
ATOM     65  C47 UNL A   1      17.909  37.744  50.706  1.00  0.00    +0.000 C 
ATOM     66  F10 UNL A   1      18.904  37.977  51.576  1.00  0.00    +0.000 F 
ATOM     56  C42 UNL A   1      18.165  37.726  49.327  1.00  0.00    +0.000 C 
ATOM     57  C43 UNL A   1      17.092  37.474  48.461  1.00  0.00    +0.000 C 
ATOM     58  F6  UNL A   1      17.285  37.464  47.133  1.00  0.00    +0.000 F 
ATOM     59  C44 UNL A   1      15.805  37.279  48.955  1.00  0.00    +0.000 C 
ATOM     60  F7  UNL A   1      14.786  37.090  48.107  1.00  0.00    +0.000 F 
ATOM     61  C45 UNL A   1      15.575  37.297  50.323  1.00  0.00    +0.000 C 
ATOM     62  F8  UNL A   1      14.335  37.110  50.798  1.00  0.00    +0.000 F 
ATOM     63  C46 UNL A   1      16.627  37.522  51.198  1.00  0.00    +0.000 C 
ATOM     64  F9  UNL A   1      16.407  37.531  52.521  1.00  0.00    +0.000 F 
ENDBRANCH   55   56
BRANCH   70   71
ATOM     71  C51 UNL A   1      22.288  43.331  49.282  1.00  0.00    +0.000 C 
ATOM     72  C52 UNL A   1      22.629  43.663  50.599  1.00  0.00    +0.000 C 
ATOM     73  F11 UNL A   1      23.072  42.713  51.436  1.00  0.00    +0.000 F 
ATOM     74  C53 UNL A   1      22.489  44.966  51.071  1.00  0.00    +0.000 C 
ATOM     75  F12 UNL A   1      22.789  45.251  52.346  1.00  0.00    +0.000 F 
ATOM     76  C54 UNL A   1      22.030  45.966  50.227  1.00  0.00    +0.000 C 
ATOM     77  F13 UNL A   1      21.904  47.221  50.678  1.00  0.00    +0.000 F 
ATOM     78  C55 UNL A   1      21.696  45.662  48.915  1.00  0.00    +0.000 C 
ATOM     79  F14 UNL A   1      21.267  46.628  48.091  1.00  0.00    +0.000 F 
ATOM     80  C56 UNL A   1      21.811  44.354  48.451  1.00  0.00    +0.000 C 
ATOM     81  F15 UNL A   1      21.475  44.087  47.180  1.00  0.00    +0.000 F 
ENDBRANCH   70   71
TORSDOF 21
ENDMDL
MODEL 6
REMARK VINA RESULT:      -7.4     43.765     46.535
ROOT
ATOM    129  H37 UNL A   1      11.744  52.363   7.198  1.00  0.00    +0.000 H 
ATOM     34  C27 UNL A   1      13.636  53.653   5.489  1.00  0.00    +0.000 C 
ATOM     35  C28 UNL A   1      13.178  52.221   5.446  1.00  0.00    +0.000 C 
ATOM     36  N3  UNL A   1      13.529  51.265   4.621  1.00  0.00    +0.000 N 
ATOM     37  C29 UNL A   1      12.845  50.130   5.036  1.00  0.00    +0.000 C 
ATOM     38  C30 UNL A   1      12.858  48.889   4.491  1.00  0.00    +0.000 C 
ATOM     50  C37 UNL A   1      13.605  48.523   3.314  1.00  0.00    +0.000 C 
ATOM     51  C38 UNL A   1      13.639  47.305   2.656  1.00  0.00    +0.000 C 
ATOM     52  C39 UNL A   1      14.537  47.408   1.588  1.00  0.00    +0.000 C 
ATOM     53  C40 UNL A   1      15.030  48.702   1.554  1.00  0.00    +0.000 C 
ATOM     54  N4  UNL A   1      14.453  49.374   2.621  1.00  0.00    +0.000 N 
ATOM     55  C41 UNL A   1      15.959  49.284   0.620  1.00  0.00    +0.000 C 
ATOM     67  C48 UNL A   1      16.385  50.570   0.647  1.00  0.00    +0.000 C 
ATOM     68  N5  UNL A   1      16.047  51.582   1.533  1.00  0.00    +0.000 N 
ATOM     69  C49 UNL A   1      16.735  52.632   1.159  1.00  0.00    +0.000 C 
ATOM     70  C50 UNL A   1      16.749  54.014   1.747  1.00  0.00    +0.000 C 
ATOM     82  C57 UNL A   1      16.004  54.271   2.838  1.00  0.00    +0.000 C 
ATOM     83  C58 UNL A   1      15.914  55.564   3.508  1.00  0.00    +0.000 C 
ATOM     84  C59 UNL A   1      15.091  55.452   4.561  1.00  0.00    +0.000 C 
ATOM     85  C60 UNL A   1      14.556  54.091   4.608  1.00  0.00    +0.000 C 
ATOM     86  N6  UNL A   1      15.183  53.450   3.571  1.00  0.00    +0.000 N 
ATOM     87  C61 UNL A   1      17.604  52.401  -0.001  1.00  0.00    +0.000 C 
ATOM     88  C62 UNL A   1      17.324  51.140  -0.298  1.00  0.00    +0.000 C 
ATOM     89  C63 UNL A   1      12.071  50.507   6.199  1.00  0.00    +0.000 C 
ATOM     90  C64 UNL A   1      12.205  51.799   6.465  1.00  0.00    +0.000 C 
ATOM    120  H28 UNL A   1      13.095  46.466   2.911  1.00  0.00    +0.000 H 
ATOM    121  H29 UNL A   1      14.790  46.649   0.937  1.00  0.00    +0.000 H 
ATOM    122  H30 UNL A   1      14.621  50.317   2.852  1.00  0.00    +0.000 H 
ATOM    123  H31 UNL A   1      16.404  56.425   3.219  1.00  0.00    +0.000 H 
ATOM    124  H32 UNL A   1      14.870  56.205   5.231  1.00  0.00    +0.000 H 
ATOM    125  H33 UNL A   1      15.058  52.494   3.370  1.00  0.00    +0.000 H 
ATOM    126  H34 UNL A   1      18.260  53.050  -0.465  1.00  0.00    +0.000 H 
ATOM    127  H35 UNL A   1      17.725  50.629  -1.101  1.00  0.00    +0.000 H 
ATOM    128  H36 UNL A   1      11.491  49.855   6.749  1.00  0.00    +0.000 H 
ENDROOT
BRANCH   34   33
ATOM     33  C26 UNL A   1      13.057  54.617   6.461  1.00  0.00    +0.000 C 
ATOM    130  H38 UNL A   1      11.419  55.219   5.264  1.00  0.00    +0.000 H 
ATOM    131  H39 UNL A   1      10.601  56.882   6.833  1.00  0.00    +0.000 H 
ATOM    118  H26 UNL A   1      13.514  55.679   9.616  1.00  0.00    +0.000 H 
ATOM    119  H27 UNL A   1      14.501  54.219   7.955  1.00  0.00    +0.000 H 
ATOM     91  C65 UNL A   1      11.909  55.365   6.160  1.00  0.00    +0.000 C 
ATOM     92  C66 UNL A   1      11.424  56.308   7.072  1.00  0.00    +0.000 C 
ATOM     30  C23 UNL A   1      12.057  56.472   8.308  1.00  0.00    +0.000 C 
ATOM     31  C24 UNL A   1      13.124  55.642   8.662  1.00  0.00    +0.000 C 
ATOM     32  C25 UNL A   1      13.657  54.765   7.722  1.00  0.00    +0.000 C 
BRANCH   30    2
ATOM      1  O1  UNL A   1      12.072  58.663   9.142  1.00  0.00    +0.000 O 
ATOM      2  C1  UNL A   1      11.586  57.538   9.220  1.00  0.00    +0.000 C 
BRANCH    2    3
ATOM      3  N1  UNL A   1      10.637  57.258  10.174  1.00  0.00    +0.000 N 
ATOM     93  H1  UNL A   1       9.889  56.693   9.871  1.00  0.00    +0.000 H 
BRANCH    3    4
ATOM      4  C2  UNL A   1      10.578  57.674  11.566  1.00  0.00    +0.000 C 
ATOM     94  H2  UNL A   1       9.602  58.065  11.761  1.00  0.00    +0.000 H 
ATOM     95  H3  UNL A   1      11.343  58.409  11.710  1.00  0.00    +0.000 H 
BRANCH    4    5
ATOM     97  H5  UNL A   1      11.589  56.911  13.224  1.00  0.00    +0.000 H 
ATOM      5  C3  UNL A   1      10.850  56.540  12.545  1.00  0.00    +0.000 C 
ATOM     96  H4  UNL A   1       9.925  56.279  13.014  1.00  0.00    +0.000 H 
BRANCH    5    6
ATOM     98  H6  UNL A   1      11.867  55.528  10.989  1.00  0.00    +0.000 H 
ATOM     99  H7  UNL A   1      10.635  54.572  11.878  1.00  0.00    +0.000 H 
ATOM      6  C4  UNL A   1      11.443  55.271  11.937  1.00  0.00    +0.000 C 
BRANCH    6    7
ATOM    100  H8  UNL A   1      12.053  53.842  13.376  1.00  0.00    +0.000 H 
ATOM    101  H9  UNL A   1      13.018  55.356  13.308  1.00  0.00    +0.000 H 
ATOM      7  C5  UNL A   1      12.530  54.576  12.762  1.00  0.00    +0.000 C 
BRANCH    7    8
ATOM    102  H10 UNL A   1      14.450  54.564  11.859  1.00  0.00    +0.000 H 
ATOM    103  H11 UNL A   1      13.189  53.582  11.041  1.00  0.00    +0.000 H 
ATOM      8  C6  UNL A   1      13.637  53.876  11.967  1.00  0.00    +0.000 C 
BRANCH    8    9
ATOM      9  C7  UNL A   1      14.187  52.594  12.587  1.00  0.00    +0.000 C 
ATOM    105  H13 UNL A   1      14.366  51.898  11.794  1.00  0.00    +0.000 H 
ATOM    104  H12 UNL A   1      15.090  52.825  13.113  1.00  0.00    +0.000 H 
BRANCH    9   10
ATOM     10  N2  UNL A   1      13.252  51.985  13.511  1.00  0.00    +0.000 N 
ATOM    106  H14 UNL A   1      13.121  52.459  14.363  1.00  0.00    +0.000 H 
BRANCH   10   11
ATOM     11  C8  UNL A   1      12.526  50.831  13.350  1.00  0.00    +0.000 C 
ATOM     12  O2  UNL A   1      11.922  50.344  14.301  1.00  0.00    +0.000 O 
BRANCH   11   13
ATOM    107  H15 UNL A   1      13.828  48.751  12.456  1.00  0.00    +0.000 H 
ATOM     13  C9  UNL A   1      12.382  50.225  12.013  1.00  0.00    +0.000 C 
ATOM     14  C10 UNL A   1      13.184  49.109  11.734  1.00  0.00    +0.000 C 
ATOM     15  C11 UNL A   1      13.121  48.474  10.488  1.00  0.00    +0.000 C 
ATOM    115  H23 UNL A   1      12.163  48.528   8.607  1.00  0.00    +0.000 H 
ATOM    116  H24 UNL A   1      10.815  50.489   9.067  1.00  0.00    +0.000 H 
ATOM     26  C20 UNL A   1      12.236  48.990   9.527  1.00  0.00    +0.000 C 
ATOM     27  C21 UNL A   1      11.452  50.120   9.791  1.00  0.00    +0.000 C 
ATOM     28  C22 UNL A   1      11.533  50.744  11.033  1.00  0.00    +0.000 C 
BRANCH   15   16
ATOM    108  H16 UNL A   1      13.586  46.375  10.420  1.00  0.00    +0.000 H 
ATOM     16  C12 UNL A   1      13.941  47.300  10.130  1.00  0.00    +0.000 C 
BRANCH   16   17
ATOM     17  C13 UNL A   1      15.106  47.326   9.463  1.00  0.00    +0.000 C 
ATOM    109  H17 UNL A   1      15.438  46.456   9.020  1.00  0.00    +0.000 H 
BRANCH   17   18
ATOM    110  H18 UNL A   1      16.467  48.688  11.378  1.00  0.00    +0.000 H 
ATOM    112  H20 UNL A   1      18.182  51.612   8.892  1.00  0.00    +0.000 H 
ATOM     18  C14 UNL A   1      15.934  48.535   9.335  1.00  0.00    +0.000 C 
ATOM     19  C15 UNL A   1      16.588  49.099  10.439  1.00  0.00    +0.000 C 
ATOM    114  H22 UNL A   1      15.668  48.676   7.239  1.00  0.00    +0.000 H 
ATOM     20  C16 UNL A   1      17.402  50.217  10.267  1.00  0.00    +0.000 C 
ATOM     22  C17 UNL A   1      17.583  50.781   9.010  1.00  0.00    +0.000 C 
ATOM     23  C18 UNL A   1      16.946  50.212   7.914  1.00  0.00    +0.000 C 
ATOM     25  C19 UNL A   1      16.128  49.093   8.062  1.00  0.00    +0.000 C 
BRANCH   20   21
ATOM     21  O3  UNL A   1      18.056  50.786  11.320  1.00  0.00    +0.000 O 
ATOM    111  H19 UNL A   1      17.928  50.453  12.186  1.00  0.00    +0.000 H 
ENDBRANCH   20   21
BRANCH   23   24
ATOM    113  H21 UNL A   1      16.556  51.430   6.371  1.00  0.00    +0.000 H 
ATOM     24  O4  UNL A   1      17.152  50.782   6.692  1.00  0.00    +0.000 O 
ENDBRANCH   23   24
ENDBRANCH   17   18
ENDBRANCH   16   17
ENDBRANCH   15   16
BRANCH   28   29
ATOM    117  H25 UNL A   1      11.113  52.532  11.840  1.00  0.00    +0.000 H 
ATOM     29  O5  UNL A   1      10.781  51.856  11.282  1.00  0.00    +0.000 O 
ENDBRANCH   28   29
ENDBRANCH   11   13
ENDBRANCH   10   11
ENDBRANCH    9   10
ENDBRANCH    8    9
ENDBRANCH    7    8
ENDBRANCH    6    7
ENDBRANCH    5    6
ENDBRANCH    4    5
ENDBRANCH    3    4
ENDBRANCH    2    3
ENDBRANCH   30    2
ENDBRANCH   34   33
BRANCH   38   39
ATOM     39  C31 UNL A   1      12.048  47.822   5.169  1.00  0.00    +0.000 C 
ATOM     40  C32 UNL A   1      10.752  47.496   4.746  1.00  0.00    +0.000 C 
ATOM     41  F1  UNL A   1      10.176  48.181   3.745  1.00  0.00    +0.000 F 
ATOM     42  C33 UNL A   1      10.026  46.484   5.370  1.00  0.00    +0.000 C 
ATOM     43  F2  UNL A   1       8.775  46.217   4.974  1.00  0.00    +0.000 F 
ATOM     44  C34 UNL A   1      10.593  45.758   6.408  1.00  0.00    +0.000 C 
ATOM     45  F3  UNL A   1       9.897  44.780   7.002  1.00  0.00    +0.000 F 
ATOM     46  C35 UNL A   1      11.880  46.052   6.832  1.00  0.00    +0.000 C 
ATOM     47  F4  UNL A   1      12.434  45.344   7.827  1.00  0.00    +0.000 F 
ATOM     48  C36 UNL A   1      12.599  47.081   6.226  1.00  0.00    +0.000 C 
ATOM     49  F5  UNL A   1      13.838  47.346   6.664  1.00  0.00    +0.000 F 
ENDBRANCH   38   39
BRANCH   55   56
ATOM     65  C47 UNL A   1      15.679  48.122  -1.598  1.00  0.00    +0.000 C 
ATOM     66  F10 UNL A   1      14.437  48.622  -1.687  1.00  0.00    +0.000 F 
ATOM     56  C42 UNL A   1      16.483  48.417  -0.486  1.00  0.00    +0.000 C 
ATOM     57  C43 UNL A   1      17.771  47.866  -0.439  1.00  0.00    +0.000 C 
ATOM     58  F6  UNL A   1      18.582  48.133   0.595  1.00  0.00    +0.000 F 
ATOM     59  C44 UNL A   1      18.247  47.073  -1.480  1.00  0.00    +0.000 C 
ATOM     60  F7  UNL A   1      19.499  46.598  -1.438  1.00  0.00    +0.000 F 
ATOM     61  C45 UNL A   1      17.434  46.791  -2.568  1.00  0.00    +0.000 C 
ATOM     62  F8  UNL A   1      17.895  46.028  -3.570  1.00  0.00    +0.000 F 
ATOM     63  C46 UNL A   1      16.149  47.307  -2.624  1.00  0.00    +0.000 C 
ATOM     64  F9  UNL A   1      15.360  47.028  -3.671  1.00  0.00    +0.000 F 
ENDBRANCH   55   56
BRANCH   70   71
ATOM     71  C51 UNL A   1      17.555  55.099   1.133  1.00  0.00    +0.000 C 
ATOM     72  C52 UNL A   1      17.078  55.809   0.023  1.00  0.00    +0.000 C 
ATOM     73  F11 UNL A   1      15.893  55.488  -0.518  1.00  0.00    +0.000 F 
ATOM     74  C53 UNL A   1      17.828  56.831  -0.553  1.00  0.00    +0.000 C 
ATOM     75  F12 UNL A   1      17.365  57.471  -1.636  1.00  0.00    +0.000 F 
ATOM     76  C54 UNL A   1      19.057  57.180  -0.014  1.00  0.00    +0.000 C 
ATOM     77  F13 UNL A   1      19.775  58.168  -0.563  1.00  0.00    +0.000 F 
ATOM     78  C55 UNL A   1      19.545  56.497   1.091  1.00  0.00    +0.000 C 
ATOM     79  F14 UNL A   1      20.726  56.842   1.624  1.00  0.00    +0.000 F 
ATOM     80  C56 UNL A   1      18.807  55.458   1.650  1.00  0.00    +0.000 C 
ATOM     81  F15 UNL A   1      19.305  54.811   2.714  1.00  0.00    +0.000 F 
ENDBRANCH   70   71
TORSDOF 21
ENDMDL
MODEL 7
REMARK VINA RESULT:      -7.3     43.742     46.520
ROOT
ATOM    129  H37 UNL A   1      11.803  52.385   7.272  1.00  0.00    +0.000 H 
ATOM     34  C27 UNL A   1      13.671  53.691   5.550  1.00  0.00    +0.000 C 
ATOM     35  C28 UNL A   1      13.224  52.256   5.510  1.00  0.00    +0.000 C 
ATOM     36  N3  UNL A   1      13.577  51.303   4.680  1.00  0.00    +0.000 N 
ATOM     37  C29 UNL A   1      12.906  50.162   5.100  1.00  0.00    +0.000 C 
ATOM     38  C30 UNL A   1      12.926  48.922   4.554  1.00  0.00    +0.000 C 
ATOM     50  C37 UNL A   1      13.667  48.563   3.371  1.00  0.00    +0.000 C 
ATOM     51  C38 UNL A   1      13.705  47.346   2.712  1.00  0.00    +0.000 C 
ATOM     52  C39 UNL A   1      14.594  47.457   1.637  1.00  0.00    +0.000 C 
ATOM     53  C40 UNL A   1      15.076  48.756   1.600  1.00  0.00    +0.000 C 
ATOM     54  N4  UNL A   1      14.502  49.422   2.672  1.00  0.00    +0.000 N 
ATOM     55  C41 UNL A   1      15.993  49.347   0.659  1.00  0.00    +0.000 C 
ATOM     67  C48 UNL A   1      16.408  50.636   0.684  1.00  0.00    +0.000 C 
ATOM     68  N5  UNL A   1      16.069  51.644   1.574  1.00  0.00    +0.000 N 
ATOM     69  C49 UNL A   1      16.746  52.700   1.196  1.00  0.00    +0.000 C 
ATOM     70  C50 UNL A   1      16.752  54.082   1.785  1.00  0.00    +0.000 C 
ATOM     82  C57 UNL A   1      16.014  54.332   2.882  1.00  0.00    +0.000 C 
ATOM     83  C58 UNL A   1      15.918  55.624   3.553  1.00  0.00    +0.000 C 
ATOM     84  C59 UNL A   1      15.104  55.504   4.612  1.00  0.00    +0.000 C 
ATOM     85  C60 UNL A   1      14.580  54.138   4.663  1.00  0.00    +0.000 C 
ATOM     86  N6  UNL A   1      15.205  53.503   3.620  1.00  0.00    +0.000 N 
ATOM     87  C61 UNL A   1      17.607  52.478   0.028  1.00  0.00    +0.000 C 
ATOM     88  C62 UNL A   1      17.335  51.214  -0.268  1.00  0.00    +0.000 C 
ATOM     89  C63 UNL A   1      12.138  50.532   6.269  1.00  0.00    +0.000 C 
ATOM     90  C64 UNL A   1      12.263  51.825   6.536  1.00  0.00    +0.000 C 
ATOM    120  H28 UNL A   1      13.171  46.503   2.970  1.00  0.00    +0.000 H 
ATOM    121  H29 UNL A   1      14.849  46.701   0.983  1.00  0.00    +0.000 H 
ATOM    122  H30 UNL A   1      14.664  50.366   2.903  1.00  0.00    +0.000 H 
ATOM    123  H31 UNL A   1      16.398  56.489   3.261  1.00  0.00    +0.000 H 
ATOM    124  H32 UNL A   1      14.882  56.255   5.284  1.00  0.00    +0.000 H 
ATOM    125  H33 UNL A   1      15.086  52.547   3.419  1.00  0.00    +0.000 H 
ATOM    126  H34 UNL A   1      18.254  53.133  -0.440  1.00  0.00    +0.000 H 
ATOM    127  H35 UNL A   1      17.734  50.707  -1.073  1.00  0.00    +0.000 H 
ATOM    128  H36 UNL A   1      11.568  49.875   6.824  1.00  0.00    +0.000 H 
ENDROOT
BRANCH   34   33
ATOM     33  C26 UNL A   1      13.091  54.650   6.527  1.00  0.00    +0.000 C 
ATOM    130  H38 UNL A   1      11.437  55.236   5.344  1.00  0.00    +0.000 H 
ATOM    131  H39 UNL A   1      10.617  56.892   6.921  1.00  0.00    +0.000 H 
ATOM    118  H26 UNL A   1      13.566  55.716   9.678  1.00  0.00    +0.000 H 
ATOM    119  H27 UNL A   1      14.552  54.266   8.008  1.00  0.00    +0.000 H 
ATOM     91  C65 UNL A   1      11.934  55.387   6.237  1.00  0.00    +0.000 C 
ATOM     92  C66 UNL A   1      11.448  56.325   7.153  1.00  0.00    +0.000 C 
ATOM     30  C23 UNL A   1      12.090  56.495   8.384  1.00  0.00    +0.000 C 
ATOM     31  C24 UNL A   1      13.168  55.676   8.727  1.00  0.00    +0.000 C 
ATOM     32  C25 UNL A   1      13.701  54.804   7.783  1.00  0.00    +0.000 C 
BRANCH   30    2
ATOM      1  O1  UNL A   1      12.112  58.679   9.237  1.00  0.00    +0.000 O 
ATOM      2  C1  UNL A   1      11.617  57.557   9.300  1.00  0.00    +0.000 C 
BRANCH    2    3
ATOM      3  N1  UNL A   1      10.656  57.275  10.241  1.00  0.00    +0.000 N 
ATOM     93  H1  UNL A   1       9.908  56.717   9.926  1.00  0.00    +0.000 H 
BRANCH    3    4
ATOM      4  C2  UNL A   1      10.584  57.682  11.635  1.00  0.00    +0.000 C 
ATOM     94  H2  UNL A   1       9.587  58.013  11.839  1.00  0.00    +0.000 H 
ATOM     95  H3  UNL A   1      11.304  58.461  11.775  1.00  0.00    +0.000 H 
BRANCH    4    5
ATOM     97  H5  UNL A   1      11.759  56.922  13.182  1.00  0.00    +0.000 H 
ATOM      5  C3  UNL A   1      10.931  56.563  12.608  1.00  0.00    +0.000 C 
ATOM     96  H4  UNL A   1      10.060  56.351  13.191  1.00  0.00    +0.000 H 
BRANCH    5    6
ATOM     98  H6  UNL A   1      11.744  55.479  10.982  1.00  0.00    +0.000 H 
ATOM     99  H7  UNL A   1      10.555  54.600  12.000  1.00  0.00    +0.000 H 
ATOM      6  C4  UNL A   1      11.400  55.257  11.970  1.00  0.00    +0.000 C 
BRANCH    6    7
ATOM    100  H8  UNL A   1      12.074  53.763  13.312  1.00  0.00    +0.000 H 
ATOM    101  H9  UNL A   1      13.049  55.271  13.254  1.00  0.00    +0.000 H 
ATOM      7  C5  UNL A   1      12.523  54.519  12.703  1.00  0.00    +0.000 C 
BRANCH    7    8
ATOM    102  H10 UNL A   1      14.334  54.568  11.600  1.00  0.00    +0.000 H 
ATOM    103  H11 UNL A   1      13.050  53.490  10.957  1.00  0.00    +0.000 H 
ATOM      8  C6  UNL A   1      13.577  53.844  11.819  1.00  0.00    +0.000 C 
BRANCH    8    9
ATOM      9  C7  UNL A   1      14.260  52.619  12.421  1.00  0.00    +0.000 C 
ATOM    105  H13 UNL A   1      14.417  51.912  11.633  1.00  0.00    +0.000 H 
ATOM    104  H12 UNL A   1      15.186  52.923  12.862  1.00  0.00    +0.000 H 
BRANCH    9   10
ATOM     10  N2  UNL A   1      13.447  51.980  13.436  1.00  0.00    +0.000 N 
ATOM    106  H14 UNL A   1      13.473  52.393  14.328  1.00  0.00    +0.000 H 
BRANCH   10   11
ATOM     11  C8  UNL A   1      12.646  50.872  13.312  1.00  0.00    +0.000 C 
ATOM     12  O2  UNL A   1      12.021  50.450  14.281  1.00  0.00    +0.000 O 
BRANCH   11   13
ATOM    107  H15 UNL A   1      13.966  48.823  12.374  1.00  0.00    +0.000 H 
ATOM     13  C9  UNL A   1      12.450  50.242  11.992  1.00  0.00    +0.000 C 
ATOM     14  C10 UNL A   1      13.272  49.149  11.684  1.00  0.00    +0.000 C 
ATOM     15  C11 UNL A   1      13.162  48.494  10.452  1.00  0.00    +0.000 C 
ATOM    115  H23 UNL A   1      12.102  48.489   8.626  1.00  0.00    +0.000 H 
ATOM    116  H24 UNL A   1      10.716  50.412   9.135  1.00  0.00    +0.000 H 
ATOM     26  C20 UNL A   1      12.210  48.967   9.534  1.00  0.00    +0.000 C 
ATOM     27  C21 UNL A   1      11.403  50.074   9.827  1.00  0.00    +0.000 C 
ATOM     28  C22 UNL A   1      11.532  50.719  11.054  1.00  0.00    +0.000 C 
BRANCH   15   16
ATOM    108  H16 UNL A   1      13.585  46.403  10.173  1.00  0.00    +0.000 H 
ATOM     16  C12 UNL A   1      14.000  47.342  10.064  1.00  0.00    +0.000 C 
BRANCH   16   17
ATOM     17  C13 UNL A   1      15.253  47.405   9.584  1.00  0.00    +0.000 C 
ATOM    109  H17 UNL A   1      15.736  46.523   9.356  1.00  0.00    +0.000 H 
BRANCH   17   18
ATOM    110  H18 UNL A   1      15.537  48.853   7.306  1.00  0.00    +0.000 H 
ATOM    112  H20 UNL A   1      17.754  52.038   8.924  1.00  0.00    +0.000 H 
ATOM     18  C14 UNL A   1      15.971  48.671   9.370  1.00  0.00    +0.000 C 
ATOM     19  C15 UNL A   1      15.997  49.297   8.116  1.00  0.00    +0.000 C 
ATOM    114  H22 UNL A   1      16.553  48.858  11.397  1.00  0.00    +0.000 H 
ATOM     20  C16 UNL A   1      16.648  50.520   7.965  1.00  0.00    +0.000 C 
ATOM     22  C17 UNL A   1      17.268  51.136   9.045  1.00  0.00    +0.000 C 
ATOM     23  C18 UNL A   1      17.228  50.522  10.290  1.00  0.00    +0.000 C 
ATOM     25  C19 UNL A   1      16.582  49.299  10.465  1.00  0.00    +0.000 C 
BRANCH   20   21
ATOM     21  O3  UNL A   1      16.689  51.157   6.759  1.00  0.00    +0.000 O 
ATOM    111  H19 UNL A   1      17.499  51.494   6.434  1.00  0.00    +0.000 H 
ENDBRANCH   20   21
BRANCH   23   24
ATOM    113  H21 UNL A   1      18.296  51.961  11.188  1.00  0.00    +0.000 H 
ATOM     24  O4  UNL A   1      17.836  51.157  11.333  1.00  0.00    +0.000 O 
ENDBRANCH   23   24
ENDBRANCH   17   18
ENDBRANCH   16   17
ENDBRANCH   15   16
BRANCH   28   29
ATOM    117  H25 UNL A   1      11.145  52.662  11.371  1.00  0.00    +0.000 H 
ATOM     29  O5  UNL A   1      10.757  51.810  11.330  1.00  0.00    +0.000 O 
ENDBRANCH   28   29
ENDBRANCH   11   13
ENDBRANCH   10   11
ENDBRANCH    9   10
ENDBRANCH    8    9
ENDBRANCH    7    8
ENDBRANCH    6    7
ENDBRANCH    5    6
ENDBRANCH    4    5
ENDBRANCH    3    4
ENDBRANCH    2    3
ENDBRANCH   30    2
ENDBRANCH   34   33
BRANCH   38   39
ATOM     39  C31 UNL A   1      12.130  47.848   5.237  1.00  0.00    +0.000 C 
ATOM     40  C32 UNL A   1      12.661  47.091   6.291  1.00  0.00    +0.000 C 
ATOM     41  F1  UNL A   1      13.931  47.275   6.681  1.00  0.00    +0.000 F 
ATOM     42  C33 UNL A   1      11.897  46.118   6.931  1.00  0.00    +0.000 C 
ATOM     43  F2  UNL A   1      12.438  45.380   7.910  1.00  0.00    +0.000 F 
ATOM     44  C34 UNL A   1      10.580  45.903   6.551  1.00  0.00    +0.000 C 
ATOM     45  F3  UNL A   1       9.844  44.972   7.172  1.00  0.00    +0.000 F 
ATOM     46  C35 UNL A   1      10.029  46.651   5.521  1.00  0.00    +0.000 C 
ATOM     47  F4  UNL A   1       8.753  46.454   5.160  1.00  0.00    +0.000 F 
ATOM     48  C36 UNL A   1      10.798  47.608   4.863  1.00  0.00    +0.000 C 
ATOM     49  F5  UNL A   1      10.239  48.309   3.866  1.00  0.00    +0.000 F 
ENDBRANCH   38   39
BRANCH   55   56
ATOM     65  C47 UNL A   1      17.802  47.930  -0.374  1.00  0.00    +0.000 C 
ATOM     66  F10 UNL A   1      18.573  48.157   0.700  1.00  0.00    +0.000 F 
ATOM     56  C42 UNL A   1      16.515  48.485  -0.451  1.00  0.00    +0.000 C 
ATOM     57  C43 UNL A   1      15.752  48.221  -1.597  1.00  0.00    +0.000 C 
ATOM     58  F6  UNL A   1      14.510  48.714  -1.709  1.00  0.00    +0.000 F 
ATOM     59  C44 UNL A   1      16.246  47.407  -2.614  1.00  0.00    +0.000 C 
ATOM     60  F7  UNL A   1      15.480  47.128  -3.676  1.00  0.00    +0.000 F 
ATOM     61  C45 UNL A   1      17.523  46.873  -2.518  1.00  0.00    +0.000 C 
ATOM     62  F8  UNL A   1      17.997  46.089  -3.498  1.00  0.00    +0.000 F 
ATOM     63  C46 UNL A   1      18.303  47.140  -1.404  1.00  0.00    +0.000 C 
ATOM     64  F9  UNL A   1      19.540  46.631  -1.315  1.00  0.00    +0.000 F 
ENDBRANCH   55   56
BRANCH   70   71
ATOM     71  C51 UNL A   1      17.544  55.174   1.165  1.00  0.00    +0.000 C 
ATOM     72  C52 UNL A   1      18.802  55.526   1.670  1.00  0.00    +0.000 C 
ATOM     73  F11 UNL A   1      19.291  54.895   2.748  1.00  0.00    +0.000 F 
ATOM     74  C53 UNL A   1      19.549  56.547   1.089  1.00  0.00    +0.000 C 
ATOM     75  F12 UNL A   1      20.735  56.889   1.613  1.00  0.00    +0.000 F 
ATOM     76  C54 UNL A   1      19.065  57.217  -0.024  1.00  0.00    +0.000 C 
ATOM     77  F13 UNL A   1      19.788  58.193  -0.589  1.00  0.00    +0.000 F 
ATOM     78  C55 UNL A   1      17.826  56.878  -0.548  1.00  0.00    +0.000 C 
ATOM     79  F14 UNL A   1      17.360  57.513  -1.633  1.00  0.00    +0.000 F 
ATOM     80  C56 UNL A   1      17.066  55.876   0.049  1.00  0.00    +0.000 C 
ATOM     81  F15 UNL A   1      15.869  55.573  -0.473  1.00  0.00    +0.000 F 
ENDBRANCH   70   71
TORSDOF 21
ENDMDL
MODEL 8
REMARK VINA RESULT:      -7.2     44.432     47.187
ROOT
ATOM    129  H37 UNL A   1      12.236  52.360   7.107  1.00  0.00    +0.000 H 
ATOM     34  C27 UNL A   1      14.068  53.732   5.398  1.00  0.00    +0.000 C 
ATOM     35  C28 UNL A   1      13.628  52.297   5.318  1.00  0.00    +0.000 C 
ATOM     36  N3  UNL A   1      13.971  51.374   4.452  1.00  0.00    +0.000 N 
ATOM     37  C29 UNL A   1      13.313  50.216   4.845  1.00  0.00    +0.000 C 
ATOM     38  C30 UNL A   1      13.329  48.994   4.258  1.00  0.00    +0.000 C 
ATOM     50  C37 UNL A   1      14.052  48.679   3.052  1.00  0.00    +0.000 C 
ATOM     51  C38 UNL A   1      14.085  47.484   2.353  1.00  0.00    +0.000 C 
ATOM     52  C39 UNL A   1      14.956  47.635   1.268  1.00  0.00    +0.000 C 
ATOM     53  C40 UNL A   1      15.430  48.937   1.265  1.00  0.00    +0.000 C 
ATOM     54  N4  UNL A   1      14.871  49.564   2.368  1.00  0.00    +0.000 N 
ATOM     55  C41 UNL A   1      16.328  49.563   0.329  1.00  0.00    +0.000 C 
ATOM     67  C48 UNL A   1      16.737  50.853   0.389  1.00  0.00    +0.000 C 
ATOM     68  N5  UNL A   1      16.408  51.830   1.318  1.00  0.00    +0.000 N 
ATOM     69  C49 UNL A   1      17.073  52.901   0.963  1.00  0.00    +0.000 C 
ATOM     70  C50 UNL A   1      17.083  54.263   1.597  1.00  0.00    +0.000 C 
ATOM     82  C57 UNL A   1      16.362  54.473   2.713  1.00  0.00    +0.000 C 
ATOM     83  C58 UNL A   1      16.271  55.741   3.429  1.00  0.00    +0.000 C 
ATOM     84  C59 UNL A   1      15.475  55.583   4.497  1.00  0.00    +0.000 C 
ATOM     85  C60 UNL A   1      14.960  54.213   4.511  1.00  0.00    +0.000 C 
ATOM     86  N6  UNL A   1      15.570  53.616   3.437  1.00  0.00    +0.000 N 
ATOM     87  C61 UNL A   1      17.916  52.722  -0.226  1.00  0.00    +0.000 C 
ATOM     88  C62 UNL A   1      17.645  51.467  -0.558  1.00  0.00    +0.000 C 
ATOM     89  C63 UNL A   1      12.562  50.543   6.039  1.00  0.00    +0.000 C 
ATOM     90  C64 UNL A   1      12.686  51.827   6.346  1.00  0.00    +0.000 C 
ATOM    120  H28 UNL A   1      13.559  46.629   2.592  1.00  0.00    +0.000 H 
ATOM    121  H29 UNL A   1      15.202  46.902   0.585  1.00  0.00    +0.000 H 
ATOM    122  H30 UNL A   1      15.032  50.501   2.627  1.00  0.00    +0.000 H 
ATOM    123  H31 UNL A   1      16.742  56.618   3.157  1.00  0.00    +0.000 H 
ATOM    124  H32 UNL A   1      15.261  56.310   5.196  1.00  0.00    +0.000 H 
ATOM    125  H33 UNL A   1      15.452  52.666   3.207  1.00  0.00    +0.000 H 
ATOM    126  H34 UNL A   1      18.551  53.395  -0.683  1.00  0.00    +0.000 H 
ATOM    127  H35 UNL A   1      18.033  50.989  -1.387  1.00  0.00    +0.000 H 
ATOM    128  H36 UNL A   1      12.006  49.865   6.581  1.00  0.00    +0.000 H 
ENDROOT
BRANCH   34   33
ATOM     33  C26 UNL A   1      13.500  54.655   6.415  1.00  0.00    +0.000 C 
ATOM    130  H38 UNL A   1      14.920  54.254   7.932  1.00  0.00    +0.000 H 
ATOM    131  H39 UNL A   1      13.865  55.669   9.599  1.00  0.00    +0.000 H 
ATOM    118  H26 UNL A   1      11.090  56.977   6.725  1.00  0.00    +0.000 H 
ATOM    119  H27 UNL A   1      11.965  55.364   5.144  1.00  0.00    +0.000 H 
ATOM     91  C65 UNL A   1      14.063  54.778   7.694  1.00  0.00    +0.000 C 
ATOM     92  C66 UNL A   1      13.470  55.609   8.649  1.00  0.00    +0.000 C 
ATOM     30  C23 UNL A   1      12.338  56.359   8.313  1.00  0.00    +0.000 C 
ATOM     31  C24 UNL A   1      11.848  56.335   7.005  1.00  0.00    +0.000 C 
ATOM     32  C25 UNL A   1      12.386  55.445   6.082  1.00  0.00    +0.000 C 
BRANCH   30    2
ATOM      1  O1  UNL A   1      11.717  58.386   9.315  1.00  0.00    +0.000 O 
ATOM      2  C1  UNL A   1      11.670  57.160   9.363  1.00  0.00    +0.000 C 
BRANCH    2    3
ATOM      3  N1  UNL A   1      11.034  56.531  10.407  1.00  0.00    +0.000 N 
ATOM     93  H1  UNL A   1      11.263  56.867  11.304  1.00  0.00    +0.000 H 
BRANCH    3    4
ATOM      4  C2  UNL A   1      10.072  55.441  10.377  1.00  0.00    +0.000 C 
ATOM     94  H2  UNL A   1       9.622  55.413   9.408  1.00  0.00    +0.000 H 
ATOM     95  H3  UNL A   1       9.356  55.630  11.150  1.00  0.00    +0.000 H 
BRANCH    4    5
ATOM     97  H5  UNL A   1      11.716  54.274  10.914  1.00  0.00    +0.000 H 
ATOM      5  C3  UNL A   1      10.695  54.081  10.660  1.00  0.00    +0.000 C 
ATOM     96  H4  UNL A   1      10.135  53.618  11.444  1.00  0.00    +0.000 H 
BRANCH    5    6
ATOM     98  H6  UNL A   1      10.354  52.172   9.810  1.00  0.00    +0.000 H 
ATOM     99  H7  UNL A   1      11.757  53.085   9.162  1.00  0.00    +0.000 H 
ATOM      6  C4  UNL A   1      10.735  53.115   9.477  1.00  0.00    +0.000 C 
BRANCH    6    7
ATOM    100  H8  UNL A   1      10.588  54.086   7.600  1.00  0.00    +0.000 H 
ATOM    101  H9  UNL A   1       9.106  54.101   8.616  1.00  0.00    +0.000 H 
ATOM      7  C5  UNL A   1       9.934  53.535   8.243  1.00  0.00    +0.000 C 
BRANCH    7    8
ATOM    102  H10 UNL A   1       9.972  51.555   7.482  1.00  0.00    +0.000 H 
ATOM    103  H11 UNL A   1       9.200  52.787   6.429  1.00  0.00    +0.000 H 
ATOM      8  C6  UNL A   1       9.317  52.399   7.420  1.00  0.00    +0.000 C 
BRANCH    8    9
ATOM      9  C7  UNL A   1       7.925  51.946   7.854  1.00  0.00    +0.000 C 
ATOM    105  H13 UNL A   1       7.802  52.208   8.884  1.00  0.00    +0.000 H 
ATOM    104  H12 UNL A   1       7.197  52.433   7.239  1.00  0.00    +0.000 H 
BRANCH    9   10
ATOM     10  N2  UNL A   1       7.753  50.513   7.736  1.00  0.00    +0.000 N 
ATOM    106  H14 UNL A   1       6.889  50.158   8.048  1.00  0.00    +0.000 H 
BRANCH   10   11
ATOM     11  C8  UNL A   1       8.638  49.586   7.246  1.00  0.00    +0.000 C 
ATOM     12  O2  UNL A   1       8.932  49.583   6.054  1.00  0.00    +0.000 O 
BRANCH   11   13
ATOM    107  H15 UNL A   1      11.104  49.784   8.084  1.00  0.00    +0.000 H 
ATOM     13  C9  UNL A   1       9.321  48.655   8.163  1.00  0.00    +0.000 C 
ATOM     14  C10 UNL A   1      10.656  48.946   8.483  1.00  0.00    +0.000 C 
ATOM     15  C11 UNL A   1      11.385  48.112   9.340  1.00  0.00    +0.000 C 
ATOM    115  H23 UNL A   1      11.259  46.358  10.507  1.00  0.00    +0.000 H 
ATOM    116  H24 UNL A   1       8.971  45.823   9.913  1.00  0.00    +0.000 H 
ATOM     26  C20 UNL A   1      10.745  46.977   9.862  1.00  0.00    +0.000 C 
ATOM     27  C21 UNL A   1       9.420  46.668   9.526  1.00  0.00    +0.000 C 
ATOM     28  C22 UNL A   1       8.712  47.503   8.667  1.00  0.00    +0.000 C 
BRANCH   15   16
ATOM    108  H16 UNL A   1      13.434  47.552   9.679  1.00  0.00    +0.000 H 
ATOM     16  C12 UNL A   1      12.792  48.359   9.712  1.00  0.00    +0.000 C 
BRANCH   16   17
ATOM     17  C13 UNL A   1      13.312  49.539  10.090  1.00  0.00    +0.000 C 
ATOM    109  H17 UNL A   1      12.706  50.204  10.594  1.00  0.00    +0.000 H 
BRANCH   17   18
ATOM    110  H18 UNL A   1      14.622  49.692   7.716  1.00  0.00    +0.000 H 
ATOM    112  H20 UNL A   1      18.306  51.087   9.186  1.00  0.00    +0.000 H 
ATOM     18  C14 UNL A   1      14.704  49.929   9.819  1.00  0.00    +0.000 C 
ATOM     19  C15 UNL A   1      15.214  49.972   8.514  1.00  0.00    +0.000 C 
ATOM    114  H22 UNL A   1      15.145  50.327  11.851  1.00  0.00    +0.000 H 
ATOM     20  C16 UNL A   1      16.525  50.395   8.295  1.00  0.00    +0.000 C 
ATOM     22  C17 UNL A   1      17.335  50.782   9.355  1.00  0.00    +0.000 C 
ATOM     23  C18 UNL A   1      16.823  50.753  10.646  1.00  0.00    +0.000 C 
ATOM     25  C19 UNL A   1      15.515  50.336  10.888  1.00  0.00    +0.000 C 
BRANCH   20   21
ATOM     21  O3  UNL A   1      17.050  50.452   7.038  1.00  0.00    +0.000 O 
ATOM    111  H19 UNL A   1      16.610  50.937   6.368  1.00  0.00    +0.000 H 
ENDBRANCH   20   21
BRANCH   23   24
ATOM    113  H21 UNL A   1      18.103  51.963  11.603  1.00  0.00    +0.000 H 
ATOM     24  O4  UNL A   1      17.640  51.150  11.663  1.00  0.00    +0.000 O 
ENDBRANCH   23   24
ENDBRANCH   17   18
ENDBRANCH   16   17
ENDBRANCH   15   16
BRANCH   28   29
ATOM    117  H25 UNL A   1       6.959  47.727   7.716  1.00  0.00    +0.000 H 
ATOM     29  O5  UNL A   1       7.427  47.190   8.325  1.00  0.00    +0.000 O 
ENDBRANCH   28   29
ENDBRANCH   11   13
ENDBRANCH   10   11
ENDBRANCH    9   10
ENDBRANCH    8    9
ENDBRANCH    7    8
ENDBRANCH    6    7
ENDBRANCH    5    6
ENDBRANCH    4    5
ENDBRANCH    3    4
ENDBRANCH    2    3
ENDBRANCH   30    2
ENDBRANCH   34   33
BRANCH   38   39
ATOM     39  C31 UNL A   1      12.550  47.894   4.919  1.00  0.00    +0.000 C 
ATOM     40  C32 UNL A   1      13.048  47.201   6.032  1.00  0.00    +0.000 C 
ATOM     41  F1  UNL A   1      14.275  47.472   6.502  1.00  0.00    +0.000 F 
ATOM     42  C33 UNL A   1      12.298  46.201   6.648  1.00  0.00    +0.000 C 
ATOM     43  F2  UNL A   1      12.810  45.526   7.686  1.00  0.00    +0.000 F 
ATOM     44  C34 UNL A   1      11.026  45.897   6.185  1.00  0.00    +0.000 C 
ATOM     45  F3  UNL A   1      10.303  44.941   6.784  1.00  0.00    +0.000 F 
ATOM     46  C35 UNL A   1      10.508  46.581   5.096  1.00  0.00    +0.000 C 
ATOM     47  F4  UNL A   1       9.274  46.297   4.653  1.00  0.00    +0.000 F 
ATOM     48  C36 UNL A   1      11.265  47.564   4.462  1.00  0.00    +0.000 C 
ATOM     49  F5  UNL A   1      10.739  48.201   3.406  1.00  0.00    +0.000 F 
ENDBRANCH   38   39
BRANCH   55   56
ATOM     65  C47 UNL A   1      18.068  48.075  -0.723  1.00  0.00    +0.000 C 
ATOM     66  F10 UNL A   1      18.798  48.159   0.399  1.00  0.00    +0.000 F 
ATOM     56  C42 UNL A   1      16.836  48.740  -0.818  1.00  0.00    +0.000 C 
ATOM     57  C43 UNL A   1      16.114  48.624  -2.014  1.00  0.00    +0.000 C 
ATOM     58  F6  UNL A   1      14.924  49.228  -2.145  1.00  0.00    +0.000 F 
ATOM     59  C44 UNL A   1      16.593  47.846  -3.065  1.00  0.00    +0.000 C 
ATOM     60  F7  UNL A   1      15.863  47.708  -4.179  1.00  0.00    +0.000 F 
ATOM     61  C45 UNL A   1      17.815  47.200  -2.951  1.00  0.00    +0.000 C 
ATOM     62  F8  UNL A   1      18.275  46.450  -3.964  1.00  0.00    +0.000 F 
ATOM     63  C46 UNL A   1      18.556  47.320  -1.786  1.00  0.00    +0.000 C 
ATOM     64  F9  UNL A   1      19.741  46.703  -1.678  1.00  0.00    +0.000 F 
ENDBRANCH   55   56
BRANCH   70   71
ATOM     71  C51 UNL A   1      17.858  55.379   1.000  1.00  0.00    +0.000 C 
ATOM     72  C52 UNL A   1      19.105  55.747   1.521  1.00  0.00    +0.000 C 
ATOM     73  F11 UNL A   1      19.598  55.110   2.593  1.00  0.00    +0.000 F 
ATOM     74  C53 UNL A   1      19.838  56.791   0.961  1.00  0.00    +0.000 C 
ATOM     75  F12 UNL A   1      21.013  57.147   1.500  1.00  0.00    +0.000 F 
ATOM     76  C54 UNL A   1      19.350  57.468  -0.146  1.00  0.00    +0.000 C 
ATOM     77  F13 UNL A   1      20.058  58.466  -0.690  1.00  0.00    +0.000 F 
ATOM     78  C55 UNL A   1      18.122  57.114  -0.685  1.00  0.00    +0.000 C 
ATOM     79  F14 UNL A   1      17.653  57.756  -1.764  1.00  0.00    +0.000 F 
ATOM     80  C56 UNL A   1      17.377  56.089  -0.109  1.00  0.00    +0.000 C 
ATOM     81  F15 UNL A   1      16.189  55.771  -0.646  1.00  0.00    +0.000 F 
ENDBRANCH   70   71
TORSDOF 21
ENDMDL
MODEL 9
REMARK VINA RESULT:      -7.1     47.037     51.566
ROOT
ATOM    129  H37 UNL A   1      11.616  28.890   3.836  1.00  0.00    +0.000 H 
ATOM     34  C27 UNL A   1       9.355  28.288   2.196  1.00  0.00    +0.000 C 
ATOM     35  C28 UNL A   1      10.362  29.391   2.015  1.00  0.00    +0.000 C 
ATOM     36  N3  UNL A   1      10.432  30.299   1.072  1.00  0.00    +0.000 N 
ATOM     37  C29 UNL A   1      11.523  31.097   1.388  1.00  0.00    +0.000 C 
ATOM     38  C30 UNL A   1      12.020  32.159   0.707  1.00  0.00    +0.000 C 
ATOM     50  C37 UNL A   1      11.485  32.652  -0.536  1.00  0.00    +0.000 C 
ATOM     51  C38 UNL A   1      11.953  33.687  -1.328  1.00  0.00    +0.000 C 
ATOM     52  C39 UNL A   1      11.088  33.832  -2.418  1.00  0.00    +0.000 C 
ATOM     53  C40 UNL A   1      10.107  32.858  -2.330  1.00  0.00    +0.000 C 
ATOM     54  N4  UNL A   1      10.360  32.144  -1.169  1.00  0.00    +0.000 N 
ATOM     55  C41 UNL A   1       9.017  32.597  -3.236  1.00  0.00    +0.000 C 
ATOM     67  C48 UNL A   1       8.100  31.611  -3.084  1.00  0.00    +0.000 C 
ATOM     68  N5  UNL A   1       7.995  30.666  -2.075  1.00  0.00    +0.000 N 
ATOM     69  C49 UNL A   1       6.935  29.952  -2.361  1.00  0.00    +0.000 C 
ATOM     70  C50 UNL A   1       6.356  28.779  -1.623  1.00  0.00    +0.000 C 
ATOM     82  C57 UNL A   1       6.933  28.374  -0.476  1.00  0.00    +0.000 C 
ATOM     83  C58 UNL A   1       6.486  27.249   0.338  1.00  0.00    +0.000 C 
ATOM     84  C59 UNL A   1       7.286  27.142   1.409  1.00  0.00    +0.000 C 
ATOM     85  C60 UNL A   1       8.334  28.160   1.328  1.00  0.00    +0.000 C 
ATOM     86  N6  UNL A   1       8.022  28.871   0.197  1.00  0.00    +0.000 N 
ATOM     87  C61 UNL A   1       6.234  30.374  -3.579  1.00  0.00    +0.000 C 
ATOM     88  C62 UNL A   1       7.007  31.365  -4.003  1.00  0.00    +0.000 C 
ATOM     89  C63 UNL A   1      12.078  30.581   2.621  1.00  0.00    +0.000 C 
ATOM     90  C64 UNL A   1      11.425  29.499   3.025  1.00  0.00    +0.000 C 
ATOM    120  H28 UNL A   1      12.795  34.255  -1.144  1.00  0.00    +0.000 H 
ATOM    121  H29 UNL A   1      11.168  34.542  -3.162  1.00  0.00    +0.000 H 
ATOM    122  H30 UNL A   1       9.820  31.388  -0.841  1.00  0.00    +0.000 H 
ATOM    123  H31 UNL A   1       5.684  26.635   0.124  1.00  0.00    +0.000 H 
ATOM    124  H32 UNL A   1       7.180  26.452   2.169  1.00  0.00    +0.000 H 
ATOM    125  H33 UNL A   1       8.528  29.659  -0.103  1.00  0.00    +0.000 H 
ATOM    126  H34 UNL A   1       5.367  29.998  -3.997  1.00  0.00    +0.000 H 
ATOM    127  H35 UNL A   1       6.849  31.893  -4.875  1.00  0.00    +0.000 H 
ATOM    128  H36 UNL A   1      12.876  31.001   3.122  1.00  0.00    +0.000 H 
ENDROOT
BRANCH   34   33
ATOM     33  C26 UNL A   1       9.490  27.298   3.296  1.00  0.00    +0.000 C 
ATOM    130  H38 UNL A   1       8.055  28.165   4.586  1.00  0.00    +0.000 H 
ATOM    131  H39 UNL A   1       8.421  26.599   6.406  1.00  0.00    +0.000 H 
ATOM    118  H26 UNL A   1      11.064  24.408   3.979  1.00  0.00    +0.000 H 
ATOM    119  H27 UNL A   1      10.912  26.116   2.268  1.00  0.00    +0.000 H 
ATOM     91  C65 UNL A   1       8.748  27.408   4.481  1.00  0.00    +0.000 C 
ATOM     92  C66 UNL A   1       8.942  26.494   5.522  1.00  0.00    +0.000 C 
ATOM     30  C23 UNL A   1       9.844  25.437   5.362  1.00  0.00    +0.000 C 
ATOM     31  C24 UNL A   1      10.492  25.252   4.139  1.00  0.00    +0.000 C 
ATOM     32  C25 UNL A   1      10.363  26.208   3.137  1.00  0.00    +0.000 C 
BRANCH   30    2
ATOM      1  O1  UNL A   1       9.613  23.411   6.520  1.00  0.00    +0.000 O 
ATOM      2  C1  UNL A   1      10.105  24.536   6.507  1.00  0.00    +0.000 C 
BRANCH    2    3
ATOM      3  N1  UNL A   1      10.861  24.975   7.568  1.00  0.00    +0.000 N 
ATOM     93  H1  UNL A   1      10.611  25.856   7.928  1.00  0.00    +0.000 H 
BRANCH    3    4
ATOM      4  C2  UNL A   1      11.977  24.324   8.235  1.00  0.00    +0.000 C 
ATOM     94  H2  UNL A   1      11.817  23.267   8.211  1.00  0.00    +0.000 H 
ATOM     95  H3  UNL A   1      12.014  24.705   9.235  1.00  0.00    +0.000 H 
BRANCH    4    5
ATOM     97  H5  UNL A   1      13.148  25.433   6.910  1.00  0.00    +0.000 H 
ATOM      5  C3  UNL A   1      13.323  24.624   7.587  1.00  0.00    +0.000 C 
ATOM     96  H4  UNL A   1      14.020  24.854   8.365  1.00  0.00    +0.000 H 
BRANCH    5    6
ATOM     98  H6  UNL A   1      13.727  22.573   7.252  1.00  0.00    +0.000 H 
ATOM     99  H7  UNL A   1      14.953  23.730   6.633  1.00  0.00    +0.000 H 
ATOM      6  C4  UNL A   1      13.914  23.496   6.744  1.00  0.00    +0.000 C 
BRANCH    6    7
ATOM    100  H8  UNL A   1      14.189  23.471   4.643  1.00  0.00    +0.000 H 
ATOM    101  H9  UNL A   1      12.622  24.128   5.228  1.00  0.00    +0.000 H 
ATOM      7  C5  UNL A   1      13.367  23.366   5.320  1.00  0.00    +0.000 C 
BRANCH    7    8
ATOM    102  H10 UNL A   1      11.609  22.186   5.183  1.00  0.00    +0.000 H 
ATOM    103  H11 UNL A   1      13.116  21.306   5.601  1.00  0.00    +0.000 H 
ATOM      8  C6  UNL A   1      12.653  22.051   4.988  1.00  0.00    +0.000 C 
BRANCH    8    9
ATOM      9  C7  UNL A   1      12.803  21.560   3.551  1.00  0.00    +0.000 C 
ATOM    105  H13 UNL A   1      13.773  21.852   3.205  1.00  0.00    +0.000 H 
ATOM    104  H12 UNL A   1      12.689  20.496   3.537  1.00  0.00    +0.000 H 
BRANCH    9   10
ATOM     10  N2  UNL A   1      11.819  22.146   2.664  1.00  0.00    +0.000 N 
ATOM    106  H14 UNL A   1      10.999  22.479   3.094  1.00  0.00    +0.000 H 
BRANCH   10   11
ATOM     11  C8  UNL A   1      11.884  22.296   1.302  1.00  0.00    +0.000 C 
ATOM     12  O2  UNL A   1      12.232  21.355   0.593  1.00  0.00    +0.000 O 
BRANCH   11   13
ATOM    107  H15 UNL A   1      13.388  24.362   0.764  1.00  0.00    +0.000 H 
ATOM     13  C9  UNL A   1      11.439  23.553   0.671  1.00  0.00    +0.000 C 
ATOM     14  C10 UNL A   1      12.414  24.542   0.475  1.00  0.00    +0.000 C 
ATOM     15  C11 UNL A   1      12.081  25.770  -0.109  1.00  0.00    +0.000 C 
ATOM    115  H23 UNL A   1      10.481  26.875  -0.932  1.00  0.00    +0.000 H 
ATOM    116  H24 UNL A   1       8.785  25.188  -0.545  1.00  0.00    +0.000 H 
ATOM     26  C20 UNL A   1      10.745  25.983  -0.486  1.00  0.00    +0.000 C 
ATOM     27  C21 UNL A   1       9.763  25.008  -0.270  1.00  0.00    +0.000 C 
ATOM     28  C22 UNL A   1      10.110  23.795   0.320  1.00  0.00    +0.000 C 
BRANCH   15   16
ATOM    108  H16 UNL A   1      14.041  26.575  -0.481  1.00  0.00    +0.000 H 
ATOM     16  C12 UNL A   1      13.057  26.853  -0.338  1.00  0.00    +0.000 C 
BRANCH   16   17
ATOM     17  C13 UNL A   1      12.782  28.167  -0.376  1.00  0.00    +0.000 C 
ATOM    109  H17 UNL A   1      12.706  28.679   0.517  1.00  0.00    +0.000 H 
BRANCH   17   18
ATOM    110  H18 UNL A   1      10.769  27.975  -2.188  1.00  0.00    +0.000 H 
ATOM    112  H20 UNL A   1      12.069  30.994  -4.809  1.00  0.00    +0.000 H 
ATOM     18  C14 UNL A   1      12.583  28.913  -1.628  1.00  0.00    +0.000 C 
ATOM     19  C15 UNL A   1      11.462  28.697  -2.441  1.00  0.00    +0.000 C 
ATOM    114  H22 UNL A   1      14.321  30.096  -1.375  1.00  0.00    +0.000 H 
ATOM     20  C16 UNL A   1      11.285  29.459  -3.595  1.00  0.00    +0.000 C 
ATOM     22  C17 UNL A   1      12.203  30.439  -3.950  1.00  0.00    +0.000 C 
ATOM     23  C18 UNL A   1      13.305  30.663  -3.135  1.00  0.00    +0.000 C 
ATOM     25  C19 UNL A   1      13.502  29.914  -1.975  1.00  0.00    +0.000 C 
BRANCH   20   21
ATOM     21  O3  UNL A   1      10.204  29.275  -4.406  1.00  0.00    +0.000 O 
ATOM    111  H19 UNL A   1       9.888  28.411  -4.578  1.00  0.00    +0.000 H 
ENDBRANCH   20   21
BRANCH   23   24
ATOM    113  H21 UNL A   1      14.652  32.120  -2.850  1.00  0.00    +0.000 H 
ATOM     24  O4  UNL A   1      14.182  31.640  -3.504  1.00  0.00    +0.000 O 
ENDBRANCH   23   24
ENDBRANCH   17   18
ENDBRANCH   16   17
ENDBRANCH   15   16
BRANCH   28   29
ATOM    117  H25 UNL A   1       9.370  21.943   0.539  1.00  0.00    +0.000 H 
ATOM     29  O5  UNL A   1       9.147  22.853   0.547  1.00  0.00    +0.000 O 
ENDBRANCH   28   29
ENDBRANCH   11   13
ENDBRANCH   10   11
ENDBRANCH    9   10
ENDBRANCH    8    9
ENDBRANCH    7    8
ENDBRANCH    6    7
ENDBRANCH    5    6
ENDBRANCH    4    5
ENDBRANCH    3    4
ENDBRANCH    2    3
ENDBRANCH   30    2
ENDBRANCH   34   33
BRANCH   38   39
ATOM     39  C31 UNL A   1      13.199  32.875   1.299  1.00  0.00    +0.000 C 
ATOM     40  C32 UNL A   1      13.046  34.016   2.100  1.00  0.00    +0.000 C 
ATOM     41  F1  UNL A   1      11.826  34.533   2.312  1.00  0.00    +0.000 F 
ATOM     42  C33 UNL A   1      14.151  34.651   2.662  1.00  0.00    +0.000 C 
ATOM     43  F2  UNL A   1      13.984  35.762   3.392  1.00  0.00    +0.000 F 
ATOM     44  C34 UNL A   1      15.426  34.141   2.461  1.00  0.00    +0.000 C 
ATOM     45  F3  UNL A   1      16.487  34.748   3.008  1.00  0.00    +0.000 F 
ATOM     46  C35 UNL A   1      15.599  33.005   1.685  1.00  0.00    +0.000 C 
ATOM     47  F4  UNL A   1      16.829  32.504   1.499  1.00  0.00    +0.000 F 
ATOM     48  C36 UNL A   1      14.498  32.382   1.101  1.00  0.00    +0.000 C 
ATOM     49  F5  UNL A   1      14.700  31.290   0.349  1.00  0.00    +0.000 F 
ENDBRANCH   38   39
BRANCH   55   56
ATOM     65  C47 UNL A   1       8.180  34.669  -4.399  1.00  0.00    +0.000 C 
ATOM     66  F10 UNL A   1       7.613  35.067  -3.251  1.00  0.00    +0.000 F 
ATOM     56  C42 UNL A   1       8.893  33.461  -4.455  1.00  0.00    +0.000 C 
ATOM     57  C43 UNL A   1       9.463  33.088  -5.680  1.00  0.00    +0.000 C 
ATOM     58  F6  UNL A   1      10.168  31.952  -5.778  1.00  0.00    +0.000 F 
ATOM     59  C44 UNL A   1       9.349  33.908  -6.801  1.00  0.00    +0.000 C 
ATOM     60  F7  UNL A   1       9.944  33.557  -7.948  1.00  0.00    +0.000 F 
ATOM     61  C45 UNL A   1       8.637  35.096  -6.724  1.00  0.00    +0.000 C 
ATOM     62  F8  UNL A   1       8.529  35.884  -7.803  1.00  0.00    +0.000 F 
ATOM     63  C46 UNL A   1       8.046  35.472  -5.528  1.00  0.00    +0.000 C 
ATOM     64  F9  UNL A   1       7.350  36.616  -5.455  1.00  0.00    +0.000 F 
ENDBRANCH   55   56
BRANCH   70   71
ATOM     71  C51 UNL A   1       5.173  28.051  -2.149  1.00  0.00    +0.000 C 
ATOM     72  C52 UNL A   1       5.325  26.983  -3.041  1.00  0.00    +0.000 C 
ATOM     73  F11 UNL A   1       6.549  26.626  -3.458  1.00  0.00    +0.000 F 
ATOM     74  C53 UNL A   1       4.218  26.295  -3.533  1.00  0.00    +0.000 C 
ATOM     75  F12 UNL A   1       4.388  25.299  -4.414  1.00  0.00    +0.000 F 
ATOM     76  C54 UNL A   1       2.942  26.645  -3.121  1.00  0.00    +0.000 C 
ATOM     77  F13 UNL A   1       1.878  25.978  -3.587  1.00  0.00    +0.000 F 
ATOM     78  C55 UNL A   1       2.769  27.694  -2.229  1.00  0.00    +0.000 C 
ATOM     79  F14 UNL A   1       1.537  28.026  -1.816  1.00  0.00    +0.000 F 
ATOM     80  C56 UNL A   1       3.873  28.399  -1.759  1.00  0.00    +0.000 C 
ATOM     81  F15 UNL A   1       3.676  29.413  -0.902  1.00  0.00    +0.000 F 
ENDBRANCH   70   71
TORSDOF 21
ENDMDL
MODEL 10
REMARK VINA RESULT:      -7.1     44.188     46.875
ROOT
ATOM    129  H37 UNL A   1      12.247  52.451   7.140  1.00  0.00    +0.000 H 
ATOM     34  C27 UNL A   1      14.061  53.714   5.330  1.00  0.00    +0.000 C 
ATOM     35  C28 UNL A   1      13.601  52.283   5.329  1.00  0.00    +0.000 C 
ATOM     36  N3  UNL A   1      13.914  51.315   4.502  1.00  0.00    +0.000 N 
ATOM     37  C29 UNL A   1      13.249  50.186   4.963  1.00  0.00    +0.000 C 
ATOM     38  C30 UNL A   1      13.238  48.938   4.436  1.00  0.00    +0.000 C 
ATOM     50  C37 UNL A   1      13.931  48.555   3.233  1.00  0.00    +0.000 C 
ATOM     51  C38 UNL A   1      13.935  47.327   2.592  1.00  0.00    +0.000 C 
ATOM     52  C39 UNL A   1      14.785  47.414   1.483  1.00  0.00    +0.000 C 
ATOM     53  C40 UNL A   1      15.276  48.707   1.408  1.00  0.00    +0.000 C 
ATOM     54  N4  UNL A   1      14.747  49.395   2.490  1.00  0.00    +0.000 N 
ATOM     55  C41 UNL A   1      16.163  49.275   0.426  1.00  0.00    +0.000 C 
ATOM     67  C48 UNL A   1      16.590  50.561   0.415  1.00  0.00    +0.000 C 
ATOM     68  N5  UNL A   1      16.292  51.585   1.302  1.00  0.00    +0.000 N 
ATOM     69  C49 UNL A   1      16.964  52.629   0.882  1.00  0.00    +0.000 C 
ATOM     70  C50 UNL A   1      17.005  54.019   1.449  1.00  0.00    +0.000 C 
ATOM     82  C57 UNL A   1      16.309  54.293   2.568  1.00  0.00    +0.000 C 
ATOM     83  C58 UNL A   1      16.250  55.595   3.223  1.00  0.00    +0.000 C 
ATOM     84  C59 UNL A   1      15.474  55.499   4.313  1.00  0.00    +0.000 C 
ATOM     85  C60 UNL A   1      14.941  54.139   4.404  1.00  0.00    +0.000 C 
ATOM     86  N6  UNL A   1      15.521  53.483   3.349  1.00  0.00    +0.000 N 
ATOM     87  C61 UNL A   1      17.780  52.381  -0.313  1.00  0.00    +0.000 C 
ATOM     88  C62 UNL A   1      17.486  51.115  -0.579  1.00  0.00    +0.000 C 
ATOM     89  C63 UNL A   1      12.528  50.581   6.154  1.00  0.00    +0.000 C 
ATOM     90  C64 UNL A   1      12.674  51.877   6.396  1.00  0.00    +0.000 C 
ATOM    120  H28 UNL A   1      13.403  46.493   2.882  1.00  0.00    +0.000 H 
ATOM    121  H29 UNL A   1      15.008  46.646   0.832  1.00  0.00    +0.000 H 
ATOM    122  H30 UNL A   1      14.926  50.340   2.700  1.00  0.00    +0.000 H 
ATOM    123  H31 UNL A   1      16.727  56.452   2.900  1.00  0.00    +0.000 H 
ATOM    124  H32 UNL A   1      15.284  56.262   4.981  1.00  0.00    +0.000 H 
ATOM    125  H33 UNL A   1      15.387  52.525   3.167  1.00  0.00    +0.000 H 
ATOM    126  H34 UNL A   1      18.415  53.023  -0.814  1.00  0.00    +0.000 H 
ATOM    127  H35 UNL A   1      17.851  50.593  -1.391  1.00  0.00    +0.000 H 
ATOM    128  H36 UNL A   1      11.973  49.938   6.740  1.00  0.00    +0.000 H 
ENDROOT
BRANCH   34   33
ATOM     33  C26 UNL A   1      13.527  54.693   6.313  1.00  0.00    +0.000 C 
ATOM    130  H38 UNL A   1      15.022  54.408   7.783  1.00  0.00    +0.000 H 
ATOM    131  H39 UNL A   1      14.023  55.914   9.406  1.00  0.00    +0.000 H 
ATOM    118  H26 UNL A   1      11.096  56.998   6.589  1.00  0.00    +0.000 H 
ATOM    119  H27 UNL A   1      11.923  55.300   5.073  1.00  0.00    +0.000 H 
ATOM     91  C65 UNL A   1      14.147  54.905   7.554  1.00  0.00    +0.000 C 
ATOM     92  C66 UNL A   1      13.584  55.788   8.481  1.00  0.00    +0.000 C 
ATOM     30  C23 UNL A   1      12.427  56.500   8.152  1.00  0.00    +0.000 C 
ATOM     31  C24 UNL A   1      11.877  56.386   6.873  1.00  0.00    +0.000 C 
ATOM     32  C25 UNL A   1      12.386  55.445   5.984  1.00  0.00    +0.000 C 
BRANCH   30    2
ATOM      1  O1  UNL A   1      11.895  58.579   9.098  1.00  0.00    +0.000 O 
ATOM      2  C1  UNL A   1      11.795  57.358   9.180  1.00  0.00    +0.000 C 
BRANCH    2    3
ATOM      3  N1  UNL A   1      11.135  56.786  10.241  1.00  0.00    +0.000 N 
ATOM     93  H1  UNL A   1      11.299  57.206  11.116  1.00  0.00    +0.000 H 
BRANCH    3    4
ATOM      4  C2  UNL A   1      10.230  55.648  10.259  1.00  0.00    +0.000 C 
ATOM     94  H2  UNL A   1       9.803  55.540   9.283  1.00  0.00    +0.000 H 
ATOM     95  H3  UNL A   1       9.487  55.845  11.004  1.00  0.00    +0.000 H 
BRANCH    4    5
ATOM     97  H5  UNL A   1      11.921  54.598  10.882  1.00  0.00    +0.000 H 
ATOM      5  C3  UNL A   1      10.913  54.340  10.635  1.00  0.00    +0.000 C 
ATOM     96  H4  UNL A   1      10.367  53.904  11.445  1.00  0.00    +0.000 H 
BRANCH    5    6
ATOM     98  H6  UNL A   1      10.818  52.340   9.949  1.00  0.00    +0.000 H 
ATOM     99  H7  UNL A   1      11.991  53.408   9.108  1.00  0.00    +0.000 H 
ATOM      6  C4  UNL A   1      11.009  53.301   9.520  1.00  0.00    +0.000 C 
BRANCH    6    7
ATOM    100  H8  UNL A   1      10.605  53.882   7.523  1.00  0.00    +0.000 H 
ATOM    101  H9  UNL A   1       9.277  54.140   8.705  1.00  0.00    +0.000 H 
ATOM      7  C5  UNL A   1      10.045  53.488   8.345  1.00  0.00    +0.000 C 
BRANCH    7    8
ATOM    102  H10 UNL A   1      10.041  51.439   7.799  1.00  0.00    +0.000 H 
ATOM    103  H11 UNL A   1       8.884  52.490   6.916  1.00  0.00    +0.000 H 
ATOM      8  C6  UNL A   1       9.321  52.229   7.858  1.00  0.00    +0.000 C 
BRANCH    8    9
ATOM      9  C7  UNL A   1       8.166  51.749   8.732  1.00  0.00    +0.000 C 
ATOM    105  H13 UNL A   1       8.277  52.197   9.697  1.00  0.00    +0.000 H 
ATOM    104  H12 UNL A   1       7.244  52.037   8.272  1.00  0.00    +0.000 H 
BRANCH    9   10
ATOM     10  N2  UNL A   1       8.171  50.310   8.907  1.00  0.00    +0.000 N 
ATOM    106  H14 UNL A   1       7.518  49.955   9.551  1.00  0.00    +0.000 H 
BRANCH   10   11
ATOM     11  C8  UNL A   1       8.969  49.381   8.288  1.00  0.00    +0.000 C 
ATOM     12  O2  UNL A   1       8.914  49.232   7.071  1.00  0.00    +0.000 O 
BRANCH   11   13
ATOM    107  H15 UNL A   1      11.528  49.891   8.406  1.00  0.00    +0.000 H 
ATOM     13  C9  UNL A   1       9.970  48.627   9.066  1.00  0.00    +0.000 C 
ATOM     14  C10 UNL A   1      11.299  49.070   8.986  1.00  0.00    +0.000 C 
ATOM     15  C11 UNL A   1      12.317  48.410   9.684  1.00  0.00    +0.000 C 
ATOM    115  H23 UNL A   1      12.703  46.801  10.996  1.00  0.00    +0.000 H 
ATOM    116  H24 UNL A   1      10.417  46.002  11.094  1.00  0.00    +0.000 H 
ATOM     26  C20 UNL A   1      11.970  47.293  10.461  1.00  0.00    +0.000 C 
ATOM     27  C21 UNL A   1      10.649  46.832  10.525  1.00  0.00    +0.000 C 
ATOM     28  C22 UNL A   1       9.650  47.494   9.818  1.00  0.00    +0.000 C 
BRANCH   15   16
ATOM    108  H16 UNL A   1      14.440  48.069   9.630  1.00  0.00    +0.000 H 
ATOM     16  C12 UNL A   1      13.734  48.822   9.638  1.00  0.00    +0.000 C 
BRANCH   16   17
ATOM     17  C13 UNL A   1      14.187  50.086   9.606  1.00  0.00    +0.000 C 
ATOM    109  H17 UNL A   1      14.505  50.471   8.704  1.00  0.00    +0.000 H 
BRANCH   17   18
ATOM    110  H18 UNL A   1      14.453  49.392  12.217  1.00  0.00    +0.000 H 
ATOM    112  H20 UNL A   1      14.549  53.272  13.834  1.00  0.00    +0.000 H 
ATOM     18  C14 UNL A   1      14.253  50.948  10.796  1.00  0.00    +0.000 C 
ATOM     19  C15 UNL A   1      14.414  50.414  12.082  1.00  0.00    +0.000 C 
ATOM    114  H22 UNL A   1      14.126  52.746   9.684  1.00  0.00    +0.000 H 
ATOM     20  C16 UNL A   1      14.520  51.268  13.179  1.00  0.00    +0.000 C 
ATOM     22  C17 UNL A   1      14.476  52.647  13.016  1.00  0.00    +0.000 C 
ATOM     23  C18 UNL A   1      14.332  53.175  11.740  1.00  0.00    +0.000 C 
ATOM     25  C19 UNL A   1      14.225  52.340  10.628  1.00  0.00    +0.000 C 
BRANCH   20   21
ATOM     21  O3  UNL A   1      14.682  50.780  14.442  1.00  0.00    +0.000 O 
ATOM    111  H19 UNL A   1      15.251  50.052  14.595  1.00  0.00    +0.000 H 
ENDBRANCH   20   21
BRANCH   23   24
ATOM    113  H21 UNL A   1      14.875  55.064  12.131  1.00  0.00    +0.000 H 
ATOM     24  O4  UNL A   1      14.304  54.532  11.612  1.00  0.00    +0.000 O 
ENDBRANCH   23   24
ENDBRANCH   17   18
ENDBRANCH   16   17
ENDBRANCH   15   16
BRANCH   28   29
ATOM    117  H25 UNL A   1       8.111  46.298   9.342  1.00  0.00    +0.000 H 
ATOM     29  O5  UNL A   1       8.366  47.031   9.867  1.00  0.00    +0.000 O 
ENDBRANCH   28   29
ENDBRANCH   11   13
ENDBRANCH   10   11
ENDBRANCH    9   10
ENDBRANCH    8    9
ENDBRANCH    7    8
ENDBRANCH    6    7
ENDBRANCH    5    6
ENDBRANCH    4    5
ENDBRANCH    3    4
ENDBRANCH    2    3
ENDBRANCH   30    2
ENDBRANCH   34   33
BRANCH   38   39
ATOM     39  C31 UNL A   1      12.458  47.882   5.165  1.00  0.00    +0.000 C 
ATOM     40  C32 UNL A   1      13.002  47.175   6.247  1.00  0.00    +0.000 C 
ATOM     41  F1  UNL A   1      14.271  47.392   6.624  1.00  0.00    +0.000 F 
ATOM     42  C33 UNL A   1      12.253  46.218   6.928  1.00  0.00    +0.000 C 
ATOM     43  F2  UNL A   1      12.807  45.528   7.934  1.00  0.00    +0.000 F 
ATOM     44  C34 UNL A   1      10.938  45.971   6.561  1.00  0.00    +0.000 C 
ATOM     45  F3  UNL A   1      10.217  45.056   7.222  1.00  0.00    +0.000 F 
ATOM     46  C35 UNL A   1      10.375  46.669   5.504  1.00  0.00    +0.000 C 
ATOM     47  F4  UNL A   1       9.100  46.441   5.156  1.00  0.00    +0.000 F 
ATOM     48  C36 UNL A   1      11.129  47.609   4.805  1.00  0.00    +0.000 C 
ATOM     49  F5  UNL A   1      10.558  48.262   3.783  1.00  0.00    +0.000 F 
ENDBRANCH   38   39
BRANCH   55   56
ATOM     65  C47 UNL A   1      15.796  48.110  -1.778  1.00  0.00    +0.000 C 
ATOM     66  F10 UNL A   1      14.564  48.638  -1.836  1.00  0.00    +0.000 F 
ATOM     56  C42 UNL A   1      16.636  48.391  -0.690  1.00  0.00    +0.000 C 
ATOM     57  C43 UNL A   1      17.912  47.811  -0.676  1.00  0.00    +0.000 C 
ATOM     58  F6  UNL A   1      18.757  48.065   0.335  1.00  0.00    +0.000 F 
ATOM     59  C44 UNL A   1      18.342  47.004  -1.726  1.00  0.00    +0.000 C 
ATOM     60  F7  UNL A   1      19.583  46.500  -1.716  1.00  0.00    +0.000 F 
ATOM     61  C45 UNL A   1      17.493  46.735  -2.790  1.00  0.00    +0.000 C 
ATOM     62  F8  UNL A   1      17.909  45.958  -3.800  1.00  0.00    +0.000 F 
ATOM     63  C46 UNL A   1      16.219  47.281  -2.813  1.00  0.00    +0.000 C 
ATOM     64  F9  UNL A   1      15.395  47.015  -3.836  1.00  0.00    +0.000 F 
ENDBRANCH   55   56
BRANCH   70   71
ATOM     71  C51 UNL A   1      17.782  55.095   0.784  1.00  0.00    +0.000 C 
ATOM     72  C52 UNL A   1      17.282  55.747  -0.350  1.00  0.00    +0.000 C 
ATOM     73  F11 UNL A   1      16.101  55.379  -0.868  1.00  0.00    +0.000 F 
ATOM     74  C53 UNL A   1      18.007  56.760  -0.974  1.00  0.00    +0.000 C 
ATOM     75  F12 UNL A   1      17.523  57.345  -2.078  1.00  0.00    +0.000 F 
ATOM     76  C54 UNL A   1      19.232  57.157  -0.460  1.00  0.00    +0.000 C 
ATOM     77  F13 UNL A   1      19.925  58.137  -1.055  1.00  0.00    +0.000 F 
ATOM     78  C55 UNL A   1      19.742  56.531   0.668  1.00  0.00    +0.000 C 
ATOM     79  F14 UNL A   1      20.919  56.922   1.178  1.00  0.00    +0.000 F 
ATOM     80  C56 UNL A   1      19.031  55.501   1.276  1.00  0.00    +0.000 C 
ATOM     81  F15 UNL A   1      19.550  54.909   2.362  1.00  0.00    +0.000 F 
ENDBRANCH   70   71
TORSDOF 21
ENDMDL
