MODEL 1
REMARK VINA RESULT:      -8.8      0.000      0.000
ROOT
ATOM    129  H29 UNL A   1      12.297   7.275  29.570  1.00  0.00    +0.000 H 
ATOM    130  H30 UNL A   1      11.360   9.552  28.869  1.00  0.00    +0.000 H 
ATOM    131  H31 UNL A   1       4.160   5.025  23.506  1.00  0.00    +0.000 H 
ATOM    132  H32 UNL A   1       4.912   2.753  24.415  1.00  0.00    +0.000 H 
ATOM     28  C22 UNL A   1       7.266   2.873  26.029  1.00  0.00    +0.000 C 
ATOM     29  C23 UNL A   1       6.505   4.021  25.414  1.00  0.00    +0.000 C 
ATOM     30  N3  UNL A   1       6.737   5.307  25.495  1.00  0.00    +0.000 N 
ATOM     31  C24 UNL A   1       5.753   5.923  24.732  1.00  0.00    +0.000 C 
ATOM     32  C25 UNL A   1       5.535   7.246  24.540  1.00  0.00    +0.000 C 
ATOM     44  C32 UNL A   1       6.330   8.294  25.125  1.00  0.00    +0.000 C 
ATOM     45  C33 UNL A   1       6.173   9.664  25.004  1.00  0.00    +0.000 C 
ATOM     46  C34 UNL A   1       7.211  10.288  25.704  1.00  0.00    +0.000 C 
ATOM     47  C35 UNL A   1       7.981   9.309  26.310  1.00  0.00    +0.000 C 
ATOM     48  N4  UNL A   1       7.431   8.090  25.944  1.00  0.00    +0.000 N 
ATOM     49  C36 UNL A   1       9.138   9.472  27.153  1.00  0.00    +0.000 C 
ATOM     61  C43 UNL A   1       9.809   8.459  27.753  1.00  0.00    +0.000 C 
ATOM     62  N5  UNL A   1       9.564   7.094  27.688  1.00  0.00    +0.000 N 
ATOM     63  C44 UNL A   1      10.502   6.526  28.405  1.00  0.00    +0.000 C 
ATOM     64  C45 UNL A   1      10.723   5.067  28.694  1.00  0.00    +0.000 C 
ATOM     76  C52 UNL A   1       9.913   4.154  28.125  1.00  0.00    +0.000 C 
ATOM     77  C53 UNL A   1      10.019   2.709  28.303  1.00  0.00    +0.000 C 
ATOM     78  C54 UNL A   1       9.109   2.106  27.524  1.00  0.00    +0.000 C 
ATOM     79  C55 UNL A   1       8.307   3.125  26.847  1.00  0.00    +0.000 C 
ATOM     80  N6  UNL A   1       8.856   4.312  27.263  1.00  0.00    +0.000 N 
ATOM     81  C56 UNL A   1      11.460   7.469  28.998  1.00  0.00    +0.000 C 
ATOM     82  C57 UNL A   1      10.968   8.635  28.604  1.00  0.00    +0.000 C 
ATOM     83  C58 UNL A   1       4.940   4.870  24.164  1.00  0.00    +0.000 C 
ATOM     84  C59 UNL A   1       5.327   3.679  24.599  1.00  0.00    +0.000 C 
ATOM    123  H23 UNL A   1       5.420  10.144  24.486  1.00  0.00    +0.000 H 
ATOM    124  H24 UNL A   1       7.375  11.305  25.760  1.00  0.00    +0.000 H 
ATOM    125  H25 UNL A   1       7.771   7.210  26.224  1.00  0.00    +0.000 H 
ATOM    126  H26 UNL A   1      10.687   2.229  28.927  1.00  0.00    +0.000 H 
ATOM    127  H27 UNL A   1       8.993   1.085  27.420  1.00  0.00    +0.000 H 
ATOM    128  H28 UNL A   1       8.525   5.191  26.971  1.00  0.00    +0.000 H 
ENDROOT
BRANCH   28   27
ATOM    122  H22 UNL A   1       5.528   1.402  27.450  1.00  0.00    +0.000 H 
ATOM    133  H33 UNL A   1       8.110   1.106  24.137  1.00  0.00    +0.000 H 
ATOM    134  H34 UNL A   1       7.136  -1.050  23.581  1.00  0.00    +0.000 H 
ATOM     85  C60 UNL A   1       7.340   0.727  24.709  1.00  0.00    +0.000 C 
ATOM     86  C61 UNL A   1       6.798  -0.526  24.403  1.00  0.00    +0.000 C 
ATOM     24  C18 UNL A   1       5.796  -1.066  25.215  1.00  0.00    +0.000 C 
ATOM     25  C19 UNL A   1       5.418  -0.409  26.387  1.00  0.00    +0.000 C 
ATOM     26  C20 UNL A   1       5.885   0.877  26.636  1.00  0.00    +0.000 C 
ATOM     27  C21 UNL A   1       6.839   1.468  25.791  1.00  0.00    +0.000 C 
ATOM    121  H21 UNL A   1       4.794  -0.875  27.065  1.00  0.00    +0.000 H 
BRANCH   24   22
ATOM     22  C17 UNL A   1       5.111  -2.305  24.784  1.00  0.00    +0.000 C 
ATOM     23  O4  UNL A   1       3.995  -2.240  24.277  1.00  0.00    +0.000 O 
BRANCH   22   21
ATOM     21  N2  UNL A   1       5.710  -3.526  24.997  1.00  0.00    +0.000 N 
ATOM    120  H20 UNL A   1       5.462  -4.233  24.358  1.00  0.00    +0.000 H 
BRANCH   21   20
ATOM     20  C16 UNL A   1       6.657  -3.925  26.027  1.00  0.00    +0.000 C 
ATOM    118  H18 UNL A   1       6.544  -3.266  26.863  1.00  0.00    +0.000 H 
ATOM    119  H19 UNL A   1       6.439  -4.941  26.279  1.00  0.00    +0.000 H 
BRANCH   20   19
ATOM     19  C15 UNL A   1       8.109  -3.878  25.569  1.00  0.00    +0.000 C 
ATOM    116  H16 UNL A   1       8.524  -4.856  25.697  1.00  0.00    +0.000 H 
ATOM    117  H17 UNL A   1       8.080  -3.546  24.552  1.00  0.00    +0.000 H 
BRANCH   19   18
ATOM     18  C14 UNL A   1       9.009  -2.886  26.303  1.00  0.00    +0.000 C 
ATOM    115  H15 UNL A   1       9.448  -3.441  27.105  1.00  0.00    +0.000 H 
ATOM    114  H14 UNL A   1       8.399  -2.063  26.613  1.00  0.00    +0.000 H 
BRANCH   18   17
ATOM     17  C13 UNL A   1      10.187  -2.318  25.509  1.00  0.00    +0.000 C 
ATOM    113  H13 UNL A   1      10.184  -1.269  25.720  1.00  0.00    +0.000 H 
ATOM    112  H12 UNL A   1      10.035  -2.570  24.481  1.00  0.00    +0.000 H 
BRANCH   17   16
ATOM    110  H10 UNL A   1      11.485  -3.807  26.255  1.00  0.00    +0.000 H 
ATOM    111  H11 UNL A   1      12.171  -2.681  25.018  1.00  0.00    +0.000 H 
ATOM     16  C12 UNL A   1      11.582  -2.801  25.903  1.00  0.00    +0.000 C 
BRANCH   16   15
ATOM    108  H8  UNL A   1      11.612  -1.386  27.475  1.00  0.00    +0.000 H 
ATOM    109  H9  UNL A   1      12.782  -2.740  27.609  1.00  0.00    +0.000 H 
ATOM     15  C11 UNL A   1      12.324  -2.011  26.975  1.00  0.00    +0.000 C 
BRANCH   15   14
ATOM    107  H7  UNL A   1      14.285  -1.600  26.476  1.00  0.00    +0.000 H 
ATOM     14  N1  UNL A   1      13.402  -1.165  26.502  1.00  0.00    +0.000 N 
BRANCH   14   12
ATOM     12  C10 UNL A   1      13.389   0.147  26.084  1.00  0.00    +0.000 C 
ATOM     13  O3  UNL A   1      14.075   0.973  26.684  1.00  0.00    +0.000 O 
BRANCH   12   11
ATOM    135  H35 UNL A   1      14.016  -0.148  23.397  1.00  0.00    +0.000 H 
ATOM    136  H36 UNL A   1      13.061   1.152  21.582  1.00  0.00    +0.000 H 
ATOM      9  C7  UNL A   1      10.798   1.829  23.941  1.00  0.00    +0.000 C 
ATOM    105  H5  UNL A   1       9.849   2.220  24.039  1.00  0.00    +0.000 H 
ATOM      8  C6  UNL A   1      11.488   1.947  22.741  1.00  0.00    +0.000 C 
ATOM     10  C8  UNL A   1      11.409   1.171  25.013  1.00  0.00    +0.000 C 
ATOM    106  H6  UNL A   1      10.933   1.130  25.928  1.00  0.00    +0.000 H 
ATOM     11  C9  UNL A   1      12.666   0.567  24.852  1.00  0.00    +0.000 C 
ATOM     87  C62 UNL A   1      13.202   0.462  23.569  1.00  0.00    +0.000 C 
ATOM     88  C63 UNL A   1      12.634   1.183  22.520  1.00  0.00    +0.000 C 
BRANCH    8    7
ATOM      7  O2  UNL A   1      11.063   2.723  21.706  1.00  0.00    +0.000 O 
BRANCH    7    6
ATOM      2  C2  UNL A   1       7.395   2.686  19.635  1.00  0.00    +0.000 C 
ATOM      3  C3  UNL A   1       7.846   3.837  20.136  1.00  0.00    +0.000 C 
ATOM    100  O7  UNL A   1       8.031   1.483  19.853  1.00  0.00    +0.000 O 
ATOM      4  C4  UNL A   1       9.098   3.834  20.902  1.00  0.00    +0.000 C 
ATOM      5  O1  UNL A   1       9.489   4.883  21.409  1.00  0.00    +0.000 O 
ATOM      6  C5  UNL A   1       9.852   2.546  21.045  1.00  0.00    +0.000 C 
ATOM    104  H4  UNL A   1       7.324   4.715  19.985  1.00  0.00    +0.000 H 
ATOM     89  C64 UNL A   1       9.231   1.437  20.560  1.00  0.00    +0.000 C 
BRANCH    2    1
ATOM      1  C1  UNL A   1       6.152   2.590  18.809  1.00  0.00    +0.000 C 
ATOM    101  H1  UNL A   1       6.387   2.152  17.861  1.00  0.00    +0.000 H 
ATOM    102  H2  UNL A   1       5.747   3.570  18.659  1.00  0.00    +0.000 H 
ATOM    103  H3  UNL A   1       5.433   1.980  19.315  1.00  0.00    +0.000 H 
ENDBRANCH    2    1
BRANCH   89   90
ATOM     98  C70 UNL A   1      10.968  -1.847  19.804  1.00  0.00    +0.000 C 
ATOM     99  C71 UNL A   1      10.595  -0.501  19.732  1.00  0.00    +0.000 C 
ATOM    137  H37 UNL A   1       8.605  -0.374  22.429  1.00  0.00    +0.000 H 
ATOM    138  H38 UNL A   1       9.210  -2.725  22.531  1.00  0.00    +0.000 H 
ATOM    142  H42 UNL A   1      11.626  -2.241  19.112  1.00  0.00    +0.000 H 
ATOM    143  H43 UNL A   1      10.990   0.102  18.992  1.00  0.00    +0.000 H 
ATOM     90  C65 UNL A   1       9.687   0.036  20.657  1.00  0.00    +0.000 C 
ATOM     91  C66 UNL A   1       9.220  -0.776  21.705  1.00  0.00    +0.000 C 
ATOM     92  C67 UNL A   1       9.581  -2.126  21.776  1.00  0.00    +0.000 C 
ATOM     93  C68 UNL A   1      10.448  -2.656  20.817  1.00  0.00    +0.000 C 
BRANCH   93   94
ATOM     97  O6  UNL A   1      11.545  -4.692  22.051  1.00  0.00    +0.000 O 
ATOM     94  S1  UNL A   1      10.797  -4.401  20.840  1.00  0.00    +0.000 S 
ATOM     96  O5  UNL A   1      11.310  -4.754  19.532  1.00  0.00    +0.000 O 
BRANCH   94   95
ATOM    139  H39 UNL A   1       9.262  -5.952  21.721  1.00  0.00    +0.000 H 
ATOM    140  H40 UNL A   1       8.880  -5.529  20.069  1.00  0.00    +0.000 H 
ATOM    141  H41 UNL A   1       8.503  -4.420  21.365  1.00  0.00    +0.000 H 
ATOM     95  C69 UNL A   1       9.203  -5.150  21.016  1.00  0.00    +0.000 C 
ENDBRANCH   94   95
ENDBRANCH   93   94
ENDBRANCH   89   90
ENDBRANCH    7    6
ENDBRANCH    8    7
ENDBRANCH   12   11
ENDBRANCH   14   12
ENDBRANCH   15   14
ENDBRANCH   16   15
ENDBRANCH   17   16
ENDBRANCH   18   17
ENDBRANCH   19   18
ENDBRANCH   20   19
ENDBRANCH   21   20
ENDBRANCH   22   21
ENDBRANCH   24   22
ENDBRANCH   28   27
BRANCH   32   33
ATOM     33  C26 UNL A   1       4.389   7.650  23.654  1.00  0.00    +0.000 C 
ATOM     34  C27 UNL A   1       3.154   8.052  24.184  1.00  0.00    +0.000 C 
ATOM     35  F1  UNL A   1       2.940   8.006  25.508  1.00  0.00    +0.000 F 
ATOM     36  C28 UNL A   1       2.121   8.480  23.353  1.00  0.00    +0.000 C 
ATOM     37  F2  UNL A   1       0.938   8.825  23.881  1.00  0.00    +0.000 F 
ATOM     38  C29 UNL A   1       2.312   8.547  21.981  1.00  0.00    +0.000 C 
ATOM     39  F3  UNL A   1       1.323   8.978  21.186  1.00  0.00    +0.000 F 
ATOM     40  C30 UNL A   1       3.528   8.166  21.435  1.00  0.00    +0.000 C 
ATOM     41  F4  UNL A   1       3.721   8.246  20.112  1.00  0.00    +0.000 F 
ATOM     42  C31 UNL A   1       4.552   7.708  22.260  1.00  0.00    +0.000 C 
ATOM     43  F5  UNL A   1       5.715   7.343  21.701  1.00  0.00    +0.000 F 
ENDBRANCH   32   33
BRANCH   49   50
ATOM     50  C37 UNL A   1       9.635  10.869  27.396  1.00  0.00    +0.000 C 
ATOM     51  C38 UNL A   1      10.732  11.388  26.693  1.00  0.00    +0.000 C 
ATOM     52  F6  UNL A   1      11.409  10.614  25.831  1.00  0.00    +0.000 F 
ATOM     53  C39 UNL A   1      11.160  12.697  26.898  1.00  0.00    +0.000 C 
ATOM     54  F7  UNL A   1      12.239  13.156  26.249  1.00  0.00    +0.000 F 
ATOM     55  C40 UNL A   1      10.479  13.522  27.780  1.00  0.00    +0.000 C 
ATOM     56  F8  UNL A   1      10.884  14.787  27.965  1.00  0.00    +0.000 F 
ATOM     57  C41 UNL A   1       9.382  13.036  28.473  1.00  0.00    +0.000 C 
ATOM     58  F9  UNL A   1       8.712  13.838  29.313  1.00  0.00    +0.000 F 
ATOM     59  C42 UNL A   1       8.971  11.717  28.296  1.00  0.00    +0.000 C 
ATOM     60  F10 UNL A   1       7.911  11.275  28.988  1.00  0.00    +0.000 F 
ENDBRANCH   49   50
BRANCH   64   65
ATOM     65  C46 UNL A   1      11.818   4.619  29.594  1.00  0.00    +0.000 C 
ATOM     66  C47 UNL A   1      11.726   4.794  30.980  1.00  0.00    +0.000 C 
ATOM     67  F11 UNL A   1      10.659   5.412  31.508  1.00  0.00    +0.000 F 
ATOM     68  C48 UNL A   1      12.742   4.360  31.829  1.00  0.00    +0.000 C 
ATOM     69  F12 UNL A   1      12.645   4.572  33.149  1.00  0.00    +0.000 F 
ATOM     70  C49 UNL A   1      13.855   3.717  31.311  1.00  0.00    +0.000 C 
ATOM     71  F13 UNL A   1      14.824   3.283  32.129  1.00  0.00    +0.000 F 
ATOM     72  C50 UNL A   1      13.965   3.525  29.942  1.00  0.00    +0.000 C 
ATOM     73  F14 UNL A   1      15.030   2.886  29.438  1.00  0.00    +0.000 F 
ATOM     74  C51 UNL A   1      12.966   3.987  29.091  1.00  0.00    +0.000 C 
ATOM     75  F15 UNL A   1      13.102   3.794  27.770  1.00  0.00    +0.000 F 
ENDBRANCH   64   65
TORSDOF 21
ENDMDL
MODEL 2
REMARK VINA RESULT:      -8.4      1.865      3.615
ROOT
ATOM    129  H29 UNL A   1      12.259   7.286  29.546  1.00  0.00    +0.000 H 
ATOM    130  H30 UNL A   1      11.336   9.561  28.824  1.00  0.00    +0.000 H 
ATOM    131  H31 UNL A   1       4.087   5.028  23.534  1.00  0.00    +0.000 H 
ATOM    132  H32 UNL A   1       4.826   2.760  24.464  1.00  0.00    +0.000 H 
ATOM     28  C22 UNL A   1       7.187   2.881  26.069  1.00  0.00    +0.000 C 
ATOM     29  C23 UNL A   1       6.431   4.027  25.444  1.00  0.00    +0.000 C 
ATOM     30  N3  UNL A   1       6.673   5.313  25.511  1.00  0.00    +0.000 N 
ATOM     31  C24 UNL A   1       5.690   5.927  24.745  1.00  0.00    +0.000 C 
ATOM     32  C25 UNL A   1       5.480   7.250  24.539  1.00  0.00    +0.000 C 
ATOM     44  C32 UNL A   1       6.285   8.298  25.110  1.00  0.00    +0.000 C 
ATOM     45  C33 UNL A   1       6.137   9.668  24.975  1.00  0.00    +0.000 C 
ATOM     46  C34 UNL A   1       7.182  10.293  25.664  1.00  0.00    +0.000 C 
ATOM     47  C35 UNL A   1       7.947   9.315  26.279  1.00  0.00    +0.000 C 
ATOM     48  N4  UNL A   1       7.387   8.095  25.928  1.00  0.00    +0.000 N 
ATOM     49  C36 UNL A   1       9.108   9.479  27.116  1.00  0.00    +0.000 C 
ATOM     61  C43 UNL A   1       9.774   8.467  27.725  1.00  0.00    +0.000 C 
ATOM     62  N5  UNL A   1       9.519   7.104  27.675  1.00  0.00    +0.000 N 
ATOM     63  C44 UNL A   1      10.456   6.536  28.395  1.00  0.00    +0.000 C 
ATOM     64  C45 UNL A   1      10.668   5.079  28.699  1.00  0.00    +0.000 C 
ATOM     76  C52 UNL A   1       9.849   4.166  28.143  1.00  0.00    +0.000 C 
ATOM     77  C53 UNL A   1       9.946   2.722  28.335  1.00  0.00    +0.000 C 
ATOM     78  C54 UNL A   1       9.029   2.117  27.566  1.00  0.00    +0.000 C 
ATOM     79  C55 UNL A   1       8.232   3.134  26.881  1.00  0.00    +0.000 C 
ATOM     80  N6  UNL A   1       8.791   4.322  27.282  1.00  0.00    +0.000 N 
ATOM     81  C56 UNL A   1      11.422   7.479  28.975  1.00  0.00    +0.000 C 
ATOM     82  C57 UNL A   1      10.937   8.645  28.570  1.00  0.00    +0.000 C 
ATOM     83  C58 UNL A   1       4.868   4.874  24.191  1.00  0.00    +0.000 C 
ATOM     84  C59 UNL A   1       5.249   3.685  24.637  1.00  0.00    +0.000 C 
ATOM    123  H23 UNL A   1       5.385  10.148  24.455  1.00  0.00    +0.000 H 
ATOM    124  H24 UNL A   1       7.353  11.309  25.709  1.00  0.00    +0.000 H 
ATOM    125  H25 UNL A   1       7.723   7.216  26.216  1.00  0.00    +0.000 H 
ATOM    126  H26 UNL A   1      10.613   2.244  28.962  1.00  0.00    +0.000 H 
ATOM    127  H27 UNL A   1       8.906   1.096  27.474  1.00  0.00    +0.000 H 
ATOM    128  H28 UNL A   1       8.465   5.200  26.982  1.00  0.00    +0.000 H 
ENDROOT
BRANCH   28   27
ATOM    122  H22 UNL A   1       5.356   1.475  27.439  1.00  0.00    +0.000 H 
ATOM    133  H33 UNL A   1       8.095   1.050  24.270  1.00  0.00    +0.000 H 
ATOM    134  H34 UNL A   1       7.115  -1.106  23.724  1.00  0.00    +0.000 H 
ATOM     85  C60 UNL A   1       7.291   0.698  24.813  1.00  0.00    +0.000 C 
ATOM     86  C61 UNL A   1       6.745  -0.554  24.513  1.00  0.00    +0.000 C 
ATOM     24  C18 UNL A   1       5.695  -1.057  25.288  1.00  0.00    +0.000 C 
ATOM     25  C19 UNL A   1       5.270  -0.362  26.422  1.00  0.00    +0.000 C 
ATOM     26  C20 UNL A   1       5.745   0.923  26.659  1.00  0.00    +0.000 C 
ATOM     27  C21 UNL A   1       6.749   1.476  25.848  1.00  0.00    +0.000 C 
ATOM    121  H21 UNL A   1       4.605  -0.800  27.079  1.00  0.00    +0.000 H 
BRANCH   24   22
ATOM     22  C17 UNL A   1       5.012  -2.297  24.856  1.00  0.00    +0.000 C 
ATOM     23  O4  UNL A   1       3.815  -2.271  24.586  1.00  0.00    +0.000 O 
BRANCH   22   21
ATOM     21  N2  UNL A   1       5.714  -3.480  24.806  1.00  0.00    +0.000 N 
ATOM    120  H20 UNL A   1       5.770  -3.897  23.916  1.00  0.00    +0.000 H 
BRANCH   21   20
ATOM     20  C16 UNL A   1       6.384  -4.205  25.875  1.00  0.00    +0.000 C 
ATOM    118  H18 UNL A   1       5.854  -4.028  26.787  1.00  0.00    +0.000 H 
ATOM    119  H19 UNL A   1       6.387  -5.239  25.600  1.00  0.00    +0.000 H 
BRANCH   20   19
ATOM     19  C15 UNL A   1       7.836  -3.789  26.073  1.00  0.00    +0.000 C 
ATOM    116  H16 UNL A   1       7.840  -2.781  26.434  1.00  0.00    +0.000 H 
ATOM    117  H17 UNL A   1       8.250  -4.499  26.757  1.00  0.00    +0.000 H 
BRANCH   19   18
ATOM     18  C14 UNL A   1       8.722  -3.846  24.830  1.00  0.00    +0.000 C 
ATOM    115  H15 UNL A   1       8.441  -2.997  24.242  1.00  0.00    +0.000 H 
ATOM    114  H14 UNL A   1       8.555  -4.790  24.356  1.00  0.00    +0.000 H 
BRANCH   18   17
ATOM     17  C13 UNL A   1      10.227  -3.700  25.059  1.00  0.00    +0.000 C 
ATOM    113  H13 UNL A   1      10.684  -4.160  24.208  1.00  0.00    +0.000 H 
ATOM    112  H12 UNL A   1      10.457  -4.162  25.997  1.00  0.00    +0.000 H 
BRANCH   17   16
ATOM    110  H10 UNL A   1      10.555  -1.821  24.156  1.00  0.00    +0.000 H 
ATOM    111  H11 UNL A   1      10.328  -1.827  25.950  1.00  0.00    +0.000 H 
ATOM     16  C12 UNL A   1      10.787  -2.279  25.095  1.00  0.00    +0.000 C 
BRANCH   16   15
ATOM    108  H8  UNL A   1      12.640  -3.004  25.811  1.00  0.00    +0.000 H 
ATOM    109  H9  UNL A   1      12.712  -1.951  24.360  1.00  0.00    +0.000 H 
ATOM     15  C11 UNL A   1      12.285  -2.118  25.326  1.00  0.00    +0.000 C 
BRANCH   15   14
ATOM    107  H7  UNL A   1      12.634  -1.131  27.106  1.00  0.00    +0.000 H 
ATOM     14  N1  UNL A   1      12.680  -0.982  26.133  1.00  0.00    +0.000 N 
BRANCH   14   12
ATOM     12  C10 UNL A   1      13.109   0.274  25.760  1.00  0.00    +0.000 C 
ATOM     13  O3  UNL A   1      14.082   0.766  26.327  1.00  0.00    +0.000 O 
BRANCH   12   11
ATOM    135  H35 UNL A   1      10.856   1.884  25.584  1.00  0.00    +0.000 H 
ATOM    136  H36 UNL A   1       9.676   2.428  23.531  1.00  0.00    +0.000 H 
ATOM      9  C7  UNL A   1      12.545   1.353  22.204  1.00  0.00    +0.000 C 
ATOM    105  H5  UNL A   1      13.058   1.368  21.309  1.00  0.00    +0.000 H 
ATOM      8  C6  UNL A   1      11.212   1.745  22.258  1.00  0.00    +0.000 C 
ATOM     10  C8  UNL A   1      13.178   0.937  23.379  1.00  0.00    +0.000 C 
ATOM    106  H6  UNL A   1      14.147   0.585  23.342  1.00  0.00    +0.000 H 
ATOM     11  C9  UNL A   1      12.502   0.995  24.607  1.00  0.00    +0.000 C 
ATOM     87  C62 UNL A   1      11.273   1.651  24.669  1.00  0.00    +0.000 C 
ATOM     88  C63 UNL A   1      10.611   1.993  23.492  1.00  0.00    +0.000 C 
BRANCH    8    7
ATOM      7  O2  UNL A   1      10.458   1.987  21.150  1.00  0.00    +0.000 O 
BRANCH    7    6
ATOM      2  C2  UNL A   1       6.253   1.753  21.255  1.00  0.00    +0.000 C 
ATOM      3  C3  UNL A   1       6.961   0.636  21.081  1.00  0.00    +0.000 C 
ATOM    100  O7  UNL A   1       6.837   3.001  21.301  1.00  0.00    +0.000 O 
ATOM      4  C4  UNL A   1       8.424   0.731  20.992  1.00  0.00    +0.000 C 
ATOM      5  O1  UNL A   1       9.075  -0.289  20.780  1.00  0.00    +0.000 O 
ATOM      6  C5  UNL A   1       9.070   2.074  21.156  1.00  0.00    +0.000 C 
ATOM    104  H4  UNL A   1       6.489  -0.279  21.012  1.00  0.00    +0.000 H 
ATOM     89  C64 UNL A   1       8.222   3.135  21.238  1.00  0.00    +0.000 C 
BRANCH    2    1
ATOM      1  C1  UNL A   1       4.764   1.759  21.396  1.00  0.00    +0.000 C 
ATOM    101  H1  UNL A   1       4.321   2.081  20.477  1.00  0.00    +0.000 H 
ATOM    102  H2  UNL A   1       4.483   2.428  22.182  1.00  0.00    +0.000 H 
ATOM    103  H3  UNL A   1       4.424   0.771  21.629  1.00  0.00    +0.000 H 
ENDBRANCH    2    1
BRANCH   89   90
ATOM     98  C70 UNL A   1       8.544   6.722  22.425  1.00  0.00    +0.000 C 
ATOM     99  C71 UNL A   1       8.253   5.353  22.414  1.00  0.00    +0.000 C 
ATOM    137  H37 UNL A   1       9.574   4.574  19.431  1.00  0.00    +0.000 H 
ATOM    138  H38 UNL A   1      10.036   6.959  19.423  1.00  0.00    +0.000 H 
ATOM    142  H42 UNL A   1       8.290   7.299  23.243  1.00  0.00    +0.000 H 
ATOM    143  H43 UNL A   1       7.796   4.919  23.231  1.00  0.00    +0.000 H 
ATOM     90  C65 UNL A   1       8.578   4.567  21.298  1.00  0.00    +0.000 C 
ATOM     91  C66 UNL A   1       9.271   5.156  20.226  1.00  0.00    +0.000 C 
ATOM     92  C67 UNL A   1       9.554   6.526  20.227  1.00  0.00    +0.000 C 
ATOM     93  C68 UNL A   1       9.180   7.303  21.326  1.00  0.00    +0.000 C 
BRANCH   93   94
ATOM     97  O6  UNL A   1       9.896   9.403  19.930  1.00  0.00    +0.000 O 
ATOM     94  S1  UNL A   1       9.427   9.065  21.263  1.00  0.00    +0.000 S 
ATOM     96  O5  UNL A   1      10.178   9.437  22.444  1.00  0.00    +0.000 O 
BRANCH   94   95
ATOM    139  H39 UNL A   1       7.361   9.382  22.343  1.00  0.00    +0.000 H 
ATOM    140  H40 UNL A   1       7.193   9.405  20.604  1.00  0.00    +0.000 H 
ATOM    141  H41 UNL A   1       7.843  10.796  21.438  1.00  0.00    +0.000 H 
ATOM     95  C69 UNL A   1       7.795   9.727  21.428  1.00  0.00    +0.000 C 
ENDBRANCH   94   95
ENDBRANCH   93   94
ENDBRANCH   89   90
ENDBRANCH    7    6
ENDBRANCH    8    7
ENDBRANCH   12   11
ENDBRANCH   14   12
ENDBRANCH   15   14
ENDBRANCH   16   15
ENDBRANCH   17   16
ENDBRANCH   18   17
ENDBRANCH   19   18
ENDBRANCH   20   19
ENDBRANCH   21   20
ENDBRANCH   22   21
ENDBRANCH   24   22
ENDBRANCH   28   27
BRANCH   32   33
ATOM     33  C26 UNL A   1       4.335   7.652  23.653  1.00  0.00    +0.000 C 
ATOM     34  C27 UNL A   1       3.112   8.092  24.182  1.00  0.00    +0.000 C 
ATOM     35  F1  UNL A   1       2.910   8.085  25.509  1.00  0.00    +0.000 F 
ATOM     36  C28 UNL A   1       2.080   8.517  23.349  1.00  0.00    +0.000 C 
ATOM     37  F2  UNL A   1       0.909   8.900  23.878  1.00  0.00    +0.000 F 
ATOM     38  C29 UNL A   1       2.260   8.545  21.975  1.00  0.00    +0.000 C 
ATOM     39  F3  UNL A   1       1.272   8.973  21.177  1.00  0.00    +0.000 F 
ATOM     40  C30 UNL A   1       3.463   8.126  21.428  1.00  0.00    +0.000 C 
ATOM     41  F4  UNL A   1       3.645   8.166  20.102  1.00  0.00    +0.000 F 
ATOM     42  C31 UNL A   1       4.486   7.670  22.256  1.00  0.00    +0.000 C 
ATOM     43  F5  UNL A   1       5.636   7.267  21.697  1.00  0.00    +0.000 F 
ENDBRANCH   32   33
BRANCH   49   50
ATOM     50  C37 UNL A   1       9.615  10.875  27.342  1.00  0.00    +0.000 C 
ATOM     51  C38 UNL A   1      10.697  11.387  26.612  1.00  0.00    +0.000 C 
ATOM     52  F6  UNL A   1      11.350  10.608  25.736  1.00  0.00    +0.000 F 
ATOM     53  C39 UNL A   1      11.135  12.695  26.802  1.00  0.00    +0.000 C 
ATOM     54  F7  UNL A   1      12.199  13.149  26.126  1.00  0.00    +0.000 F 
ATOM     55  C40 UNL A   1      10.477  13.526  27.697  1.00  0.00    +0.000 C 
ATOM     56  F8  UNL A   1      10.890  14.790  27.868  1.00  0.00    +0.000 F 
ATOM     57  C41 UNL A   1       9.395  13.046  28.418  1.00  0.00    +0.000 C 
ATOM     58  F9  UNL A   1       8.748  13.853  29.271  1.00  0.00    +0.000 F 
ATOM     59  C42 UNL A   1       8.976  11.728  28.255  1.00  0.00    +0.000 C 
ATOM     60  F10 UNL A   1       7.931  11.291  28.974  1.00  0.00    +0.000 F 
ENDBRANCH   49   50
BRANCH   64   65
ATOM     65  C46 UNL A   1      11.763   4.634  29.600  1.00  0.00    +0.000 C 
ATOM     66  C47 UNL A   1      11.676   4.823  30.985  1.00  0.00    +0.000 C 
ATOM     67  F11 UNL A   1      10.614   5.453  31.510  1.00  0.00    +0.000 F 
ATOM     68  C48 UNL A   1      12.692   4.391  31.835  1.00  0.00    +0.000 C 
ATOM     69  F12 UNL A   1      12.600   4.616  33.153  1.00  0.00    +0.000 F 
ATOM     70  C49 UNL A   1      13.799   3.735  31.320  1.00  0.00    +0.000 C 
ATOM     71  F13 UNL A   1      14.768   3.304  32.139  1.00  0.00    +0.000 F 
ATOM     72  C50 UNL A   1      13.904   3.529  29.953  1.00  0.00    +0.000 C 
ATOM     73  F14 UNL A   1      14.963   2.879  29.452  1.00  0.00    +0.000 F 
ATOM     74  C51 UNL A   1      12.905   3.989  29.100  1.00  0.00    +0.000 C 
ATOM     75  F15 UNL A   1      13.036   3.782  27.781  1.00  0.00    +0.000 F 
ENDBRANCH   64   65
TORSDOF 21
ENDMDL
MODEL 3
REMARK VINA RESULT:      -8.1     36.974     44.042
ROOT
ATOM    129  H29 UNL A   1      32.441  37.323  44.034  1.00  0.00    +0.000 H 
ATOM    130  H30 UNL A   1      32.442  39.363  45.580  1.00  0.00    +0.000 H 
ATOM    131  H31 UNL A   1      23.036  37.282  48.460  1.00  0.00    +0.000 H 
ATOM    132  H32 UNL A   1      23.114  35.094  47.135  1.00  0.00    +0.000 H 
ATOM     28  C22 UNL A   1      25.499  34.756  45.597  1.00  0.00    +0.000 C 
ATOM     29  C23 UNL A   1      25.163  35.873  46.553  1.00  0.00    +0.000 C 
ATOM     30  N3  UNL A   1      25.884  36.910  46.901  1.00  0.00    +0.000 N 
ATOM     31  C24 UNL A   1      25.103  37.637  47.792  1.00  0.00    +0.000 C 
ATOM     32  C25 UNL A   1      25.420  38.767  48.468  1.00  0.00    +0.000 C 
ATOM     44  C32 UNL A   1      26.689  39.443  48.372  1.00  0.00    +0.000 C 
ATOM     45  C33 UNL A   1      27.110  40.583  49.035  1.00  0.00    +0.000 C 
ATOM     46  C34 UNL A   1      28.396  40.901  48.587  1.00  0.00    +0.000 C 
ATOM     47  C35 UNL A   1      28.801  39.926  47.690  1.00  0.00    +0.000 C 
ATOM     48  N4  UNL A   1      27.742  39.039  47.565  1.00  0.00    +0.000 N 
ATOM     49  C36 UNL A   1      30.055  39.816  46.991  1.00  0.00    +0.000 C 
ATOM     61  C43 UNL A   1      30.396  38.798  46.163  1.00  0.00    +0.000 C 
ATOM     62  N5  UNL A   1      29.649  37.686  45.799  1.00  0.00    +0.000 N 
ATOM     63  C44 UNL A   1      30.392  37.014  44.955  1.00  0.00    +0.000 C 
ATOM     64  C45 UNL A   1      30.094  35.721  44.248  1.00  0.00    +0.000 C 
ATOM     76  C52 UNL A   1      28.889  35.142  44.417  1.00  0.00    +0.000 C 
ATOM     77  C53 UNL A   1      28.457  33.900  43.784  1.00  0.00    +0.000 C 
ATOM     78  C54 UNL A   1      27.177  33.669  44.107  1.00  0.00    +0.000 C 
ATOM     79  C55 UNL A   1      26.719  34.708  45.029  1.00  0.00    +0.000 C 
ATOM     80  N6  UNL A   1      27.803  35.542  45.155  1.00  0.00    +0.000 N 
ATOM     81  C56 UNL A   1      31.695  37.632  44.677  1.00  0.00    +0.000 C 
ATOM     82  C57 UNL A   1      31.663  38.695  45.470  1.00  0.00    +0.000 C 
ATOM     83  C58 UNL A   1      23.839  36.944  47.905  1.00  0.00    +0.000 C 
ATOM     84  C59 UNL A   1      23.844  35.819  47.205  1.00  0.00    +0.000 C 
ATOM    123  H23 UNL A   1      26.568  41.109  49.738  1.00  0.00    +0.000 H 
ATOM    124  H24 UNL A   1      28.950  41.721  48.877  1.00  0.00    +0.000 H 
ATOM    125  H25 UNL A   1      27.739  38.241  46.988  1.00  0.00    +0.000 H 
ATOM    126  H26 UNL A   1      29.043  33.297  43.184  1.00  0.00    +0.000 H 
ATOM    127  H27 UNL A   1      26.606  32.881  43.760  1.00  0.00    +0.000 H 
ATOM    128  H28 UNL A   1      27.801  36.347  45.720  1.00  0.00    +0.000 H 
ENDROOT
BRANCH   28   27
ATOM    122  H22 UNL A   1      25.064  32.515  47.010  1.00  0.00    +0.000 H 
ATOM    133  H33 UNL A   1      23.774  34.468  43.510  1.00  0.00    +0.000 H 
ATOM    134  H34 UNL A   1      21.960  32.865  43.294  1.00  0.00    +0.000 H 
ATOM     85  C60 UNL A   1      23.651  33.731  44.221  1.00  0.00    +0.000 C 
ATOM     86  C61 UNL A   1      22.623  32.794  44.082  1.00  0.00    +0.000 C 
ATOM     24  C18 UNL A   1      22.495  31.759  45.014  1.00  0.00    +0.000 C 
ATOM     25  C19 UNL A   1      23.455  31.598  46.014  1.00  0.00    +0.000 C 
ATOM     26  C20 UNL A   1      24.417  32.584  46.209  1.00  0.00    +0.000 C 
ATOM     27  C21 UNL A   1      24.516  33.672  45.326  1.00  0.00    +0.000 C 
ATOM    121  H21 UNL A   1      23.451  30.753  46.606  1.00  0.00    +0.000 H 
BRANCH   24   22
ATOM     22  C17 UNL A   1      21.304  30.882  44.956  1.00  0.00    +0.000 C 
ATOM     23  O4  UNL A   1      21.437  29.692  44.688  1.00  0.00    +0.000 O 
BRANCH   22   21
ATOM     21  N2  UNL A   1      20.051  31.417  45.156  1.00  0.00    +0.000 N 
ATOM    120  H20 UNL A   1      19.714  31.362  46.079  1.00  0.00    +0.000 H 
BRANCH   21   20
ATOM     20  C16 UNL A   1      19.153  32.051  44.203  1.00  0.00    +0.000 C 
ATOM    118  H18 UNL A   1      19.562  31.931  43.222  1.00  0.00    +0.000 H 
ATOM    119  H19 UNL A   1      18.199  31.578  44.308  1.00  0.00    +0.000 H 
BRANCH   20   19
ATOM     19  C15 UNL A   1      18.947  33.538  44.461  1.00  0.00    +0.000 C 
ATOM    116  H16 UNL A   1      19.557  34.078  43.765  1.00  0.00    +0.000 H 
ATOM    117  H17 UNL A   1      17.898  33.709  44.345  1.00  0.00    +0.000 H 
BRANCH   19   18
ATOM     18  C14 UNL A   1      19.295  34.027  45.865  1.00  0.00    +0.000 C 
ATOM    115  H15 UNL A   1      19.540  33.146  46.420  1.00  0.00    +0.000 H 
ATOM    114  H14 UNL A   1      18.450  34.566  46.239  1.00  0.00    +0.000 H 
BRANCH   18   17
ATOM     17  C13 UNL A   1      20.518  34.937  45.987  1.00  0.00    +0.000 C 
ATOM    113  H13 UNL A   1      21.273  34.469  45.391  1.00  0.00    +0.000 H 
ATOM    112  H12 UNL A   1      20.755  35.022  47.027  1.00  0.00    +0.000 H 
BRANCH   17   16
ATOM    110  H10 UNL A   1      21.348  36.814  45.492  1.00  0.00    +0.000 H 
ATOM    111  H11 UNL A   1      20.010  36.216  44.432  1.00  0.00    +0.000 H 
ATOM     16  C12 UNL A   1      20.385  36.352  45.426  1.00  0.00    +0.000 C 
BRANCH   16   15
ATOM    108  H8  UNL A   1      19.468  38.246  45.634  1.00  0.00    +0.000 H 
ATOM    109  H9  UNL A   1      18.425  36.824  45.968  1.00  0.00    +0.000 H 
ATOM     15  C11 UNL A   1      19.382  37.284  46.096  1.00  0.00    +0.000 C 
BRANCH   15   14
ATOM    107  H7  UNL A   1      20.146  38.200  47.782  1.00  0.00    +0.000 H 
ATOM     14  N1  UNL A   1      19.545  37.463  47.525  1.00  0.00    +0.000 N 
BRANCH   14   12
ATOM     12  C10 UNL A   1      18.996  36.768  48.580  1.00  0.00    +0.000 C 
ATOM     13  O3  UNL A   1      17.863  36.305  48.466  1.00  0.00    +0.000 O 
BRANCH   12   11
ATOM    135  H35 UNL A   1      18.795  37.723  51.178  1.00  0.00    +0.000 H 
ATOM    136  H36 UNL A   1      20.546  37.601  52.857  1.00  0.00    +0.000 H 
ATOM      9  C7  UNL A   1      21.726  35.322  50.722  1.00  0.00    +0.000 C 
ATOM    105  H5  UNL A   1      22.420  34.560  50.680  1.00  0.00    +0.000 H 
ATOM      8  C6  UNL A   1      21.720  36.212  51.789  1.00  0.00    +0.000 C 
ATOM     10  C8  UNL A   1      20.777  35.474  49.706  1.00  0.00    +0.000 C 
ATOM    106  H6  UNL A   1      20.809  34.858  48.878  1.00  0.00    +0.000 H 
ATOM     11  C9  UNL A   1      19.783  36.459  49.806  1.00  0.00    +0.000 C 
ATOM     87  C62 UNL A   1      19.635  37.147  51.010  1.00  0.00    +0.000 C 
ATOM     88  C63 UNL A   1      20.624  37.051  51.988  1.00  0.00    +0.000 C 
BRANCH    8    7
ATOM      7  O2  UNL A   1      22.707  36.264  52.725  1.00  0.00    +0.000 O 
BRANCH    7    6
ATOM      2  C2  UNL A   1      23.677  32.851  54.996  1.00  0.00    +0.000 C 
ATOM      3  C3  UNL A   1      22.545  33.505  55.258  1.00  0.00    +0.000 C 
ATOM    100  O7  UNL A   1      24.599  33.304  54.075  1.00  0.00    +0.000 O 
ATOM      4  C4  UNL A   1      22.238  34.725  54.499  1.00  0.00    +0.000 C 
ATOM      5  O1  UNL A   1      21.222  35.358  54.774  1.00  0.00    +0.000 O 
ATOM      6  C5  UNL A   1      23.183  35.157  53.419  1.00  0.00    +0.000 C 
ATOM    104  H4  UNL A   1      21.895  33.159  55.981  1.00  0.00    +0.000 H 
ATOM     89  C64 UNL A   1      24.340  34.447  53.321  1.00  0.00    +0.000 C 
BRANCH    2    1
ATOM      1  C1  UNL A   1      24.061  31.581  55.685  1.00  0.00    +0.000 C 
ATOM    101  H1  UNL A   1      23.815  31.651  56.724  1.00  0.00    +0.000 H 
ATOM    102  H2  UNL A   1      25.114  31.421  55.577  1.00  0.00    +0.000 H 
ATOM    103  H3  UNL A   1      23.529  30.762  55.246  1.00  0.00    +0.000 H 
ENDBRANCH    2    1
BRANCH   89   90
ATOM     98  C70 UNL A   1      27.877  34.931  52.046  1.00  0.00    +0.000 C 
ATOM     99  C71 UNL A   1      26.807  34.616  52.891  1.00  0.00    +0.000 C 
ATOM    137  H37 UNL A   1      24.292  35.059  50.716  1.00  0.00    +0.000 H 
ATOM    138  H38 UNL A   1      26.142  35.655  49.260  1.00  0.00    +0.000 H 
ATOM    142  H42 UNL A   1      28.848  34.873  52.395  1.00  0.00    +0.000 H 
ATOM    143  H43 UNL A   1      26.990  34.312  53.860  1.00  0.00    +0.000 H 
ATOM     90  C65 UNL A   1      25.486  34.712  52.428  1.00  0.00    +0.000 C 
ATOM     91  C66 UNL A   1      25.255  35.050  51.084  1.00  0.00    +0.000 C 
ATOM     92  C67 UNL A   1      26.321  35.377  50.239  1.00  0.00    +0.000 C 
ATOM     93  C68 UNL A   1      27.628  35.324  50.729  1.00  0.00    +0.000 C 
BRANCH   93   94
ATOM     97  O6  UNL A   1      29.244  37.256  50.004  1.00  0.00    +0.000 O 
ATOM     94  S1  UNL A   1      28.964  35.866  49.687  1.00  0.00    +0.000 S 
ATOM     96  O5  UNL A   1      28.653  35.448  48.336  1.00  0.00    +0.000 O 
BRANCH   94   95
ATOM    139  H39 UNL A   1      30.057  34.321  51.086  1.00  0.00    +0.000 H 
ATOM    140  H40 UNL A   1      31.144  35.569  50.525  1.00  0.00    +0.000 H 
ATOM    141  H41 UNL A   1      30.678  34.269  49.454  1.00  0.00    +0.000 H 
ATOM     95  C69 UNL A   1      30.348  34.912  50.243  1.00  0.00    +0.000 C 
ENDBRANCH   94   95
ENDBRANCH   93   94
ENDBRANCH   89   90
ENDBRANCH    7    6
ENDBRANCH    8    7
ENDBRANCH   12   11
ENDBRANCH   14   12
ENDBRANCH   15   14
ENDBRANCH   16   15
ENDBRANCH   17   16
ENDBRANCH   18   17
ENDBRANCH   19   18
ENDBRANCH   20   19
ENDBRANCH   21   20
ENDBRANCH   22   21
ENDBRANCH   24   22
ENDBRANCH   28   27
BRANCH   32   33
ATOM     33  C26 UNL A   1      24.380  39.360  49.377  1.00  0.00    +0.000 C 
ATOM     34  C27 UNL A   1      23.337  40.157  48.883  1.00  0.00    +0.000 C 
ATOM     35  F1  UNL A   1      23.291  40.479  47.580  1.00  0.00    +0.000 F 
ATOM     36  C28 UNL A   1      22.347  40.651  49.730  1.00  0.00    +0.000 C 
ATOM     37  F2  UNL A   1      21.380  41.440  49.239  1.00  0.00    +0.000 F 
ATOM     38  C29 UNL A   1      22.360  40.331  51.079  1.00  0.00    +0.000 C 
ATOM     39  F3  UNL A   1      21.396  40.791  51.887  1.00  0.00    +0.000 F 
ATOM     40  C30 UNL A   1      23.374  39.535  51.588  1.00  0.00    +0.000 C 
ATOM     41  F4  UNL A   1      23.380  39.210  52.888  1.00  0.00    +0.000 F 
ATOM     42  C31 UNL A   1      24.383  39.065  50.750  1.00  0.00    +0.000 C 
ATOM     43  F5  UNL A   1      25.352  38.301  51.275  1.00  0.00    +0.000 F 
ENDBRANCH   32   33
BRANCH   49   50
ATOM     50  C37 UNL A   1      31.070  40.905  47.200  1.00  0.00    +0.000 C 
ATOM     51  C38 UNL A   1      30.944  42.152  46.571  1.00  0.00    +0.000 C 
ATOM     52  F6  UNL A   1      29.942  42.375  45.708  1.00  0.00    +0.000 F 
ATOM     53  C39 UNL A   1      31.869  43.167  46.802  1.00  0.00    +0.000 C 
ATOM     54  F7  UNL A   1      31.755  44.335  46.156  1.00  0.00    +0.000 F 
ATOM     55  C40 UNL A   1      32.914  42.967  47.692  1.00  0.00    +0.000 C 
ATOM     56  F8  UNL A   1      33.795  43.951  47.924  1.00  0.00    +0.000 F 
ATOM     57  C41 UNL A   1      33.049  41.748  48.337  1.00  0.00    +0.000 C 
ATOM     58  F9  UNL A   1      34.048  41.560  49.210  1.00  0.00    +0.000 F 
ATOM     59  C42 UNL A   1      32.145  40.719  48.083  1.00  0.00    +0.000 C 
ATOM     60  F10 UNL A   1      32.308  39.549  48.716  1.00  0.00    +0.000 F 
ENDBRANCH   49   50
BRANCH   64   65
ATOM     65  C46 UNL A   1      31.103  35.075  43.369  1.00  0.00    +0.000 C 
ATOM     66  C47 UNL A   1      31.248  35.467  42.032  1.00  0.00    +0.000 C 
ATOM     67  F11 UNL A   1      30.440  36.406  41.518  1.00  0.00    +0.000 F 
ATOM     68  C48 UNL A   1      32.204  34.877  41.209  1.00  0.00    +0.000 C 
ATOM     69  F12 UNL A   1      32.298  35.246  39.924  1.00  0.00    +0.000 F 
ATOM     70  C49 UNL A   1      33.054  33.905  41.715  1.00  0.00    +0.000 C 
ATOM     71  F13 UNL A   1      33.987  33.350  40.927  1.00  0.00    +0.000 F 
ATOM     72  C50 UNL A   1      32.936  33.506  43.037  1.00  0.00    +0.000 C 
ATOM     73  F14 UNL A   1      33.767  32.582  43.536  1.00  0.00    +0.000 F 
ATOM     74  C51 UNL A   1      31.958  34.072  43.851  1.00  0.00    +0.000 C 
ATOM     75  F15 UNL A   1      31.862  33.662  45.125  1.00  0.00    +0.000 F 
ENDBRANCH   64   65
TORSDOF 21
ENDMDL
MODEL 4
REMARK VINA RESULT:      -8.0     38.991     45.951
ROOT
ATOM    129  H29 UNL A   1      20.125  37.000  48.045  1.00  0.00    +0.000 H 
ATOM    130  H30 UNL A   1      19.159  39.056  49.225  1.00  0.00    +0.000 H 
ATOM    131  H31 UNL A   1      27.704  44.099  47.600  1.00  0.00    +0.000 H 
ATOM    132  H32 UNL A   1      28.582  42.156  46.183  1.00  0.00    +0.000 H 
ATOM     28  C22 UNL A   1      26.863  39.873  46.157  1.00  0.00    +0.000 C 
ATOM     29  C23 UNL A   1      26.617  41.211  46.809  1.00  0.00    +0.000 C 
ATOM     30  N3  UNL A   1      25.572  41.625  47.482  1.00  0.00    +0.000 N 
ATOM     31  C24 UNL A   1      25.864  42.924  47.880  1.00  0.00    +0.000 C 
ATOM     32  C25 UNL A   1      25.082  43.796  48.561  1.00  0.00    +0.000 C 
ATOM     44  C32 UNL A   1      23.745  43.508  49.011  1.00  0.00    +0.000 C 
ATOM     45  C33 UNL A   1      22.868  44.336  49.690  1.00  0.00    +0.000 C 
ATOM     46  C34 UNL A   1      21.704  43.612  49.965  1.00  0.00    +0.000 C 
ATOM     47  C35 UNL A   1      21.831  42.351  49.406  1.00  0.00    +0.000 C 
ATOM     48  N4  UNL A   1      23.090  42.300  48.825  1.00  0.00    +0.000 N 
ATOM     49  C36 UNL A   1      20.879  41.269  49.407  1.00  0.00    +0.000 C 
ATOM     61  C43 UNL A   1      21.061  40.076  48.789  1.00  0.00    +0.000 C 
ATOM     62  N5  UNL A   1      22.155  39.631  48.060  1.00  0.00    +0.000 N 
ATOM     63  C44 UNL A   1      21.871  38.404  47.697  1.00  0.00    +0.000 C 
ATOM     64  C45 UNL A   1      22.688  37.442  46.881  1.00  0.00    +0.000 C 
ATOM     76  C52 UNL A   1      23.920  37.805  46.477  1.00  0.00    +0.000 C 
ATOM     77  C53 UNL A   1      24.829  36.971  45.696  1.00  0.00    +0.000 C 
ATOM     78  C54 UNL A   1      25.995  37.615  45.550  1.00  0.00    +0.000 C 
ATOM     79  C55 UNL A   1      25.893  38.938  46.166  1.00  0.00    +0.000 C 
ATOM     80  N6  UNL A   1      24.626  38.963  46.693  1.00  0.00    +0.000 N 
ATOM     81  C56 UNL A   1      20.563  37.926  48.167  1.00  0.00    +0.000 C 
ATOM     82  C57 UNL A   1      20.094  38.998  48.792  1.00  0.00    +0.000 C 
ATOM     83  C58 UNL A   1      27.198  43.220  47.406  1.00  0.00    +0.000 C 
ATOM     84  C59 UNL A   1      27.686  42.217  46.691  1.00  0.00    +0.000 C 
ATOM    123  H23 UNL A   1      23.042  45.320  49.950  1.00  0.00    +0.000 H 
ATOM    124  H24 UNL A   1      20.888  43.957  50.494  1.00  0.00    +0.000 H 
ATOM    125  H25 UNL A   1      23.463  41.521  48.352  1.00  0.00    +0.000 H 
ATOM    126  H26 UNL A   1      24.608  36.036  45.317  1.00  0.00    +0.000 H 
ATOM    127  H27 UNL A   1      26.832  37.237  45.077  1.00  0.00    +0.000 H 
ATOM    128  H28 UNL A   1      24.258  39.736  47.178  1.00  0.00    +0.000 H 
ENDROOT
BRANCH   28   27
ATOM    122  H22 UNL A   1      28.766  38.091  46.794  1.00  0.00    +0.000 H 
ATOM    133  H33 UNL A   1      27.932  41.107  43.978  1.00  0.00    +0.000 H 
ATOM    134  H34 UNL A   1      29.852  40.400  42.665  1.00  0.00    +0.000 H 
ATOM     85  C60 UNL A   1      28.499  40.302  44.287  1.00  0.00    +0.000 C 
ATOM     86  C61 UNL A   1      29.617  39.913  43.544  1.00  0.00    +0.000 C 
ATOM     24  C18 UNL A   1      30.419  38.860  43.996  1.00  0.00    +0.000 C 
ATOM     25  C19 UNL A   1      30.168  38.275  45.239  1.00  0.00    +0.000 C 
ATOM     26  C20 UNL A   1      29.002  38.596  45.926  1.00  0.00    +0.000 C 
ATOM     27  C21 UNL A   1      28.144  39.600  45.451  1.00  0.00    +0.000 C 
ATOM    121  H21 UNL A   1      30.843  37.607  45.644  1.00  0.00    +0.000 H 
BRANCH   24   22
ATOM     22  C17 UNL A   1      31.493  38.344  43.118  1.00  0.00    +0.000 C 
ATOM     23  O4  UNL A   1      32.310  39.122  42.634  1.00  0.00    +0.000 O 
BRANCH   22   21
ATOM     21  N2  UNL A   1      31.540  37.003  42.811  1.00  0.00    +0.000 N 
ATOM    120  H20 UNL A   1      32.429  36.586  42.883  1.00  0.00    +0.000 H 
BRANCH   21   20
ATOM     20  C16 UNL A   1      30.467  36.111  42.396  1.00  0.00    +0.000 C 
ATOM    118  H18 UNL A   1      29.585  36.695  42.235  1.00  0.00    +0.000 H 
ATOM    119  H19 UNL A   1      30.796  35.617  41.506  1.00  0.00    +0.000 H 
BRANCH   20   19
ATOM     19  C15 UNL A   1      30.148  35.028  43.419  1.00  0.00    +0.000 C 
ATOM    116  H16 UNL A   1      30.974  34.347  43.442  1.00  0.00    +0.000 H 
ATOM    117  H17 UNL A   1      29.982  35.543  44.342  1.00  0.00    +0.000 H 
BRANCH   19   18
ATOM     18  C14 UNL A   1      28.879  34.219  43.161  1.00  0.00    +0.000 C 
ATOM    115  H15 UNL A   1      29.045  33.273  43.631  1.00  0.00    +0.000 H 
ATOM    114  H14 UNL A   1      28.735  34.171  42.102  1.00  0.00    +0.000 H 
BRANCH   18   17
ATOM     17  C13 UNL A   1      27.589  34.759  43.781  1.00  0.00    +0.000 C 
ATOM    113  H13 UNL A   1      26.853  34.676  43.009  1.00  0.00    +0.000 H 
ATOM    112  H12 UNL A   1      27.783  35.759  44.111  1.00  0.00    +0.000 H 
BRANCH   17   16
ATOM    110  H10 UNL A   1      26.723  34.701  45.706  1.00  0.00    +0.000 H 
ATOM    111  H11 UNL A   1      26.217  33.404  44.552  1.00  0.00    +0.000 H 
ATOM     16  C12 UNL A   1      27.015  33.984  44.966  1.00  0.00    +0.000 C 
BRANCH   16   15
ATOM    108  H8  UNL A   1      27.321  32.128  45.932  1.00  0.00    +0.000 H 
ATOM    109  H9  UNL A   1      28.685  32.733  44.936  1.00  0.00    +0.000 H 
ATOM     15  C11 UNL A   1      27.923  32.967  45.648  1.00  0.00    +0.000 C 
BRANCH   15   14
ATOM    107  H7  UNL A   1      29.555  33.701  46.680  1.00  0.00    +0.000 H 
ATOM     14  N1  UNL A   1      28.618  33.435  46.830  1.00  0.00    +0.000 N 
BRANCH   14   12
ATOM     12  C10 UNL A   1      28.180  33.568  48.130  1.00  0.00    +0.000 C 
ATOM     13  O3  UNL A   1      28.178  32.582  48.864  1.00  0.00    +0.000 O 
BRANCH   12   11
ATOM    135  H35 UNL A   1      25.747  34.631  48.937  1.00  0.00    +0.000 H 
ATOM    136  H36 UNL A   1      25.275  36.996  49.226  1.00  0.00    +0.000 H 
ATOM      9  C7  UNL A   1      28.611  37.135  49.236  1.00  0.00    +0.000 C 
ATOM    105  H5  UNL A   1      29.376  37.780  49.485  1.00  0.00    +0.000 H 
ATOM      8  C6  UNL A   1      27.299  37.588  49.173  1.00  0.00    +0.000 C 
ATOM     10  C8  UNL A   1      28.879  35.791  48.959  1.00  0.00    +0.000 C 
ATOM    106  H6  UNL A   1      29.855  35.455  48.942  1.00  0.00    +0.000 H 
ATOM     11  C9  UNL A   1      27.828  34.896  48.703  1.00  0.00    +0.000 C 
ATOM     87  C62 UNL A   1      26.517  35.318  48.921  1.00  0.00    +0.000 C 
ATOM     88  C63 UNL A   1      26.249  36.671  49.120  1.00  0.00    +0.000 C 
BRANCH    8    7
ATOM      7  O2  UNL A   1      26.958  38.905  49.242  1.00  0.00    +0.000 O 
BRANCH    7    6
ATOM      2  C2  UNL A   1      27.467  41.513  52.511  1.00  0.00    +0.000 C 
ATOM      3  C3  UNL A   1      28.353  41.541  51.514  1.00  0.00    +0.000 C 
ATOM    100  O7  UNL A   1      26.441  40.594  52.565  1.00  0.00    +0.000 O 
ATOM      4  C4  UNL A   1      28.200  40.592  50.403  1.00  0.00    +0.000 C 
ATOM      5  O1  UNL A   1      29.044  40.579  49.510  1.00  0.00    +0.000 O 
ATOM      6  C5  UNL A   1      27.021  39.666  50.404  1.00  0.00    +0.000 C 
ATOM    104  H4  UNL A   1      29.132  42.218  51.523  1.00  0.00    +0.000 H 
ATOM     89  C64 UNL A   1      26.249  39.687  51.525  1.00  0.00    +0.000 C 
BRANCH    2    1
ATOM      1  C1  UNL A   1      27.513  42.462  53.666  1.00  0.00    +0.000 C 
ATOM    101  H1  UNL A   1      26.907  43.316  53.449  1.00  0.00    +0.000 H 
ATOM    102  H2  UNL A   1      28.524  42.772  53.832  1.00  0.00    +0.000 H 
ATOM    103  H3  UNL A   1      27.141  41.974  54.543  1.00  0.00    +0.000 H 
ENDBRANCH    2    1
BRANCH   89   90
ATOM     98  C70 UNL A   1      24.096  36.988  53.090  1.00  0.00    +0.000 C 
ATOM     99  C71 UNL A   1      25.176  37.843  52.847  1.00  0.00    +0.000 C 
ATOM    137  H37 UNL A   1      23.803  39.732  50.440  1.00  0.00    +0.000 H 
ATOM    138  H38 UNL A   1      21.943  38.218  50.822  1.00  0.00    +0.000 H 
ATOM    142  H42 UNL A   1      24.163  36.263  53.823  1.00  0.00    +0.000 H 
ATOM    143  H43 UNL A   1      26.036  37.757  53.412  1.00  0.00    +0.000 H 
ATOM     90  C65 UNL A   1      25.099  38.817  51.840  1.00  0.00    +0.000 C 
ATOM     91  C66 UNL A   1      23.893  38.976  51.135  1.00  0.00    +0.000 C 
ATOM     92  C67 UNL A   1      22.815  38.116  51.366  1.00  0.00    +0.000 C 
ATOM     93  C68 UNL A   1      22.926  37.120  52.338  1.00  0.00    +0.000 C 
BRANCH   93   94
ATOM     97  O6  UNL A   1      22.183  34.660  52.855  1.00  0.00    +0.000 O 
ATOM     94  S1  UNL A   1      21.599  35.951  52.534  1.00  0.00    +0.000 S 
ATOM     96  O5  UNL A   1      20.709  36.117  51.404  1.00  0.00    +0.000 O 
BRANCH   94   95
ATOM    139  H39 UNL A   1      19.793  36.909  53.701  1.00  0.00    +0.000 H 
ATOM    140  H40 UNL A   1      21.325  37.279  54.458  1.00  0.00    +0.000 H 
ATOM    141  H41 UNL A   1      20.611  35.696  54.656  1.00  0.00    +0.000 H 
ATOM     95  C69 UNL A   1      20.748  36.514  53.980  1.00  0.00    +0.000 C 
ENDBRANCH   94   95
ENDBRANCH   93   94
ENDBRANCH   89   90
ENDBRANCH    7    6
ENDBRANCH    8    7
ENDBRANCH   12   11
ENDBRANCH   14   12
ENDBRANCH   15   14
ENDBRANCH   16   15
ENDBRANCH   17   16
ENDBRANCH   18   17
ENDBRANCH   19   18
ENDBRANCH   20   19
ENDBRANCH   21   20
ENDBRANCH   22   21
ENDBRANCH   24   22
ENDBRANCH   28   27
BRANCH   32   33
ATOM     33  C26 UNL A   1      25.647  45.155  48.871  1.00  0.00    +0.000 C 
ATOM     34  C27 UNL A   1      26.397  45.394  50.031  1.00  0.00    +0.000 C 
ATOM     35  F1  UNL A   1      26.561  44.421  50.942  1.00  0.00    +0.000 F 
ATOM     36  C28 UNL A   1      26.963  46.643  50.276  1.00  0.00    +0.000 C 
ATOM     37  F2  UNL A   1      27.647  46.857  51.410  1.00  0.00    +0.000 F 
ATOM     38  C29 UNL A   1      26.821  47.666  49.352  1.00  0.00    +0.000 C 
ATOM     39  F3  UNL A   1      27.383  48.861  49.580  1.00  0.00    +0.000 F 
ATOM     40  C30 UNL A   1      26.093  47.451  48.191  1.00  0.00    +0.000 C 
ATOM     41  F4  UNL A   1      25.967  48.432  47.289  1.00  0.00    +0.000 F 
ATOM     42  C31 UNL A   1      25.499  46.212  47.959  1.00  0.00    +0.000 C 
ATOM     43  F5  UNL A   1      24.798  46.037  46.829  1.00  0.00    +0.000 F 
ENDBRANCH   32   33
BRANCH   49   50
ATOM     50  C37 UNL A   1      19.584  41.478  50.139  1.00  0.00    +0.000 C 
ATOM     51  C38 UNL A   1      19.397  41.005  51.445  1.00  0.00    +0.000 C 
ATOM     52  F6  UNL A   1      20.358  40.288  52.048  1.00  0.00    +0.000 F 
ATOM     53  C39 UNL A   1      18.206  41.238  52.128  1.00  0.00    +0.000 C 
ATOM     54  F7  UNL A   1      18.033  40.737  53.359  1.00  0.00    +0.000 F 
ATOM     55  C40 UNL A   1      17.196  41.978  51.533  1.00  0.00    +0.000 C 
ATOM     56  F8  UNL A   1      16.056  42.215  52.198  1.00  0.00    +0.000 F 
ATOM     57  C41 UNL A   1      17.365  42.470  50.248  1.00  0.00    +0.000 C 
ATOM     58  F9  UNL A   1      16.396  43.201  49.679  1.00  0.00    +0.000 F 
ATOM     59  C42 UNL A   1      18.541  42.210  49.550  1.00  0.00    +0.000 C 
ATOM     60  F10 UNL A   1      18.670  42.693  48.305  1.00  0.00    +0.000 F 
ENDBRANCH   49   50
BRANCH   64   65
ATOM     65  C46 UNL A   1      22.159  36.102  46.515  1.00  0.00    +0.000 C 
ATOM     66  C47 UNL A   1      21.390  35.924  45.358  1.00  0.00    +0.000 C 
ATOM     67  F11 UNL A   1      21.085  36.978  44.588  1.00  0.00    +0.000 F 
ATOM     68  C48 UNL A   1      20.907  34.666  45.002  1.00  0.00    +0.000 C 
ATOM     69  F12 UNL A   1      20.144  34.529  43.909  1.00  0.00    +0.000 F 
ATOM     70  C49 UNL A   1      21.209  33.559  45.780  1.00  0.00    +0.000 C 
ATOM     71  F13 UNL A   1      20.759  32.346  45.428  1.00  0.00    +0.000 F 
ATOM     72  C50 UNL A   1      21.975  33.709  46.925  1.00  0.00    +0.000 C 
ATOM     73  F14 UNL A   1      22.286  32.639  47.669  1.00  0.00    +0.000 F 
ATOM     74  C51 UNL A   1      22.431  34.970  47.299  1.00  0.00    +0.000 C 
ATOM     75  F15 UNL A   1      23.164  35.087  48.417  1.00  0.00    +0.000 F 
ENDBRANCH   64   65
TORSDOF 21
ENDMDL
MODEL 5
REMARK VINA RESULT:      -8.0     33.115     38.166
ROOT
ATOM    129  H29 UNL A   1      11.841  27.038   2.261  1.00  0.00    +0.000 H 
ATOM    130  H30 UNL A   1      13.476  28.488   0.929  1.00  0.00    +0.000 H 
ATOM    131  H31 UNL A   1       5.795  33.018  -3.716  1.00  0.00    +0.000 H 
ATOM    132  H32 UNL A   1       4.147  31.776  -2.201  1.00  0.00    +0.000 H 
ATOM     28  C22 UNL A   1       5.378  29.863  -0.473  1.00  0.00    +0.000 C 
ATOM     29  C23 UNL A   1       6.051  30.823  -1.421  1.00  0.00    +0.000 C 
ATOM     30  N3  UNL A   1       7.329  31.005  -1.648  1.00  0.00    +0.000 N 
ATOM     31  C24 UNL A   1       7.407  31.991  -2.624  1.00  0.00    +0.000 C 
ATOM     32  C25 UNL A   1       8.511  32.563  -3.163  1.00  0.00    +0.000 C 
ATOM     44  C32 UNL A   1       9.862  32.226  -2.795  1.00  0.00    +0.000 C 
ATOM     45  C33 UNL A   1      11.044  32.766  -3.272  1.00  0.00    +0.000 C 
ATOM     46  C34 UNL A   1      12.110  32.092  -2.666  1.00  0.00    +0.000 C 
ATOM     47  C35 UNL A   1      11.593  31.173  -1.768  1.00  0.00    +0.000 C 
ATOM     48  N4  UNL A   1      10.212  31.264  -1.859  1.00  0.00    +0.000 N 
ATOM     49  C36 UNL A   1      12.304  30.272  -0.897  1.00  0.00    +0.000 C 
ATOM     61  C43 UNL A   1      11.721  29.435  -0.004  1.00  0.00    +0.000 C 
ATOM     62  N5  UNL A   1      10.372  29.244   0.257  1.00  0.00    +0.000 N 
ATOM     63  C44 UNL A   1      10.311  28.309   1.172  1.00  0.00    +0.000 C 
ATOM     64  C45 UNL A   1       9.104  27.709   1.839  1.00  0.00    +0.000 C 
ATOM     76  C52 UNL A   1       7.876  28.103   1.452  1.00  0.00    +0.000 C 
ATOM     77  C53 UNL A   1       6.620  27.598   1.997  1.00  0.00    +0.000 C 
ATOM     78  C54 UNL A   1       5.600  28.144   1.321  1.00  0.00    +0.000 C 
ATOM     79  C55 UNL A   1       6.128  29.094   0.342  1.00  0.00    +0.000 C 
ATOM     80  N6  UNL A   1       7.489  29.003   0.490  1.00  0.00    +0.000 N 
ATOM     81  C56 UNL A   1      11.621  27.789   1.588  1.00  0.00    +0.000 C 
ATOM     82  C57 UNL A   1      12.447  28.538   0.871  1.00  0.00    +0.000 C 
ATOM     83  C58 UNL A   1       6.050  32.345  -2.975  1.00  0.00    +0.000 C 
ATOM     84  C59 UNL A   1       5.175  31.694  -2.222  1.00  0.00    +0.000 C 
ATOM    123  H23 UNL A   1      11.126  33.534  -3.957  1.00  0.00    +0.000 H 
ATOM    124  H24 UNL A   1      13.111  32.253  -2.855  1.00  0.00    +0.000 H 
ATOM    125  H25 UNL A   1       9.575  30.724  -1.337  1.00  0.00    +0.000 H 
ATOM    126  H26 UNL A   1       6.532  26.927   2.777  1.00  0.00    +0.000 H 
ATOM    127  H27 UNL A   1       4.601  27.929   1.469  1.00  0.00    +0.000 H 
ATOM    128  H28 UNL A   1       8.126  29.531  -0.042  1.00  0.00    +0.000 H 
ENDROOT
BRANCH   28   27
ATOM    122  H22 UNL A   1       3.731  31.462   0.918  1.00  0.00    +0.000 H 
ATOM    133  H33 UNL A   1       3.652  28.064  -1.567  1.00  0.00    +0.000 H 
ATOM    134  H34 UNL A   1       1.228  28.210  -1.675  1.00  0.00    +0.000 H 
ATOM     85  C60 UNL A   1       3.160  28.831  -1.082  1.00  0.00    +0.000 C 
ATOM     86  C61 UNL A   1       1.764  28.898  -1.124  1.00  0.00    +0.000 C 
ATOM     24  C18 UNL A   1       1.096  29.903  -0.417  1.00  0.00    +0.000 C 
ATOM     25  C19 UNL A   1       1.812  30.764   0.416  1.00  0.00    +0.000 C 
ATOM     26  C20 UNL A   1       3.203  30.758   0.379  1.00  0.00    +0.000 C 
ATOM     27  C21 UNL A   1       3.894  29.803  -0.384  1.00  0.00    +0.000 C 
ATOM    121  H21 UNL A   1       1.312  31.404   1.054  1.00  0.00    +0.000 H 
BRANCH   24   22
ATOM     22  C17 UNL A   1      -0.362  30.070  -0.609  1.00  0.00    +0.000 C 
ATOM     23  O4  UNL A   1      -1.097  30.173   0.368  1.00  0.00    +0.000 O 
BRANCH   22   21
ATOM     21  N2  UNL A   1      -0.888  30.062  -1.881  1.00  0.00    +0.000 N 
ATOM    120  H20 UNL A   1      -0.945  29.175  -2.306  1.00  0.00    +0.000 H 
BRANCH   21   20
ATOM     20  C16 UNL A   1      -1.371  31.171  -2.690  1.00  0.00    +0.000 C 
ATOM    118  H18 UNL A   1      -2.280  30.870  -3.168  1.00  0.00    +0.000 H 
ATOM    119  H19 UNL A   1      -1.513  32.001  -2.031  1.00  0.00    +0.000 H 
BRANCH   20   19
ATOM     19  C15 UNL A   1      -0.385  31.613  -3.764  1.00  0.00    +0.000 C 
ATOM    116  H16 UNL A   1      -0.027  30.734  -4.261  1.00  0.00    +0.000 H 
ATOM    117  H17 UNL A   1      -0.928  32.282  -4.397  1.00  0.00    +0.000 H 
BRANCH   19   18
ATOM     18  C14 UNL A   1       0.828  32.401  -3.273  1.00  0.00    +0.000 C 
ATOM    115  H15 UNL A   1       0.807  32.319  -2.207  1.00  0.00    +0.000 H 
ATOM    114  H14 UNL A   1       0.737  33.400  -3.644  1.00  0.00    +0.000 H 
BRANCH   18   17
ATOM     17  C13 UNL A   1       2.200  31.872  -3.695  1.00  0.00    +0.000 C 
ATOM    113  H13 UNL A   1       2.756  31.785  -2.785  1.00  0.00    +0.000 H 
ATOM    112  H12 UNL A   1       2.606  32.560  -4.406  1.00  0.00    +0.000 H 
BRANCH   17   16
ATOM    110  H10 UNL A   1       1.966  29.778  -3.563  1.00  0.00    +0.000 H 
ATOM    111  H11 UNL A   1       1.571  30.537  -5.156  1.00  0.00    +0.000 H 
ATOM     16  C12 UNL A   1       2.240  30.480  -4.323  1.00  0.00    +0.000 C 
BRANCH   16   15
ATOM    108  H8  UNL A   1       3.481  30.067  -5.985  1.00  0.00    +0.000 H 
ATOM    109  H9  UNL A   1       4.311  30.661  -4.509  1.00  0.00    +0.000 H 
ATOM     15  C11 UNL A   1       3.564  30.014  -4.919  1.00  0.00    +0.000 C 
BRANCH   15   14
ATOM    107  H7  UNL A   1       3.339  28.180  -3.998  1.00  0.00    +0.000 H 
ATOM     14  N1  UNL A   1       3.974  28.669  -4.571  1.00  0.00    +0.000 N 
BRANCH   14   12
ATOM     12  C10 UNL A   1       5.107  27.964  -4.913  1.00  0.00    +0.000 C 
ATOM     13  O3  UNL A   1       5.052  27.156  -5.839  1.00  0.00    +0.000 O 
BRANCH   12   11
ATOM    135  H35 UNL A   1       7.139  29.727  -5.592  1.00  0.00    +0.000 H 
ATOM    136  H36 UNL A   1       9.440  29.578  -4.829  1.00  0.00    +0.000 H 
ATOM      9  C7  UNL A   1       8.021  27.568  -2.572  1.00  0.00    +0.000 C 
ATOM    105  H5  UNL A   1       8.230  27.125  -1.665  1.00  0.00    +0.000 H 
ATOM      8  C6  UNL A   1       9.032  28.175  -3.308  1.00  0.00    +0.000 C 
ATOM     10  C8  UNL A   1       6.719  27.568  -3.080  1.00  0.00    +0.000 C 
ATOM    106  H6  UNL A   1       5.971  27.068  -2.574  1.00  0.00    +0.000 H 
ATOM     11  C9  UNL A   1       6.423  28.242  -4.274  1.00  0.00    +0.000 C 
ATOM     87  C62 UNL A   1       7.393  29.070  -4.838  1.00  0.00    +0.000 C 
ATOM     88  C63 UNL A   1       8.708  29.009  -4.379  1.00  0.00    +0.000 C 
BRANCH    8    7
ATOM      7  O2  UNL A   1      10.353  28.069  -2.995  1.00  0.00    +0.000 O 
BRANCH    7    6
ATOM      2  C2  UNL A   1      12.648  24.676  -3.980  1.00  0.00    +0.000 C 
ATOM      3  C3  UNL A   1      12.047  24.730  -2.791  1.00  0.00    +0.000 C 
ATOM    100  O7  UNL A   1      12.634  25.732  -4.867  1.00  0.00    +0.000 O 
ATOM      4  C4  UNL A   1      11.292  25.938  -2.432  1.00  0.00    +0.000 C 
ATOM      5  O1  UNL A   1      10.781  26.012  -1.317  1.00  0.00    +0.000 O 
ATOM      6  C5  UNL A   1      11.180  27.043  -3.440  1.00  0.00    +0.000 C 
ATOM    104  H4  UNL A   1      12.110  23.936  -2.135  1.00  0.00    +0.000 H 
ATOM     89  C64 UNL A   1      11.916  26.890  -4.574  1.00  0.00    +0.000 C 
BRANCH    2    1
ATOM      1  C1  UNL A   1      13.407  23.478  -4.454  1.00  0.00    +0.000 C 
ATOM    101  H1  UNL A   1      14.168  23.787  -5.139  1.00  0.00    +0.000 H 
ATOM    102  H2  UNL A   1      12.737  22.803  -4.944  1.00  0.00    +0.000 H 
ATOM    103  H3  UNL A   1      13.859  22.988  -3.617  1.00  0.00    +0.000 H 
ENDBRANCH    2    1
BRANCH   89   90
ATOM     98  C70 UNL A   1      12.301  30.137  -6.492  1.00  0.00    +0.000 C 
ATOM     99  C71 UNL A   1      12.210  29.231  -5.430  1.00  0.00    +0.000 C 
ATOM    137  H37 UNL A   1      12.088  26.382  -7.196  1.00  0.00    +0.000 H 
ATOM    138  H38 UNL A   1      12.194  27.954  -9.045  1.00  0.00    +0.000 H 
ATOM    142  H42 UNL A   1      12.384  31.149  -6.304  1.00  0.00    +0.000 H 
ATOM    143  H43 UNL A   1      12.241  29.576  -4.457  1.00  0.00    +0.000 H 
ATOM     90  C65 UNL A   1      12.077  27.857  -5.678  1.00  0.00    +0.000 C 
ATOM     91  C66 UNL A   1      12.118  27.395  -7.005  1.00  0.00    +0.000 C 
ATOM     92  C67 UNL A   1      12.196  28.298  -8.071  1.00  0.00    +0.000 C 
ATOM     93  C68 UNL A   1      12.278  29.667  -7.807  1.00  0.00    +0.000 C 
BRANCH   93   94
ATOM     97  O6  UNL A   1      13.568  30.824  -9.774  1.00  0.00    +0.000 O 
ATOM     94  S1  UNL A   1      12.247  30.813  -9.168  1.00  0.00    +0.000 S 
ATOM     96  O5  UNL A   1      11.625  32.030  -8.692  1.00  0.00    +0.000 O 
BRANCH   94   95
ATOM    139  H39 UNL A   1      10.684  30.819 -10.928  1.00  0.00    +0.000 H 
ATOM    140  H40 UNL A   1      10.390  29.514  -9.804  1.00  0.00    +0.000 H 
ATOM    141  H41 UNL A   1      11.692  29.393 -10.962  1.00  0.00    +0.000 H 
ATOM     95  C69 UNL A   1      11.144  30.060 -10.330  1.00  0.00    +0.000 C 
ENDBRANCH   94   95
ENDBRANCH   93   94
ENDBRANCH   89   90
ENDBRANCH    7    6
ENDBRANCH    8    7
ENDBRANCH   12   11
ENDBRANCH   14   12
ENDBRANCH   15   14
ENDBRANCH   16   15
ENDBRANCH   17   16
ENDBRANCH   18   17
ENDBRANCH   19   18
ENDBRANCH   20   19
ENDBRANCH   21   20
ENDBRANCH   22   21
ENDBRANCH   24   22
ENDBRANCH   28   27
BRANCH   32   33
ATOM     33  C26 UNL A   1       8.316  33.616  -4.217  1.00  0.00    +0.000 C 
ATOM     34  C27 UNL A   1       8.177  33.285  -5.574  1.00  0.00    +0.000 C 
ATOM     35  F1  UNL A   1       8.299  32.010  -5.974  1.00  0.00    +0.000 F 
ATOM     36  C28 UNL A   1       7.938  34.268  -6.532  1.00  0.00    +0.000 C 
ATOM     37  F2  UNL A   1       7.845  33.930  -7.826  1.00  0.00    +0.000 F 
ATOM     38  C29 UNL A   1       7.798  35.594  -6.151  1.00  0.00    +0.000 C 
ATOM     39  F3  UNL A   1       7.549  36.534  -7.072  1.00  0.00    +0.000 F 
ATOM     40  C30 UNL A   1       7.920  35.944  -4.815  1.00  0.00    +0.000 C 
ATOM     41  F4  UNL A   1       7.769  37.222  -4.442  1.00  0.00    +0.000 F 
ATOM     42  C31 UNL A   1       8.190  34.968  -3.859  1.00  0.00    +0.000 C 
ATOM     43  F5  UNL A   1       8.306  35.340  -2.575  1.00  0.00    +0.000 F 
ENDBRANCH   32   33
BRANCH   49   50
ATOM     50  C37 UNL A   1      13.805  30.266  -0.973  1.00  0.00    +0.000 C 
ATOM     51  C38 UNL A   1      14.581  31.114  -0.172  1.00  0.00    +0.000 C 
ATOM     52  F6  UNL A   1      13.991  32.007   0.637  1.00  0.00    +0.000 F 
ATOM     53  C39 UNL A   1      15.972  31.073  -0.222  1.00  0.00    +0.000 C 
ATOM     54  F7  UNL A   1      16.694  31.925   0.519  1.00  0.00    +0.000 F 
ATOM     55  C40 UNL A   1      16.612  30.159  -1.046  1.00  0.00    +0.000 C 
ATOM     56  F8  UNL A   1      17.951  30.110  -1.082  1.00  0.00    +0.000 F 
ATOM     57  C41 UNL A   1      15.864  29.299  -1.835  1.00  0.00    +0.000 C 
ATOM     58  F9  UNL A   1      16.481  28.402  -2.618  1.00  0.00    +0.000 F 
ATOM     59  C42 UNL A   1      14.474  29.360  -1.812  1.00  0.00    +0.000 C 
ATOM     60  F10 UNL A   1      13.779  28.520  -2.593  1.00  0.00    +0.000 F 
ENDBRANCH   49   50
BRANCH   64   65
ATOM     65  C46 UNL A   1       9.246  26.692   2.913  1.00  0.00    +0.000 C 
ATOM     66  C47 UNL A   1       9.398  25.335   2.603  1.00  0.00    +0.000 C 
ATOM     67  F11 UNL A   1       9.373  24.933   1.323  1.00  0.00    +0.000 F 
ATOM     68  C48 UNL A   1       9.548  24.380   3.606  1.00  0.00    +0.000 C 
ATOM     69  F12 UNL A   1       9.657  23.084   3.283  1.00  0.00    +0.000 F 
ATOM     70  C49 UNL A   1       9.580  24.767   4.937  1.00  0.00    +0.000 C 
ATOM     71  F13 UNL A   1       9.742  23.850   5.901  1.00  0.00    +0.000 F 
ATOM     72  C50 UNL A   1       9.439  26.106   5.269  1.00  0.00    +0.000 C 
ATOM     73  F14 UNL A   1       9.488  26.487   6.552  1.00  0.00    +0.000 F 
ATOM     74  C51 UNL A   1       9.256  27.056   4.269  1.00  0.00    +0.000 C 
ATOM     75  F15 UNL A   1       9.115  28.344   4.620  1.00  0.00    +0.000 F 
ENDBRANCH   64   65
TORSDOF 21
ENDMDL
MODEL 6
REMARK VINA RESULT:      -7.9     34.309     40.866
ROOT
ATOM    129  H29 UNL A   1      36.261  32.477  32.686  1.00  0.00    +0.000 H 
ATOM    130  H30 UNL A   1      37.006  32.733  35.121  1.00  0.00    +0.000 H 
ATOM    131  H31 UNL A   1      45.922  28.648  32.905  1.00  0.00    +0.000 H 
ATOM    132  H32 UNL A   1      45.299  28.636  30.422  1.00  0.00    +0.000 H 
ATOM     28  C22 UNL A   1      42.617  29.469  29.897  1.00  0.00    +0.000 C 
ATOM     29  C23 UNL A   1      43.336  29.442  31.222  1.00  0.00    +0.000 C 
ATOM     30  N3  UNL A   1      42.906  29.804  32.406  1.00  0.00    +0.000 N 
ATOM     31  C24 UNL A   1      43.954  29.559  33.285  1.00  0.00    +0.000 C 
ATOM     32  C25 UNL A   1      44.020  29.811  34.614  1.00  0.00    +0.000 C 
ATOM     44  C32 UNL A   1      42.958  30.407  35.382  1.00  0.00    +0.000 C 
ATOM     45  C33 UNL A   1      42.940  30.720  36.730  1.00  0.00    +0.000 C 
ATOM     46  C34 UNL A   1      41.678  31.233  37.045  1.00  0.00    +0.000 C 
ATOM     47  C35 UNL A   1      40.928  31.296  35.882  1.00  0.00    +0.000 C 
ATOM     48  N4  UNL A   1      41.725  30.783  34.869  1.00  0.00    +0.000 N 
ATOM     49  C36 UNL A   1      39.582  31.780  35.708  1.00  0.00    +0.000 C 
ATOM     61  C43 UNL A   1      38.934  31.857  34.520  1.00  0.00    +0.000 C 
ATOM     62  N5  UNL A   1      39.382  31.491  33.258  1.00  0.00    +0.000 N 
ATOM     63  C44 UNL A   1      38.384  31.720  32.441  1.00  0.00    +0.000 C 
ATOM     64  C45 UNL A   1      38.310  31.519  30.953  1.00  0.00    +0.000 C 
ATOM     76  C52 UNL A   1      39.363  30.980  30.310  1.00  0.00    +0.000 C 
ATOM     77  C53 UNL A   1      39.425  30.713  28.876  1.00  0.00    +0.000 C 
ATOM     78  C54 UNL A   1      40.583  30.096  28.597  1.00  0.00    +0.000 C 
ATOM     79  C55 UNL A   1      41.376  29.988  29.822  1.00  0.00    +0.000 C 
ATOM     80  N6  UNL A   1      40.571  30.538  30.789  1.00  0.00    +0.000 N 
ATOM     81  C56 UNL A   1      37.180  32.247  33.097  1.00  0.00    +0.000 C 
ATOM     82  C57 UNL A   1      37.582  32.350  34.356  1.00  0.00    +0.000 C 
ATOM     83  C58 UNL A   1      45.029  28.983  32.508  1.00  0.00    +0.000 C 
ATOM     84  C59 UNL A   1      44.720  28.941  31.220  1.00  0.00    +0.000 C 
ATOM    123  H23 UNL A   1      43.724  30.595  37.391  1.00  0.00    +0.000 H 
ATOM    124  H24 UNL A   1      41.359  31.518  37.984  1.00  0.00    +0.000 H 
ATOM    125  H25 UNL A   1      41.455  30.699  33.926  1.00  0.00    +0.000 H 
ATOM    126  H26 UNL A   1      38.696  30.959  28.188  1.00  0.00    +0.000 H 
ATOM    127  H27 UNL A   1      40.868  29.752  27.666  1.00  0.00    +0.000 H 
ATOM    128  H28 UNL A   1      40.836  30.609  31.733  1.00  0.00    +0.000 H 
ENDROOT
BRANCH   28   27
ATOM    122  H22 UNL A   1      43.972  30.901  28.075  1.00  0.00    +0.000 H 
ATOM    133  H33 UNL A   1      42.703  26.960  28.842  1.00  0.00    +0.000 H 
ATOM    134  H34 UNL A   1      44.096  26.166  27.016  1.00  0.00    +0.000 H 
ATOM     85  C60 UNL A   1      43.285  27.627  28.311  1.00  0.00    +0.000 C 
ATOM     86  C61 UNL A   1      44.066  27.171  27.244  1.00  0.00    +0.000 C 
ATOM     24  C18 UNL A   1      44.807  28.084  26.487  1.00  0.00    +0.000 C 
ATOM     25  C19 UNL A   1      44.679  29.454  26.724  1.00  0.00    +0.000 C 
ATOM     26  C20 UNL A   1      43.982  29.895  27.844  1.00  0.00    +0.000 C 
ATOM     27  C21 UNL A   1      43.290  28.987  28.661  1.00  0.00    +0.000 C 
ATOM    121  H21 UNL A   1      45.102  30.135  26.074  1.00  0.00    +0.000 H 
BRANCH   24   22
ATOM     22  C17 UNL A   1      45.762  27.574  25.478  1.00  0.00    +0.000 C 
ATOM     23  O4  UNL A   1      46.640  28.312  25.042  1.00  0.00    +0.000 O 
BRANCH   22   21
ATOM     21  N2  UNL A   1      45.629  26.289  25.000  1.00  0.00    +0.000 N 
ATOM    120  H20 UNL A   1      44.764  26.086  24.577  1.00  0.00    +0.000 H 
BRANCH   21   20
ATOM     20  C16 UNL A   1      46.579  25.188  25.031  1.00  0.00    +0.000 C 
ATOM    118  H18 UNL A   1      47.058  25.129  24.076  1.00  0.00    +0.000 H 
ATOM    119  H19 UNL A   1      47.271  25.391  25.821  1.00  0.00    +0.000 H 
BRANCH   20   19
ATOM     19  C15 UNL A   1      45.936  23.840  25.332  1.00  0.00    +0.000 C 
ATOM    116  H16 UNL A   1      45.571  23.439  24.408  1.00  0.00    +0.000 H 
ATOM    117  H17 UNL A   1      46.701  23.251  25.791  1.00  0.00    +0.000 H 
BRANCH   19   18
ATOM     18  C14 UNL A   1      44.776  23.861  26.325  1.00  0.00    +0.000 C 
ATOM    115  H15 UNL A   1      43.955  23.405  25.812  1.00  0.00    +0.000 H 
ATOM    114  H14 UNL A   1      44.612  24.878  26.611  1.00  0.00    +0.000 H 
BRANCH   18   17
ATOM     17  C13 UNL A   1      44.960  23.042  27.604  1.00  0.00    +0.000 C 
ATOM    113  H13 UNL A   1      45.985  22.736  27.593  1.00  0.00    +0.000 H 
ATOM    112  H12 UNL A   1      44.251  22.241  27.579  1.00  0.00    +0.000 H 
BRANCH   17   16
ATOM    110  H10 UNL A   1      45.200  23.168  29.698  1.00  0.00    +0.000 H 
ATOM    111  H11 UNL A   1      45.256  24.726  28.782  1.00  0.00    +0.000 H 
ATOM     16  C12 UNL A   1      44.777  23.780  28.929  1.00  0.00    +0.000 C 
BRANCH   16   15
ATOM    108  H8  UNL A   1      43.133  23.579  30.244  1.00  0.00    +0.000 H 
ATOM    109  H9  UNL A   1      43.338  25.189  29.478  1.00  0.00    +0.000 H 
ATOM     15  C11 UNL A   1      43.354  24.127  29.351  1.00  0.00    +0.000 C 
BRANCH   15   14
ATOM    107  H7  UNL A   1      42.547  23.120  27.739  1.00  0.00    +0.000 H 
ATOM     14  N1  UNL A   1      42.318  23.830  28.382  1.00  0.00    +0.000 N 
BRANCH   14   12
ATOM     12  C10 UNL A   1      41.066  24.381  28.216  1.00  0.00    +0.000 C 
ATOM     13  O3  UNL A   1      40.861  25.529  28.605  1.00  0.00    +0.000 O 
BRANCH   12   11
ATOM    135  H35 UNL A   1      40.833  21.733  27.419  1.00  0.00    +0.000 H 
ATOM    136  H36 UNL A   1      39.352  20.917  25.675  1.00  0.00    +0.000 H 
ATOM      9  C7  UNL A   1      37.926  23.888  26.210  1.00  0.00    +0.000 C 
ATOM    105  H5  UNL A   1      37.051  24.394  26.006  1.00  0.00    +0.000 H 
ATOM      8  C6  UNL A   1      38.209  22.687  25.571  1.00  0.00    +0.000 C 
ATOM     10  C8  UNL A   1      38.844  24.400  27.132  1.00  0.00    +0.000 C 
ATOM    106  H6  UNL A   1      38.674  25.320  27.567  1.00  0.00    +0.000 H 
ATOM     11  C9  UNL A   1      39.993  23.669  27.468  1.00  0.00    +0.000 C 
ATOM     87  C62 UNL A   1      40.107  22.352  27.024  1.00  0.00    +0.000 C 
ATOM     88  C63 UNL A   1      39.237  21.873  26.047  1.00  0.00    +0.000 C 
BRANCH    8    7
ATOM      7  O2  UNL A   1      37.478  22.202  24.530  1.00  0.00    +0.000 O 
BRANCH    7    6
ATOM      2  C2  UNL A   1      33.930  20.001  25.090  1.00  0.00    +0.000 C 
ATOM      3  C3  UNL A   1      35.090  19.350  24.998  1.00  0.00    +0.000 C 
ATOM    100  O7  UNL A   1      33.828  21.364  24.908  1.00  0.00    +0.000 O 
ATOM      4  C4  UNL A   1      36.317  20.118  24.749  1.00  0.00    +0.000 C 
ATOM      5  O1  UNL A   1      37.379  19.517  24.612  1.00  0.00    +0.000 O 
ATOM      6  C5  UNL A   1      36.226  21.612  24.664  1.00  0.00    +0.000 C 
ATOM    104  H4  UNL A   1      35.125  18.324  25.101  1.00  0.00    +0.000 H 
ATOM     89  C64 UNL A   1      34.969  22.133  24.688  1.00  0.00    +0.000 C 
BRANCH    2    1
ATOM      1  C1  UNL A   1      32.632  19.315  25.379  1.00  0.00    +0.000 C 
ATOM    101  H1  UNL A   1      32.212  18.949  24.465  1.00  0.00    +0.000 H 
ATOM    102  H2  UNL A   1      31.955  20.010  25.831  1.00  0.00    +0.000 H 
ATOM    103  H3  UNL A   1      32.803  18.496  26.046  1.00  0.00    +0.000 H 
ENDBRANCH    2    1
BRANCH   89   90
ATOM     98  C70 UNL A   1      34.064  25.737  25.440  1.00  0.00    +0.000 C 
ATOM     99  C71 UNL A   1      34.494  24.418  25.614  1.00  0.00    +0.000 C 
ATOM    137  H37 UNL A   1      34.427  23.429  22.410  1.00  0.00    +0.000 H 
ATOM    138  H38 UNL A   1      33.630  25.704  22.107  1.00  0.00    +0.000 H 
ATOM    142  H42 UNL A   1      33.989  26.370  26.252  1.00  0.00    +0.000 H 
ATOM    143  H43 UNL A   1      34.750  24.082  26.556  1.00  0.00    +0.000 H 
ATOM     90  C65 UNL A   1      34.579  23.547  24.517  1.00  0.00    +0.000 C 
ATOM     91  C66 UNL A   1      34.303  24.042  23.230  1.00  0.00    +0.000 C 
ATOM     92  C67 UNL A   1      33.861  25.357  23.052  1.00  0.00    +0.000 C 
ATOM     93  C68 UNL A   1      33.736  26.195  24.162  1.00  0.00    +0.000 C 
BRANCH   93   94
ATOM     97  O6  UNL A   1      32.840  28.031  22.519  1.00  0.00    +0.000 O 
ATOM     94  S1  UNL A   1      33.050  27.823  23.941  1.00  0.00    +0.000 S 
ATOM     96  O5  UNL A   1      33.851  28.737  24.728  1.00  0.00    +0.000 O 
BRANCH   94   95
ATOM    139  H39 UNL A   1      31.387  28.428  25.493  1.00  0.00    +0.000 H 
ATOM    140  H40 UNL A   1      31.308  26.730  25.086  1.00  0.00    +0.000 H 
ATOM    141  H41 UNL A   1      30.699  27.926  23.968  1.00  0.00    +0.000 H 
ATOM     95  C69 UNL A   1      31.453  27.715  24.697  1.00  0.00    +0.000 C 
ENDBRANCH   94   95
ENDBRANCH   93   94
ENDBRANCH   89   90
ENDBRANCH    7    6
ENDBRANCH    8    7
ENDBRANCH   12   11
ENDBRANCH   14   12
ENDBRANCH   15   14
ENDBRANCH   16   15
ENDBRANCH   17   16
ENDBRANCH   18   17
ENDBRANCH   19   18
ENDBRANCH   20   19
ENDBRANCH   21   20
ENDBRANCH   22   21
ENDBRANCH   24   22
ENDBRANCH   28   27
BRANCH   32   33
ATOM     33  C26 UNL A   1      45.284  29.442  35.339  1.00  0.00    +0.000 C 
ATOM     34  C27 UNL A   1      45.468  28.169  35.899  1.00  0.00    +0.000 C 
ATOM     35  F1  UNL A   1      44.473  27.268  35.870  1.00  0.00    +0.000 F 
ATOM     36  C28 UNL A   1      46.667  27.822  36.518  1.00  0.00    +0.000 C 
ATOM     37  F2  UNL A   1      46.805  26.611  37.077  1.00  0.00    +0.000 F 
ATOM     38  C29 UNL A   1      47.718  28.726  36.558  1.00  0.00    +0.000 C 
ATOM     39  F3  UNL A   1      48.877  28.383  37.135  1.00  0.00    +0.000 F 
ATOM     40  C30 UNL A   1      47.564  29.986  36.001  1.00  0.00    +0.000 C 
ATOM     41  F4  UNL A   1      48.583  30.856  36.023  1.00  0.00    +0.000 F 
ATOM     42  C31 UNL A   1      46.356  30.347  35.410  1.00  0.00    +0.000 C 
ATOM     43  F5  UNL A   1      46.238  31.575  34.884  1.00  0.00    +0.000 F 
ENDBRANCH   32   33
BRANCH   49   50
ATOM     50  C37 UNL A   1      38.843  32.245  36.930  1.00  0.00    +0.000 C 
ATOM     51  C38 UNL A   1      39.023  33.535  37.447  1.00  0.00    +0.000 C 
ATOM     52  F6  UNL A   1      39.922  34.365  36.895  1.00  0.00    +0.000 F 
ATOM     53  C39 UNL A   1      38.304  33.969  38.558  1.00  0.00    +0.000 C 
ATOM     54  F7  UNL A   1      38.526  35.191  39.062  1.00  0.00    +0.000 F 
ATOM     55  C40 UNL A   1      37.366  33.136  39.149  1.00  0.00    +0.000 C 
ATOM     56  F8  UNL A   1      36.664  33.561  40.209  1.00  0.00    +0.000 F 
ATOM     57  C41 UNL A   1      37.159  31.862  38.645  1.00  0.00    +0.000 C 
ATOM     58  F9  UNL A   1      36.240  31.062  39.204  1.00  0.00    +0.000 F 
ATOM     59  C42 UNL A   1      37.901  31.413  37.555  1.00  0.00    +0.000 C 
ATOM     60  F10 UNL A   1      37.683  30.171  37.096  1.00  0.00    +0.000 F 
ENDBRANCH   49   50
BRANCH   64   65
ATOM     65  C46 UNL A   1      37.097  31.904  30.185  1.00  0.00    +0.000 C 
ATOM     66  C47 UNL A   1      36.830  33.246  29.889  1.00  0.00    +0.000 C 
ATOM     67  F11 UNL A   1      37.650  34.208  30.339  1.00  0.00    +0.000 F 
ATOM     68  C48 UNL A   1      35.703  33.611  29.155  1.00  0.00    +0.000 C 
ATOM     69  F12 UNL A   1      35.452  34.905  28.916  1.00  0.00    +0.000 F 
ATOM     70  C49 UNL A   1      34.839  32.637  28.676  1.00  0.00    +0.000 C 
ATOM     71  F13 UNL A   1      33.766  32.986  27.954  1.00  0.00    +0.000 F 
ATOM     72  C50 UNL A   1      35.088  31.301  28.949  1.00  0.00    +0.000 C 
ATOM     73  F14 UNL A   1      34.267  30.355  28.472  1.00  0.00    +0.000 F 
ATOM     74  C51 UNL A   1      36.195  30.939  29.711  1.00  0.00    +0.000 C 
ATOM     75  F15 UNL A   1      36.407  29.639  29.965  1.00  0.00    +0.000 F 
ENDBRANCH   64   65
TORSDOF 21
ENDMDL
MODEL 7
REMARK VINA RESULT:      -7.9      7.076     12.277
ROOT
ATOM    129  H29 UNL A   1       2.813   0.909  29.199  1.00  0.00    +0.000 H 
ATOM    130  H30 UNL A   1       2.413   1.383  31.683  1.00  0.00    +0.000 H 
ATOM    131  H31 UNL A   1       5.284  -7.967  34.010  1.00  0.00    +0.000 H 
ATOM    132  H32 UNL A   1       5.948  -8.371  31.571  1.00  0.00    +0.000 H 
ATOM     28  C22 UNL A   1       5.285  -6.213  29.818  1.00  0.00    +0.000 C 
ATOM     29  C23 UNL A   1       5.120  -6.275  31.316  1.00  0.00    +0.000 C 
ATOM     30  N3  UNL A   1       4.661  -5.363  32.137  1.00  0.00    +0.000 N 
ATOM     31  C24 UNL A   1       4.702  -5.933  33.404  1.00  0.00    +0.000 C 
ATOM     32  C25 UNL A   1       4.378  -5.374  34.595  1.00  0.00    +0.000 C 
ATOM     44  C32 UNL A   1       3.909  -4.022  34.757  1.00  0.00    +0.000 C 
ATOM     45  C33 UNL A   1       3.574  -3.361  35.926  1.00  0.00    +0.000 C 
ATOM     46  C34 UNL A   1       3.120  -2.081  35.592  1.00  0.00    +0.000 C 
ATOM     47  C35 UNL A   1       3.227  -1.922  34.220  1.00  0.00    +0.000 C 
ATOM     48  N4  UNL A   1       3.710  -3.123  33.719  1.00  0.00    +0.000 N 
ATOM     49  C36 UNL A   1       2.906  -0.767  33.422  1.00  0.00    +0.000 C 
ATOM     61  C43 UNL A   1       3.089  -0.673  32.082  1.00  0.00    +0.000 C 
ATOM     62  N5  UNL A   1       3.588  -1.625  31.204  1.00  0.00    +0.000 N 
ATOM     63  C44 UNL A   1       3.537  -1.079  30.014  1.00  0.00    +0.000 C 
ATOM     64  C45 UNL A   1       3.959  -1.649  28.689  1.00  0.00    +0.000 C 
ATOM     76  C52 UNL A   1       4.413  -2.916  28.633  1.00  0.00    +0.000 C 
ATOM     77  C53 UNL A   1       4.841  -3.603  27.418  1.00  0.00    +0.000 C 
ATOM     78  C54 UNL A   1       5.146  -4.873  27.720  1.00  0.00    +0.000 C 
ATOM     79  C55 UNL A   1       5.006  -5.070  29.163  1.00  0.00    +0.000 C 
ATOM     80  N6  UNL A   1       4.564  -3.854  29.623  1.00  0.00    +0.000 N 
ATOM     81  C56 UNL A   1       2.986   0.283  30.001  1.00  0.00    +0.000 C 
ATOM     82  C57 UNL A   1       2.767   0.497  31.292  1.00  0.00    +0.000 C 
ATOM     83  C58 UNL A   1       5.196  -7.282  33.242  1.00  0.00    +0.000 C 
ATOM     84  C59 UNL A   1       5.522  -7.525  31.981  1.00  0.00    +0.000 C 
ATOM    123  H23 UNL A   1       3.646  -3.745  36.881  1.00  0.00    +0.000 H 
ATOM    124  H24 UNL A   1       2.766  -1.374  36.254  1.00  0.00    +0.000 H 
ATOM    125  H25 UNL A   1       3.886  -3.309  32.768  1.00  0.00    +0.000 H 
ATOM    126  H26 UNL A   1       4.898  -3.179  26.478  1.00  0.00    +0.000 H 
ATOM    127  H27 UNL A   1       5.436  -5.596  27.042  1.00  0.00    +0.000 H 
ATOM    128  H28 UNL A   1       4.375  -3.673  30.571  1.00  0.00    +0.000 H 
ENDROOT
BRANCH   28   27
ATOM    122  H22 UNL A   1       3.924  -8.306  28.831  1.00  0.00    +0.000 H 
ATOM    133  H33 UNL A   1       7.857  -6.847  29.191  1.00  0.00    +0.000 H 
ATOM    134  H34 UNL A   1       8.630  -8.582  27.674  1.00  0.00    +0.000 H 
ATOM     85  C60 UNL A   1       7.181  -7.507  28.776  1.00  0.00    +0.000 C 
ATOM     86  C61 UNL A   1       7.631  -8.520  27.924  1.00  0.00    +0.000 C 
ATOM     24  C18 UNL A   1       6.721  -9.450  27.410  1.00  0.00    +0.000 C 
ATOM     25  C19 UNL A   1       5.392  -9.434  27.835  1.00  0.00    +0.000 C 
ATOM     26  C20 UNL A   1       4.928  -8.370  28.602  1.00  0.00    +0.000 C 
ATOM     27  C21 UNL A   1       5.813  -7.384  29.067  1.00  0.00    +0.000 C 
ATOM    121  H21 UNL A   1       4.756 -10.206  27.580  1.00  0.00    +0.000 H 
BRANCH   24   22
ATOM     22  C17 UNL A   1       7.177 -10.407  26.376  1.00  0.00    +0.000 C 
ATOM     23  O4  UNL A   1       6.412 -11.276  25.971  1.00  0.00    +0.000 O 
BRANCH   22   21
ATOM     21  N2  UNL A   1       8.471 -10.343  25.911  1.00  0.00    +0.000 N 
ATOM    120  H20 UNL A   1       9.062 -11.070  26.213  1.00  0.00    +0.000 H 
BRANCH   21   20
ATOM     20  C16 UNL A   1       9.093  -9.359  25.038  1.00  0.00    +0.000 C 
ATOM    118  H18 UNL A   1       9.614  -8.650  25.646  1.00  0.00    +0.000 H 
ATOM    119  H19 UNL A   1       9.748  -9.891  24.381  1.00  0.00    +0.000 H 
BRANCH   20   19
ATOM     19  C15 UNL A   1       8.096  -8.606  24.166  1.00  0.00    +0.000 C 
ATOM    116  H16 UNL A   1       8.154  -9.013  23.177  1.00  0.00    +0.000 H 
ATOM    117  H17 UNL A   1       7.145  -8.736  24.636  1.00  0.00    +0.000 H 
BRANCH   19   18
ATOM     18  C14 UNL A   1       8.306  -7.096  24.064  1.00  0.00    +0.000 C 
ATOM    115  H15 UNL A   1       7.716  -6.784  23.229  1.00  0.00    +0.000 H 
ATOM    114  H14 UNL A   1       9.356  -6.921  23.958  1.00  0.00    +0.000 H 
BRANCH   18   17
ATOM     17  C13 UNL A   1       7.813  -6.259  25.246  1.00  0.00    +0.000 C 
ATOM    113  H13 UNL A   1       8.042  -6.842  26.114  1.00  0.00    +0.000 H 
ATOM    112  H12 UNL A   1       6.771  -6.070  25.095  1.00  0.00    +0.000 H 
BRANCH   17   16
ATOM    110  H10 UNL A   1       7.731  -4.182  25.616  1.00  0.00    +0.000 H 
ATOM    111  H11 UNL A   1       9.140  -5.074  26.315  1.00  0.00    +0.000 H 
ATOM     16  C12 UNL A   1       8.499  -4.914  25.473  1.00  0.00    +0.000 C 
BRANCH   16   15
ATOM    108  H8  UNL A   1       9.737  -5.239  23.789  1.00  0.00    +0.000 H 
ATOM    109  H9  UNL A   1       8.851  -3.680  23.827  1.00  0.00    +0.000 H 
ATOM     15  C11 UNL A   1       9.422  -4.399  24.374  1.00  0.00    +0.000 C 
BRANCH   15   14
ATOM    107  H7  UNL A   1      10.754  -3.718  25.797  1.00  0.00    +0.000 H 
ATOM     14  N1  UNL A   1      10.610  -3.701  24.823  1.00  0.00    +0.000 N 
BRANCH   14   12
ATOM     12  C10 UNL A   1      11.569  -3.019  24.107  1.00  0.00    +0.000 C 
ATOM     13  O3  UNL A   1      11.681  -3.234  22.902  1.00  0.00    +0.000 O 
BRANCH   12   11
ATOM    135  H35 UNL A   1      12.786  -2.843  26.594  1.00  0.00    +0.000 H 
ATOM    136  H36 UNL A   1      13.510  -0.784  27.660  1.00  0.00    +0.000 H 
ATOM      9  C7  UNL A   1      13.202   0.340  24.531  1.00  0.00    +0.000 C 
ATOM    105  H5  UNL A   1      13.475   1.147  23.950  1.00  0.00    +0.000 H 
ATOM      8  C6  UNL A   1      13.350   0.386  25.913  1.00  0.00    +0.000 C 
ATOM     10  C8  UNL A   1      12.680  -0.815  23.943  1.00  0.00    +0.000 C 
ATOM    106  H6  UNL A   1      12.507  -0.840  22.926  1.00  0.00    +0.000 H 
ATOM     11  C9  UNL A   1      12.387  -1.941  24.728  1.00  0.00    +0.000 C 
ATOM     87  C62 UNL A   1      12.806  -1.961  26.058  1.00  0.00    +0.000 C 
ATOM     88  C63 UNL A   1      13.253  -0.787  26.661  1.00  0.00    +0.000 C 
BRANCH    8    7
ATOM      7  O2  UNL A   1      13.671   1.521  26.593  1.00  0.00    +0.000 O 
BRANCH    7    6
ATOM      2  C2  UNL A   1      11.334   4.016  29.055  1.00  0.00    +0.000 C 
ATOM      3  C3  UNL A   1      12.653   3.968  29.245  1.00  0.00    +0.000 C 
ATOM    100  O7  UNL A   1      10.686   3.204  28.148  1.00  0.00    +0.000 O 
ATOM      4  C4  UNL A   1      13.456   3.056  28.420  1.00  0.00    +0.000 C 
ATOM      5  O1  UNL A   1      14.664   2.971  28.628  1.00  0.00    +0.000 O 
ATOM      6  C5  UNL A   1      12.769   2.255  27.355  1.00  0.00    +0.000 C 
ATOM    104  H4  UNL A   1      13.102   4.562  29.960  1.00  0.00    +0.000 H 
ATOM     89  C64 UNL A   1      11.411   2.338  27.332  1.00  0.00    +0.000 C 
BRANCH    2    1
ATOM      1  C1  UNL A   1      10.435   4.937  29.816  1.00  0.00    +0.000 C 
ATOM    101  H1  UNL A   1      10.660   4.871  30.860  1.00  0.00    +0.000 H 
ATOM    102  H2  UNL A   1       9.415   4.657  29.651  1.00  0.00    +0.000 H 
ATOM    103  H3  UNL A   1      10.588   5.942  29.481  1.00  0.00    +0.000 H 
ENDBRANCH    2    1
BRANCH   89   90
ATOM     98  C70 UNL A   1       9.032  -0.328  26.062  1.00  0.00    +0.000 C 
ATOM     99  C71 UNL A   1       9.865   0.404  26.916  1.00  0.00    +0.000 C 
ATOM    137  H37 UNL A   1      10.573   2.965  24.869  1.00  0.00    +0.000 H 
ATOM    138  H38 UNL A   1       9.169   1.673  23.365  1.00  0.00    +0.000 H 
ATOM    142  H42 UNL A   1       8.595  -1.204  26.390  1.00  0.00    +0.000 H 
ATOM    143  H43 UNL A   1      10.030   0.073  27.880  1.00  0.00    +0.000 H 
ATOM     90  C65 UNL A   1      10.478   1.584  26.470  1.00  0.00    +0.000 C 
ATOM     91  C66 UNL A   1      10.181   2.064  25.183  1.00  0.00    +0.000 C 
ATOM     92  C67 UNL A   1       9.359   1.331  24.321  1.00  0.00    +0.000 C 
ATOM     93  C68 UNL A   1       8.795   0.132  24.765  1.00  0.00    +0.000 C 
BRANCH   93   94
ATOM     97  O6  UNL A   1       6.945  -1.687  24.390  1.00  0.00    +0.000 O 
ATOM     94  S1  UNL A   1       7.858  -0.858  23.621  1.00  0.00    +0.000 S 
ATOM     96  O5  UNL A   1       8.796  -1.437  22.683  1.00  0.00    +0.000 O 
BRANCH   94   95
ATOM    139  H39 UNL A   1       7.507   0.902  22.097  1.00  0.00    +0.000 H 
ATOM    140  H40 UNL A   1       6.391   0.975  23.441  1.00  0.00    +0.000 H 
ATOM    141  H41 UNL A   1       6.140  -0.184  22.158  1.00  0.00    +0.000 H 
ATOM     95  C69 UNL A   1       6.877   0.326  22.743  1.00  0.00    +0.000 C 
ENDBRANCH   94   95
ENDBRANCH   93   94
ENDBRANCH   89   90
ENDBRANCH    7    6
ENDBRANCH    8    7
ENDBRANCH   12   11
ENDBRANCH   14   12
ENDBRANCH   15   14
ENDBRANCH   16   15
ENDBRANCH   17   16
ENDBRANCH   18   17
ENDBRANCH   19   18
ENDBRANCH   20   19
ENDBRANCH   21   20
ENDBRANCH   22   21
ENDBRANCH   24   22
ENDBRANCH   28   27
BRANCH   32   33
ATOM     33  C26 UNL A   1       4.511  -6.220  35.830  1.00  0.00    +0.000 C 
ATOM     34  C27 UNL A   1       5.687  -6.225  36.596  1.00  0.00    +0.000 C 
ATOM     35  F1  UNL A   1       6.760  -5.529  36.191  1.00  0.00    +0.000 F 
ATOM     36  C28 UNL A   1       5.775  -6.969  37.770  1.00  0.00    +0.000 C 
ATOM     37  F2  UNL A   1       6.921  -6.987  38.466  1.00  0.00    +0.000 F 
ATOM     38  C29 UNL A   1       4.682  -7.693  38.221  1.00  0.00    +0.000 C 
ATOM     39  F3  UNL A   1       4.763  -8.392  39.362  1.00  0.00    +0.000 F 
ATOM     40  C30 UNL A   1       3.505  -7.694  37.488  1.00  0.00    +0.000 C 
ATOM     41  F4  UNL A   1       2.442  -8.379  37.929  1.00  0.00    +0.000 F 
ATOM     42  C31 UNL A   1       3.424  -6.976  36.296  1.00  0.00    +0.000 C 
ATOM     43  F5  UNL A   1       2.273  -7.001  35.608  1.00  0.00    +0.000 F 
ENDBRANCH   32   33
BRANCH   49   50
ATOM     50  C37 UNL A   1       2.334   0.431  34.126  1.00  0.00    +0.000 C 
ATOM     51  C38 UNL A   1       3.155   1.338  34.811  1.00  0.00    +0.000 C 
ATOM     52  F6  UNL A   1       4.474   1.113  34.911  1.00  0.00    +0.000 F 
ATOM     53  C39 UNL A   1       2.619   2.465  35.428  1.00  0.00    +0.000 C 
ATOM     54  F7  UNL A   1       3.417   3.294  36.116  1.00  0.00    +0.000 F 
ATOM     55  C40 UNL A   1       1.260   2.728  35.340  1.00  0.00    +0.000 C 
ATOM     56  F8  UNL A   1       0.748   3.822  35.921  1.00  0.00    +0.000 F 
ATOM     57  C41 UNL A   1       0.431   1.854  34.654  1.00  0.00    +0.000 C 
ATOM     58  F9  UNL A   1      -0.880   2.115  34.553  1.00  0.00    +0.000 F 
ATOM     59  C42 UNL A   1       0.959   0.707  34.065  1.00  0.00    +0.000 C 
ATOM     60  F10 UNL A   1       0.129  -0.123  33.415  1.00  0.00    +0.000 F 
ENDBRANCH   49   50
BRANCH   64   65
ATOM     65  C46 UNL A   1       3.882  -0.840  27.444  1.00  0.00    +0.000 C 
ATOM     66  C47 UNL A   1       2.715  -0.821  26.670  1.00  0.00    +0.000 C 
ATOM     67  F11 UNL A   1       1.663  -1.575  27.025  1.00  0.00    +0.000 F 
ATOM     68  C48 UNL A   1       2.632  -0.051  25.512  1.00  0.00    +0.000 C 
ATOM     69  F12 UNL A   1       1.516  -0.078  24.771  1.00  0.00    +0.000 F 
ATOM     70  C49 UNL A   1       3.703   0.739  25.123  1.00  0.00    +0.000 C 
ATOM     71  F13 UNL A   1       3.617   1.494  24.019  1.00  0.00    +0.000 F 
ATOM     72  C50 UNL A   1       4.866   0.743  25.878  1.00  0.00    +0.000 C 
ATOM     73  F14 UNL A   1       5.897   1.519  25.517  1.00  0.00    +0.000 F 
ATOM     74  C51 UNL A   1       4.962  -0.052  27.016  1.00  0.00    +0.000 C 
ATOM     75  F15 UNL A   1       6.102  -0.033  27.723  1.00  0.00    +0.000 F 
ENDBRANCH   64   65
TORSDOF 21
ENDMDL
MODEL 8
REMARK VINA RESULT:      -7.9     39.284     46.789
ROOT
ATOM    129  H29 UNL A   1      23.492  39.245  48.290  1.00  0.00    +0.000 H 
ATOM    130  H30 UNL A   1      23.150  37.074  46.978  1.00  0.00    +0.000 H 
ATOM    131  H31 UNL A   1      32.641  37.476  43.684  1.00  0.00    +0.000 H 
ATOM    132  H32 UNL A   1      33.082  39.491  45.202  1.00  0.00    +0.000 H 
ATOM     28  C22 UNL A   1      30.759  40.445  46.564  1.00  0.00    +0.000 C 
ATOM     29  C23 UNL A   1      30.878  39.235  45.671  1.00  0.00    +0.000 C 
ATOM     30  N3  UNL A   1      29.964  38.357  45.340  1.00  0.00    +0.000 N 
ATOM     31  C24 UNL A   1      30.589  37.459  44.482  1.00  0.00    +0.000 C 
ATOM     32  C25 UNL A   1      30.080  36.344  43.906  1.00  0.00    +0.000 C 
ATOM     44  C32 UNL A   1      28.731  35.876  44.095  1.00  0.00    +0.000 C 
ATOM     45  C33 UNL A   1      28.130  34.745  43.569  1.00  0.00    +0.000 C 
ATOM     46  C34 UNL A   1      26.795  34.725  43.982  1.00  0.00    +0.000 C 
ATOM     47  C35 UNL A   1      26.578  35.811  44.815  1.00  0.00    +0.000 C 
ATOM     48  N4  UNL A   1      27.774  36.511  44.873  1.00  0.00    +0.000 N 
ATOM     49  C36 UNL A   1      25.368  36.188  45.499  1.00  0.00    +0.000 C 
ATOM     61  C43 UNL A   1      25.250  37.244  46.342  1.00  0.00    +0.000 C 
ATOM     62  N5  UNL A   1      26.213  38.172  46.713  1.00  0.00    +0.000 N 
ATOM     63  C44 UNL A   1      25.610  39.015  47.515  1.00  0.00    +0.000 C 
ATOM     64  C45 UNL A   1      26.170  40.216  48.225  1.00  0.00    +0.000 C 
ATOM     76  C52 UNL A   1      27.452  40.567  48.011  1.00  0.00    +0.000 C 
ATOM     77  C53 UNL A   1      28.122  41.714  48.617  1.00  0.00    +0.000 C 
ATOM     78  C54 UNL A   1      29.362  41.810  48.114  1.00  0.00    +0.000 C 
ATOM     79  C55 UNL A   1      29.599  40.690  47.204  1.00  0.00    +0.000 C 
ATOM     80  N6  UNL A   1      28.409  40.004  47.204  1.00  0.00    +0.000 N 
ATOM     81  C56 UNL A   1      24.187  38.723  47.734  1.00  0.00    +0.000 C 
ATOM     82  C57 UNL A   1      24.030  37.610  47.030  1.00  0.00    +0.000 C 
ATOM     83  C58 UNL A   1      31.950  37.918  44.313  1.00  0.00    +0.000 C 
ATOM     84  C59 UNL A   1      32.196  38.978  45.069  1.00  0.00    +0.000 C 
ATOM    123  H23 UNL A   1      28.589  34.038  42.972  1.00  0.00    +0.000 H 
ATOM    124  H24 UNL A   1      26.090  34.021  43.714  1.00  0.00    +0.000 H 
ATOM    125  H25 UNL A   1      27.921  37.335  45.390  1.00  0.00    +0.000 H 
ATOM    126  H26 UNL A   1      27.709  42.348  49.319  1.00  0.00    +0.000 H 
ATOM    127  H27 UNL A   1      30.040  42.557  48.336  1.00  0.00    +0.000 H 
ATOM    128  H28 UNL A   1      28.258  39.188  46.676  1.00  0.00    +0.000 H 
ENDROOT
BRANCH   28   27
ATOM    122  H22 UNL A   1      31.572  42.536  45.092  1.00  0.00    +0.000 H 
ATOM    133  H33 UNL A   1      32.677  40.313  48.492  1.00  0.00    +0.000 H 
ATOM    134  H34 UNL A   1      34.362  41.982  49.024  1.00  0.00    +0.000 H 
ATOM     85  C60 UNL A   1      32.780  41.149  47.896  1.00  0.00    +0.000 C 
ATOM     86  C61 UNL A   1      33.767  42.095  48.189  1.00  0.00    +0.000 C 
ATOM     24  C18 UNL A   1      33.946  43.196  47.346  1.00  0.00    +0.000 C 
ATOM     25  C19 UNL A   1      33.219  43.291  46.158  1.00  0.00    +0.000 C 
ATOM     26  C20 UNL A   1      32.174  42.405  45.920  1.00  0.00    +0.000 C 
ATOM     27  C21 UNL A   1      31.930  41.333  46.794  1.00  0.00    +0.000 C 
ATOM    121  H21 UNL A   1      33.455  44.015  45.462  1.00  0.00    +0.000 H 
BRANCH   24   22
ATOM     22  C17 UNL A   1      34.871  44.276  47.759  1.00  0.00    +0.000 C 
ATOM     23  O4  UNL A   1      34.419  45.335  48.183  1.00  0.00    +0.000 O 
BRANCH   22   21
ATOM     21  N2  UNL A   1      36.229  44.102  47.620  1.00  0.00    +0.000 N 
ATOM    120  H20 UNL A   1      36.754  44.215  48.445  1.00  0.00    +0.000 H 
BRANCH   21   20
ATOM     20  C16 UNL A   1      37.003  43.776  46.432  1.00  0.00    +0.000 C 
ATOM    118  H18 UNL A   1      36.492  44.167  45.577  1.00  0.00    +0.000 H 
ATOM    119  H19 UNL A   1      37.973  44.209  46.559  1.00  0.00    +0.000 H 
BRANCH   20   19
ATOM     19  C15 UNL A   1      37.203  42.279  46.230  1.00  0.00    +0.000 C 
ATOM    116  H16 UNL A   1      38.248  42.107  46.074  1.00  0.00    +0.000 H 
ATOM    117  H17 UNL A   1      36.810  41.814  47.109  1.00  0.00    +0.000 H 
BRANCH   19   18
ATOM     18  C14 UNL A   1      36.446  41.657  45.058  1.00  0.00    +0.000 C 
ATOM    115  H15 UNL A   1      37.201  41.268  44.407  1.00  0.00    +0.000 H 
ATOM    114  H14 UNL A   1      35.835  42.420  44.625  1.00  0.00    +0.000 H 
BRANCH   18   17
ATOM     17  C13 UNL A   1      35.541  40.468  45.387  1.00  0.00    +0.000 C 
ATOM    113  H13 UNL A   1      35.617  39.818  44.539  1.00  0.00    +0.000 H 
ATOM    112  H12 UNL A   1      34.560  40.851  45.572  1.00  0.00    +0.000 H 
BRANCH   17   16
ATOM    110  H10 UNL A   1      36.956  39.839  46.822  1.00  0.00    +0.000 H 
ATOM    111  H11 UNL A   1      35.225  39.856  47.345  1.00  0.00    +0.000 H 
ATOM     16  C12 UNL A   1      35.938  39.609  46.586  1.00  0.00    +0.000 C 
BRANCH   16   15
ATOM    108  H8  UNL A   1      35.536  37.886  45.426  1.00  0.00    +0.000 H 
ATOM    109  H9  UNL A   1      36.799  37.710  46.688  1.00  0.00    +0.000 H 
ATOM     15  C11 UNL A   1      35.834  38.095  46.433  1.00  0.00    +0.000 C 
BRANCH   15   14
ATOM    107  H7  UNL A   1      34.961  37.709  48.264  1.00  0.00    +0.000 H 
ATOM     14  N1  UNL A   1      34.898  37.434  47.320  1.00  0.00    +0.000 N 
BRANCH   14   12
ATOM     12  C10 UNL A   1      33.936  36.484  47.055  1.00  0.00    +0.000 C 
ATOM     13  O3  UNL A   1      34.207  35.552  46.301  1.00  0.00    +0.000 O 
BRANCH   12   11
ATOM    135  H35 UNL A   1      31.837  34.670  47.029  1.00  0.00    +0.000 H 
ATOM    136  H36 UNL A   1      29.553  35.156  47.696  1.00  0.00    +0.000 H 
ATOM      9  C7  UNL A   1      31.069  37.767  49.120  1.00  0.00    +0.000 C 
ATOM    105  H5  UNL A   1      30.888  38.503  49.820  1.00  0.00    +0.000 H 
ATOM      8  C6  UNL A   1      30.028  36.981  48.640  1.00  0.00    +0.000 C 
ATOM     10  C8  UNL A   1      32.364  37.545  48.642  1.00  0.00    +0.000 C 
ATOM    106  H6  UNL A   1      33.135  38.162  48.944  1.00  0.00    +0.000 H 
ATOM     11  C9  UNL A   1      32.621  36.490  47.753  1.00  0.00    +0.000 C 
ATOM     87  C62 UNL A   1      31.615  35.555  47.510  1.00  0.00    +0.000 C 
ATOM     88  C63 UNL A   1      30.310  35.819  47.922  1.00  0.00    +0.000 C 
BRANCH    8    7
ATOM      7  O2  UNL A   1      28.716  37.236  48.899  1.00  0.00    +0.000 O 
BRANCH    7    6
ATOM      2  C2  UNL A   1      26.580  35.671  52.176  1.00  0.00    +0.000 C 
ATOM      3  C3  UNL A   1      26.312  35.219  50.950  1.00  0.00    +0.000 C 
ATOM    100  O7  UNL A   1      27.462  36.705  52.408  1.00  0.00    +0.000 O 
ATOM      4  C4  UNL A   1      27.021  35.807  49.806  1.00  0.00    +0.000 C 
ATOM      5  O1  UNL A   1      26.738  35.430  48.671  1.00  0.00    +0.000 O 
ATOM      6  C5  UNL A   1      28.063  36.853  50.066  1.00  0.00    +0.000 C 
ATOM    104  H4  UNL A   1      25.617  34.469  50.808  1.00  0.00    +0.000 H 
ATOM     89  C64 UNL A   1      28.169  37.280  51.354  1.00  0.00    +0.000 C 
BRANCH    2    1
ATOM      1  C1  UNL A   1      25.940  35.113  53.407  1.00  0.00    +0.000 C 
ATOM    101  H1  UNL A   1      25.697  34.084  53.246  1.00  0.00    +0.000 H 
ATOM    102  H2  UNL A   1      25.048  35.662  53.625  1.00  0.00    +0.000 H 
ATOM    103  H3  UNL A   1      26.620  35.194  54.230  1.00  0.00    +0.000 H 
ENDBRANCH    2    1
BRANCH   89   90
ATOM     98  C70 UNL A   1      29.715  40.695  51.919  1.00  0.00    +0.000 C 
ATOM     99  C71 UNL A   1      28.853  39.693  51.461  1.00  0.00    +0.000 C 
ATOM    137  H37 UNL A   1      30.120  37.104  53.177  1.00  0.00    +0.000 H 
ATOM    138  H38 UNL A   1      31.651  38.831  53.936  1.00  0.00    +0.000 H 
ATOM    142  H42 UNL A   1      29.591  41.670  51.601  1.00  0.00    +0.000 H 
ATOM    143  H43 UNL A   1      28.084  39.932  50.815  1.00  0.00    +0.000 H 
ATOM     90  C65 UNL A   1      29.027  38.363  51.874  1.00  0.00    +0.000 C 
ATOM     91  C66 UNL A   1      30.027  38.066  52.816  1.00  0.00    +0.000 C 
ATOM     92  C67 UNL A   1      30.899  39.062  53.268  1.00  0.00    +0.000 C 
ATOM     93  C68 UNL A   1      30.742  40.372  52.809  1.00  0.00    +0.000 C 
BRANCH   93   94
ATOM     97  O6  UNL A   1      33.025  40.930  53.968  1.00  0.00    +0.000 O 
ATOM     94  S1  UNL A   1      31.933  41.604  53.288  1.00  0.00    +0.000 S 
ATOM     96  O5  UNL A   1      31.204  42.686  53.917  1.00  0.00    +0.000 O 
BRANCH   94   95
ATOM    139  H39 UNL A   1      33.563  42.564  51.888  1.00  0.00    +0.000 H 
ATOM    140  H40 UNL A   1      31.945  42.998  51.390  1.00  0.00    +0.000 H 
ATOM    141  H41 UNL A   1      32.574  41.408  51.032  1.00  0.00    +0.000 H 
ATOM     95  C69 UNL A   1      32.566  42.203  51.747  1.00  0.00    +0.000 C 
ENDBRANCH   94   95
ENDBRANCH   93   94
ENDBRANCH   89   90
ENDBRANCH    7    6
ENDBRANCH    8    7
ENDBRANCH   12   11
ENDBRANCH   14   12
ENDBRANCH   15   14
ENDBRANCH   16   15
ENDBRANCH   17   16
ENDBRANCH   18   17
ENDBRANCH   19   18
ENDBRANCH   20   19
ENDBRANCH   21   20
ENDBRANCH   22   21
ENDBRANCH   24   22
ENDBRANCH   28   27
BRANCH   32   33
ATOM     33  C26 UNL A   1      30.978  35.542  43.006  1.00  0.00    +0.000 C 
ATOM     34  C27 UNL A   1      31.231  35.930  41.682  1.00  0.00    +0.000 C 
ATOM     35  F1  UNL A   1      30.603  36.994  41.158  1.00  0.00    +0.000 F 
ATOM     36  C28 UNL A   1      32.112  35.209  40.878  1.00  0.00    +0.000 C 
ATOM     37  F2  UNL A   1      32.310  35.579  39.605  1.00  0.00    +0.000 F 
ATOM     38  C29 UNL A   1      32.783  34.110  41.392  1.00  0.00    +0.000 C 
ATOM     39  F3  UNL A   1      33.645  33.430  40.623  1.00  0.00    +0.000 F 
ATOM     40  C30 UNL A   1      32.559  33.715  42.701  1.00  0.00    +0.000 C 
ATOM     41  F4  UNL A   1      33.219  32.663  43.205  1.00  0.00    +0.000 F 
ATOM     42  C31 UNL A   1      31.655  34.414  43.497  1.00  0.00    +0.000 C 
ATOM     43  F5  UNL A   1      31.457  34.004  44.759  1.00  0.00    +0.000 F 
ENDBRANCH   32   33
BRANCH   49   50
ATOM     50  C37 UNL A   1      24.144  35.346  45.273  1.00  0.00    +0.000 C 
ATOM     51  C38 UNL A   1      23.988  34.101  45.898  1.00  0.00    +0.000 C 
ATOM     52  F6  UNL A   1      24.970  33.602  46.664  1.00  0.00    +0.000 F 
ATOM     53  C39 UNL A   1      22.834  33.345  45.712  1.00  0.00    +0.000 C 
ATOM     54  F7  UNL A   1      22.726  32.138  46.283  1.00  0.00    +0.000 F 
ATOM     55  C40 UNL A   1      21.800  33.835  44.929  1.00  0.00    +0.000 C 
ATOM     56  F8  UNL A   1      20.682  33.113  44.763  1.00  0.00    +0.000 F 
ATOM     57  C41 UNL A   1      21.925  35.071  44.314  1.00  0.00    +0.000 C 
ATOM     58  F9  UNL A   1      20.919  35.554  43.571  1.00  0.00    +0.000 F 
ATOM     59  C42 UNL A   1      23.092  35.814  44.470  1.00  0.00    +0.000 C 
ATOM     60  F10 UNL A   1      23.186  37.003  43.855  1.00  0.00    +0.000 F 
ENDBRANCH   49   50
BRANCH   64   65
ATOM     65  C46 UNL A   1      25.333  41.019  49.154  1.00  0.00    +0.000 C 
ATOM     66  C47 UNL A   1      24.705  42.194  48.722  1.00  0.00    +0.000 C 
ATOM     67  F11 UNL A   1      24.891  42.632  47.468  1.00  0.00    +0.000 F 
ATOM     68  C48 UNL A   1      23.905  42.941  49.585  1.00  0.00    +0.000 C 
ATOM     69  F12 UNL A   1      23.344  44.080  49.157  1.00  0.00    +0.000 F 
ATOM     70  C49 UNL A   1      23.694  42.511  50.886  1.00  0.00    +0.000 C 
ATOM     71  F13 UNL A   1      22.910  43.219  51.711  1.00  0.00    +0.000 F 
ATOM     72  C50 UNL A   1      24.298  41.346  51.334  1.00  0.00    +0.000 C 
ATOM     73  F14 UNL A   1      24.082  40.916  52.584  1.00  0.00    +0.000 F 
ATOM     74  C51 UNL A   1      25.124  40.617  50.483  1.00  0.00    +0.000 C 
ATOM     75  F15 UNL A   1      25.702  39.498  50.945  1.00  0.00    +0.000 F 
ENDBRANCH   64   65
TORSDOF 21
ENDMDL
MODEL 9
REMARK VINA RESULT:      -7.9      5.776     12.331
ROOT
ATOM    129  H29 UNL A   1      11.448  -2.404  26.409  1.00  0.00    +0.000 H 
ATOM    130  H30 UNL A   1       9.990  -4.501  26.568  1.00  0.00    +0.000 H 
ATOM    131  H31 UNL A   1       7.171  -3.363  16.984  1.00  0.00    +0.000 H 
ATOM    132  H32 UNL A   1       8.829  -1.429  16.726  1.00  0.00    +0.000 H 
ATOM     28  C22 UNL A   1      10.139  -0.695  19.157  1.00  0.00    +0.000 C 
ATOM     29  C23 UNL A   1       9.179  -1.836  18.930  1.00  0.00    +0.000 C 
ATOM     30  N3  UNL A   1       8.752  -2.741  19.776  1.00  0.00    +0.000 N 
ATOM     31  C24 UNL A   1       7.870  -3.544  19.064  1.00  0.00    +0.000 C 
ATOM     32  C25 UNL A   1       7.203  -4.646  19.483  1.00  0.00    +0.000 C 
ATOM     44  C32 UNL A   1       7.299  -5.200  20.809  1.00  0.00    +0.000 C 
ATOM     45  C33 UNL A   1       6.676  -6.326  21.320  1.00  0.00    +0.000 C 
ATOM     46  C34 UNL A   1       7.026  -6.446  22.668  1.00  0.00    +0.000 C 
ATOM     47  C35 UNL A   1       7.913  -5.430  22.984  1.00  0.00    +0.000 C 
ATOM     48  N4  UNL A   1       8.070  -4.671  21.833  1.00  0.00    +0.000 N 
ATOM     49  C36 UNL A   1       8.563  -5.165  24.242  1.00  0.00    +0.000 C 
ATOM     61  C43 UNL A   1       9.464  -4.175  24.456  1.00  0.00    +0.000 C 
ATOM     62  N5  UNL A   1       9.936  -3.221  23.565  1.00  0.00    +0.000 N 
ATOM     63  C44 UNL A   1      10.760  -2.466  24.250  1.00  0.00    +0.000 C 
ATOM     64  C45 UNL A   1      11.568  -1.284  23.791  1.00  0.00    +0.000 C 
ATOM     76  C52 UNL A   1      11.436  -0.850  22.524  1.00  0.00    +0.000 C 
ATOM     77  C53 UNL A   1      12.143   0.291  21.948  1.00  0.00    +0.000 C 
ATOM     78  C54 UNL A   1      11.705   0.488  20.696  1.00  0.00    +0.000 C 
ATOM     79  C55 UNL A   1      10.739  -0.557  20.356  1.00  0.00    +0.000 C 
ATOM     80  N6  UNL A   1      10.641  -1.306  21.502  1.00  0.00    +0.000 N 
ATOM     81  C56 UNL A   1      10.894  -2.850  25.661  1.00  0.00    +0.000 C 
ATOM     82  C57 UNL A   1      10.116  -3.922  25.724  1.00  0.00    +0.000 C 
ATOM     83  C58 UNL A   1       7.792  -3.001  17.726  1.00  0.00    +0.000 C 
ATOM     84  C59 UNL A   1       8.624  -1.981  17.574  1.00  0.00    +0.000 C 
ATOM    123  H23 UNL A   1       6.059  -6.966  20.796  1.00  0.00    +0.000 H 
ATOM    124  H24 UNL A   1       6.682  -7.170  23.319  1.00  0.00    +0.000 H 
ATOM    125  H25 UNL A   1       8.644  -3.874  21.756  1.00  0.00    +0.000 H 
ATOM    126  H26 UNL A   1      12.863   0.854  22.427  1.00  0.00    +0.000 H 
ATOM    127  H27 UNL A   1      12.003   1.255  20.072  1.00  0.00    +0.000 H 
ATOM    128  H28 UNL A   1      10.057  -2.093  21.583  1.00  0.00    +0.000 H 
ENDROOT
BRANCH   28   27
ATOM    122  H22 UNL A   1      11.593  -1.183  16.955  1.00  0.00    +0.000 H 
ATOM    133  H33 UNL A   1       9.553   1.950  18.890  1.00  0.00    +0.000 H 
ATOM    134  H34 UNL A   1       9.831   3.339  16.915  1.00  0.00    +0.000 H 
ATOM     85  C60 UNL A   1      10.023   1.569  18.054  1.00  0.00    +0.000 C 
ATOM     86  C61 UNL A   1      10.204   2.378  16.928  1.00  0.00    +0.000 C 
ATOM     24  C18 UNL A   1      10.895   1.879  15.819  1.00  0.00    +0.000 C 
ATOM     25  C19 UNL A   1      11.496   0.621  15.879  1.00  0.00    +0.000 C 
ATOM     26  C20 UNL A   1      11.231  -0.216  16.958  1.00  0.00    +0.000 C 
ATOM     27  C21 UNL A   1      10.478   0.240  18.051  1.00  0.00    +0.000 C 
ATOM    121  H21 UNL A   1      12.132   0.313  15.126  1.00  0.00    +0.000 H 
BRANCH   24   22
ATOM     22  C17 UNL A   1      10.928   2.678  14.573  1.00  0.00    +0.000 C 
ATOM     23  O4  UNL A   1      11.394   2.190  13.549  1.00  0.00    +0.000 O 
BRANCH   22   21
ATOM     21  N2  UNL A   1      10.478   3.979  14.585  1.00  0.00    +0.000 N 
ATOM    120  H20 UNL A   1      10.913   4.568  15.243  1.00  0.00    +0.000 H 
BRANCH   21   20
ATOM     20  C16 UNL A   1       9.454   4.611  13.767  1.00  0.00    +0.000 C 
ATOM    118  H18 UNL A   1       9.933   5.277  13.081  1.00  0.00    +0.000 H 
ATOM    119  H19 UNL A   1       8.920   3.829  13.271  1.00  0.00    +0.000 H 
BRANCH   20   19
ATOM     19  C15 UNL A   1       8.435   5.405  14.577  1.00  0.00    +0.000 C 
ATOM    116  H16 UNL A   1       8.944   6.239  15.015  1.00  0.00    +0.000 H 
ATOM    117  H17 UNL A   1       7.666   5.677  13.886  1.00  0.00    +0.000 H 
BRANCH   19   18
ATOM     18  C14 UNL A   1       7.734   4.642  15.698  1.00  0.00    +0.000 C 
ATOM    115  H15 UNL A   1       8.234   3.698  15.756  1.00  0.00    +0.000 H 
ATOM    114  H14 UNL A   1       6.695   4.580  15.448  1.00  0.00    +0.000 H 
BRANCH   18   17
ATOM     17  C13 UNL A   1       7.839   5.243  17.101  1.00  0.00    +0.000 C 
ATOM    113  H13 UNL A   1       7.727   4.414  17.768  1.00  0.00    +0.000 H 
ATOM    112  H12 UNL A   1       7.082   5.995  17.187  1.00  0.00    +0.000 H 
BRANCH   17   16
ATOM    110  H10 UNL A   1       9.885   5.093  17.601  1.00  0.00    +0.000 H 
ATOM    111  H11 UNL A   1       9.382   6.569  16.684  1.00  0.00    +0.000 H 
ATOM     16  C12 UNL A   1       9.173   5.884  17.479  1.00  0.00    +0.000 C 
BRANCH   16   15
ATOM    108  H8  UNL A   1       9.776   7.617  18.530  1.00  0.00    +0.000 H 
ATOM    109  H9  UNL A   1       8.192   6.920  19.002  1.00  0.00    +0.000 H 
ATOM     15  C11 UNL A   1       9.213   6.733  18.745  1.00  0.00    +0.000 C 
BRANCH   15   14
ATOM    107  H7  UNL A   1       9.902   6.694  20.691  1.00  0.00    +0.000 H 
ATOM     14  N1  UNL A   1       9.803   6.103  19.909  1.00  0.00    +0.000 N 
BRANCH   14   12
ATOM     12  C10 UNL A   1      10.247   4.812  20.097  1.00  0.00    +0.000 C 
ATOM     13  O3  UNL A   1      11.358   4.495  19.678  1.00  0.00    +0.000 O 
BRANCH   12   11
ATOM    135  H35 UNL A   1       7.822   3.554  19.611  1.00  0.00    +0.000 H 
ATOM    136  H36 UNL A   1       6.421   2.507  21.296  1.00  0.00    +0.000 H 
ATOM      9  C7  UNL A   1       9.270   2.672  23.029  1.00  0.00    +0.000 C 
ATOM    105  H5  UNL A   1       9.702   2.284  23.881  1.00  0.00    +0.000 H 
ATOM      8  C6  UNL A   1       7.911   2.503  22.788  1.00  0.00    +0.000 C 
ATOM     10  C8  UNL A   1      10.042   3.374  22.099  1.00  0.00    +0.000 C 
ATOM    106  H6  UNL A   1      11.038   3.560  22.295  1.00  0.00    +0.000 H 
ATOM     11  C9  UNL A   1       9.469   3.829  20.901  1.00  0.00    +0.000 C 
ATOM     87  C62 UNL A   1       8.184   3.404  20.565  1.00  0.00    +0.000 C 
ATOM     88  C63 UNL A   1       7.391   2.773  21.522  1.00  0.00    +0.000 C 
BRANCH    8    7
ATOM      7  O2  UNL A   1       7.044   2.001  23.711  1.00  0.00    +0.000 O 
BRANCH    7    6
ATOM      2  C2  UNL A   1       8.334  -0.261  27.022  1.00  0.00    +0.000 C 
ATOM      3  C3  UNL A   1       8.017  -0.890  25.890  1.00  0.00    +0.000 C 
ATOM    100  O7  UNL A   1       8.162   1.097  27.189  1.00  0.00    +0.000 O 
ATOM      4  C4  UNL A   1       7.517  -0.102  24.756  1.00  0.00    +0.000 C 
ATOM      5  O1  UNL A   1       7.174  -0.684  23.730  1.00  0.00    +0.000 O 
ATOM      6  C5  UNL A   1       7.436   1.389  24.896  1.00  0.00    +0.000 C 
ATOM    104  H4  UNL A   1       8.122  -1.914  25.812  1.00  0.00    +0.000 H 
ATOM     89  C64 UNL A   1       7.707   1.885  26.134  1.00  0.00    +0.000 C 
BRANCH    2    1
ATOM      1  C1  UNL A   1       8.887  -0.968  28.219  1.00  0.00    +0.000 C 
ATOM    101  H1  UNL A   1       9.557  -1.738  27.899  1.00  0.00    +0.000 H 
ATOM    102  H2  UNL A   1       8.084  -1.403  28.778  1.00  0.00    +0.000 H 
ATOM    103  H3  UNL A   1       9.413  -0.269  28.834  1.00  0.00    +0.000 H 
ENDBRANCH    2    1
BRANCH   89   90
ATOM     98  C70 UNL A   1       6.398   5.396  26.711  1.00  0.00    +0.000 C 
ATOM     99  C71 UNL A   1       6.453   4.051  26.332  1.00  0.00    +0.000 C 
ATOM    137  H37 UNL A   1       9.492   3.302  27.538  1.00  0.00    +0.000 H 
ATOM    138  H38 UNL A   1       9.423   5.651  28.154  1.00  0.00    +0.000 H 
ATOM    142  H42 UNL A   1       5.554   5.957  26.512  1.00  0.00    +0.000 H 
ATOM    143  H43 UNL A   1       5.642   3.616  25.865  1.00  0.00    +0.000 H 
ATOM     90  C65 UNL A   1       7.604   3.288  26.582  1.00  0.00    +0.000 C 
ATOM     91  C66 UNL A   1       8.669   3.872  27.290  1.00  0.00    +0.000 C 
ATOM     92  C67 UNL A   1       8.624   5.220  27.661  1.00  0.00    +0.000 C 
ATOM     93  C68 UNL A   1       7.490   5.977  27.361  1.00  0.00    +0.000 C 
BRANCH   93   94
ATOM     97  O6  UNL A   1       8.663   8.005  28.536  1.00  0.00    +0.000 O 
ATOM     94  S1  UNL A   1       7.495   7.720  27.720  1.00  0.00    +0.000 S 
ATOM     96  O5  UNL A   1       6.161   8.073  28.161  1.00  0.00    +0.000 O 
BRANCH   94   95
ATOM    139  H39 UNL A   1       7.358   7.850  25.374  1.00  0.00    +0.000 H 
ATOM    140  H40 UNL A   1       8.810   8.609  25.982  1.00  0.00    +0.000 H 
ATOM    141  H41 UNL A   1       7.273   9.429  26.116  1.00  0.00    +0.000 H 
ATOM     95  C69 UNL A   1       7.761   8.477  26.142  1.00  0.00    +0.000 C 
ENDBRANCH   94   95
ENDBRANCH   93   94
ENDBRANCH   89   90
ENDBRANCH    7    6
ENDBRANCH    8    7
ENDBRANCH   12   11
ENDBRANCH   14   12
ENDBRANCH   15   14
ENDBRANCH   16   15
ENDBRANCH   17   16
ENDBRANCH   18   17
ENDBRANCH   19   18
ENDBRANCH   20   19
ENDBRANCH   21   20
ENDBRANCH   22   21
ENDBRANCH   24   22
ENDBRANCH   28   27
BRANCH   32   33
ATOM     33  C26 UNL A   1       6.297  -5.337  18.501  1.00  0.00    +0.000 C 
ATOM     34  C27 UNL A   1       4.976  -4.914  18.292  1.00  0.00    +0.000 C 
ATOM     35  F1  UNL A   1       4.460  -3.920  19.033  1.00  0.00    +0.000 F 
ATOM     36  C28 UNL A   1       4.168  -5.527  17.338  1.00  0.00    +0.000 C 
ATOM     37  F2  UNL A   1       2.898  -5.127  17.181  1.00  0.00    +0.000 F 
ATOM     38  C29 UNL A   1       4.673  -6.550  16.550  1.00  0.00    +0.000 C 
ATOM     39  F3  UNL A   1       3.900  -7.125  15.619  1.00  0.00    +0.000 F 
ATOM     40  C30 UNL A   1       5.979  -6.978  16.730  1.00  0.00    +0.000 C 
ATOM     41  F4  UNL A   1       6.475  -7.955  15.959  1.00  0.00    +0.000 F 
ATOM     42  C31 UNL A   1       6.780  -6.389  17.705  1.00  0.00    +0.000 C 
ATOM     43  F5  UNL A   1       8.038  -6.829  17.857  1.00  0.00    +0.000 F 
ENDBRANCH   32   33
BRANCH   49   50
ATOM     50  C37 UNL A   1       8.228  -6.058  25.403  1.00  0.00    +0.000 C 
ATOM     51  C38 UNL A   1       7.259  -5.694  26.348  1.00  0.00    +0.000 C 
ATOM     52  F6  UNL A   1       6.654  -4.499  26.271  1.00  0.00    +0.000 F 
ATOM     53  C39 UNL A   1       6.929  -6.546  27.400  1.00  0.00    +0.000 C 
ATOM     54  F7  UNL A   1       6.032  -6.159  28.317  1.00  0.00    +0.000 F 
ATOM     55  C40 UNL A   1       7.533  -7.789  27.504  1.00  0.00    +0.000 C 
ATOM     56  F8  UNL A   1       7.204  -8.614  28.508  1.00  0.00    +0.000 F 
ATOM     57  C41 UNL A   1       8.483  -8.176  26.572  1.00  0.00    +0.000 C 
ATOM     58  F9  UNL A   1       9.056  -9.385  26.662  1.00  0.00    +0.000 F 
ATOM     59  C42 UNL A   1       8.840  -7.314  25.539  1.00  0.00    +0.000 C 
ATOM     60  F10 UNL A   1       9.769  -7.714  24.657  1.00  0.00    +0.000 F 
ENDBRANCH   49   50
BRANCH   64   65
ATOM     65  C46 UNL A   1      12.506  -0.591  24.712  1.00  0.00    +0.000 C 
ATOM     66  C47 UNL A   1      13.845  -0.991  24.811  1.00  0.00    +0.000 C 
ATOM     67  F11 UNL A   1      14.284  -2.041  24.101  1.00  0.00    +0.000 F 
ATOM     68  C48 UNL A   1      14.732  -0.333  25.660  1.00  0.00    +0.000 C 
ATOM     69  F12 UNL A   1      15.998  -0.759  25.762  1.00  0.00    +0.000 F 
ATOM     70  C49 UNL A   1      14.305   0.757  26.404  1.00  0.00    +0.000 C 
ATOM     71  F13 UNL A   1      15.163   1.401  27.207  1.00  0.00    +0.000 F 
ATOM     72  C50 UNL A   1      12.987   1.177  26.317  1.00  0.00    +0.000 C 
ATOM     73  F14 UNL A   1      12.575   2.241  27.019  1.00  0.00    +0.000 F 
ATOM     74  C51 UNL A   1      12.092   0.499  25.494  1.00  0.00    +0.000 C 
ATOM     75  F15 UNL A   1      10.821   0.924  25.435  1.00  0.00    +0.000 F 
ENDBRANCH   64   65
TORSDOF 21
ENDMDL
MODEL 10
REMARK VINA RESULT:      -7.8     37.590     45.807
ROOT
ATOM    129  H29 UNL A   1      17.415  35.096  48.099  1.00  0.00    +0.000 H 
ATOM    130  H30 UNL A   1      19.358  33.761  47.103  1.00  0.00    +0.000 H 
ATOM    131  H31 UNL A   1      25.403  41.746  47.996  1.00  0.00    +0.000 H 
ATOM    132  H32 UNL A   1      23.554  43.006  49.241  1.00  0.00    +0.000 H 
ATOM     28  C22 UNL A   1      21.073  41.596  49.366  1.00  0.00    +0.000 C 
ATOM     29  C23 UNL A   1      22.383  41.117  48.792  1.00  0.00    +0.000 C 
ATOM     30  N3  UNL A   1      22.677  39.961  48.249  1.00  0.00    +0.000 N 
ATOM     31  C24 UNL A   1      24.011  40.045  47.870  1.00  0.00    +0.000 C 
ATOM     32  C25 UNL A   1      24.793  39.092  47.307  1.00  0.00    +0.000 C 
ATOM     44  C32 UNL A   1      24.348  37.760  46.991  1.00  0.00    +0.000 C 
ATOM     45  C33 UNL A   1      25.074  36.718  46.439  1.00  0.00    +0.000 C 
ATOM     46  C34 UNL A   1      24.214  35.629  46.263  1.00  0.00    +0.000 C 
ATOM     47  C35 UNL A   1      22.967  35.971  46.760  1.00  0.00    +0.000 C 
ATOM     48  N4  UNL A   1      23.063  37.283  47.201  1.00  0.00    +0.000 N 
ATOM     49  C36 UNL A   1      21.774  35.166  46.820  1.00  0.00    +0.000 C 
ATOM     61  C43 UNL A   1      20.600  35.559  47.372  1.00  0.00    +0.000 C 
ATOM     62  N5  UNL A   1      20.281  36.773  47.964  1.00  0.00    +0.000 N 
ATOM     63  C44 UNL A   1      19.020  36.683  48.311  1.00  0.00    +0.000 C 
ATOM     64  C45 UNL A   1      18.151  37.698  49.001  1.00  0.00    +0.000 C 
ATOM     76  C52 UNL A   1      18.657  38.912  49.285  1.00  0.00    +0.000 C 
ATOM     77  C53 UNL A   1      17.927  39.996  49.935  1.00  0.00    +0.000 C 
ATOM     78  C54 UNL A   1      18.710  41.084  49.980  1.00  0.00    +0.000 C 
ATOM     79  C55 UNL A   1      20.024  40.752  49.426  1.00  0.00    +0.000 C 
ATOM     80  N6  UNL A   1      19.900  39.442  49.038  1.00  0.00    +0.000 N 
ATOM     81  C56 UNL A   1      18.391  35.401  47.965  1.00  0.00    +0.000 C 
ATOM     82  C57 UNL A   1      19.409  34.738  47.432  1.00  0.00    +0.000 C 
ATOM     83  C58 UNL A   1      24.462  41.377  48.210  1.00  0.00    +0.000 C 
ATOM     84  C59 UNL A   1      23.513  42.059  48.833  1.00  0.00    +0.000 C 
ATOM    123  H23 UNL A   1      26.078  36.741  46.197  1.00  0.00    +0.000 H 
ATOM    124  H24 UNL A   1      24.466  34.724  45.836  1.00  0.00    +0.000 H 
ATOM    125  H25 UNL A   1      22.327  37.798  47.604  1.00  0.00    +0.000 H 
ATOM    126  H26 UNL A   1      16.964  39.936  50.301  1.00  0.00    +0.000 H 
ATOM    127  H27 UNL A   1      18.431  42.007  50.347  1.00  0.00    +0.000 H 
ATOM    128  H28 UNL A   1      20.631  38.931  48.622  1.00  0.00    +0.000 H 
ENDROOT
BRANCH   28   27
ATOM    122  H22 UNL A   1      20.366  43.848  48.089  1.00  0.00    +0.000 H 
ATOM    133  H33 UNL A   1      21.602  42.496  51.880  1.00  0.00    +0.000 H 
ATOM    134  H34 UNL A   1      21.056  44.669  52.823  1.00  0.00    +0.000 H 
ATOM     85  C60 UNL A   1      21.201  43.233  51.279  1.00  0.00    +0.000 C 
ATOM     86  C61 UNL A   1      20.912  44.490  51.817  1.00  0.00    +0.000 C 
ATOM     24  C18 UNL A   1      20.426  45.506  50.988  1.00  0.00    +0.000 C 
ATOM     25  C19 UNL A   1      20.337  45.299  49.610  1.00  0.00    +0.000 C 
ATOM     26  C20 UNL A   1      20.530  44.022  49.093  1.00  0.00    +0.000 C 
ATOM     27  C21 UNL A   1      20.948  42.969  49.922  1.00  0.00    +0.000 C 
ATOM    121  H21 UNL A   1      20.126  46.089  48.980  1.00  0.00    +0.000 H 
BRANCH   24   22
ATOM     22  C17 UNL A   1      19.960  46.771  51.598  1.00  0.00    +0.000 C 
ATOM     23  O4  UNL A   1      20.695  47.754  51.600  1.00  0.00    +0.000 O 
BRANCH   22   21
ATOM     21  N2  UNL A   1      18.723  46.824  52.200  1.00  0.00    +0.000 N 
ATOM    120  H20 UNL A   1      18.726  47.114  53.140  1.00  0.00    +0.000 H 
BRANCH   21   20
ATOM     20  C16 UNL A   1      17.412  46.513  51.650  1.00  0.00    +0.000 C 
ATOM    118  H18 UNL A   1      16.680  47.094  52.171  1.00  0.00    +0.000 H 
ATOM    119  H19 UNL A   1      17.446  46.743  50.606  1.00  0.00    +0.000 H 
BRANCH   20   19
ATOM     19  C15 UNL A   1      17.036  45.042  51.773  1.00  0.00    +0.000 C 
ATOM    116  H16 UNL A   1      15.970  44.971  51.714  1.00  0.00    +0.000 H 
ATOM    117  H17 UNL A   1      17.552  44.544  50.979  1.00  0.00    +0.000 H 
BRANCH   19   18
ATOM     18  C14 UNL A   1      17.482  44.344  53.057  1.00  0.00    +0.000 C 
ATOM    115  H15 UNL A   1      16.712  44.547  53.772  1.00  0.00    +0.000 H 
ATOM    114  H14 UNL A   1      18.445  44.731  53.319  1.00  0.00    +0.000 H 
BRANCH   18   17
ATOM     17  C13 UNL A   1      17.592  42.820  53.001  1.00  0.00    +0.000 C 
ATOM    113  H13 UNL A   1      18.579  42.626  52.636  1.00  0.00    +0.000 H 
ATOM    112  H12 UNL A   1      16.803  42.461  52.374  1.00  0.00    +0.000 H 
BRANCH   17   16
ATOM    110  H10 UNL A   1      18.482  41.700  54.554  1.00  0.00    +0.000 H 
ATOM    111  H11 UNL A   1      17.118  42.791  55.023  1.00  0.00    +0.000 H 
ATOM     16  C12 UNL A   1      17.504  42.072  54.330  1.00  0.00    +0.000 C 
BRANCH   16   15
ATOM    108  H8  UNL A   1      16.132  40.872  55.404  1.00  0.00    +0.000 H 
ATOM    109  H9  UNL A   1      15.808  41.063  53.649  1.00  0.00    +0.000 H 
ATOM     15  C11 UNL A   1      16.538  40.895  54.413  1.00  0.00    +0.000 C 
BRANCH   15   14
ATOM    107  H7  UNL A   1      16.643  39.081  53.432  1.00  0.00    +0.000 H 
ATOM     14  N1  UNL A   1      17.106  39.591  54.136  1.00  0.00    +0.000 N 
BRANCH   14   12
ATOM     12  C10 UNL A   1      18.190  38.952  54.697  1.00  0.00    +0.000 C 
ATOM     13  O3  UNL A   1      18.101  38.520  55.844  1.00  0.00    +0.000 O 
BRANCH   12   11
ATOM    135  H35 UNL A   1      20.126  40.633  53.635  1.00  0.00    +0.000 H 
ATOM    136  H36 UNL A   1      21.673  40.046  51.858  1.00  0.00    +0.000 H 
ATOM      9  C7  UNL A   1      20.714  36.971  52.738  1.00  0.00    +0.000 C 
ATOM    105  H5  UNL A   1      20.997  35.987  52.613  1.00  0.00    +0.000 H 
ATOM      8  C6  UNL A   1      21.294  37.974  51.970  1.00  0.00    +0.000 C 
ATOM     10  C8  UNL A   1      19.743  37.316  53.683  1.00  0.00    +0.000 C 
ATOM    106  H6  UNL A   1      19.261  36.576  54.216  1.00  0.00    +0.000 H 
ATOM     11  C9  UNL A   1      19.420  38.663  53.909  1.00  0.00    +0.000 C 
ATOM     87  C62 UNL A   1      20.213  39.652  53.328  1.00  0.00    +0.000 C 
ATOM     88  C63 UNL A   1      21.125  39.311  52.330  1.00  0.00    +0.000 C 
BRANCH    8    7
ATOM      7  O2  UNL A   1      22.105  37.726  50.905  1.00  0.00    +0.000 O 
BRANCH    7    6
ATOM      2  C2  UNL A   1      25.772  35.652  50.884  1.00  0.00    +0.000 C 
ATOM      3  C3  UNL A   1      24.673  35.033  50.450  1.00  0.00    +0.000 C 
ATOM    100  O7  UNL A   1      25.742  36.915  51.436  1.00  0.00    +0.000 O 
ATOM      4  C4  UNL A   1      23.389  35.742  50.510  1.00  0.00    +0.000 C 
ATOM      5  O1  UNL A   1      22.367  35.156  50.161  1.00  0.00    +0.000 O 
ATOM      6  C5  UNL A   1      23.371  37.158  51.004  1.00  0.00    +0.000 C 
ATOM    104  H4  UNL A   1      24.726  34.071  50.079  1.00  0.00    +0.000 H 
ATOM     89  C64 UNL A   1      24.548  37.631  51.495  1.00  0.00    +0.000 C 
BRANCH    2    1
ATOM      1  C1  UNL A   1      27.131  35.031  50.831  1.00  0.00    +0.000 C 
ATOM    101  H1  UNL A   1      27.289  34.603  49.863  1.00  0.00    +0.000 H 
ATOM    102  H2  UNL A   1      27.203  34.265  51.575  1.00  0.00    +0.000 H 
ATOM    103  H3  UNL A   1      27.873  35.779  51.016  1.00  0.00    +0.000 H 
ENDBRANCH    2    1
BRANCH   89   90
ATOM     98  C70 UNL A   1      24.733  40.398  54.081  1.00  0.00    +0.000 C 
ATOM     99  C71 UNL A   1      24.552  39.136  53.505  1.00  0.00    +0.000 C 
ATOM    137  H37 UNL A   1      25.543  39.852  50.381  1.00  0.00    +0.000 H 
ATOM    138  H38 UNL A   1      25.811  42.057  51.364  1.00  0.00    +0.000 H 
ATOM    142  H42 UNL A   1      24.539  40.542  55.085  1.00  0.00    +0.000 H 
ATOM    143  H43 UNL A   1      24.237  38.345  54.089  1.00  0.00    +0.000 H 
ATOM     90  C65 UNL A   1      24.794  38.938  52.137  1.00  0.00    +0.000 C 
ATOM     91  C66 UNL A   1      25.298  40.004  51.372  1.00  0.00    +0.000 C 
ATOM     92  C67 UNL A   1      25.470  41.271  51.940  1.00  0.00    +0.000 C 
ATOM     93  C68 UNL A   1      25.177  41.462  53.292  1.00  0.00    +0.000 C 
BRANCH   93   94
ATOM     97  O6  UNL A   1      25.732  43.997  52.923  1.00  0.00    +0.000 O 
ATOM     94  S1  UNL A   1      25.274  43.103  53.973  1.00  0.00    +0.000 S 
ATOM     96  O5  UNL A   1      25.973  43.003  55.238  1.00  0.00    +0.000 O 
BRANCH   94   95
ATOM    139  H39 UNL A   1      23.091  42.670  54.739  1.00  0.00    +0.000 H 
ATOM    140  H40 UNL A   1      23.099  43.806  53.410  1.00  0.00    +0.000 H 
ATOM    141  H41 UNL A   1      23.557  44.332  55.013  1.00  0.00    +0.000 H 
ATOM     95  C69 UNL A   1      23.589  43.519  54.317  1.00  0.00    +0.000 C 
ENDBRANCH   94   95
ENDBRANCH   93   94
ENDBRANCH   89   90
ENDBRANCH    7    6
ENDBRANCH    8    7
ENDBRANCH   12   11
ENDBRANCH   14   12
ENDBRANCH   15   14
ENDBRANCH   16   15
ENDBRANCH   17   16
ENDBRANCH   18   17
ENDBRANCH   19   18
ENDBRANCH   20   19
ENDBRANCH   21   20
ENDBRANCH   22   21
ENDBRANCH   24   22
ENDBRANCH   28   27
BRANCH   32   33
ATOM     33  C26 UNL A   1      26.218  39.448  46.989  1.00  0.00    +0.000 C 
ATOM     34  C27 UNL A   1      26.549  40.251  45.887  1.00  0.00    +0.000 C 
ATOM     35  F1  UNL A   1      25.594  40.657  45.036  1.00  0.00    +0.000 F 
ATOM     36  C28 UNL A   1      27.869  40.620  45.638  1.00  0.00    +0.000 C 
ATOM     37  F2  UNL A   1      28.164  41.359  44.559  1.00  0.00    +0.000 F 
ATOM     38  C29 UNL A   1      28.879  40.224  46.502  1.00  0.00    +0.000 C 
ATOM     39  F3  UNL A   1      30.145  40.597  46.272  1.00  0.00    +0.000 F 
ATOM     40  C30 UNL A   1      28.575  39.440  47.604  1.00  0.00    +0.000 C 
ATOM     41  F4  UNL A   1      29.546  39.070  48.450  1.00  0.00    +0.000 F 
ATOM     42  C31 UNL A   1      27.261  39.043  47.839  1.00  0.00    +0.000 C 
ATOM     43  F5  UNL A   1      27.000  38.281  48.911  1.00  0.00    +0.000 F 
ENDBRANCH   32   33
BRANCH   49   50
ATOM     50  C37 UNL A   1      21.835  33.782  46.238  1.00  0.00    +0.000 C 
ATOM     51  C38 UNL A   1      22.288  32.691  46.992  1.00  0.00    +0.000 C 
ATOM     52  F6  UNL A   1      22.747  32.875  48.239  1.00  0.00    +0.000 F 
ATOM     53  C39 UNL A   1      22.304  31.406  46.456  1.00  0.00    +0.000 C 
ATOM     54  F7  UNL A   1      22.784  30.385  47.179  1.00  0.00    +0.000 F 
ATOM     55  C40 UNL A   1      21.833  31.182  45.171  1.00  0.00    +0.000 C 
ATOM     56  F8  UNL A   1      21.835  29.942  44.661  1.00  0.00    +0.000 F 
ATOM     57  C41 UNL A   1      21.365  32.244  44.412  1.00  0.00    +0.000 C 
ATOM     58  F9  UNL A   1      20.893  32.026  43.176  1.00  0.00    +0.000 F 
ATOM     59  C42 UNL A   1      21.380  33.535  44.933  1.00  0.00    +0.000 C 
ATOM     60  F10 UNL A   1      20.928  34.542  44.171  1.00  0.00    +0.000 F 
ENDBRANCH   49   50
BRANCH   64   65
ATOM     65  C46 UNL A   1      16.747  37.381  49.371  1.00  0.00    +0.000 C 
ATOM     66  C47 UNL A   1      16.363  37.282  50.715  1.00  0.00    +0.000 C 
ATOM     67  F11 UNL A   1      17.277  37.430  51.686  1.00  0.00    +0.000 F 
ATOM     68  C48 UNL A   1      15.044  37.002  51.068  1.00  0.00    +0.000 C 
ATOM     69  F12 UNL A   1      14.711  36.878  52.360  1.00  0.00    +0.000 F 
ATOM     70  C49 UNL A   1      14.079  36.847  50.085  1.00  0.00    +0.000 C 
ATOM     71  F13 UNL A   1      12.806  36.597  50.425  1.00  0.00    +0.000 F 
ATOM     72  C50 UNL A   1      14.433  36.950  48.748  1.00  0.00    +0.000 C 
ATOM     73  F14 UNL A   1      13.500  36.820  47.796  1.00  0.00    +0.000 F 
ATOM     74  C51 UNL A   1      15.756  37.196  48.395  1.00  0.00    +0.000 C 
ATOM     75  F15 UNL A   1      16.072  37.282  47.093  1.00  0.00    +0.000 F 
ENDBRANCH   64   65
TORSDOF 21
ENDMDL
