MODEL 1
REMARK VINA RESULT:      -9.4      0.000      0.000
ROOT
ATOM     27  C21 UNL A   1      21.278  38.208  49.355  1.00  0.00    +0.000 C 
ATOM     28  C22 UNL A   1      22.110  39.459  49.465  1.00  0.00    +0.000 C 
ATOM     29  N3  UNL A   1      23.273  39.733  48.929  1.00  0.00    +0.000 N 
ATOM     30  C23 UNL A   1      23.574  41.032  49.316  1.00  0.00    +0.000 C 
ATOM     31  C24 UNL A   1      24.699  41.748  49.077  1.00  0.00    +0.000 C 
ATOM     43  C31 UNL A   1      25.830  41.258  48.334  1.00  0.00    +0.000 C 
ATOM     44  C32 UNL A   1      27.035  41.888  48.080  1.00  0.00    +0.000 C 
ATOM     45  C33 UNL A   1      27.806  41.050  47.267  1.00  0.00    +0.000 C 
ATOM     46  C34 UNL A   1      27.108  39.870  47.070  1.00  0.00    +0.000 C 
ATOM     47  N4  UNL A   1      25.894  40.014  47.722  1.00  0.00    +0.000 N 
ATOM     48  C35 UNL A   1      27.518  38.699  46.338  1.00  0.00    +0.000 C 
ATOM     60  C42 UNL A   1      26.772  37.576  46.194  1.00  0.00    +0.000 C 
ATOM     61  N5  UNL A   1      25.508  37.295  46.696  1.00  0.00    +0.000 N 
ATOM     62  C43 UNL A   1      25.211  36.091  46.271  1.00  0.00    +0.000 C 
ATOM     63  C44 UNL A   1      23.981  35.263  46.540  1.00  0.00    +0.000 C 
ATOM     75  C51 UNL A   1      23.009  35.768  47.325  1.00  0.00    +0.000 C 
ATOM     76  C52 UNL A   1      21.768  35.084  47.677  1.00  0.00    +0.000 C 
ATOM     77  C53 UNL A   1      21.013  35.906  48.424  1.00  0.00    +0.000 C 
ATOM     78  C54 UNL A   1      21.735  37.160  48.641  1.00  0.00    +0.000 C 
ATOM     79  N6  UNL A   1      22.913  36.985  47.956  1.00  0.00    +0.000 N 
ATOM     80  C55 UNL A   1      26.243  35.486  45.418  1.00  0.00    +0.000 C 
ATOM     81  C56 UNL A   1      27.193  36.410  45.445  1.00  0.00    +0.000 C 
ATOM     82  C57 UNL A   1      22.446  41.516  50.081  1.00  0.00    +0.000 C 
ATOM     83  C58 UNL A   1      21.547  40.560  50.263  1.00  0.00    +0.000 C 
ATOM    109  H24 UNL A   1      27.316  42.818  48.430  1.00  0.00    +0.000 H 
ATOM    110  H25 UNL A   1      28.736  41.274  46.882  1.00  0.00    +0.000 H 
ATOM    111  H26 UNL A   1      25.182  39.334  47.747  1.00  0.00    +0.000 H 
ATOM    112  H27 UNL A   1      21.513  34.125  47.398  1.00  0.00    +0.000 H 
ATOM    113  H28 UNL A   1      20.072  35.687  48.787  1.00  0.00    +0.000 H 
ATOM    114  H29 UNL A   1      23.622  37.667  47.921  1.00  0.00    +0.000 H 
ATOM    115  H30 UNL A   1      26.232  34.578  44.927  1.00  0.00    +0.000 H 
ATOM    116  H31 UNL A   1      28.114  36.312  44.990  1.00  0.00    +0.000 H 
ATOM    117  H32 UNL A   1      22.353  42.480  50.439  1.00  0.00    +0.000 H 
ATOM    118  H33 UNL A   1      20.679  40.581  50.821  1.00  0.00    +0.000 H 
ENDROOT
BRANCH   27   26
ATOM    107  H22 UNL A   1      16.701  38.887  49.422  1.00  0.00    +0.000 H 
ATOM    108  H23 UNL A   1      18.862  38.882  48.320  1.00  0.00    +0.000 H 
ATOM     84  C59 UNL A   1      19.795  37.643  51.292  1.00  0.00    +0.000 C 
ATOM     85  C60 UNL A   1      18.536  37.550  51.886  1.00  0.00    +0.000 C 
ATOM    120  H35 UNL A   1      18.434  37.100  52.809  1.00  0.00    +0.000 H 
ATOM     23  C17 UNL A   1      17.413  38.066  51.234  1.00  0.00    +0.000 C 
ATOM     24  C18 UNL A   1      17.535  38.545  49.926  1.00  0.00    +0.000 C 
ATOM     25  C19 UNL A   1      18.785  38.560  49.298  1.00  0.00    +0.000 C 
ATOM    119  H34 UNL A   1      20.631  37.342  51.816  1.00  0.00    +0.000 H 
ATOM     26  C20 UNL A   1      19.934  38.142  49.988  1.00  0.00    +0.000 C 
BRANCH   23   21
ATOM     21  C16 UNL A   1      16.074  38.082  51.874  1.00  0.00    +0.000 C 
ATOM     22  O4  UNL A   1      15.873  38.824  52.832  1.00  0.00    +0.000 O 
BRANCH   21   20
ATOM    106  H21 UNL A   1      15.203  36.306  51.582  1.00  0.00    +0.000 H 
ATOM     20  N2  UNL A   1      15.062  37.268  51.425  1.00  0.00    +0.000 N 
BRANCH   20   19
ATOM    105  H20 UNL A   1      13.814  38.662  50.602  1.00  0.00    +0.000 H 
ATOM     19  C15 UNL A   1      13.818  37.603  50.758  1.00  0.00    +0.000 C 
ATOM    104  H19 UNL A   1      13.004  37.285  51.375  1.00  0.00    +0.000 H 
BRANCH   19   18
ATOM     18  C14 UNL A   1      13.677  36.943  49.391  1.00  0.00    +0.000 C 
ATOM    102  H17 UNL A   1      12.875  36.237  49.454  1.00  0.00    +0.000 H 
ATOM    103  H18 UNL A   1      13.512  37.748  48.706  1.00  0.00    +0.000 H 
BRANCH   18   17
ATOM     17  C13 UNL A   1      14.905  36.204  48.855  1.00  0.00    +0.000 C 
ATOM    100  H15 UNL A   1      15.770  36.661  49.287  1.00  0.00    +0.000 H 
ATOM    101  H16 UNL A   1      14.749  35.180  49.125  1.00  0.00    +0.000 H 
BRANCH   17   16
ATOM     98  H13 UNL A   1      15.308  35.172  47.051  1.00  0.00    +0.000 H 
ATOM     99  H14 UNL A   1      14.201  36.601  46.937  1.00  0.00    +0.000 H 
ATOM     16  C12 UNL A   1      15.104  36.184  47.334  1.00  0.00    +0.000 C 
BRANCH   16   15
ATOM     97  H12 UNL A   1      16.352  37.852  47.454  1.00  0.00    +0.000 H 
ATOM     15  C11 UNL A   1      16.221  37.056  46.750  1.00  0.00    +0.000 C 
ATOM     96  H11 UNL A   1      15.913  37.366  45.773  1.00  0.00    +0.000 H 
BRANCH   15   14
ATOM     94  H9  UNL A   1      18.288  37.180  46.339  1.00  0.00    +0.000 H 
ATOM     14  C10 UNL A   1      17.597  36.414  46.617  1.00  0.00    +0.000 C 
ATOM     95  H10 UNL A   1      17.794  35.963  47.568  1.00  0.00    +0.000 H 
BRANCH   14   13
ATOM     13  N1  UNL A   1      17.712  35.348  45.655  1.00  0.00    +0.000 N 
ATOM     93  H8  UNL A   1      16.859  34.953  45.362  1.00  0.00    +0.000 H 
BRANCH   13   11
ATOM     11  C9  UNL A   1      18.840  34.798  45.084  1.00  0.00    +0.000 C 
ATOM     12  O3  UNL A   1      19.809  35.548  44.938  1.00  0.00    +0.000 O 
BRANCH   11   10
ATOM      5  C3  UNL A   1      18.605  32.675  43.584  1.00  0.00    +0.000 C 
ATOM      6  C4  UNL A   1      18.773  31.285  43.452  1.00  0.00    +0.000 C 
ATOM      7  C5  UNL A   1      19.409  30.555  44.451  1.00  0.00    +0.000 C 
ATOM      8  C6  UNL A   1      19.880  31.211  45.582  1.00  0.00    +0.000 C 
ATOM      9  C7  UNL A   1      19.681  32.590  45.723  1.00  0.00    +0.000 C 
ATOM     10  C8  UNL A   1      19.006  33.349  44.743  1.00  0.00    +0.000 C 
ATOM     89  H4  UNL A   1      18.423  30.804  42.610  1.00  0.00    +0.000 H 
ATOM     90  H5  UNL A   1      19.528  29.535  44.354  1.00  0.00    +0.000 H 
ATOM     91  H6  UNL A   1      20.377  30.683  46.316  1.00  0.00    +0.000 H 
ATOM     92  H7  UNL A   1      20.038  33.064  46.568  1.00  0.00    +0.000 H 
BRANCH    5    4
ATOM      4  O2  UNL A   1      17.942  33.268  42.505  1.00  0.00    +0.000 O 
BRANCH    4    2
ATOM      2  C2  UNL A   1      16.579  33.486  42.656  1.00  0.00    +0.000 C 
ATOM      3  O1  UNL A   1      16.029  34.556  42.886  1.00  0.00    +0.000 O 
BRANCH    2    1
ATOM      1  C1  UNL A   1      15.865  32.175  42.491  1.00  0.00    +0.000 C 
ATOM     86  H1  UNL A   1      15.998  31.820  41.491  1.00  0.00    +0.000 H 
ATOM     87  H2  UNL A   1      14.822  32.309  42.685  1.00  0.00    +0.000 H 
ATOM     88  H3  UNL A   1      16.266  31.461  43.179  1.00  0.00    +0.000 H 
ENDBRANCH    2    1
ENDBRANCH    4    2
ENDBRANCH    5    4
ENDBRANCH   11   10
ENDBRANCH   13   11
ENDBRANCH   14   13
ENDBRANCH   15   14
ENDBRANCH   16   15
ENDBRANCH   17   16
ENDBRANCH   18   17
ENDBRANCH   19   18
ENDBRANCH   20   19
ENDBRANCH   21   20
ENDBRANCH   23   21
ENDBRANCH   27   26
BRANCH   31   32
ATOM     33  C26 UNL A   1      24.328  44.252  48.889  1.00  0.00    +0.000 C 
ATOM     34  F1  UNL A   1      23.885  44.092  47.634  1.00  0.00    +0.000 F 
ATOM     35  C27 UNL A   1      24.373  45.538  49.424  1.00  0.00    +0.000 C 
ATOM     36  F2  UNL A   1      23.990  46.585  48.681  1.00  0.00    +0.000 F 
ATOM     37  C28 UNL A   1      24.822  45.736  50.721  1.00  0.00    +0.000 C 
ATOM     38  F3  UNL A   1      24.853  46.972  51.239  1.00  0.00    +0.000 F 
ATOM     39  C29 UNL A   1      25.245  44.655  51.478  1.00  0.00    +0.000 C 
ATOM     40  F4  UNL A   1      25.665  44.844  52.738  1.00  0.00    +0.000 F 
ATOM     41  C30 UNL A   1      25.232  43.373  50.934  1.00  0.00    +0.000 C 
ATOM     42  F5  UNL A   1      25.660  42.350  51.690  1.00  0.00    +0.000 F 
ATOM     32  C25 UNL A   1      24.770  43.145  49.630  1.00  0.00    +0.000 C 
ENDBRANCH   31   32
BRANCH   48   49
ATOM     49  C36 UNL A   1      28.885  38.707  45.713  1.00  0.00    +0.000 C 
ATOM     50  C37 UNL A   1      29.156  39.428  44.541  1.00  0.00    +0.000 C 
ATOM     51  F6  UNL A   1      28.176  40.095  43.915  1.00  0.00    +0.000 F 
ATOM     52  C38 UNL A   1      30.433  39.431  43.983  1.00  0.00    +0.000 C 
ATOM     53  F7  UNL A   1      30.657  40.082  42.833  1.00  0.00    +0.000 F 
ATOM     54  C39 UNL A   1      31.468  38.749  44.606  1.00  0.00    +0.000 C 
ATOM     55  F8  UNL A   1      32.696  38.761  44.073  1.00  0.00    +0.000 F 
ATOM     56  C40 UNL A   1      31.227  38.050  45.778  1.00  0.00    +0.000 C 
ATOM     57  F9  UNL A   1      32.228  37.405  46.392  1.00  0.00    +0.000 F 
ATOM     58  C41 UNL A   1      29.945  38.016  46.319  1.00  0.00    +0.000 C 
ATOM     59  F10 UNL A   1      29.740  37.316  47.446  1.00  0.00    +0.000 F 
ENDBRANCH   48   49
BRANCH   63   64
ATOM     65  C46 UNL A   1      23.118  33.687  44.779  1.00  0.00    +0.000 C 
ATOM     66  F11 UNL A   1      22.538  34.722  44.154  1.00  0.00    +0.000 F 
ATOM     67  C47 UNL A   1      22.938  32.405  44.265  1.00  0.00    +0.000 C 
ATOM     68  F12 UNL A   1      22.187  32.224  43.169  1.00  0.00    +0.000 F 
ATOM     69  C48 UNL A   1      23.513  31.313  44.897  1.00  0.00    +0.000 C 
ATOM     70  F13 UNL A   1      23.339  30.080  44.403  1.00  0.00    +0.000 F 
ATOM     71  C49 UNL A   1      24.260  31.501  46.050  1.00  0.00    +0.000 C 
ATOM     72  F14 UNL A   1      24.832  30.452  46.656  1.00  0.00    +0.000 F 
ATOM     73  C50 UNL A   1      24.412  32.779  46.585  1.00  0.00    +0.000 C 
ATOM     74  F15 UNL A   1      25.121  32.925  47.713  1.00  0.00    +0.000 F 
ATOM     64  C45 UNL A   1      23.845  33.900  45.960  1.00  0.00    +0.000 C 
ENDBRANCH   63   64
TORSDOF 18
ENDMDL
MODEL 2
REMARK VINA RESULT:      -9.4     43.420     47.251
ROOT
ATOM     27  C21 UNL A   1      13.031  49.400   3.835  1.00  0.00    +0.000 C 
ATOM     28  C22 UNL A   1      13.870  49.112   2.618  1.00  0.00    +0.000 C 
ATOM     29  N3  UNL A   1      14.714  49.890   1.988  1.00  0.00    +0.000 N 
ATOM     30  C23 UNL A   1      15.244  49.123   0.960  1.00  0.00    +0.000 C 
ATOM     31  C24 UNL A   1      16.108  49.495  -0.016  1.00  0.00    +0.000 C 
ATOM     43  C31 UNL A   1      16.658  50.818  -0.151  1.00  0.00    +0.000 C 
ATOM     44  C32 UNL A   1      17.502  51.306  -1.133  1.00  0.00    +0.000 C 
ATOM     45  C33 UNL A   1      17.819  52.632  -0.820  1.00  0.00    +0.000 C 
ATOM     46  C34 UNL A   1      17.121  52.991   0.321  1.00  0.00    +0.000 C 
ATOM     47  N4  UNL A   1      16.419  51.867   0.726  1.00  0.00    +0.000 N 
ATOM     48  C35 UNL A   1      17.097  54.265   0.994  1.00  0.00    +0.000 C 
ATOM     60  C42 UNL A   1      16.380  54.537   2.110  1.00  0.00    +0.000 C 
ATOM     61  N5  UNL A   1      15.534  53.704   2.831  1.00  0.00    +0.000 N 
ATOM     62  C43 UNL A   1      15.090  54.422   3.835  1.00  0.00    +0.000 C 
ATOM     63  C44 UNL A   1      14.113  54.043   4.918  1.00  0.00    +0.000 C 
ATOM     75  C51 UNL A   1      13.576  52.807   4.915  1.00  0.00    +0.000 C 
ATOM     76  C52 UNL A   1      12.617  52.301   5.891  1.00  0.00    +0.000 C 
ATOM     77  C53 UNL A   1      12.345  51.016   5.611  1.00  0.00    +0.000 C 
ATOM     78  C54 UNL A   1      13.077  50.620   4.408  1.00  0.00    +0.000 C 
ATOM     79  N6  UNL A   1      13.777  51.749   4.060  1.00  0.00    +0.000 N 
ATOM     80  C55 UNL A   1      15.636  55.785   3.882  1.00  0.00    +0.000 C 
ATOM     81  C56 UNL A   1      16.375  55.819   2.782  1.00  0.00    +0.000 C 
ATOM     82  C57 UNL A   1      14.675  47.800   1.083  1.00  0.00    +0.000 C 
ATOM     83  C58 UNL A   1      13.766  47.760   2.047  1.00  0.00    +0.000 C 
ATOM    109  H24 UNL A   1      17.840  50.781  -1.956  1.00  0.00    +0.000 H 
ATOM    110  H25 UNL A   1      18.464  53.239  -1.350  1.00  0.00    +0.000 H 
ATOM    111  H26 UNL A   1      15.837  51.818   1.519  1.00  0.00    +0.000 H 
ATOM    112  H27 UNL A   1      12.212  52.842   6.670  1.00  0.00    +0.000 H 
ATOM    113  H28 UNL A   1      11.718  50.405   6.158  1.00  0.00    +0.000 H 
ATOM    114  H29 UNL A   1      14.367  51.797   3.274  1.00  0.00    +0.000 H 
ATOM    115  H30 UNL A   1      15.483  56.523   4.587  1.00  0.00    +0.000 H 
ATOM    116  H31 UNL A   1      16.882  56.654   2.448  1.00  0.00    +0.000 H 
ATOM    117  H32 UNL A   1      14.940  46.992   0.497  1.00  0.00    +0.000 H 
ATOM    118  H33 UNL A   1      13.145  46.984   2.323  1.00  0.00    +0.000 H 
ENDROOT
BRANCH   27   26
ATOM    107  H22 UNL A   1       9.003  47.278   4.664  1.00  0.00    +0.000 H 
ATOM    108  H23 UNL A   1      10.368  48.953   3.562  1.00  0.00    +0.000 H 
ATOM     84  C59 UNL A   1      12.779  47.351   5.253  1.00  0.00    +0.000 C 
ATOM     85  C60 UNL A   1      12.007  46.327   5.802  1.00  0.00    +0.000 C 
ATOM    120  H35 UNL A   1      12.462  45.563   6.324  1.00  0.00    +0.000 H 
ATOM     23  C17 UNL A   1      10.618  46.335   5.646  1.00  0.00    +0.000 C 
ATOM     24  C18 UNL A   1      10.023  47.293   4.819  1.00  0.00    +0.000 C 
ATOM     25  C19 UNL A   1      10.809  48.271   4.199  1.00  0.00    +0.000 C 
ATOM    119  H34 UNL A   1      13.792  47.388   5.447  1.00  0.00    +0.000 H 
ATOM     26  C20 UNL A   1      12.191  48.330   4.439  1.00  0.00    +0.000 C 
BRANCH   23   21
ATOM     21  C16 UNL A   1       9.751  45.325   6.300  1.00  0.00    +0.000 C 
ATOM     22  O4  UNL A   1      10.161  44.175   6.433  1.00  0.00    +0.000 O 
BRANCH   21   20
ATOM    106  H21 UNL A   1       7.771  45.507   6.082  1.00  0.00    +0.000 H 
ATOM     20  N2  UNL A   1       8.490  45.648   6.740  1.00  0.00    +0.000 N 
BRANCH   20   19
ATOM    105  H20 UNL A   1       8.580  45.625   8.782  1.00  0.00    +0.000 H 
ATOM     19  C15 UNL A   1       8.050  46.164   8.023  1.00  0.00    +0.000 C 
ATOM    104  H19 UNL A   1       6.992  46.028   8.100  1.00  0.00    +0.000 H 
BRANCH   19   18
ATOM     18  C14 UNL A   1       8.366  47.643   8.213  1.00  0.00    +0.000 C 
ATOM    102  H17 UNL A   1       8.450  48.083   7.241  1.00  0.00    +0.000 H 
ATOM    103  H18 UNL A   1       7.565  48.027   8.809  1.00  0.00    +0.000 H 
BRANCH   18   17
ATOM     17  C13 UNL A   1       9.641  47.979   8.987  1.00  0.00    +0.000 C 
ATOM    100  H15 UNL A   1       9.355  48.550   9.845  1.00  0.00    +0.000 H 
ATOM    101  H16 UNL A   1      10.092  47.032   9.200  1.00  0.00    +0.000 H 
BRANCH   17   16
ATOM     98  H13 UNL A   1      10.789  48.376   7.253  1.00  0.00    +0.000 H 
ATOM     99  H14 UNL A   1      10.407  49.793   8.314  1.00  0.00    +0.000 H 
ATOM     16  C12 UNL A   1      10.725  48.773   8.245  1.00  0.00    +0.000 C 
BRANCH   16   15
ATOM     97  H12 UNL A   1      12.070  49.334   9.738  1.00  0.00    +0.000 H 
ATOM     15  C11 UNL A   1      12.140  48.768   8.833  1.00  0.00    +0.000 C 
ATOM     96  H11 UNL A   1      12.798  49.180   8.096  1.00  0.00    +0.000 H 
BRANCH   15   14
ATOM     94  H9  UNL A   1      12.805  47.420  10.315  1.00  0.00    +0.000 H 
ATOM     14  C10 UNL A   1      12.706  47.416   9.251  1.00  0.00    +0.000 C 
ATOM     95  H10 UNL A   1      12.017  46.690   8.873  1.00  0.00    +0.000 H 
BRANCH   14   13
ATOM     13  N1  UNL A   1      13.985  47.059   8.692  1.00  0.00    +0.000 N 
ATOM     93  H8  UNL A   1      14.020  46.178   8.254  1.00  0.00    +0.000 H 
BRANCH   13   11
ATOM     11  C9  UNL A   1      15.167  47.769   8.679  1.00  0.00    +0.000 C 
ATOM     12  O3  UNL A   1      15.894  47.652   9.669  1.00  0.00    +0.000 O 
BRANCH   11   10
ATOM      5  C3  UNL A   1      15.911  49.940   7.436  1.00  0.00    +0.000 C 
ATOM      6  C4  UNL A   1      16.322  50.543   6.234  1.00  0.00    +0.000 C 
ATOM      7  C5  UNL A   1      16.569  49.767   5.105  1.00  0.00    +0.000 C 
ATOM      8  C6  UNL A   1      16.409  48.389   5.176  1.00  0.00    +0.000 C 
ATOM      9  C7  UNL A   1      15.968  47.797   6.366  1.00  0.00    +0.000 C 
ATOM     10  C8  UNL A   1      15.674  48.563   7.514  1.00  0.00    +0.000 C 
ATOM     89  H4  UNL A   1      16.441  51.566   6.188  1.00  0.00    +0.000 H 
ATOM     90  H5  UNL A   1      16.867  50.211   4.223  1.00  0.00    +0.000 H 
ATOM     91  H6  UNL A   1      16.615  47.801   4.353  1.00  0.00    +0.000 H 
ATOM     92  H7  UNL A   1      15.855  46.771   6.403  1.00  0.00    +0.000 H 
BRANCH    5    4
ATOM      4  O2  UNL A   1      15.694  50.847   8.477  1.00  0.00    +0.000 O 
BRANCH    4    2
ATOM      2  C2  UNL A   1      16.673  50.911   9.460  1.00  0.00    +0.000 C 
ATOM      3  O1  UNL A   1      16.493  51.021  10.667  1.00  0.00    +0.000 O 
BRANCH    2    1
ATOM      1  C1  UNL A   1      18.019  50.826   8.800  1.00  0.00    +0.000 C 
ATOM     86  H1  UNL A   1      18.277  51.781   8.393  1.00  0.00    +0.000 H 
ATOM     87  H2  UNL A   1      17.986  50.101   8.014  1.00  0.00    +0.000 H 
ATOM     88  H3  UNL A   1      18.753  50.535   9.522  1.00  0.00    +0.000 H 
ENDBRANCH    2    1
ENDBRANCH    4    2
ENDBRANCH    5    4
ENDBRANCH   11   10
ENDBRANCH   13   11
ENDBRANCH   14   13
ENDBRANCH   15   14
ENDBRANCH   16   15
ENDBRANCH   17   16
ENDBRANCH   18   17
ENDBRANCH   19   18
ENDBRANCH   20   19
ENDBRANCH   21   20
ENDBRANCH   23   21
ENDBRANCH   27   26
BRANCH   31   32
ATOM     33  C26 UNL A   1      15.721  48.174  -2.149  1.00  0.00    +0.000 C 
ATOM     34  F1  UNL A   1      14.542  48.790  -2.316  1.00  0.00    +0.000 F 
ATOM     35  C27 UNL A   1      16.123  47.229  -3.091  1.00  0.00    +0.000 C 
ATOM     36  F2  UNL A   1      15.327  46.943  -4.131  1.00  0.00    +0.000 F 
ATOM     37  C28 UNL A   1      17.338  46.578  -2.949  1.00  0.00    +0.000 C 
ATOM     38  F3  UNL A   1      17.730  45.679  -3.863  1.00  0.00    +0.000 F 
ATOM     39  C29 UNL A   1      18.147  46.855  -1.857  1.00  0.00    +0.000 C 
ATOM     40  F4  UNL A   1      19.330  46.238  -1.727  1.00  0.00    +0.000 F 
ATOM     41  C30 UNL A   1      17.733  47.774  -0.897  1.00  0.00    +0.000 C 
ATOM     42  F5  UNL A   1      18.532  48.010   0.155  1.00  0.00    +0.000 F 
ATOM     32  C25 UNL A   1      16.513  48.456  -1.025  1.00  0.00    +0.000 C 
ENDBRANCH   31   32
BRANCH   48   49
ATOM     49  C36 UNL A   1      17.902  55.385   0.398  1.00  0.00    +0.000 C 
ATOM     50  C37 UNL A   1      19.156  55.748   0.910  1.00  0.00    +0.000 C 
ATOM     51  F6  UNL A   1      19.650  55.126   1.990  1.00  0.00    +0.000 F 
ATOM     52  C38 UNL A   1      19.891  56.783   0.336  1.00  0.00    +0.000 C 
ATOM     53  F7  UNL A   1      21.063  57.149   0.875  1.00  0.00    +0.000 F 
ATOM     54  C39 UNL A   1      19.406  57.446  -0.782  1.00  0.00    +0.000 C 
ATOM     55  F8  UNL A   1      20.118  58.435  -1.337  1.00  0.00    +0.000 F 
ATOM     56  C40 UNL A   1      18.179  57.089  -1.319  1.00  0.00    +0.000 C 
ATOM     57  F9  UNL A   1      17.716  57.716  -2.409  1.00  0.00    +0.000 F 
ATOM     58  C41 UNL A   1      17.427  56.079  -0.727  1.00  0.00    +0.000 C 
ATOM     59  F10 UNL A   1      16.235  55.766  -1.261  1.00  0.00    +0.000 F 
ENDBRANCH   48   49
BRANCH   63   64
ATOM     65  C46 UNL A   1      14.221  54.899   7.282  1.00  0.00    +0.000 C 
ATOM     66  F11 UNL A   1      15.044  53.889   7.597  1.00  0.00    +0.000 F 
ATOM     67  C47 UNL A   1      13.821  55.780   8.285  1.00  0.00    +0.000 C 
ATOM     68  F12 UNL A   1      14.254  55.602   9.541  1.00  0.00    +0.000 F 
ATOM     69  C48 UNL A   1      12.959  56.825   7.992  1.00  0.00    +0.000 C 
ATOM     70  F13 UNL A   1      12.574  57.671   8.957  1.00  0.00    +0.000 F 
ATOM     71  C49 UNL A   1      12.486  56.985   6.698  1.00  0.00    +0.000 C 
ATOM     72  F14 UNL A   1      11.665  58.003   6.405  1.00  0.00    +0.000 F 
ATOM     73  C50 UNL A   1      12.858  56.084   5.701  1.00  0.00    +0.000 C 
ATOM     74  F15 UNL A   1      12.366  56.253   4.465  1.00  0.00    +0.000 F 
ATOM     64  C45 UNL A   1      13.734  55.023   5.971  1.00  0.00    +0.000 C 
ENDBRANCH   63   64
TORSDOF 18
ENDMDL
MODEL 3
REMARK VINA RESULT:      -9.3     43.418     46.784
ROOT
ATOM     27  C21 UNL A   1      14.158  54.066   4.783  1.00  0.00    +0.000 C 
ATOM     28  C22 UNL A   1      15.129  54.446   3.696  1.00  0.00    +0.000 C 
ATOM     29  N3  UNL A   1      15.597  53.722   2.711  1.00  0.00    +0.000 N 
ATOM     30  C23 UNL A   1      16.425  54.564   1.980  1.00  0.00    +0.000 C 
ATOM     31  C24 UNL A   1      17.198  54.270   0.907  1.00  0.00    +0.000 C 
ATOM     43  C31 UNL A   1      17.290  52.965   0.307  1.00  0.00    +0.000 C 
ATOM     44  C32 UNL A   1      18.083  52.556  -0.751  1.00  0.00    +0.000 C 
ATOM     45  C33 UNL A   1      17.793  51.214  -1.022  1.00  0.00    +0.000 C 
ATOM     46  C34 UNL A   1      16.869  50.770  -0.091  1.00  0.00    +0.000 C 
ATOM     47  N4  UNL A   1      16.562  51.856   0.713  1.00  0.00    +0.000 N 
ATOM     48  C35 UNL A   1      16.305  49.451   0.053  1.00  0.00    +0.000 C 
ATOM     60  C42 UNL A   1      15.403  49.095   0.999  1.00  0.00    +0.000 C 
ATOM     61  N5  UNL A   1      14.842  49.867   2.008  1.00  0.00    +0.000 N 
ATOM     62  C43 UNL A   1      14.016  49.076   2.650  1.00  0.00    +0.000 C 
ATOM     63  C44 UNL A   1      13.164  49.369   3.858  1.00  0.00    +0.000 C 
ATOM     75  C51 UNL A   1      13.209  50.597   4.412  1.00  0.00    +0.000 C 
ATOM     76  C52 UNL A   1      12.448  51.024   5.581  1.00  0.00    +0.000 C 
ATOM     77  C53 UNL A   1      12.697  52.322   5.815  1.00  0.00    +0.000 C 
ATOM     78  C54 UNL A   1      13.672  52.809   4.838  1.00  0.00    +0.000 C 
ATOM     79  N6  UNL A   1      13.923  51.714   4.048  1.00  0.00    +0.000 N 
ATOM     80  C55 UNL A   1      13.935  47.719   2.096  1.00  0.00    +0.000 C 
ATOM     81  C56 UNL A   1      14.836  47.768   1.125  1.00  0.00    +0.000 C 
ATOM     82  C57 UNL A   1      16.348  55.870   2.596  1.00  0.00    +0.000 C 
ATOM     83  C58 UNL A   1      15.618  55.834   3.702  1.00  0.00    +0.000 C 
ATOM    109  H24 UNL A   1      18.769  53.140  -1.254  1.00  0.00    +0.000 H 
ATOM    110  H25 UNL A   1      18.200  50.652  -1.786  1.00  0.00    +0.000 H 
ATOM    111  H26 UNL A   1      15.923  51.843   1.461  1.00  0.00    +0.000 H 
ATOM    112  H27 UNL A   1      11.820  50.425   6.139  1.00  0.00    +0.000 H 
ATOM    113  H28 UNL A   1      12.269  52.887   6.566  1.00  0.00    +0.000 H 
ATOM    114  H29 UNL A   1      14.555  51.727   3.294  1.00  0.00    +0.000 H 
ATOM    115  H30 UNL A   1      13.335  46.931   2.387  1.00  0.00    +0.000 H 
ATOM    116  H31 UNL A   1      15.099  46.965   0.533  1.00  0.00    +0.000 H 
ATOM    117  H32 UNL A   1      16.803  56.720   2.225  1.00  0.00    +0.000 H 
ATOM    118  H33 UNL A   1      15.441  56.583   4.389  1.00  0.00    +0.000 H 
ENDROOT
BRANCH   27   26
ATOM    107  H22 UNL A   1      11.330  57.431   6.228  1.00  0.00    +0.000 H 
ATOM    108  H23 UNL A   1      11.988  55.690   4.672  1.00  0.00    +0.000 H 
ATOM     84  C59 UNL A   1      14.399  55.274   6.963  1.00  0.00    +0.000 C 
ATOM     85  C60 UNL A   1      13.958  56.205   7.904  1.00  0.00    +0.000 C 
ATOM    120  H35 UNL A   1      14.431  56.275   8.820  1.00  0.00    +0.000 H 
ATOM     23  C17 UNL A   1      12.878  57.042   7.611  1.00  0.00    +0.000 C 
ATOM     24  C18 UNL A   1      12.155  56.845   6.431  1.00  0.00    +0.000 C 
ATOM     25  C19 UNL A   1      12.547  55.854   5.524  1.00  0.00    +0.000 C 
ATOM    119  H34 UNL A   1      15.251  54.722   7.150  1.00  0.00    +0.000 H 
ATOM     26  C20 UNL A   1      13.694  55.082   5.766  1.00  0.00    +0.000 C 
BRANCH   23   21
ATOM     21  C16 UNL A   1      12.443  58.114   8.539  1.00  0.00    +0.000 C 
ATOM     22  O4  UNL A   1      13.080  59.163   8.589  1.00  0.00    +0.000 O 
BRANCH   21   20
ATOM    106  H21 UNL A   1      11.003  58.775   9.760  1.00  0.00    +0.000 H 
ATOM     20  N2  UNL A   1      11.353  57.946   9.359  1.00  0.00    +0.000 N 
BRANCH   20   19
ATOM    105  H20 UNL A   1      10.669  56.080   8.883  1.00  0.00    +0.000 H 
ATOM     19  C15 UNL A   1      10.635  56.740   9.725  1.00  0.00    +0.000 C 
ATOM    104  H19 UNL A   1       9.632  57.006   9.985  1.00  0.00    +0.000 H 
BRANCH   19   18
ATOM     18  C14 UNL A   1      11.263  56.005  10.903  1.00  0.00    +0.000 C 
ATOM    102  H17 UNL A   1      11.827  56.719  11.467  1.00  0.00    +0.000 H 
ATOM    103  H18 UNL A   1      10.442  55.567  11.432  1.00  0.00    +0.000 H 
BRANCH   18   17
ATOM     17  C13 UNL A   1      12.195  54.839  10.568  1.00  0.00    +0.000 C 
ATOM    100  H15 UNL A   1      11.648  54.158   9.951  1.00  0.00    +0.000 H 
ATOM    101  H16 UNL A   1      13.046  55.292  10.103  1.00  0.00    +0.000 H 
BRANCH   17   16
ATOM     98  H13 UNL A   1      12.555  54.585  12.639  1.00  0.00    +0.000 H 
ATOM     99  H14 UNL A   1      12.301  53.077  11.670  1.00  0.00    +0.000 H 
ATOM     16  C12 UNL A   1      12.768  54.037  11.744  1.00  0.00    +0.000 C 
BRANCH   16   15
ATOM     97  H12 UNL A   1      14.629  54.079  12.686  1.00  0.00    +0.000 H 
ATOM     15  C11 UNL A   1      14.272  53.739  11.737  1.00  0.00    +0.000 C 
ATOM     96  H11 UNL A   1      14.697  54.238  10.891  1.00  0.00    +0.000 H 
BRANCH   15   14
ATOM     94  H9  UNL A   1      15.053  51.987  12.620  1.00  0.00    +0.000 H 
ATOM     14  C10 UNL A   1      14.681  52.273  11.659  1.00  0.00    +0.000 C 
ATOM     95  H10 UNL A   1      13.800  51.747  11.351  1.00  0.00    +0.000 H 
BRANCH   14   13
ATOM     13  N1  UNL A   1      15.686  51.942  10.682  1.00  0.00    +0.000 N 
ATOM     93  H8  UNL A   1      15.929  52.671  10.066  1.00  0.00    +0.000 H 
BRANCH   13   11
ATOM     11  C9  UNL A   1      16.359  50.756  10.481  1.00  0.00    +0.000 C 
ATOM     12  O3  UNL A   1      17.527  50.708  10.877  1.00  0.00    +0.000 O 
BRANCH   11   10
ATOM      5  C3  UNL A   1      16.003  48.870   8.711  1.00  0.00    +0.000 C 
ATOM      6  C4  UNL A   1      15.278  47.733   8.312  1.00  0.00    +0.000 C 
ATOM      7  C5  UNL A   1      14.327  47.172   9.158  1.00  0.00    +0.000 C 
ATOM      8  C6  UNL A   1      14.099  47.742  10.404  1.00  0.00    +0.000 C 
ATOM      9  C7  UNL A   1      14.801  48.893  10.784  1.00  0.00    +0.000 C 
ATOM     10  C8  UNL A   1      15.744  49.506   9.931  1.00  0.00    +0.000 C 
ATOM     89  H4  UNL A   1      15.452  47.313   7.387  1.00  0.00    +0.000 H 
ATOM     90  H5  UNL A   1      13.793  46.340   8.862  1.00  0.00    +0.000 H 
ATOM     91  H6  UNL A   1      13.415  47.318  11.050  1.00  0.00    +0.000 H 
ATOM     92  H7  UNL A   1      14.622  49.305  11.714  1.00  0.00    +0.000 H 
BRANCH    5    4
ATOM      4  O2  UNL A   1      16.916  49.323   7.754  1.00  0.00    +0.000 O 
BRANCH    4    2
ATOM      2  C2  UNL A   1      16.424  50.188   6.786  1.00  0.00    +0.000 C 
ATOM      3  O1  UNL A   1      15.880  51.269   6.977  1.00  0.00    +0.000 O 
BRANCH    2    1
ATOM      1  C1  UNL A   1      16.666  49.578   5.434  1.00  0.00    +0.000 C 
ATOM     86  H1  UNL A   1      16.399  50.281   4.673  1.00  0.00    +0.000 H 
ATOM     87  H2  UNL A   1      16.069  48.696   5.329  1.00  0.00    +0.000 H 
ATOM     88  H3  UNL A   1      17.700  49.322   5.338  1.00  0.00    +0.000 H 
ENDBRANCH    2    1
ENDBRANCH    4    2
ENDBRANCH    5    4
ENDBRANCH   11   10
ENDBRANCH   13   11
ENDBRANCH   14   13
ENDBRANCH   15   14
ENDBRANCH   16   15
ENDBRANCH   17   16
ENDBRANCH   18   17
ENDBRANCH   19   18
ENDBRANCH   20   19
ENDBRANCH   21   20
ENDBRANCH   23   21
ENDBRANCH   27   26
BRANCH   31   32
ATOM     33  C26 UNL A   1      19.242  55.775   0.868  1.00  0.00    +0.000 C 
ATOM     34  F1  UNL A   1      19.686  55.201   1.996  1.00  0.00    +0.000 F 
ATOM     35  C27 UNL A   1      20.004  56.786   0.287  1.00  0.00    +0.000 C 
ATOM     36  F2  UNL A   1      21.149  57.176   0.865  1.00  0.00    +0.000 F 
ATOM     37  C28 UNL A   1      19.576  57.395  -0.882  1.00  0.00    +0.000 C 
ATOM     38  F3  UNL A   1      20.316  58.360  -1.447  1.00  0.00    +0.000 F 
ATOM     39  C29 UNL A   1      18.377  57.010  -1.463  1.00  0.00    +0.000 C 
ATOM     40  F4  UNL A   1      17.970  57.588  -2.602  1.00  0.00    +0.000 F 
ATOM     41  C30 UNL A   1      17.598  56.022  -0.866  1.00  0.00    +0.000 C 
ATOM     42  F5  UNL A   1      16.437  55.681  -1.447  1.00  0.00    +0.000 F 
ATOM     32  C25 UNL A   1      18.017  55.381   0.309  1.00  0.00    +0.000 C 
ENDBRANCH   31   32
BRANCH   48   49
ATOM     49  C36 UNL A   1      16.773  48.383  -0.895  1.00  0.00    +0.000 C 
ATOM     50  C37 UNL A   1      16.042  48.041  -2.042  1.00  0.00    +0.000 C 
ATOM     51  F6  UNL A   1      14.866  48.633  -2.295  1.00  0.00    +0.000 F 
ATOM     52  C38 UNL A   1      16.499  47.055  -2.914  1.00  0.00    +0.000 C 
ATOM     53  F7  UNL A   1      15.757  46.706  -3.974  1.00  0.00    +0.000 F 
ATOM     54  C39 UNL A   1      17.711  46.423  -2.678  1.00  0.00    +0.000 C 
ATOM     55  F8  UNL A   1      18.152  45.481  -3.522  1.00  0.00    +0.000 F 
ATOM     56  C40 UNL A   1      18.461  46.762  -1.563  1.00  0.00    +0.000 C 
ATOM     57  F9  UNL A   1      19.641  46.166  -1.342  1.00  0.00    +0.000 F 
ATOM     58  C41 UNL A   1      17.991  47.722  -0.671  1.00  0.00    +0.000 C 
ATOM     59  F10 UNL A   1      18.733  48.017   0.407  1.00  0.00    +0.000 F 
ENDBRANCH   48   49
BRANCH   63   64
ATOM     65  C46 UNL A   1      12.805  47.375   5.351  1.00  0.00    +0.000 C 
ATOM     66  F11 UNL A   1      14.098  47.424   5.706  1.00  0.00    +0.000 F 
ATOM     67  C47 UNL A   1      12.007  46.350   5.856  1.00  0.00    +0.000 C 
ATOM     68  F12 UNL A   1      12.539  45.431   6.673  1.00  0.00    +0.000 F 
ATOM     69  C48 UNL A   1      10.671  46.266   5.495  1.00  0.00    +0.000 C 
ATOM     70  F13 UNL A   1       9.905  45.280   5.979  1.00  0.00    +0.000 F 
ATOM     71  C49 UNL A   1      10.134  47.200   4.622  1.00  0.00    +0.000 C 
ATOM     72  F14 UNL A   1       8.840  47.133   4.282  1.00  0.00    +0.000 F 
ATOM     73  C50 UNL A   1      10.940  48.205   4.089  1.00  0.00    +0.000 C 
ATOM     74  F15 UNL A   1      10.397  49.079   3.230  1.00  0.00    +0.000 F 
ATOM     64  C45 UNL A   1      12.293  48.314   4.443  1.00  0.00    +0.000 C 
ENDBRANCH   63   64
TORSDOF 18
ENDMDL
MODEL 4
REMARK VINA RESULT:      -9.1      2.651      3.913
ROOT
ATOM     27  C21 UNL A   1      23.958  38.119  48.554  1.00  0.00    +0.000 C 
ATOM     28  C22 UNL A   1      25.216  38.936  48.415  1.00  0.00    +0.000 C 
ATOM     29  N3  UNL A   1      26.312  38.667  47.750  1.00  0.00    +0.000 N 
ATOM     30  C23 UNL A   1      27.140  39.768  47.922  1.00  0.00    +0.000 C 
ATOM     31  C24 UNL A   1      28.413  39.946  47.491  1.00  0.00    +0.000 C 
ATOM     43  C31 UNL A   1      29.156  38.974  46.733  1.00  0.00    +0.000 C 
ATOM     44  C32 UNL A   1      30.466  39.041  46.293  1.00  0.00    +0.000 C 
ATOM     45  C33 UNL A   1      30.737  37.888  45.547  1.00  0.00    +0.000 C 
ATOM     46  C34 UNL A   1      29.617  37.074  45.578  1.00  0.00    +0.000 C 
ATOM     47  N4  UNL A   1      28.651  37.755  46.302  1.00  0.00    +0.000 N 
ATOM     48  C35 UNL A   1      29.440  35.771  44.989  1.00  0.00    +0.000 C 
ATOM     60  C42 UNL A   1      28.306  35.033  45.069  1.00  0.00    +0.000 C 
ATOM     61  N5  UNL A   1      27.111  35.333  45.710  1.00  0.00    +0.000 N 
ATOM     62  C43 UNL A   1      26.317  34.313  45.487  1.00  0.00    +0.000 C 
ATOM     63  C44 UNL A   1      24.910  34.078  45.973  1.00  0.00    +0.000 C 
ATOM     75  C51 UNL A   1      24.323  35.004  46.755  1.00  0.00    +0.000 C 
ATOM     76  C52 UNL A   1      22.973  34.913  47.303  1.00  0.00    +0.000 C 
ATOM     77  C53 UNL A   1      22.701  36.037  47.985  1.00  0.00    +0.000 C 
ATOM     78  C54 UNL A   1      23.875  36.912  47.960  1.00  0.00    +0.000 C 
ATOM     79  N6  UNL A   1      24.791  36.213  47.212  1.00  0.00    +0.000 N 
ATOM     80  C55 UNL A   1      26.912  33.265  44.646  1.00  0.00    +0.000 C 
ATOM     81  C56 UNL A   1      28.139  33.729  44.462  1.00  0.00    +0.000 C 
ATOM     82  C57 UNL A   1      26.401  40.736  48.701  1.00  0.00    +0.000 C 
ATOM     83  C58 UNL A   1      25.234  40.243  49.092  1.00  0.00    +0.000 C 
ATOM    109  H24 UNL A   1      31.129  39.809  46.482  1.00  0.00    +0.000 H 
ATOM    110  H25 UNL A   1      31.621  37.681  45.057  1.00  0.00    +0.000 H 
ATOM    111  H26 UNL A   1      27.742  37.424  46.483  1.00  0.00    +0.000 H 
ATOM    112  H27 UNL A   1      22.331  34.114  47.186  1.00  0.00    +0.000 H 
ATOM    113  H28 UNL A   1      21.806  36.251  48.453  1.00  0.00    +0.000 H 
ATOM    114  H29 UNL A   1      25.697  36.547  47.022  1.00  0.00    +0.000 H 
ATOM    115  H30 UNL A   1      26.485  32.395  44.292  1.00  0.00    +0.000 H 
ATOM    116  H31 UNL A   1      28.881  33.226  43.951  1.00  0.00    +0.000 H 
ATOM    117  H32 UNL A   1      26.737  41.687  48.925  1.00  0.00    +0.000 H 
ATOM    118  H33 UNL A   1      24.525  40.664  49.711  1.00  0.00    +0.000 H 
ENDROOT
BRANCH   27   26
ATOM    107  H22 UNL A   1      21.393  38.704  52.361  1.00  0.00    +0.000 H 
ATOM    108  H23 UNL A   1      23.373  37.925  51.197  1.00  0.00    +0.000 H 
ATOM     84  C59 UNL A   1      21.818  39.417  48.629  1.00  0.00    +0.000 C 
ATOM     85  C60 UNL A   1      20.733  39.952  49.323  1.00  0.00    +0.000 C 
ATOM    120  H35 UNL A   1      20.072  40.582  48.840  1.00  0.00    +0.000 H 
ATOM     23  C17 UNL A   1      20.537  39.638  50.671  1.00  0.00    +0.000 C 
ATOM     24  C18 UNL A   1      21.510  38.903  51.355  1.00  0.00    +0.000 C 
ATOM     25  C19 UNL A   1      22.642  38.437  50.678  1.00  0.00    +0.000 C 
ATOM    119  H34 UNL A   1      21.907  39.580  47.614  1.00  0.00    +0.000 H 
ATOM     26  C20 UNL A   1      22.790  38.660  49.300  1.00  0.00    +0.000 C 
BRANCH   23   21
ATOM     21  C16 UNL A   1      19.341  40.101  51.417  1.00  0.00    +0.000 C 
ATOM     22  O4  UNL A   1      19.223  41.293  51.686  1.00  0.00    +0.000 O 
BRANCH   21   20
ATOM    106  H21 UNL A   1      18.252  39.160  52.805  1.00  0.00    +0.000 H 
ATOM     20  N2  UNL A   1      18.374  39.216  51.830  1.00  0.00    +0.000 N 
BRANCH   20   19
ATOM    105  H20 UNL A   1      17.008  37.698  51.741  1.00  0.00    +0.000 H 
ATOM     19  C15 UNL A   1      17.504  38.352  51.054  1.00  0.00    +0.000 C 
ATOM    104  H19 UNL A   1      18.101  37.813  50.347  1.00  0.00    +0.000 H 
BRANCH   19   18
ATOM     18  C14 UNL A   1      16.425  39.116  50.296  1.00  0.00    +0.000 C 
ATOM    102  H17 UNL A   1      16.300  40.063  50.778  1.00  0.00    +0.000 H 
ATOM    103  H18 UNL A   1      16.776  39.172  49.286  1.00  0.00    +0.000 H 
BRANCH   18   17
ATOM     17  C13 UNL A   1      15.049  38.454  50.207  1.00  0.00    +0.000 C 
ATOM    100  H15 UNL A   1      14.564  38.594  51.150  1.00  0.00    +0.000 H 
ATOM    101  H16 UNL A   1      14.570  38.927  49.375  1.00  0.00    +0.000 H 
BRANCH   17   16
ATOM     98  H13 UNL A   1      16.020  36.603  49.875  1.00  0.00    +0.000 H 
ATOM     99  H14 UNL A   1      14.382  36.532  50.642  1.00  0.00    +0.000 H 
ATOM     16  C12 UNL A   1      15.009  36.955  49.885  1.00  0.00    +0.000 C 
BRANCH   16   15
ATOM     97  H12 UNL A   1      13.818  37.384  48.227  1.00  0.00    +0.000 H 
ATOM     15  C11 UNL A   1      14.362  36.527  48.563  1.00  0.00    +0.000 C 
ATOM     96  H11 UNL A   1      13.763  35.662  48.761  1.00  0.00    +0.000 H 
BRANCH   15   14
ATOM     94  H9  UNL A   1      15.482  35.125  47.450  1.00  0.00    +0.000 H 
ATOM     14  C10 UNL A   1      15.305  36.180  47.417  1.00  0.00    +0.000 C 
ATOM     95  H10 UNL A   1      14.811  36.518  46.530  1.00  0.00    +0.000 H 
BRANCH   14   13
ATOM     13  N1  UNL A   1      16.585  36.841  47.421  1.00  0.00    +0.000 N 
ATOM     93  H8  UNL A   1      16.553  37.816  47.293  1.00  0.00    +0.000 H 
BRANCH   13   11
ATOM     11  C9  UNL A   1      17.847  36.311  47.578  1.00  0.00    +0.000 C 
ATOM     12  O3  UNL A   1      18.080  35.741  48.647  1.00  0.00    +0.000 O 
BRANCH   11   10
ATOM      5  C3  UNL A   1      19.170  35.261  45.587  1.00  0.00    +0.000 C 
ATOM      6  C4  UNL A   1      20.249  35.358  44.691  1.00  0.00    +0.000 C 
ATOM      7  C5  UNL A   1      21.037  36.504  44.660  1.00  0.00    +0.000 C 
ATOM      8  C6  UNL A   1      20.747  37.557  45.519  1.00  0.00    +0.000 C 
ATOM      9  C7  UNL A   1      19.690  37.443  46.431  1.00  0.00    +0.000 C 
ATOM     10  C8  UNL A   1      18.898  36.277  46.512  1.00  0.00    +0.000 C 
ATOM     89  H4  UNL A   1      20.459  34.574  44.055  1.00  0.00    +0.000 H 
ATOM     90  H5  UNL A   1      21.831  36.572  44.004  1.00  0.00    +0.000 H 
ATOM     91  H6  UNL A   1      21.307  38.422  45.484  1.00  0.00    +0.000 H 
ATOM     92  H7  UNL A   1      19.485  38.233  47.062  1.00  0.00    +0.000 H 
BRANCH    5    4
ATOM      4  O2  UNL A   1      18.478  34.049  45.508  1.00  0.00    +0.000 O 
BRANCH    4    2
ATOM      2  C2  UNL A   1      17.797  33.796  44.325  1.00  0.00    +0.000 C 
ATOM      3  O1  UNL A   1      18.122  33.008  43.446  1.00  0.00    +0.000 O 
BRANCH    2    1
ATOM      1  C1  UNL A   1      16.570  34.662  44.287  1.00  0.00    +0.000 C 
ATOM     86  H1  UNL A   1      15.914  34.386  45.085  1.00  0.00    +0.000 H 
ATOM     87  H2  UNL A   1      16.068  34.528  43.352  1.00  0.00    +0.000 H 
ATOM     88  H3  UNL A   1      16.853  35.687  44.395  1.00  0.00    +0.000 H 
ENDBRANCH    2    1
ENDBRANCH    4    2
ENDBRANCH    5    4
ENDBRANCH   11   10
ENDBRANCH   13   11
ENDBRANCH   14   13
ENDBRANCH   15   14
ENDBRANCH   16   15
ENDBRANCH   17   16
ENDBRANCH   18   17
ENDBRANCH   19   18
ENDBRANCH   20   19
ENDBRANCH   21   20
ENDBRANCH   23   21
ENDBRANCH   27   26
BRANCH   31   32
ATOM     33  C26 UNL A   1      28.964  42.377  47.013  1.00  0.00    +0.000 C 
ATOM     34  F1  UNL A   1      28.276  42.308  45.864  1.00  0.00    +0.000 F 
ATOM     35  C27 UNL A   1      29.575  43.582  47.354  1.00  0.00    +0.000 C 
ATOM     36  F2  UNL A   1      29.478  44.637  46.533  1.00  0.00    +0.000 F 
ATOM     37  C28 UNL A   1      30.290  43.688  48.537  1.00  0.00    +0.000 C 
ATOM     38  F3  UNL A   1      30.867  44.851  48.871  1.00  0.00    +0.000 F 
ATOM     39  C29 UNL A   1      30.413  42.587  49.371  1.00  0.00    +0.000 C 
ATOM     40  F4  UNL A   1      31.091  42.693  50.523  1.00  0.00    +0.000 F 
ATOM     41  C30 UNL A   1      29.831  41.373  49.016  1.00  0.00    +0.000 C 
ATOM     42  F5  UNL A   1      29.980  40.324  49.839  1.00  0.00    +0.000 F 
ATOM     32  C25 UNL A   1      29.091  41.244  47.831  1.00  0.00    +0.000 C 
ENDBRANCH   31   32
BRANCH   48   49
ATOM     49  C36 UNL A   1      30.607  35.170  44.257  1.00  0.00    +0.000 C 
ATOM     50  C37 UNL A   1      30.844  35.434  42.901  1.00  0.00    +0.000 C 
ATOM     51  F6  UNL A   1      29.994  36.200  42.203  1.00  0.00    +0.000 F 
ATOM     52  C38 UNL A   1      31.939  34.875  42.243  1.00  0.00    +0.000 C 
ATOM     53  F7  UNL A   1      32.115  35.097  40.934  1.00  0.00    +0.000 F 
ATOM     54  C39 UNL A   1      32.836  34.076  42.938  1.00  0.00    +0.000 C 
ATOM     55  F8  UNL A   1      33.891  33.548  42.306  1.00  0.00    +0.000 F 
ATOM     56  C40 UNL A   1      32.634  33.822  44.286  1.00  0.00    +0.000 C 
ATOM     57  F9  UNL A   1      33.508  33.065  44.963  1.00  0.00    +0.000 F 
ATOM     58  C41 UNL A   1      31.522  34.350  44.936  1.00  0.00    +0.000 C 
ATOM     59  F10 UNL A   1      31.346  34.072  46.237  1.00  0.00    +0.000 F 
ENDBRANCH   48   49
BRANCH   63   64
ATOM     65  C46 UNL A   1      23.228  32.833  44.575  1.00  0.00    +0.000 C 
ATOM     66  F11 UNL A   1      22.968  33.963  43.903  1.00  0.00    +0.000 F 
ATOM     67  C47 UNL A   1      22.501  31.684  44.268  1.00  0.00    +0.000 C 
ATOM     68  F12 UNL A   1      21.554  31.728  43.320  1.00  0.00    +0.000 F 
ATOM     69  C48 UNL A   1      22.737  30.505  44.957  1.00  0.00    +0.000 C 
ATOM     70  F13 UNL A   1      22.037  29.402  44.663  1.00  0.00    +0.000 F 
ATOM     71  C49 UNL A   1      23.694  30.474  45.960  1.00  0.00    +0.000 C 
ATOM     72  F14 UNL A   1      23.939  29.333  46.618  1.00  0.00    +0.000 F 
ATOM     73  C50 UNL A   1      24.398  31.630  46.292  1.00  0.00    +0.000 C 
ATOM     74  F15 UNL A   1      25.301  31.574  47.282  1.00  0.00    +0.000 F 
ATOM     64  C45 UNL A   1      24.181  32.834  45.606  1.00  0.00    +0.000 C 
ENDBRANCH   63   64
TORSDOF 18
ENDMDL
MODEL 5
REMARK VINA RESULT:      -9.1      4.366     11.248
ROOT
ATOM     27  C21 UNL A   1      26.544  35.498  45.690  1.00  0.00    +0.000 C 
ATOM     28  C22 UNL A   1      26.683  36.572  46.737  1.00  0.00    +0.000 C 
ATOM     29  N3  UNL A   1      25.781  37.060  47.551  1.00  0.00    +0.000 N 
ATOM     30  C23 UNL A   1      26.442  37.998  48.332  1.00  0.00    +0.000 C 
ATOM     31  C24 UNL A   1      25.931  38.827  49.275  1.00  0.00    +0.000 C 
ATOM     43  C31 UNL A   1      24.542  38.869  49.651  1.00  0.00    +0.000 C 
ATOM     44  C32 UNL A   1      23.919  39.707  50.558  1.00  0.00    +0.000 C 
ATOM     45  C33 UNL A   1      22.571  39.342  50.638  1.00  0.00    +0.000 C 
ATOM     46  C34 UNL A   1      22.340  38.321  49.731  1.00  0.00    +0.000 C 
ATOM     47  N4  UNL A   1      23.559  38.034  49.138  1.00  0.00    +0.000 N 
ATOM     48  C35 UNL A   1      21.099  37.654  49.429  1.00  0.00    +0.000 C 
ATOM     60  C42 UNL A   1      20.956  36.660  48.519  1.00  0.00    +0.000 C 
ATOM     61  N5  UNL A   1      21.915  36.082  47.697  1.00  0.00    +0.000 N 
ATOM     62  C43 UNL A   1      21.291  35.156  47.011  1.00  0.00    +0.000 C 
ATOM     63  C44 UNL A   1      21.827  34.239  45.942  1.00  0.00    +0.000 C 
ATOM     75  C51 UNL A   1      23.124  34.331  45.588  1.00  0.00    +0.000 C 
ATOM     76  C52 UNL A   1      23.781  33.517  44.571  1.00  0.00    +0.000 C 
ATOM     77  C53 UNL A   1      25.083  33.841  44.524  1.00  0.00    +0.000 C 
ATOM     78  C54 UNL A   1      25.345  34.919  45.479  1.00  0.00    +0.000 C 
ATOM     79  N6  UNL A   1      24.122  35.149  46.061  1.00  0.00    +0.000 N 
ATOM     80  C55 UNL A   1      19.868  35.019  47.349  1.00  0.00    +0.000 C 
ATOM     81  C56 UNL A   1      19.704  35.991  48.234  1.00  0.00    +0.000 C 
ATOM     82  C57 UNL A   1      27.834  37.970  47.939  1.00  0.00    +0.000 C 
ATOM     83  C58 UNL A   1      28.022  37.159  46.908  1.00  0.00    +0.000 C 
ATOM    109  H24 UNL A   1      24.371  40.470  51.087  1.00  0.00    +0.000 H 
ATOM    110  H25 UNL A   1      21.868  39.763  51.265  1.00  0.00    +0.000 H 
ATOM    111  H26 UNL A   1      23.707  37.341  48.455  1.00  0.00    +0.000 H 
ATOM    112  H27 UNL A   1      23.320  32.807  43.981  1.00  0.00    +0.000 H 
ATOM    113  H28 UNL A   1      25.788  33.400  43.912  1.00  0.00    +0.000 H 
ATOM    114  H29 UNL A   1      23.974  35.835  46.751  1.00  0.00    +0.000 H 
ATOM    115  H30 UNL A   1      19.175  34.342  46.989  1.00  0.00    +0.000 H 
ATOM    116  H31 UNL A   1      18.800  36.238  48.666  1.00  0.00    +0.000 H 
ATOM    117  H32 UNL A   1      28.582  38.512  48.400  1.00  0.00    +0.000 H 
ATOM    118  H33 UNL A   1      28.882  36.985  46.367  1.00  0.00    +0.000 H 
ENDROOT
BRANCH   27   26
ATOM    107  H22 UNL A   1      30.189  32.736  44.981  1.00  0.00    +0.000 H 
ATOM    108  H23 UNL A   1      28.179  33.386  46.173  1.00  0.00    +0.000 H 
ATOM     84  C59 UNL A   1      28.120  35.708  43.756  1.00  0.00    +0.000 C 
ATOM     85  C60 UNL A   1      29.217  35.268  43.014  1.00  0.00    +0.000 C 
ATOM    120  H35 UNL A   1      29.439  35.713  42.110  1.00  0.00    +0.000 H 
ATOM     23  C17 UNL A   1      30.016  34.226  43.493  1.00  0.00    +0.000 C 
ATOM     24  C18 UNL A   1      29.627  33.535  44.645  1.00  0.00    +0.000 C 
ATOM     25  C19 UNL A   1      28.479  33.923  45.343  1.00  0.00    +0.000 C 
ATOM    119  H34 UNL A   1      27.589  36.535  43.441  1.00  0.00    +0.000 H 
ATOM     26  C20 UNL A   1      27.733  35.036  44.925  1.00  0.00    +0.000 C 
BRANCH   23   21
ATOM     21  C16 UNL A   1      31.249  33.797  42.790  1.00  0.00    +0.000 C 
ATOM     22  O4  UNL A   1      32.297  33.690  43.421  1.00  0.00    +0.000 O 
BRANCH   21   20
ATOM    106  H21 UNL A   1      30.752  32.724  41.177  1.00  0.00    +0.000 H 
ATOM     20  N2  UNL A   1      31.244  33.536  41.441  1.00  0.00    +0.000 N 
BRANCH   20   19
ATOM    105  H20 UNL A   1      31.096  34.395  39.591  1.00  0.00    +0.000 H 
ATOM     19  C15 UNL A   1      31.847  34.269  40.343  1.00  0.00    +0.000 C 
ATOM    104  H19 UNL A   1      32.686  33.711  39.982  1.00  0.00    +0.000 H 
BRANCH   19   18
ATOM     18  C14 UNL A   1      32.325  35.659  40.744  1.00  0.00    +0.000 C 
ATOM    102  H17 UNL A   1      32.487  35.653  41.802  1.00  0.00    +0.000 H 
ATOM    103  H18 UNL A   1      33.203  35.835  40.159  1.00  0.00    +0.000 H 
BRANCH   18   17
ATOM     17  C13 UNL A   1      31.388  36.826  40.425  1.00  0.00    +0.000 C 
ATOM    100  H15 UNL A   1      30.950  36.634  39.468  1.00  0.00    +0.000 H 
ATOM    101  H16 UNL A   1      30.699  36.857  41.243  1.00  0.00    +0.000 H 
BRANCH   17   16
ATOM     98  H13 UNL A   1      33.070  38.111  40.377  1.00  0.00    +0.000 H 
ATOM     99  H14 UNL A   1      31.593  38.676  39.494  1.00  0.00    +0.000 H 
ATOM     16  C12 UNL A   1      32.006  38.230  40.375  1.00  0.00    +0.000 C 
BRANCH   16   15
ATOM     97  H12 UNL A   1      30.656  39.530  41.291  1.00  0.00    +0.000 H 
ATOM     15  C11 UNL A   1      31.652  39.204  41.504  1.00  0.00    +0.000 C 
ATOM     96  H11 UNL A   1      32.389  39.981  41.504  1.00  0.00    +0.000 H 
BRANCH   15   14
ATOM     94  H9  UNL A   1      30.600  38.788  43.286  1.00  0.00    +0.000 H 
ATOM     14  C10 UNL A   1      31.590  38.629  42.914  1.00  0.00    +0.000 C 
ATOM     95  H10 UNL A   1      31.865  37.599  42.814  1.00  0.00    +0.000 H 
BRANCH   14   13
ATOM     13  N1  UNL A   1      32.513  39.183  43.871  1.00  0.00    +0.000 N 
ATOM     93  H8  UNL A   1      33.436  39.293  43.547  1.00  0.00    +0.000 H 
BRANCH   13   11
ATOM     11  C9  UNL A   1      32.296  39.581  45.172  1.00  0.00    +0.000 C 
ATOM     12  O3  UNL A   1      32.239  38.689  46.023  1.00  0.00    +0.000 O 
BRANCH   11   10
ATOM      5  C3  UNL A   1      31.178  41.695  46.220  1.00  0.00    +0.000 C 
ATOM      6  C4  UNL A   1      31.274  43.063  46.530  1.00  0.00    +0.000 C 
ATOM      7  C5  UNL A   1      32.465  43.751  46.319  1.00  0.00    +0.000 C 
ATOM      8  C6  UNL A   1      33.563  43.074  45.803  1.00  0.00    +0.000 C 
ATOM      9  C7  UNL A   1      33.453  41.719  45.466  1.00  0.00    +0.000 C 
ATOM     10  C8  UNL A   1      32.246  41.006  45.632  1.00  0.00    +0.000 C 
ATOM     89  H4  UNL A   1      30.456  43.560  46.915  1.00  0.00    +0.000 H 
ATOM     90  H5  UNL A   1      32.532  44.755  46.544  1.00  0.00    +0.000 H 
ATOM     91  H6  UNL A   1      34.458  43.568  45.668  1.00  0.00    +0.000 H 
ATOM     92  H7  UNL A   1      34.277  41.229  45.084  1.00  0.00    +0.000 H 
BRANCH    5    4
ATOM      4  O2  UNL A   1      29.919  41.144  46.478  1.00  0.00    +0.000 O 
BRANCH    4    2
ATOM      2  C2  UNL A   1      28.874  41.576  45.672  1.00  0.00    +0.000 C 
ATOM      3  O1  UNL A   1      28.110  42.506  45.899  1.00  0.00    +0.000 O 
BRANCH    2    1
ATOM      1  C1  UNL A   1      28.821  40.704  44.451  1.00  0.00    +0.000 C 
ATOM     86  H1  UNL A   1      28.042  39.980  44.563  1.00  0.00    +0.000 H 
ATOM     87  H2  UNL A   1      29.758  40.202  44.329  1.00  0.00    +0.000 H 
ATOM     88  H3  UNL A   1      28.627  41.307  43.589  1.00  0.00    +0.000 H 
ENDBRANCH    2    1
ENDBRANCH    4    2
ENDBRANCH    5    4
ENDBRANCH   11   10
ENDBRANCH   13   11
ENDBRANCH   14   13
ENDBRANCH   15   14
ENDBRANCH   16   15
ENDBRANCH   17   16
ENDBRANCH   18   17
ENDBRANCH   19   18
ENDBRANCH   20   19
ENDBRANCH   21   20
ENDBRANCH   23   21
ENDBRANCH   27   26
BRANCH   31   32
ATOM     33  C26 UNL A   1      27.533  39.405  51.157  1.00  0.00    +0.000 C 
ATOM     34  F1  UNL A   1      27.277  38.224  51.738  1.00  0.00    +0.000 F 
ATOM     35  C27 UNL A   1      28.431  40.274  51.774  1.00  0.00    +0.000 C 
ATOM     36  F2  UNL A   1      29.007  39.926  52.933  1.00  0.00    +0.000 F 
ATOM     37  C28 UNL A   1      28.720  41.500  51.198  1.00  0.00    +0.000 C 
ATOM     38  F3  UNL A   1      29.594  42.330  51.785  1.00  0.00    +0.000 F 
ATOM     39  C29 UNL A   1      28.100  41.870  50.014  1.00  0.00    +0.000 C 
ATOM     40  F4  UNL A   1      28.392  43.050  49.446  1.00  0.00    +0.000 F 
ATOM     41  C30 UNL A   1      27.178  41.018  49.412  1.00  0.00    +0.000 C 
ATOM     42  F5  UNL A   1      26.587  41.411  48.274  1.00  0.00    +0.000 F 
ATOM     32  C25 UNL A   1      26.879  39.766  49.969  1.00  0.00    +0.000 C 
ENDBRANCH   31   32
BRANCH   48   49
ATOM     49  C36 UNL A   1      19.864  38.113  50.152  1.00  0.00    +0.000 C 
ATOM     50  C37 UNL A   1      19.394  37.459  51.300  1.00  0.00    +0.000 C 
ATOM     51  F6  UNL A   1      20.017  36.362  51.755  1.00  0.00    +0.000 F 
ATOM     52  C38 UNL A   1      18.253  37.907  51.962  1.00  0.00    +0.000 C 
ATOM     53  F7  UNL A   1      17.791  37.235  53.025  1.00  0.00    +0.000 F 
ATOM     54  C39 UNL A   1      17.586  39.039  51.514  1.00  0.00    +0.000 C 
ATOM     55  F8  UNL A   1      16.494  39.472  52.157  1.00  0.00    +0.000 F 
ATOM     56  C40 UNL A   1      18.047  39.714  50.395  1.00  0.00    +0.000 C 
ATOM     57  F9  UNL A   1      17.415  40.816  49.971  1.00  0.00    +0.000 F 
ATOM     58  C41 UNL A   1      19.166  39.248  49.711  1.00  0.00    +0.000 C 
ATOM     59  F10 UNL A   1      19.578  39.916  48.622  1.00  0.00    +0.000 F 
ENDBRANCH   48   49
BRANCH   63   64
ATOM     65  C46 UNL A   1      20.056  33.647  44.255  1.00  0.00    +0.000 C 
ATOM     66  F11 UNL A   1      20.014  34.929  43.867  1.00  0.00    +0.000 F 
ATOM     67  C47 UNL A   1      19.178  32.737  43.668  1.00  0.00    +0.000 C 
ATOM     68  F12 UNL A   1      18.306  33.155  42.740  1.00  0.00    +0.000 F 
ATOM     69  C48 UNL A   1      19.189  31.407  44.059  1.00  0.00    +0.000 C 
ATOM     70  F13 UNL A   1      18.344  30.534  43.496  1.00  0.00    +0.000 F 
ATOM     71  C49 UNL A   1      20.069  30.987  45.045  1.00  0.00    +0.000 C 
ATOM     72  F14 UNL A   1      20.095  29.699  45.415  1.00  0.00    +0.000 F 
ATOM     73  C50 UNL A   1      20.923  31.902  45.657  1.00  0.00    +0.000 C 
ATOM     74  F15 UNL A   1      21.748  31.469  46.622  1.00  0.00    +0.000 F 
ATOM     64  C45 UNL A   1      20.936  33.252  45.274  1.00  0.00    +0.000 C 
ENDBRANCH   63   64
TORSDOF 18
ENDMDL
MODEL 6
REMARK VINA RESULT:      -9.1     42.831     46.570
ROOT
ATOM     27  C21 UNL A   1      13.440  53.547   5.440  1.00  0.00    +0.000 C 
ATOM     28  C22 UNL A   1      13.048  52.095   5.347  1.00  0.00    +0.000 C 
ATOM     29  N3  UNL A   1      13.457  51.177   4.507  1.00  0.00    +0.000 N 
ATOM     30  C23 UNL A   1      12.814  50.005   4.883  1.00  0.00    +0.000 C 
ATOM     31  C24 UNL A   1      12.849  48.790   4.284  1.00  0.00    +0.000 C 
ATOM     43  C31 UNL A   1      13.608  48.492   3.098  1.00  0.00    +0.000 C 
ATOM     44  C32 UNL A   1      13.670  47.306   2.388  1.00  0.00    +0.000 C 
ATOM     45  C33 UNL A   1      14.583  47.470   1.340  1.00  0.00    +0.000 C 
ATOM     46  C34 UNL A   1      15.039  48.777   1.358  1.00  0.00    +0.000 C 
ATOM     47  N4  UNL A   1      14.441  49.391   2.446  1.00  0.00    +0.000 N 
ATOM     48  C35 UNL A   1      15.956  49.418   0.449  1.00  0.00    +0.000 C 
ATOM     60  C42 UNL A   1      16.352  50.711   0.535  1.00  0.00    +0.000 C 
ATOM     61  N5  UNL A   1      15.983  51.680   1.460  1.00  0.00    +0.000 N 
ATOM     62  C43 UNL A   1      16.645  52.763   1.130  1.00  0.00    +0.000 C 
ATOM     63  C44 UNL A   1      16.607  54.131   1.762  1.00  0.00    +0.000 C 
ATOM     75  C51 UNL A   1      15.797  54.344   2.817  1.00  0.00    +0.000 C 
ATOM     76  C52 UNL A   1      15.651  55.611   3.526  1.00  0.00    +0.000 C 
ATOM     77  C53 UNL A   1      14.805  55.442   4.555  1.00  0.00    +0.000 C 
ATOM     78  C54 UNL A   1      14.314  54.063   4.553  1.00  0.00    +0.000 C 
ATOM     79  N6  UNL A   1      14.952  53.487   3.481  1.00  0.00    +0.000 N 
ATOM     80  C55 UNL A   1      17.539  52.590  -0.023  1.00  0.00    +0.000 C 
ATOM     81  C56 UNL A   1      17.284  51.339  -0.379  1.00  0.00    +0.000 C 
ATOM     82  C57 UNL A   1      12.036  50.310   6.063  1.00  0.00    +0.000 C 
ATOM     83  C58 UNL A   1      12.089  51.603   6.348  1.00  0.00    +0.000 C 
ATOM    109  H24 UNL A   1      13.135  46.448   2.596  1.00  0.00    +0.000 H 
ATOM    110  H25 UNL A   1      14.866  46.739   0.668  1.00  0.00    +0.000 H 
ATOM    111  H26 UNL A   1      14.584  50.327   2.717  1.00  0.00    +0.000 H 
ATOM    112  H27 UNL A   1      16.120  56.495   3.277  1.00  0.00    +0.000 H 
ATOM    113  H28 UNL A   1      14.543  56.169   5.239  1.00  0.00    +0.000 H 
ATOM    114  H29 UNL A   1      14.818  52.550   3.214  1.00  0.00    +0.000 H 
ATOM    115  H30 UNL A   1      18.193  53.267  -0.447  1.00  0.00    +0.000 H 
ATOM    116  H31 UNL A   1      17.697  50.872  -1.201  1.00  0.00    +0.000 H 
ATOM    117  H32 UNL A   1      11.507  49.613   6.611  1.00  0.00    +0.000 H 
ATOM    118  H33 UNL A   1      11.586  52.129   7.080  1.00  0.00    +0.000 H 
ENDROOT
BRANCH   27   26
ATOM    107  H22 UNL A   1      10.365  56.476   7.277  1.00  0.00    +0.000 H 
ATOM    108  H23 UNL A   1      11.143  54.989   5.526  1.00  0.00    +0.000 H 
ATOM     84  C59 UNL A   1      13.608  54.508   7.746  1.00  0.00    +0.000 C 
ATOM     85  C60 UNL A   1      13.105  55.283   8.791  1.00  0.00    +0.000 C 
ATOM    120  H35 UNL A   1      13.582  55.285   9.706  1.00  0.00    +0.000 H 
ATOM     23  C17 UNL A   1      11.957  56.057   8.601  1.00  0.00    +0.000 C 
ATOM     24  C18 UNL A   1      11.237  55.940   7.408  1.00  0.00    +0.000 C 
ATOM     25  C19 UNL A   1      11.697  55.097   6.390  1.00  0.00    +0.000 C 
ATOM    119  H34 UNL A   1      14.505  54.011   7.863  1.00  0.00    +0.000 H 
ATOM     26  C20 UNL A   1      12.907  54.400   6.536  1.00  0.00    +0.000 C 
BRANCH   23   21
ATOM     21  C16 UNL A   1      11.448  56.974   9.650  1.00  0.00    +0.000 C 
ATOM     22  O4  UNL A   1      11.767  58.160   9.620  1.00  0.00    +0.000 O 
BRANCH   21   20
ATOM    106  H21 UNL A   1       9.677  56.546  10.473  1.00  0.00    +0.000 H 
ATOM     20  N2  UNL A   1      10.642  56.516  10.664  1.00  0.00    +0.000 N 
BRANCH   20   19
ATOM    105  H20 UNL A   1      10.116  56.063  12.587  1.00  0.00    +0.000 H 
ATOM     19  C15 UNL A   1      10.990  55.994  11.973  1.00  0.00    +0.000 C 
ATOM    104  H19 UNL A   1      11.802  56.571  12.365  1.00  0.00    +0.000 H 
BRANCH   19   18
ATOM     18  C14 UNL A   1      11.408  54.529  11.940  1.00  0.00    +0.000 C 
ATOM    102  H17 UNL A   1      10.516  53.938  11.954  1.00  0.00    +0.000 H 
ATOM    103  H18 UNL A   1      11.999  54.424  11.054  1.00  0.00    +0.000 H 
BRANCH   18   17
ATOM     17  C13 UNL A   1      12.303  54.044  13.081  1.00  0.00    +0.000 C 
ATOM    100  H15 UNL A   1      12.039  54.599  13.956  1.00  0.00    +0.000 H 
ATOM    101  H16 UNL A   1      12.126  52.990  13.141  1.00  0.00    +0.000 H 
BRANCH   17   16
ATOM     98  H13 UNL A   1      13.994  54.386  11.855  1.00  0.00    +0.000 H 
ATOM     99  H14 UNL A   1      14.110  54.952  13.571  1.00  0.00    +0.000 H 
ATOM     16  C12 UNL A   1      13.820  54.178  12.890  1.00  0.00    +0.000 C 
BRANCH   16   15
ATOM     97  H12 UNL A   1      14.182  52.503  14.080  1.00  0.00    +0.000 H 
ATOM     15  C11 UNL A   1      14.695  52.979  13.270  1.00  0.00    +0.000 C 
ATOM     96  H11 UNL A   1      15.669  53.353  13.512  1.00  0.00    +0.000 H 
BRANCH   15   14
ATOM     94  H9  UNL A   1      15.891  51.579  12.237  1.00  0.00    +0.000 H 
ATOM     14  C10 UNL A   1      14.869  51.893  12.215  1.00  0.00    +0.000 C 
ATOM     95  H10 UNL A   1      14.166  51.129  12.475  1.00  0.00    +0.000 H 
BRANCH   14   13
ATOM     13  N1  UNL A   1      14.551  52.263  10.860  1.00  0.00    +0.000 N 
ATOM     93  H8  UNL A   1      14.764  53.193  10.618  1.00  0.00    +0.000 H 
BRANCH   13   11
ATOM     11  C9  UNL A   1      13.995  51.507   9.851  1.00  0.00    +0.000 C 
ATOM     12  O3  UNL A   1      12.785  51.649   9.655  1.00  0.00    +0.000 O 
BRANCH   11   10
ATOM      5  C3  UNL A   1      14.887  49.236   8.923  1.00  0.00    +0.000 C 
ATOM      6  C4  UNL A   1      15.719  48.568   8.007  1.00  0.00    +0.000 C 
ATOM      7  C5  UNL A   1      16.394  49.279   7.020  1.00  0.00    +0.000 C 
ATOM      8  C6  UNL A   1      16.238  50.658   6.944  1.00  0.00    +0.000 C 
ATOM      9  C7  UNL A   1      15.434  51.322   7.879  1.00  0.00    +0.000 C 
ATOM     10  C8  UNL A   1      14.768  50.631   8.914  1.00  0.00    +0.000 C 
ATOM     89  H4  UNL A   1      15.830  47.544   8.067  1.00  0.00    +0.000 H 
ATOM     90  H5  UNL A   1      17.006  48.787   6.351  1.00  0.00    +0.000 H 
ATOM     91  H6  UNL A   1      16.712  51.191   6.199  1.00  0.00    +0.000 H 
ATOM     92  H7  UNL A   1      15.327  52.346   7.809  1.00  0.00    +0.000 H 
BRANCH    5    4
ATOM      4  O2  UNL A   1      14.284  48.391   9.860  1.00  0.00    +0.000 O 
BRANCH    4    2
ATOM      2  C2  UNL A   1      13.037  47.880   9.525  1.00  0.00    +0.000 C 
ATOM      3  O1  UNL A   1      12.159  48.450   8.889  1.00  0.00    +0.000 O 
BRANCH    2    1
ATOM      1  C1  UNL A   1      12.927  46.489  10.080  1.00  0.00    +0.000 C 
ATOM     86  H1  UNL A   1      12.694  45.807   9.290  1.00  0.00    +0.000 H 
ATOM     87  H2  UNL A   1      12.151  46.459  10.816  1.00  0.00    +0.000 H 
ATOM     88  H3  UNL A   1      13.855  46.210  10.531  1.00  0.00    +0.000 H 
ENDBRANCH    2    1
ENDBRANCH    4    2
ENDBRANCH    5    4
ENDBRANCH   11   10
ENDBRANCH   13   11
ENDBRANCH   14   13
ENDBRANCH   15   14
ENDBRANCH   16   15
ENDBRANCH   17   16
ENDBRANCH   18   17
ENDBRANCH   19   18
ENDBRANCH   20   19
ENDBRANCH   21   20
ENDBRANCH   23   21
ENDBRANCH   27   26
BRANCH   31   32
ATOM     33  C26 UNL A   1      12.597  46.791   5.828  1.00  0.00    +0.000 C 
ATOM     34  F1  UNL A   1      13.898  46.871   6.145  1.00  0.00    +0.000 F 
ATOM     35  C27 UNL A   1      11.827  45.788   6.412  1.00  0.00    +0.000 C 
ATOM     36  F2  UNL A   1      12.394  44.919   7.260  1.00  0.00    +0.000 F 
ATOM     37  C28 UNL A   1      10.478  45.681   6.110  1.00  0.00    +0.000 C 
ATOM     38  F3  UNL A   1       9.735  44.723   6.682  1.00  0.00    +0.000 F 
ATOM     39  C29 UNL A   1       9.900  46.563   5.209  1.00  0.00    +0.000 C 
ATOM     40  F4  UNL A   1       8.593  46.471   4.928  1.00  0.00    +0.000 F 
ATOM     41  C30 UNL A   1      10.675  47.546   4.599  1.00  0.00    +0.000 C 
ATOM     42  F5  UNL A   1      10.088  48.376   3.723  1.00  0.00    +0.000 F 
ATOM     32  C25 UNL A   1      12.038  47.683   4.899  1.00  0.00    +0.000 C 
ENDBRANCH   31   32
BRANCH   48   49
ATOM     49  C36 UNL A   1      16.491  48.604  -0.695  1.00  0.00    +0.000 C 
ATOM     50  C37 UNL A   1      15.751  48.403  -1.868  1.00  0.00    +0.000 C 
ATOM     51  F6  UNL A   1      14.510  48.899  -1.977  1.00  0.00    +0.000 F 
ATOM     52  C38 UNL A   1      16.269  47.653  -2.922  1.00  0.00    +0.000 C 
ATOM     53  F7  UNL A   1      15.523  47.428  -4.012  1.00  0.00    +0.000 F 
ATOM     54  C39 UNL A   1      17.550  47.126  -2.838  1.00  0.00    +0.000 C 
ATOM     55  F8  UNL A   1      18.050  46.413  -3.856  1.00  0.00    +0.000 F 
ATOM     56  C40 UNL A   1      18.309  47.332  -1.696  1.00  0.00    +0.000 C 
ATOM     57  F9  UNL A   1      19.552  46.839  -1.620  1.00  0.00    +0.000 F 
ATOM     58  C41 UNL A   1      17.780  48.051  -0.629  1.00  0.00    +0.000 C 
ATOM     59  F10 UNL A   1      18.533  48.220   0.469  1.00  0.00    +0.000 F 
ENDBRANCH   48   49
BRANCH   63   64
ATOM     65  C46 UNL A   1      17.008  56.003   0.129  1.00  0.00    +0.000 C 
ATOM     66  F11 UNL A   1      15.822  55.744  -0.441  1.00  0.00    +0.000 F 
ATOM     67  C47 UNL A   1      17.813  57.001  -0.417  1.00  0.00    +0.000 C 
ATOM     68  F12 UNL A   1      17.398  57.676  -1.499  1.00  0.00    +0.000 F 
ATOM     69  C48 UNL A   1      19.050  57.282   0.141  1.00  0.00    +0.000 C 
ATOM     70  F13 UNL A   1      19.824  58.240  -0.385  1.00  0.00    +0.000 F 
ATOM     71  C49 UNL A   1      19.489  56.558   1.239  1.00  0.00    +0.000 C 
ATOM     72  F14 UNL A   1      20.677  56.835   1.793  1.00  0.00    +0.000 F 
ATOM     73  C50 UNL A   1      18.700  55.536   1.765  1.00  0.00    +0.000 C 
ATOM     74  F15 UNL A   1      19.163  54.839   2.813  1.00  0.00    +0.000 F 
ATOM     64  C45 UNL A   1      17.442  55.237   1.221  1.00  0.00    +0.000 C 
ENDBRANCH   63   64
TORSDOF 18
ENDMDL
MODEL 7
REMARK VINA RESULT:      -9.1     43.126     46.875
ROOT
ATOM     27  C21 UNL A   1      13.758  53.802   5.017  1.00  0.00    +0.000 C 
ATOM     28  C22 UNL A   1      13.302  52.366   5.025  1.00  0.00    +0.000 C 
ATOM     29  N3  UNL A   1      13.644  51.382   4.232  1.00  0.00    +0.000 N 
ATOM     30  C23 UNL A   1      12.963  50.265   4.697  1.00  0.00    +0.000 C 
ATOM     31  C24 UNL A   1      12.927  49.016   4.173  1.00  0.00    +0.000 C 
ATOM     43  C31 UNL A   1      13.635  48.614   2.986  1.00  0.00    +0.000 C 
ATOM     44  C32 UNL A   1      13.622  47.386   2.348  1.00  0.00    +0.000 C 
ATOM     45  C33 UNL A   1      14.508  47.445   1.266  1.00  0.00    +0.000 C 
ATOM     46  C34 UNL A   1      15.021  48.729   1.191  1.00  0.00    +0.000 C 
ATOM     47  N4  UNL A   1      14.484  49.434   2.256  1.00  0.00    +0.000 N 
ATOM     48  C35 UNL A   1      15.935  49.273   0.219  1.00  0.00    +0.000 C 
ATOM     60  C42 UNL A   1      16.388  50.550   0.213  1.00  0.00    +0.000 C 
ATOM     61  N5  UNL A   1      16.092  51.587   1.087  1.00  0.00    +0.000 N 
ATOM     62  C43 UNL A   1      16.789  52.618   0.673  1.00  0.00    +0.000 C 
ATOM     63  C44 UNL A   1      16.830  54.022   1.220  1.00  0.00    +0.000 C 
ATOM     75  C51 UNL A   1      16.063  54.334   2.284  1.00  0.00    +0.000 C 
ATOM     76  C52 UNL A   1      15.994  55.647   2.918  1.00  0.00    +0.000 C 
ATOM     77  C53 UNL A   1      15.175  55.577   3.979  1.00  0.00    +0.000 C 
ATOM     78  C54 UNL A   1      14.625  54.225   4.075  1.00  0.00    +0.000 C 
ATOM     79  N6  UNL A   1      15.204  53.557   3.024  1.00  0.00    +0.000 N 
ATOM     80  C55 UNL A   1      17.637  52.337  -0.493  1.00  0.00    +0.000 C 
ATOM     81  C56 UNL A   1      17.317  51.079  -0.764  1.00  0.00    +0.000 C 
ATOM     82  C57 UNL A   1      12.236  50.675   5.878  1.00  0.00    +0.000 C 
ATOM     83  C58 UNL A   1      12.354  51.979   6.081  1.00  0.00    +0.000 C 
ATOM    109  H24 UNL A   1      13.058  46.567   2.624  1.00  0.00    +0.000 H 
ATOM    110  H25 UNL A   1      14.738  46.664   0.633  1.00  0.00    +0.000 H 
ATOM    111  H26 UNL A   1      14.676  50.377   2.465  1.00  0.00    +0.000 H 
ATOM    112  H27 UNL A   1      16.493  56.492   2.602  1.00  0.00    +0.000 H 
ATOM    113  H28 UNL A   1      14.966  56.355   4.625  1.00  0.00    +0.000 H 
ATOM    114  H29 UNL A   1      15.020  52.612   2.819  1.00  0.00    +0.000 H 
ATOM    115  H30 UNL A   1      18.306  52.957  -0.976  1.00  0.00    +0.000 H 
ATOM    116  H31 UNL A   1      17.684  50.546  -1.567  1.00  0.00    +0.000 H 
ATOM    117  H32 UNL A   1      11.695  50.036   6.483  1.00  0.00    +0.000 H 
ATOM    118  H33 UNL A   1      11.898  52.569   6.795  1.00  0.00    +0.000 H 
ENDROOT
BRANCH   27   26
ATOM    107  H22 UNL A   1      14.105  55.888   9.134  1.00  0.00    +0.000 H 
ATOM    108  H23 UNL A   1      14.945  54.450   7.370  1.00  0.00    +0.000 H 
ATOM     84  C59 UNL A   1      12.107  55.464   5.902  1.00  0.00    +0.000 C 
ATOM     85  C60 UNL A   1      11.679  56.369   6.873  1.00  0.00    +0.000 C 
ATOM    120  H35 UNL A   1      10.851  56.960   6.697  1.00  0.00    +0.000 H 
ATOM     23  C17 UNL A   1      12.368  56.477   8.084  1.00  0.00    +0.000 C 
ATOM     24  C18 UNL A   1      13.568  55.779   8.259  1.00  0.00    +0.000 C 
ATOM     25  C19 UNL A   1      14.042  54.935   7.249  1.00  0.00    +0.000 C 
ATOM    119  H34 UNL A   1      11.544  55.325   5.049  1.00  0.00    +0.000 H 
ATOM     26  C20 UNL A   1      13.297  54.742   6.074  1.00  0.00    +0.000 C 
BRANCH   23   21
ATOM     21  C16 UNL A   1      11.888  57.350   9.184  1.00  0.00    +0.000 C 
ATOM     22  O4  UNL A   1      12.175  58.544   9.174  1.00  0.00    +0.000 O 
BRANCH   21   20
ATOM    106  H21 UNL A   1      10.486  57.464  10.604  1.00  0.00    +0.000 H 
ATOM     20  N2  UNL A   1      11.146  56.842  10.222  1.00  0.00    +0.000 N 
BRANCH   20   19
ATOM    105  H20 UNL A   1      10.925  55.660  11.876  1.00  0.00    +0.000 H 
ATOM     19  C15 UNL A   1      11.180  55.531  10.844  1.00  0.00    +0.000 C 
ATOM    104  H19 UNL A   1      12.161  55.121  10.722  1.00  0.00    +0.000 H 
BRANCH   19   18
ATOM     18  C14 UNL A   1      10.171  54.559  10.245  1.00  0.00    +0.000 C 
ATOM    102  H17 UNL A   1       9.737  54.006  11.052  1.00  0.00    +0.000 H 
ATOM    103  H18 UNL A   1       9.481  55.169   9.701  1.00  0.00    +0.000 H 
BRANCH   18   17
ATOM     17  C13 UNL A   1      10.707  53.551   9.227  1.00  0.00    +0.000 C 
ATOM    100  H15 UNL A   1       9.872  53.000   8.850  1.00  0.00    +0.000 H 
ATOM    101  H16 UNL A   1      11.226  54.143   8.503  1.00  0.00    +0.000 H 
BRANCH   17   16
ATOM     98  H13 UNL A   1      12.532  52.503   9.000  1.00  0.00    +0.000 H 
ATOM     99  H14 UNL A   1      12.025  52.888  10.695  1.00  0.00    +0.000 H 
ATOM     16  C12 UNL A   1      11.744  52.535   9.724  1.00  0.00    +0.000 C 
BRANCH   16   15
ATOM     97  H12 UNL A   1      11.468  50.586   9.033  1.00  0.00    +0.000 H 
ATOM     15  C11 UNL A   1      11.276  51.094   9.955  1.00  0.00    +0.000 C 
ATOM     96  H11 UNL A   1      10.246  51.131  10.243  1.00  0.00    +0.000 H 
BRANCH   15   14
ATOM     94  H9  UNL A   1      12.751  50.935  11.457  1.00  0.00    +0.000 H 
ATOM     14  C10 UNL A   1      12.022  50.291  11.014  1.00  0.00    +0.000 C 
ATOM     95  H10 UNL A   1      11.268  49.944  11.691  1.00  0.00    +0.000 H 
BRANCH   14   13
ATOM     13  N1  UNL A   1      12.701  49.106  10.556  1.00  0.00    +0.000 N 
ATOM     93  H8  UNL A   1      12.140  48.300  10.491  1.00  0.00    +0.000 H 
BRANCH   13   11
ATOM     11  C9  UNL A   1      14.020  48.934  10.195  1.00  0.00    +0.000 C 
ATOM     12  O3  UNL A   1      14.594  47.942  10.652  1.00  0.00    +0.000 O 
BRANCH   11   10
ATOM      5  C3  UNL A   1      15.205  51.106   9.362  1.00  0.00    +0.000 C 
ATOM      6  C4  UNL A   1      15.820  51.796   8.303  1.00  0.00    +0.000 C 
ATOM      7  C5  UNL A   1      16.058  51.156   7.090  1.00  0.00    +0.000 C 
ATOM      8  C6  UNL A   1      15.685  49.827   6.935  1.00  0.00    +0.000 C 
ATOM      9  C7  UNL A   1      15.043  49.154   7.982  1.00  0.00    +0.000 C 
ATOM     10  C8  UNL A   1      14.755  49.789   9.209  1.00  0.00    +0.000 C 
ATOM     89  H4  UNL A   1      16.096  52.782   8.424  1.00  0.00    +0.000 H 
ATOM     90  H5  UNL A   1      16.506  51.664   6.313  1.00  0.00    +0.000 H 
ATOM     91  H6  UNL A   1      15.881  49.335   6.049  1.00  0.00    +0.000 H 
ATOM     92  H7  UNL A   1      14.773  48.166   7.852  1.00  0.00    +0.000 H 
BRANCH    5    4
ATOM      4  O2  UNL A   1      15.025  51.881  10.512  1.00  0.00    +0.000 O 
BRANCH    4    2
ATOM      2  C2  UNL A   1      15.945  51.700  11.536  1.00  0.00    +0.000 C 
ATOM      3  O1  UNL A   1      17.016  51.110  11.462  1.00  0.00    +0.000 O 
BRANCH    2    1
ATOM      1  C1  UNL A   1      15.410  52.352  12.779  1.00  0.00    +0.000 C 
ATOM     86  H1  UNL A   1      14.396  52.651  12.617  1.00  0.00    +0.000 H 
ATOM     87  H2  UNL A   1      16.002  53.212  13.013  1.00  0.00    +0.000 H 
ATOM     88  H3  UNL A   1      15.453  51.658  13.592  1.00  0.00    +0.000 H 
ENDBRANCH    2    1
ENDBRANCH    4    2
ENDBRANCH    5    4
ENDBRANCH   11   10
ENDBRANCH   13   11
ENDBRANCH   14   13
ENDBRANCH   15   14
ENDBRANCH   16   15
ENDBRANCH   17   16
ENDBRANCH   18   17
ENDBRANCH   19   18
ENDBRANCH   20   19
ENDBRANCH   21   20
ENDBRANCH   23   21
ENDBRANCH   27   26
BRANCH   31   32
ATOM     33  C26 UNL A   1      10.707  47.883   4.655  1.00  0.00    +0.000 C 
ATOM     34  F1  UNL A   1      10.087  48.754   3.844  1.00  0.00    +0.000 F 
ATOM     35  C27 UNL A   1       9.947  46.906   5.293  1.00  0.00    +0.000 C 
ATOM     36  F2  UNL A   1       8.622  46.858   5.100  1.00  0.00    +0.000 F 
ATOM     37  C28 UNL A   1      10.558  45.988   6.134  1.00  0.00    +0.000 C 
ATOM     38  F3  UNL A   1       9.828  45.040   6.737  1.00  0.00    +0.000 F 
ATOM     39  C29 UNL A   1      11.925  46.057   6.354  1.00  0.00    +0.000 C 
ATOM     40  F4  UNL A   1      12.520  45.161   7.155  1.00  0.00    +0.000 F 
ATOM     41  C30 UNL A   1      12.682  47.054   5.744  1.00  0.00    +0.000 C 
ATOM     42  F5  UNL A   1      14.000  47.101   5.988  1.00  0.00    +0.000 F 
ATOM     32  C25 UNL A   1      12.089  47.985   4.878  1.00  0.00    +0.000 C 
ENDBRANCH   31   32
BRANCH   48   49
ATOM     49  C36 UNL A   1      16.398  48.368  -0.888  1.00  0.00    +0.000 C 
ATOM     50  C37 UNL A   1      17.641  47.721  -0.843  1.00  0.00    +0.000 C 
ATOM     51  F6  UNL A   1      18.478  47.937   0.182  1.00  0.00    +0.000 F 
ATOM     52  C38 UNL A   1      18.047  46.878  -1.876  1.00  0.00    +0.000 C 
ATOM     53  F7  UNL A   1      19.261  46.312  -1.837  1.00  0.00    +0.000 F 
ATOM     54  C39 UNL A   1      17.203  46.636  -2.950  1.00  0.00    +0.000 C 
ATOM     55  F8  UNL A   1      17.593  45.818  -3.937  1.00  0.00    +0.000 F 
ATOM     56  C40 UNL A   1      15.961  47.247  -3.004  1.00  0.00    +0.000 C 
ATOM     57  F9  UNL A   1      15.137  47.001  -4.032  1.00  0.00    +0.000 F 
ATOM     58  C41 UNL A   1      15.567  48.117  -1.991  1.00  0.00    +0.000 C 
ATOM     59  F10 UNL A   1      14.364  48.706  -2.080  1.00  0.00    +0.000 F 
ENDBRANCH   48   49
BRANCH   63   64
ATOM     65  C46 UNL A   1      17.335  55.652  -0.628  1.00  0.00    +0.000 C 
ATOM     66  F11 UNL A   1      16.195  55.296  -1.238  1.00  0.00    +0.000 F 
ATOM     67  C47 UNL A   1      18.170  56.577  -1.252  1.00  0.00    +0.000 C 
ATOM     68  F12 UNL A   1      17.830  57.086  -2.445  1.00  0.00    +0.000 F 
ATOM     69  C48 UNL A   1      19.362  56.954  -0.653  1.00  0.00    +0.000 C 
ATOM     70  F13 UNL A   1      20.165  57.842  -1.253  1.00  0.00    +0.000 F 
ATOM     71  C49 UNL A   1      19.726  56.399   0.565  1.00  0.00    +0.000 C 
ATOM     72  F14 UNL A   1      20.869  56.772   1.156  1.00  0.00    +0.000 F 
ATOM     73  C50 UNL A   1      18.908  55.448   1.173  1.00  0.00    +0.000 C 
ATOM     74  F15 UNL A   1      19.298  54.914   2.339  1.00  0.00    +0.000 F 
ATOM     64  C45 UNL A   1      17.694  55.055   0.589  1.00  0.00    +0.000 C 
ENDBRANCH   63   64
TORSDOF 18
ENDMDL
MODEL 8
REMARK VINA RESULT:      -9.0      2.818      4.180
ROOT
ATOM     27  C21 UNL A   1      24.518  38.334  48.615  1.00  0.00    +0.000 C 
ATOM     28  C22 UNL A   1      25.798  39.110  48.447  1.00  0.00    +0.000 C 
ATOM     29  N3  UNL A   1      26.860  38.817  47.739  1.00  0.00    +0.000 N 
ATOM     30  C23 UNL A   1      27.732  39.885  47.902  1.00  0.00    +0.000 C 
ATOM     31  C24 UNL A   1      28.994  40.028  47.430  1.00  0.00    +0.000 C 
ATOM     43  C31 UNL A   1      29.676  39.046  46.628  1.00  0.00    +0.000 C 
ATOM     44  C32 UNL A   1      30.971  39.077  46.143  1.00  0.00    +0.000 C 
ATOM     45  C33 UNL A   1      31.176  37.932  45.366  1.00  0.00    +0.000 C 
ATOM     46  C34 UNL A   1      30.030  37.156  45.421  1.00  0.00    +0.000 C 
ATOM     47  N4  UNL A   1      29.115  37.855  46.191  1.00  0.00    +0.000 N 
ATOM     48  C35 UNL A   1      29.788  35.872  44.814  1.00  0.00    +0.000 C 
ATOM     60  C42 UNL A   1      28.632  35.172  44.920  1.00  0.00    +0.000 C 
ATOM     61  N5  UNL A   1      27.471  35.499  45.608  1.00  0.00    +0.000 N 
ATOM     62  C43 UNL A   1      26.634  34.512  45.393  1.00  0.00    +0.000 C 
ATOM     63  C44 UNL A   1      25.238  34.316  45.924  1.00  0.00    +0.000 C 
ATOM     75  C51 UNL A   1      24.710  35.246  46.744  1.00  0.00    +0.000 C 
ATOM     76  C52 UNL A   1      23.378  35.190  47.338  1.00  0.00    +0.000 C 
ATOM     77  C53 UNL A   1      23.170  36.309  48.051  1.00  0.00    +0.000 C 
ATOM     78  C54 UNL A   1      24.371  37.142  48.001  1.00  0.00    +0.000 C 
ATOM     79  N6  UNL A   1      25.236  36.428  47.208  1.00  0.00    +0.000 N 
ATOM     80  C55 UNL A   1      27.162  33.462  44.512  1.00  0.00    +0.000 C 
ATOM     81  C56 UNL A   1      28.398  33.887  44.294  1.00  0.00    +0.000 C 
ATOM     82  C57 UNL A   1      27.054  40.862  48.725  1.00  0.00    +0.000 C 
ATOM     83  C58 UNL A   1      25.886  40.401  49.148  1.00  0.00    +0.000 C 
ATOM    109  H24 UNL A   1      31.667  39.818  46.323  1.00  0.00    +0.000 H 
ATOM    110  H25 UNL A   1      32.035  37.705  44.842  1.00  0.00    +0.000 H 
ATOM    111  H26 UNL A   1      28.201  37.551  46.398  1.00  0.00    +0.000 H 
ATOM    112  H27 UNL A   1      22.705  34.416  47.229  1.00  0.00    +0.000 H 
ATOM    113  H28 UNL A   1      22.300  36.543  48.554  1.00  0.00    +0.000 H 
ATOM    114  H29 UNL A   1      26.146  36.734  46.992  1.00  0.00    +0.000 H 
ATOM    115  H30 UNL A   1      26.693  32.614  44.157  1.00  0.00    +0.000 H 
ATOM    116  H31 UNL A   1      29.104  33.369  43.747  1.00  0.00    +0.000 H 
ATOM    117  H32 UNL A   1      27.431  41.795  48.955  1.00  0.00    +0.000 H 
ATOM    118  H33 UNL A   1      25.213  40.834  49.800  1.00  0.00    +0.000 H 
ENDROOT
BRANCH   27   26
ATOM    107  H22 UNL A   1      22.037  38.831  52.489  1.00  0.00    +0.000 H 
ATOM    108  H23 UNL A   1      23.949  38.003  51.247  1.00  0.00    +0.000 H 
ATOM     84  C59 UNL A   1      22.469  39.761  48.807  1.00  0.00    +0.000 C 
ATOM     85  C60 UNL A   1      21.429  40.319  49.550  1.00  0.00    +0.000 C 
ATOM    120  H35 UNL A   1      20.807  41.021  49.119  1.00  0.00    +0.000 H 
ATOM     23  C17 UNL A   1      21.227  39.929  50.877  1.00  0.00    +0.000 C 
ATOM     24  C18 UNL A   1      22.156  39.088  51.496  1.00  0.00    +0.000 C 
ATOM     25  C19 UNL A   1      23.248  38.595  50.774  1.00  0.00    +0.000 C 
ATOM    119  H34 UNL A   1      22.559  39.985  47.803  1.00  0.00    +0.000 H 
ATOM     26  C20 UNL A   1      23.396  38.899  49.411  1.00  0.00    +0.000 C 
BRANCH   23   21
ATOM     21  C16 UNL A   1      20.072  40.419  51.670  1.00  0.00    +0.000 C 
ATOM     22  O4  UNL A   1      20.055  41.586  52.050  1.00  0.00    +0.000 O 
BRANCH   21   20
ATOM    106  H21 UNL A   1      18.803  39.568  52.959  1.00  0.00    +0.000 H 
ATOM     20  N2  UNL A   1      19.033  39.584  52.002  1.00  0.00    +0.000 N 
BRANCH   20   19
ATOM    105  H20 UNL A   1      18.210  39.149  50.182  1.00  0.00    +0.000 H 
ATOM     19  C15 UNL A   1      18.220  38.722  51.164  1.00  0.00    +0.000 C 
ATOM    104  H19 UNL A   1      17.238  38.664  51.585  1.00  0.00    +0.000 H 
BRANCH   19   18
ATOM     18  C14 UNL A   1      18.779  37.310  51.039  1.00  0.00    +0.000 C 
ATOM    102  H17 UNL A   1      19.441  37.150  51.864  1.00  0.00    +0.000 H 
ATOM    103  H18 UNL A   1      17.922  36.668  51.024  1.00  0.00    +0.000 H 
BRANCH   18   17
ATOM     17  C13 UNL A   1      19.547  36.986  49.757  1.00  0.00    +0.000 C 
ATOM    100  H15 UNL A   1      20.573  37.238  49.924  1.00  0.00    +0.000 H 
ATOM    101  H16 UNL A   1      19.358  35.947  49.578  1.00  0.00    +0.000 H 
BRANCH   17   16
ATOM     98  H13 UNL A   1      18.052  37.517  48.356  1.00  0.00    +0.000 H 
ATOM     99  H14 UNL A   1      19.382  38.718  48.616  1.00  0.00    +0.000 H 
ATOM     16  C12 UNL A   1      19.101  37.695  48.472  1.00  0.00    +0.000 C 
BRANCH   16   15
ATOM     97  H12 UNL A   1      20.226  36.335  47.359  1.00  0.00    +0.000 H 
ATOM     15  C11 UNL A   1      19.781  37.288  47.160  1.00  0.00    +0.000 C 
ATOM     96  H11 UNL A   1      20.474  38.061  46.901  1.00  0.00    +0.000 H 
BRANCH   15   14
ATOM     94  H9  UNL A   1      17.863  37.173  46.286  1.00  0.00    +0.000 H 
ATOM     14  C10 UNL A   1      18.874  37.060  45.956  1.00  0.00    +0.000 C 
ATOM     95  H10 UNL A   1      19.184  37.779  45.226  1.00  0.00    +0.000 H 
BRANCH   14   13
ATOM     13  N1  UNL A   1      18.985  35.780  45.306  1.00  0.00    +0.000 N 
ATOM     93  H8  UNL A   1      19.887  35.548  44.988  1.00  0.00    +0.000 H 
BRANCH   13   11
ATOM     11  C9  UNL A   1      18.016  34.830  45.065  1.00  0.00    +0.000 C 
ATOM     12  O3  UNL A   1      16.842  35.202  45.149  1.00  0.00    +0.000 O 
BRANCH   11   10
ATOM      5  C3  UNL A   1      17.989  32.855  43.358  1.00  0.00    +0.000 C 
ATOM      6  C4  UNL A   1      18.247  31.497  43.105  1.00  0.00    +0.000 C 
ATOM      7  C5  UNL A   1      18.871  30.707  44.066  1.00  0.00    +0.000 C 
ATOM      8  C6  UNL A   1      19.240  31.273  45.280  1.00  0.00    +0.000 C 
ATOM      9  C7  UNL A   1      18.952  32.619  45.540  1.00  0.00    +0.000 C 
ATOM     10  C8  UNL A   1      18.286  33.433  44.598  1.00  0.00    +0.000 C 
ATOM     89  H4  UNL A   1      17.973  31.082  42.201  1.00  0.00    +0.000 H 
ATOM     90  H5  UNL A   1      19.056  29.709  43.880  1.00  0.00    +0.000 H 
ATOM     91  H6  UNL A   1      19.727  30.704  45.989  1.00  0.00    +0.000 H 
ATOM     92  H7  UNL A   1      19.233  33.026  46.446  1.00  0.00    +0.000 H 
BRANCH    5    4
ATOM      4  O2  UNL A   1      17.352  33.515  42.303  1.00  0.00    +0.000 O 
BRANCH    4    2
ATOM      2  C2  UNL A   1      16.023  33.184  42.074  1.00  0.00    +0.000 C 
ATOM      3  O1  UNL A   1      15.125  33.141  42.906  1.00  0.00    +0.000 O 
BRANCH    2    1
ATOM      1  C1  UNL A   1      15.853  32.876  40.614  1.00  0.00    +0.000 C 
ATOM     86  H1  UNL A   1      15.463  31.887  40.501  1.00  0.00    +0.000 H 
ATOM     87  H2  UNL A   1      16.800  32.944  40.123  1.00  0.00    +0.000 H 
ATOM     88  H3  UNL A   1      15.175  33.579  40.178  1.00  0.00    +0.000 H 
ENDBRANCH    2    1
ENDBRANCH    4    2
ENDBRANCH    5    4
ENDBRANCH   11   10
ENDBRANCH   13   11
ENDBRANCH   14   13
ENDBRANCH   15   14
ENDBRANCH   16   15
ENDBRANCH   17   16
ENDBRANCH   18   17
ENDBRANCH   19   18
ENDBRANCH   20   19
ENDBRANCH   21   20
ENDBRANCH   23   21
ENDBRANCH   27   26
BRANCH   31   32
ATOM     33  C26 UNL A   1      29.531  42.479  47.044  1.00  0.00    +0.000 C 
ATOM     34  F1  UNL A   1      28.716  42.489  45.978  1.00  0.00    +0.000 F 
ATOM     35  C27 UNL A   1      30.197  43.653  47.388  1.00  0.00    +0.000 C 
ATOM     36  F2  UNL A   1      30.027  44.759  46.650  1.00  0.00    +0.000 F 
ATOM     37  C28 UNL A   1      31.042  43.677  48.486  1.00  0.00    +0.000 C 
ATOM     38  F3  UNL A   1      31.673  44.810  48.825  1.00  0.00    +0.000 F 
ATOM     39  C29 UNL A   1      31.239  42.524  49.231  1.00  0.00    +0.000 C 
ATOM     40  F4  UNL A   1      32.044  42.549  50.303  1.00  0.00    +0.000 F 
ATOM     41  C30 UNL A   1      30.600  41.341  48.870  1.00  0.00    +0.000 C 
ATOM     42  F5  UNL A   1      30.822  40.240  49.604  1.00  0.00    +0.000 F 
ATOM     32  C25 UNL A   1      29.729  41.295  47.771  1.00  0.00    +0.000 C 
ENDBRANCH   31   32
BRANCH   48   49
ATOM     49  C36 UNL A   1      30.907  35.246  44.030  1.00  0.00    +0.000 C 
ATOM     50  C37 UNL A   1      31.807  34.346  44.617  1.00  0.00    +0.000 C 
ATOM     51  F6  UNL A   1      31.718  34.056  45.923  1.00  0.00    +0.000 F 
ATOM     52  C38 UNL A   1      32.832  33.769  43.870  1.00  0.00    +0.000 C 
ATOM     53  F7  UNL A   1      33.713  32.953  44.464  1.00  0.00    +0.000 F 
ATOM     54  C39 UNL A   1      32.951  34.050  42.516  1.00  0.00    +0.000 C 
ATOM     55  F8  UNL A   1      33.932  33.487  41.799  1.00  0.00    +0.000 F 
ATOM     56  C40 UNL A   1      32.058  34.919  41.910  1.00  0.00    +0.000 C 
ATOM     57  F9  UNL A   1      32.160  35.178  40.600  1.00  0.00    +0.000 F 
ATOM     58  C41 UNL A   1      31.055  35.524  42.662  1.00  0.00    +0.000 C 
ATOM     59  F10 UNL A   1      30.215  36.373  42.049  1.00  0.00    +0.000 F 
ENDBRANCH   48   49
BRANCH   63   64
ATOM     65  C46 UNL A   1      23.494  33.148  44.536  1.00  0.00    +0.000 C 
ATOM     66  F11 UNL A   1      23.278  34.290  43.868  1.00  0.00    +0.000 F 
ATOM     67  C47 UNL A   1      22.716  32.033  44.231  1.00  0.00    +0.000 C 
ATOM     68  F12 UNL A   1      21.765  32.119  43.290  1.00  0.00    +0.000 F 
ATOM     69  C48 UNL A   1      22.906  30.842  44.916  1.00  0.00    +0.000 C 
ATOM     70  F13 UNL A   1      22.156  29.771  44.624  1.00  0.00    +0.000 F 
ATOM     71  C49 UNL A   1      23.867  30.768  45.912  1.00  0.00    +0.000 C 
ATOM     72  F14 UNL A   1      24.067  29.615  46.566  1.00  0.00    +0.000 F 
ATOM     73  C50 UNL A   1      24.623  31.892  46.241  1.00  0.00    +0.000 C 
ATOM     74  F15 UNL A   1      25.529  31.794  47.225  1.00  0.00    +0.000 F 
ATOM     64  C45 UNL A   1      24.453  33.106  45.560  1.00  0.00    +0.000 C 
ENDBRANCH   63   64
TORSDOF 18
ENDMDL
MODEL 9
REMARK VINA RESULT:      -8.9     33.700     40.771
ROOT
ATOM     27  C21 UNL A   1      46.465  50.847  18.000  1.00  0.00    +0.000 C 
ATOM     28  C22 UNL A   1      47.457  50.460  19.065  1.00  0.00    +0.000 C 
ATOM     29  N3  UNL A   1      48.503  51.115  19.502  1.00  0.00    +0.000 N 
ATOM     30  C23 UNL A   1      49.048  50.332  20.511  1.00  0.00    +0.000 C 
ATOM     31  C24 UNL A   1      50.179  50.539  21.227  1.00  0.00    +0.000 C 
ATOM     43  C31 UNL A   1      51.050  51.673  21.058  1.00  0.00    +0.000 C 
ATOM     44  C32 UNL A   1      52.244  51.947  21.700  1.00  0.00    +0.000 C 
ATOM     45  C33 UNL A   1      52.706  53.190  21.254  1.00  0.00    +0.000 C 
ATOM     46  C34 UNL A   1      51.834  53.660  20.287  1.00  0.00    +0.000 C 
ATOM     47  N4  UNL A   1      50.817  52.724  20.181  1.00  0.00    +0.000 N 
ATOM     48  C35 UNL A   1      51.920  54.874  19.516  1.00  0.00    +0.000 C 
ATOM     60  C42 UNL A   1      51.020  55.261  18.579  1.00  0.00    +0.000 C 
ATOM     61  N5  UNL A   1      49.868  54.614  18.153  1.00  0.00    +0.000 N 
ATOM     62  C43 UNL A   1      49.331  55.394  17.246  1.00  0.00    +0.000 C 
ATOM     63  C44 UNL A   1      48.090  55.178  16.418  1.00  0.00    +0.000 C 
ATOM     75  C51 UNL A   1      47.383  54.042  16.579  1.00  0.00    +0.000 C 
ATOM     76  C52 UNL A   1      46.169  53.693  15.849  1.00  0.00    +0.000 C 
ATOM     77  C53 UNL A   1      45.706  52.518  16.306  1.00  0.00    +0.000 C 
ATOM     78  C54 UNL A   1      46.616  52.009  17.333  1.00  0.00    +0.000 C 
ATOM     79  N6  UNL A   1      47.586  52.977  17.424  1.00  0.00    +0.000 N 
ATOM     80  C55 UNL A   1      50.067  56.645  17.021  1.00  0.00    +0.000 C 
ATOM     81  C56 UNL A   1      51.113  56.491  17.820  1.00  0.00    +0.000 C 
ATOM     82  C57 UNL A   1      48.184  49.182  20.666  1.00  0.00    +0.000 C 
ATOM     83  C58 UNL A   1      47.228  49.177  19.748  1.00  0.00    +0.000 C 
ATOM    109  H24 UNL A   1      52.714  51.339  22.389  1.00  0.00    +0.000 H 
ATOM    110  H25 UNL A   1      53.553  53.674  21.590  1.00  0.00    +0.000 H 
ATOM    111  H26 UNL A   1      50.045  52.793  19.575  1.00  0.00    +0.000 H 
ATOM    112  H27 UNL A   1      45.736  54.257  15.102  1.00  0.00    +0.000 H 
ATOM    113  H28 UNL A   1      44.844  52.049  15.985  1.00  0.00    +0.000 H 
ATOM    114  H29 UNL A   1      48.354  52.913  18.036  1.00  0.00    +0.000 H 
ATOM    115  H30 UNL A   1      49.832  57.437  16.402  1.00  0.00    +0.000 H 
ATOM    116  H31 UNL A   1      51.894  57.162  17.893  1.00  0.00    +0.000 H 
ATOM    117  H32 UNL A   1      48.298  48.459  21.394  1.00  0.00    +0.000 H 
ATOM    118  H33 UNL A   1      46.511  48.460  19.561  1.00  0.00    +0.000 H 
ENDROOT
BRANCH   27   26
ATOM    107  H22 UNL A   1      44.304  47.408  15.780  1.00  0.00    +0.000 H 
ATOM    108  H23 UNL A   1      46.269  48.724  16.320  1.00  0.00    +0.000 H 
ATOM     84  C59 UNL A   1      44.079  50.193  18.389  1.00  0.00    +0.000 C 
ATOM     85  C60 UNL A   1      42.979  49.368  18.152  1.00  0.00    +0.000 C 
ATOM    120  H35 UNL A   1      42.122  49.477  18.717  1.00  0.00    +0.000 H 
ATOM     23  C17 UNL A   1      43.036  48.394  17.152  1.00  0.00    +0.000 C 
ATOM     24  C18 UNL A   1      44.244  48.156  16.489  1.00  0.00    +0.000 C 
ATOM     25  C19 UNL A   1      45.372  48.928  16.787  1.00  0.00    +0.000 C 
ATOM    119  H34 UNL A   1      44.001  50.968  19.066  1.00  0.00    +0.000 H 
ATOM     26  C20 UNL A   1      45.291  49.978  17.716  1.00  0.00    +0.000 C 
BRANCH   23   21
ATOM     21  C16 UNL A   1      41.857  47.567  16.797  1.00  0.00    +0.000 C 
ATOM     22  O4  UNL A   1      41.326  47.714  15.699  1.00  0.00    +0.000 O 
BRANCH   21   20
ATOM    106  H21 UNL A   1      40.472  46.906  18.079  1.00  0.00    +0.000 H 
ATOM     20  N2  UNL A   1      41.337  46.653  17.681  1.00  0.00    +0.000 N 
BRANCH   20   19
ATOM    105  H20 UNL A   1      41.034  44.696  18.190  1.00  0.00    +0.000 H 
ATOM     19  C15 UNL A   1      41.861  45.373  18.121  1.00  0.00    +0.000 C 
ATOM    104  H19 UNL A   1      42.347  45.510  19.064  1.00  0.00    +0.000 H 
BRANCH   19   18
ATOM     18  C14 UNL A   1      42.861  44.769  17.143  1.00  0.00    +0.000 C 
ATOM    102  H17 UNL A   1      42.512  43.791  16.886  1.00  0.00    +0.000 H 
ATOM    103  H18 UNL A   1      42.905  45.457  16.324  1.00  0.00    +0.000 H 
BRANCH   18   17
ATOM     17  C13 UNL A   1      44.304  44.634  17.631  1.00  0.00    +0.000 C 
ATOM    100  H15 UNL A   1      44.448  43.617  17.932  1.00  0.00    +0.000 H 
ATOM    101  H16 UNL A   1      44.905  44.954  16.806  1.00  0.00    +0.000 H 
BRANCH   17   16
ATOM     98  H13 UNL A   1      44.323  46.499  18.632  1.00  0.00    +0.000 H 
ATOM     99  H14 UNL A   1      44.378  45.020  19.675  1.00  0.00    +0.000 H 
ATOM     16  C12 UNL A   1      44.736  45.526  18.802  1.00  0.00    +0.000 C 
BRANCH   16   15
ATOM     97  H12 UNL A   1      46.315  46.494  19.765  1.00  0.00    +0.000 H 
ATOM     15  C11 UNL A   1      46.239  45.704  19.047  1.00  0.00    +0.000 C 
ATOM     96  H11 UNL A   1      46.698  45.909  18.102  1.00  0.00    +0.000 H 
BRANCH   15   14
ATOM     94  H9  UNL A   1      46.984  43.730  18.956  1.00  0.00    +0.000 H 
ATOM     14  C10 UNL A   1      46.977  44.526  19.671  1.00  0.00    +0.000 C 
ATOM     95  H10 UNL A   1      47.948  44.900  19.925  1.00  0.00    +0.000 H 
BRANCH   14   13
ATOM     13  N1  UNL A   1      46.431  44.009  20.899  1.00  0.00    +0.000 N 
ATOM     93  H8  UNL A   1      46.654  44.525  21.708  1.00  0.00    +0.000 H 
BRANCH   13   11
ATOM     11  C9  UNL A   1      45.642  42.899  21.111  1.00  0.00    +0.000 C 
ATOM     12  O3  UNL A   1      46.172  41.799  20.931  1.00  0.00    +0.000 O 
BRANCH   11   10
ATOM      5  C3  UNL A   1      43.824  43.153  22.967  1.00  0.00    +0.000 C 
ATOM      6  C4  UNL A   1      42.465  43.081  23.321  1.00  0.00    +0.000 C 
ATOM      7  C5  UNL A   1      41.495  42.857  22.349  1.00  0.00    +0.000 C 
ATOM      8  C6  UNL A   1      41.880  42.706  21.022  1.00  0.00    +0.000 C 
ATOM      9  C7  UNL A   1      43.237  42.746  20.680  1.00  0.00    +0.000 C 
ATOM     10  C8  UNL A   1      44.245  42.934  21.650  1.00  0.00    +0.000 C 
ATOM     89  H4  UNL A   1      42.185  43.196  24.307  1.00  0.00    +0.000 H 
ATOM     90  H5  UNL A   1      40.499  42.801  22.611  1.00  0.00    +0.000 H 
ATOM     91  H6  UNL A   1      41.166  42.566  20.290  1.00  0.00    +0.000 H 
ATOM     92  H7  UNL A   1      43.508  42.634  19.690  1.00  0.00    +0.000 H 
BRANCH    5    4
ATOM      4  O2  UNL A   1      44.679  43.375  24.051  1.00  0.00    +0.000 O 
BRANCH    4    2
ATOM      2  C2  UNL A   1      44.930  44.699  24.386  1.00  0.00    +0.000 C 
ATOM      3  O1  UNL A   1      44.805  45.675  23.657  1.00  0.00    +0.000 O 
BRANCH    2    1
ATOM      1  C1  UNL A   1      45.392  44.750  25.814  1.00  0.00    +0.000 C 
ATOM     86  H1  UNL A   1      46.133  45.514  25.922  1.00  0.00    +0.000 H 
ATOM     87  H2  UNL A   1      45.813  43.806  26.087  1.00  0.00    +0.000 H 
ATOM     88  H3  UNL A   1      44.560  44.967  26.451  1.00  0.00    +0.000 H 
ENDBRANCH    2    1
ENDBRANCH    4    2
ENDBRANCH    5    4
ENDBRANCH   11   10
ENDBRANCH   13   11
ENDBRANCH   14   13
ENDBRANCH   15   14
ENDBRANCH   16   15
ENDBRANCH   17   16
ENDBRANCH   18   17
ENDBRANCH   19   18
ENDBRANCH   20   19
ENDBRANCH   21   20
ENDBRANCH   23   21
ENDBRANCH   27   26
BRANCH   31   32
ATOM     33  C26 UNL A   1      50.139  49.635  23.599  1.00  0.00    +0.000 C 
ATOM     34  F1  UNL A   1      49.449  50.714  23.998  1.00  0.00    +0.000 F 
ATOM     35  C27 UNL A   1      50.465  48.663  24.542  1.00  0.00    +0.000 C 
ATOM     36  F2  UNL A   1      50.101  48.825  25.821  1.00  0.00    +0.000 F 
ATOM     37  C28 UNL A   1      51.172  47.534  24.161  1.00  0.00    +0.000 C 
ATOM     38  F3  UNL A   1      51.475  46.593  25.066  1.00  0.00    +0.000 F 
ATOM     39  C29 UNL A   1      51.573  47.383  22.841  1.00  0.00    +0.000 C 
ATOM     40  F4  UNL A   1      52.244  46.283  22.468  1.00  0.00    +0.000 F 
ATOM     41  C30 UNL A   1      51.277  48.368  21.904  1.00  0.00    +0.000 C 
ATOM     42  F5  UNL A   1      51.690  48.197  20.639  1.00  0.00    +0.000 F 
ATOM     32  C25 UNL A   1      50.550  49.513  22.262  1.00  0.00    +0.000 C 
ENDBRANCH   31   32
BRANCH   48   49
ATOM     49  C36 UNL A   1      53.109  55.764  19.743  1.00  0.00    +0.000 C 
ATOM     50  C37 UNL A   1      53.093  56.790  20.699  1.00  0.00    +0.000 C 
ATOM     51  F6  UNL A   1      51.981  57.035  21.408  1.00  0.00    +0.000 F 
ATOM     52  C38 UNL A   1      54.210  57.597  20.902  1.00  0.00    +0.000 C 
ATOM     53  F7  UNL A   1      54.154  58.606  21.783  1.00  0.00    +0.000 F 
ATOM     54  C39 UNL A   1      55.375  57.369  20.183  1.00  0.00    +0.000 C 
ATOM     55  F8  UNL A   1      56.450  58.141  20.386  1.00  0.00    +0.000 F 
ATOM     56  C40 UNL A   1      55.420  56.346  19.249  1.00  0.00    +0.000 C 
ATOM     57  F9  UNL A   1      56.549  56.112  18.567  1.00  0.00    +0.000 F 
ATOM     58  C41 UNL A   1      54.295  55.560  19.020  1.00  0.00    +0.000 C 
ATOM     59  F10 UNL A   1      54.366  54.587  18.098  1.00  0.00    +0.000 F 
ENDBRANCH   48   49
BRANCH   63   64
ATOM     65  C46 UNL A   1      47.931  56.041  14.060  1.00  0.00    +0.000 C 
ATOM     66  F11 UNL A   1      48.593  54.957  13.631  1.00  0.00    +0.000 F 
ATOM     67  C47 UNL A   1      47.576  57.022  13.136  1.00  0.00    +0.000 C 
ATOM     68  F12 UNL A   1      47.907  56.874  11.845  1.00  0.00    +0.000 F 
ATOM     69  C48 UNL A   1      46.904  58.161  13.552  1.00  0.00    +0.000 C 
ATOM     70  F13 UNL A   1      46.565  59.104  12.663  1.00  0.00    +0.000 F 
ATOM     71  C49 UNL A   1      46.594  58.325  14.893  1.00  0.00    +0.000 C 
ATOM     72  F14 UNL A   1      45.930  59.416  15.299  1.00  0.00    +0.000 F 
ATOM     73  C50 UNL A   1      46.978  57.361  15.824  1.00  0.00    +0.000 C 
ATOM     74  F15 UNL A   1      46.684  57.560  17.117  1.00  0.00    +0.000 F 
ATOM     64  C45 UNL A   1      47.654  56.198  15.427  1.00  0.00    +0.000 C 
ENDBRANCH   63   64
TORSDOF 18
ENDMDL
MODEL 10
REMARK VINA RESULT:      -8.9     48.181     53.584
ROOT
ATOM     27  C21 UNL A   1      29.415 -14.410  31.556  1.00  0.00    +0.000 C 
ATOM     28  C22 UNL A   1      28.546 -13.584  30.644  1.00  0.00    +0.000 C 
ATOM     29  N3  UNL A   1      27.499 -12.853  30.933  1.00  0.00    +0.000 N 
ATOM     30  C23 UNL A   1      27.097 -12.275  29.737  1.00  0.00    +0.000 C 
ATOM     31  C24 UNL A   1      26.019 -11.490  29.494  1.00  0.00    +0.000 C 
ATOM     43  C31 UNL A   1      25.062 -11.096  30.495  1.00  0.00    +0.000 C 
ATOM     44  C32 UNL A   1      23.910 -10.345  30.339  1.00  0.00    +0.000 C 
ATOM     45  C33 UNL A   1      23.328 -10.168  31.598  1.00  0.00    +0.000 C 
ATOM     46  C34 UNL A   1      24.081 -10.864  32.529  1.00  0.00    +0.000 C 
ATOM     47  N4  UNL A   1      25.146 -11.422  31.841  1.00  0.00    +0.000 N 
ATOM     48  C35 UNL A   1      23.847 -11.008  33.944  1.00  0.00    +0.000 C 
ATOM     60  C42 UNL A   1      24.635 -11.715  34.790  1.00  0.00    +0.000 C 
ATOM     61  N5  UNL A   1      25.788 -12.437  34.514  1.00  0.00    +0.000 N 
ATOM     62  C43 UNL A   1      26.191 -12.926  35.663  1.00  0.00    +0.000 C 
ATOM     63  C44 UNL A   1      27.369 -13.819  35.957  1.00  0.00    +0.000 C 
ATOM     75  C51 UNL A   1      28.163 -14.214  34.942  1.00  0.00    +0.000 C 
ATOM     76  C52 UNL A   1      29.331 -15.078  35.072  1.00  0.00    +0.000 C 
ATOM     77  C53 UNL A   1      29.911 -15.214  33.868  1.00  0.00    +0.000 C 
ATOM     78  C54 UNL A   1      29.129 -14.481  32.872  1.00  0.00    +0.000 C 
ATOM     79  N6  UNL A   1      28.106 -13.924  33.600  1.00  0.00    +0.000 N 
ATOM     80  C55 UNL A   1      25.354 -12.535  36.805  1.00  0.00    +0.000 C 
ATOM     81  C56 UNL A   1      24.393 -11.841  36.213  1.00  0.00    +0.000 C 
ATOM     82  C57 UNL A   1      28.047 -12.688  28.728  1.00  0.00    +0.000 C 
ATOM     83  C58 UNL A   1      28.920 -13.555  29.222  1.00  0.00    +0.000 C 
ATOM    109  H24 UNL A   1      23.544  -9.977  29.446  1.00  0.00    +0.000 H 
ATOM    110  H25 UNL A   1      22.482  -9.613  31.799  1.00  0.00    +0.000 H 
ATOM    111  H26 UNL A   1      25.858 -11.968  32.246  1.00  0.00    +0.000 H 
ATOM    112  H27 UNL A   1      29.660 -15.515  35.947  1.00  0.00    +0.000 H 
ATOM    113  H28 UNL A   1      30.772 -15.750  33.677  1.00  0.00    +0.000 H 
ATOM    114  H29 UNL A   1      27.399 -13.369  33.198  1.00  0.00    +0.000 H 
ATOM    115  H30 UNL A   1      25.481 -12.747  37.807  1.00  0.00    +0.000 H 
ATOM    116  H31 UNL A   1      23.578 -11.441  36.702  1.00  0.00    +0.000 H 
ATOM    117  H32 UNL A   1      28.046 -12.354  27.751  1.00  0.00    +0.000 H 
ATOM    118  H33 UNL A   1      29.666 -14.075  28.735  1.00  0.00    +0.000 H 
ENDROOT
BRANCH   27   26
ATOM    107  H22 UNL A   1      31.560 -17.902  29.407  1.00  0.00    +0.000 H 
ATOM    108  H23 UNL A   1      29.573 -16.726  30.151  1.00  0.00    +0.000 H 
ATOM     84  C59 UNL A   1      31.890 -14.539  31.194  1.00  0.00    +0.000 C 
ATOM     85  C60 UNL A   1      33.022 -15.167  30.674  1.00  0.00    +0.000 C 
ATOM    120  H35 UNL A   1      33.940 -14.699  30.728  1.00  0.00    +0.000 H 
ATOM     23  C17 UNL A   1      32.914 -16.428  30.081  1.00  0.00    +0.000 C 
ATOM     24  C18 UNL A   1      31.650 -16.991  29.884  1.00  0.00    +0.000 C 
ATOM     25  C19 UNL A   1      30.506 -16.321  30.331  1.00  0.00    +0.000 C 
ATOM    119  H34 UNL A   1      31.989 -13.651  31.710  1.00  0.00    +0.000 H 
ATOM     26  C20 UNL A   1      30.618 -15.104  31.022  1.00  0.00    +0.000 C 
BRANCH   23   21
ATOM     21  C16 UNL A   1      34.105 -17.176  29.609  1.00  0.00    +0.000 C 
ATOM     22  O4  UNL A   1      35.078 -17.290  30.351  1.00  0.00    +0.000 O 
BRANCH   21   20
ATOM    106  H21 UNL A   1      34.005 -18.699  28.318  1.00  0.00    +0.000 H 
ATOM     20  N2  UNL A   1      34.147 -17.725  28.350  1.00  0.00    +0.000 N 
BRANCH   20   19
ATOM    105  H20 UNL A   1      33.643 -17.497  26.383  1.00  0.00    +0.000 H 
ATOM     19  C15 UNL A   1      34.367 -17.096  27.061  1.00  0.00    +0.000 C 
ATOM    104  H19 UNL A   1      35.369 -17.304  26.747  1.00  0.00    +0.000 H 
BRANCH   19   18
ATOM     18  C14 UNL A   1      34.172 -15.585  27.093  1.00  0.00    +0.000 C 
ATOM    102  H17 UNL A   1      34.394 -15.251  28.085  1.00  0.00    +0.000 H 
ATOM    103  H18 UNL A   1      34.824 -15.201  26.336  1.00  0.00    +0.000 H 
BRANCH   18   17
ATOM     17  C13 UNL A   1      32.781 -15.064  26.727  1.00  0.00    +0.000 C 
ATOM    100  H15 UNL A   1      32.742 -14.973  25.663  1.00  0.00    +0.000 H 
ATOM    101  H16 UNL A   1      32.102 -15.776  27.149  1.00  0.00    +0.000 H 
BRANCH   17   16
ATOM     98  H13 UNL A   1      31.940 -13.132  26.527  1.00  0.00    +0.000 H 
ATOM     99  H14 UNL A   1      31.682 -13.968  28.113  1.00  0.00    +0.000 H 
ATOM     16  C12 UNL A   1      32.358 -13.714  27.322  1.00  0.00    +0.000 C 
BRANCH   16   15
ATOM     97  H12 UNL A   1      34.215 -13.550  28.259  1.00  0.00    +0.000 H 
ATOM     15  C11 UNL A   1      33.439 -12.862  27.995  1.00  0.00    +0.000 C 
ATOM     96  H11 UNL A   1      32.985 -12.358  28.823  1.00  0.00    +0.000 H 
BRANCH   15   14
ATOM     94  H9  UNL A   1      35.121 -11.691  27.488  1.00  0.00    +0.000 H 
ATOM     14  C10 UNL A   1      34.119 -11.806  27.131  1.00  0.00    +0.000 C 
ATOM     95  H10 UNL A   1      34.046 -12.170  26.127  1.00  0.00    +0.000 H 
BRANCH   14   13
ATOM     13  N1  UNL A   1      33.505 -10.503  27.114  1.00  0.00    +0.000 N 
ATOM     93  H8  UNL A   1      33.933  -9.831  27.692  1.00  0.00    +0.000 H 
BRANCH   13   11
ATOM     11  C9  UNL A   1      32.409 -10.058  26.408  1.00  0.00    +0.000 C 
ATOM     12  O3  UNL A   1      32.123 -10.677  25.379  1.00  0.00    +0.000 O 
BRANCH   11   10
ATOM      5  C3  UNL A   1      31.408  -8.358  28.118  1.00  0.00    +0.000 C 
ATOM      6  C4  UNL A   1      30.427  -7.391  28.401  1.00  0.00    +0.000 C 
ATOM      7  C5  UNL A   1      29.549  -6.967  27.408  1.00  0.00    +0.000 C 
ATOM      8  C6  UNL A   1      29.651  -7.505  26.131  1.00  0.00    +0.000 C 
ATOM      9  C7  UNL A   1      30.608  -8.491  25.863  1.00  0.00    +0.000 C 
ATOM     10  C8  UNL A   1      31.486  -8.968  26.860  1.00  0.00    +0.000 C 
ATOM     89  H4  UNL A   1      30.357  -6.994  29.350  1.00  0.00    +0.000 H 
ATOM     90  H5  UNL A   1      28.828  -6.260  27.618  1.00  0.00    +0.000 H 
ATOM     91  H6  UNL A   1      29.023  -7.178  25.380  1.00  0.00    +0.000 H 
ATOM     92  H7  UNL A   1      30.673  -8.881  24.909  1.00  0.00    +0.000 H 
BRANCH    5    4
ATOM      4  O2  UNL A   1      32.208  -8.689  29.215  1.00  0.00    +0.000 O 
BRANCH    4    2
ATOM      2  C2  UNL A   1      31.556  -9.192  30.333  1.00  0.00    +0.000 C 
ATOM      3  O1  UNL A   1      31.355  -8.606  31.390  1.00  0.00    +0.000 O 
BRANCH    2    1
ATOM      1  C1  UNL A   1      31.126 -10.601  30.040  1.00  0.00    +0.000 C 
ATOM     86  H1  UNL A   1      31.689 -10.982  29.215  1.00  0.00    +0.000 H 
ATOM     87  H2  UNL A   1      30.084 -10.612  29.795  1.00  0.00    +0.000 H 
ATOM     88  H3  UNL A   1      31.296 -11.212  30.902  1.00  0.00    +0.000 H 
ENDBRANCH    2    1
ENDBRANCH    4    2
ENDBRANCH    5    4
ENDBRANCH   11   10
ENDBRANCH   13   11
ENDBRANCH   14   13
ENDBRANCH   15   14
ENDBRANCH   16   15
ENDBRANCH   17   16
ENDBRANCH   18   17
ENDBRANCH   19   18
ENDBRANCH   20   19
ENDBRANCH   21   20
ENDBRANCH   23   21
ENDBRANCH   27   26
BRANCH   31   32
ATOM     33  C26 UNL A   1      25.037 -11.730  27.166  1.00  0.00    +0.000 C 
ATOM     34  F1  UNL A   1      24.515 -12.917  27.508  1.00  0.00    +0.000 F 
ATOM     35  C27 UNL A   1      24.827 -11.254  25.873  1.00  0.00    +0.000 C 
ATOM     36  F2  UNL A   1      24.126 -11.987  24.998  1.00  0.00    +0.000 F 
ATOM     37  C28 UNL A   1      25.350 -10.029  25.489  1.00  0.00    +0.000 C 
ATOM     38  F3  UNL A   1      25.136  -9.566  24.250  1.00  0.00    +0.000 F 
ATOM     39  C29 UNL A   1      26.100  -9.286  26.388  1.00  0.00    +0.000 C 
ATOM     40  F4  UNL A   1      26.593  -8.094  26.023  1.00  0.00    +0.000 F 
ATOM     41  C30 UNL A   1      26.339  -9.774  27.670  1.00  0.00    +0.000 C 
ATOM     42  F5  UNL A   1      27.079  -9.036  28.511  1.00  0.00    +0.000 F 
ATOM     32  C25 UNL A   1      25.809 -11.004  28.087  1.00  0.00    +0.000 C 
ENDBRANCH   31   32
BRANCH   48   49
ATOM     49  C36 UNL A   1      22.623 -10.353  34.520  1.00  0.00    +0.000 C 
ATOM     50  C37 UNL A   1      22.681  -9.099  35.144  1.00  0.00    +0.000 C 
ATOM     51  F6  UNL A   1      23.855  -8.468  35.286  1.00  0.00    +0.000 F 
ATOM     52  C38 UNL A   1      21.532  -8.504  35.663  1.00  0.00    +0.000 C 
ATOM     53  F7  UNL A   1      21.619  -7.330  36.302  1.00  0.00    +0.000 F 
ATOM     54  C39 UNL A   1      20.302  -9.133  35.532  1.00  0.00    +0.000 C 
ATOM     55  F8  UNL A   1      19.199  -8.555  36.024  1.00  0.00    +0.000 F 
ATOM     56  C40 UNL A   1      20.219 -10.363  34.899  1.00  0.00    +0.000 C 
ATOM     57  F9  UNL A   1      19.030 -10.964  34.757  1.00  0.00    +0.000 F 
ATOM     58  C41 UNL A   1      21.370 -10.975  34.411  1.00  0.00    +0.000 C 
ATOM     59  F10 UNL A   1      21.258 -12.174  33.817  1.00  0.00    +0.000 F 
ENDBRANCH   48   49
BRANCH   63   64
ATOM     65  C46 UNL A   1      28.704 -13.719  38.087  1.00  0.00    +0.000 C 
ATOM     66  F11 UNL A   1      29.477 -12.767  37.544  1.00  0.00    +0.000 F 
ATOM     67  C47 UNL A   1      29.005 -14.181  39.367  1.00  0.00    +0.000 C 
ATOM     68  F12 UNL A   1      30.058 -13.679  40.028  1.00  0.00    +0.000 F 
ATOM     69  C48 UNL A   1      28.233 -15.175  39.949  1.00  0.00    +0.000 C 
ATOM     70  F13 UNL A   1      28.524 -15.620  41.178  1.00  0.00    +0.000 F 
ATOM     71  C49 UNL A   1      27.166 -15.715  39.248  1.00  0.00    +0.000 C 
ATOM     72  F14 UNL A   1      26.406 -16.665  39.811  1.00  0.00    +0.000 F 
ATOM     73  C50 UNL A   1      26.885 -15.279  37.954  1.00  0.00    +0.000 C 
ATOM     74  F15 UNL A   1      25.860 -15.837  37.294  1.00  0.00    +0.000 F 
ATOM     64  C45 UNL A   1      27.648 -14.271  37.347  1.00  0.00    +0.000 C 
ENDBRANCH   63   64
TORSDOF 18
ENDMDL
