MODEL 1
REMARK VINA RESULT:      -8.8      0.000      0.000
ROOT
ATOM    136  H38 UNL A   1      19.025  53.253  -1.677  1.00  0.00    +0.000 H 
ATOM    137  H39 UNL A   1      18.512  50.752  -2.210  1.00  0.00    +0.000 H 
ATOM    138  H40 UNL A   1      16.235  51.879   1.059  1.00  0.00    +0.000 H 
ATOM    139  H41 UNL A   1      12.135  50.364   5.710  1.00  0.00    +0.000 H 
ATOM    140  H42 UNL A   1      12.615  52.808   6.208  1.00  0.00    +0.000 H 
ATOM    141  H43 UNL A   1      14.891  51.712   2.905  1.00  0.00    +0.000 H 
ATOM    142  H44 UNL A   1      13.719  46.918   1.946  1.00  0.00    +0.000 H 
ATOM    143  H45 UNL A   1      15.450  47.008   0.063  1.00  0.00    +0.000 H 
ATOM    144  H46 UNL A   1      17.131  56.732   1.943  1.00  0.00    +0.000 H 
ATOM    145  H47 UNL A   1      15.767  56.545   4.103  1.00  0.00    +0.000 H 
ATOM     38  C32 UNL A   1      14.497  54.017   4.439  1.00  0.00    +0.000 C 
ATOM     39  C33 UNL A   1      15.461  54.424   3.360  1.00  0.00    +0.000 C 
ATOM     40  N3  UNL A   1      15.924  53.723   2.356  1.00  0.00    +0.000 N 
ATOM     41  C34 UNL A   1      16.738  54.587   1.636  1.00  0.00    +0.000 C 
ATOM     42  C35 UNL A   1      17.487  54.324   0.538  1.00  0.00    +0.000 C 
ATOM     54  C42 UNL A   1      17.581  53.033  -0.090  1.00  0.00    +0.000 C 
ATOM     55  C43 UNL A   1      18.361  52.650  -1.167  1.00  0.00    +0.000 C 
ATOM     56  C44 UNL A   1      18.096  51.304  -1.444  1.00  0.00    +0.000 C 
ATOM     57  C45 UNL A   1      17.180  50.839  -0.515  1.00  0.00    +0.000 C 
ATOM     58  N4  UNL A   1      16.868  51.910   0.306  1.00  0.00    +0.000 N 
ATOM     59  C46 UNL A   1      16.629  49.514  -0.383  1.00  0.00    +0.000 C 
ATOM     71  C53 UNL A   1      15.733  49.134   0.559  1.00  0.00    +0.000 C 
ATOM     72  N5  UNL A   1      15.164  49.887   1.576  1.00  0.00    +0.000 N 
ATOM     73  C54 UNL A   1      14.354  49.079   2.213  1.00  0.00    +0.000 C 
ATOM     74  C55 UNL A   1      13.496  49.350   3.418  1.00  0.00    +0.000 C 
ATOM     86  C62 UNL A   1      13.538  50.565   3.996  1.00  0.00    +0.000 C 
ATOM     87  C63 UNL A   1      12.774  50.971   5.172  1.00  0.00    +0.000 C 
ATOM     88  C64 UNL A   1      13.035  52.260   5.441  1.00  0.00    +0.000 C 
ATOM     89  C65 UNL A   1      14.009  52.762   4.472  1.00  0.00    +0.000 C 
ATOM     90  N6  UNL A   1      14.258  51.685   3.659  1.00  0.00    +0.000 N 
ATOM     91  C66 UNL A   1      14.298  47.721   1.653  1.00  0.00    +0.000 C 
ATOM     92  C67 UNL A   1      15.184  47.798   0.670  1.00  0.00    +0.000 C 
ATOM     93  C68 UNL A   1      16.672  55.875   2.291  1.00  0.00    +0.000 C 
ATOM     94  C69 UNL A   1      15.946  55.812   3.398  1.00  0.00    +0.000 C 
ENDROOT
BRANCH   38   37
ATOM     34  C28 UNL A   1      13.185  56.920   7.311  1.00  0.00    +0.000 C 
ATOM     35  C29 UNL A   1      12.423  56.692   6.160  1.00  0.00    +0.000 C 
ATOM     36  C30 UNL A   1      12.834  55.732   5.231  1.00  0.00    +0.000 C 
ATOM     37  C31 UNL A   1      14.023  55.014   5.433  1.00  0.00    +0.000 C 
ATOM    134  H36 UNL A   1      11.560  57.233   5.997  1.00  0.00    +0.000 H 
ATOM    135  H37 UNL A   1      12.260  55.550   4.394  1.00  0.00    +0.000 H 
ATOM    146  H48 UNL A   1      15.651  54.723   6.752  1.00  0.00    +0.000 H 
ATOM    147  H49 UNL A   1      14.845  56.265   8.439  1.00  0.00    +0.000 H 
ATOM     95  C70 UNL A   1      14.770  55.238   6.600  1.00  0.00    +0.000 C 
ATOM     96  C71 UNL A   1      14.328  56.153   7.554  1.00  0.00    +0.000 C 
BRANCH   34   32
ATOM     33  O3  UNL A   1      13.132  59.079   8.215  1.00  0.00    +0.000 O 
ATOM     32  C27 UNL A   1      12.717  57.934   8.286  1.00  0.00    +0.000 C 
BRANCH   32   31
ATOM    133  H35 UNL A   1      11.706  58.243   9.989  1.00  0.00    +0.000 H 
ATOM     31  N2  UNL A   1      11.809  57.590   9.260  1.00  0.00    +0.000 N 
BRANCH   31   30
ATOM    131  H33 UNL A   1      10.015  56.685   9.731  1.00  0.00    +0.000 H 
ATOM    132  H34 UNL A   1      10.911  55.957   8.396  1.00  0.00    +0.000 H 
ATOM     30  C26 UNL A   1      10.981  56.401   9.367  1.00  0.00    +0.000 C 
BRANCH   30   29
ATOM    129  H31 UNL A   1      12.431  55.812  10.797  1.00  0.00    +0.000 H 
ATOM    130  H32 UNL A   1      10.804  55.099  11.001  1.00  0.00    +0.000 H 
ATOM     29  C25 UNL A   1      11.583  55.369  10.318  1.00  0.00    +0.000 C 
BRANCH   29   28
ATOM     28  C24 UNL A   1      12.040  54.067   9.649  1.00  0.00    +0.000 C 
ATOM    127  H29 UNL A   1      11.444  53.270  10.040  1.00  0.00    +0.000 H 
ATOM    128  H30 UNL A   1      11.919  54.223   8.597  1.00  0.00    +0.000 H 
BRANCH   28   27
ATOM     27  C23 UNL A   1      13.515  53.697   9.851  1.00  0.00    +0.000 C 
ATOM    125  H27 UNL A   1      13.670  52.719   9.446  1.00  0.00    +0.000 H 
ATOM    126  H28 UNL A   1      14.083  54.458   9.358  1.00  0.00    +0.000 H 
BRANCH   27   26
ATOM     26  C22 UNL A   1      13.989  53.689  11.308  1.00  0.00    +0.000 C 
ATOM    123  H25 UNL A   1      14.548  54.584  11.483  1.00  0.00    +0.000 H 
ATOM    124  H26 UNL A   1      13.112  53.622  11.917  1.00  0.00    +0.000 H 
BRANCH   26   25
ATOM     25  C21 UNL A   1      14.872  52.491  11.673  1.00  0.00    +0.000 C 
ATOM    122  H24 UNL A   1      14.482  52.050  12.566  1.00  0.00    +0.000 H 
ATOM    121  H23 UNL A   1      15.875  52.832  11.818  1.00  0.00    +0.000 H 
BRANCH   25   24
ATOM    120  H22 UNL A   1      14.247  51.676   9.891  1.00  0.00    +0.000 H 
ATOM     24  N1  UNL A   1      14.866  51.485  10.633  1.00  0.00    +0.000 N 
BRANCH   24   22
ATOM     22  C20 UNL A   1      15.559  50.321  10.493  1.00  0.00    +0.000 C 
ATOM     23  O2  UNL A   1      16.783  50.439  10.355  1.00  0.00    +0.000 O 
BRANCH   22   20
ATOM    116  H18 UNL A   1      14.796  48.679  11.524  1.00  0.00    +0.000 H 
ATOM     20  C18 UNL A   1      14.913  48.924  10.490  1.00  0.00    +0.000 C 
BRANCH   20   19
ATOM      7  C6  UNL A   1      12.367  48.595  10.721  1.00  0.00    +0.000 C 
ATOM      8  C7  UNL A   1      11.073  48.715  10.168  1.00  0.00    +0.000 C 
ATOM      9  C8  UNL A   1      10.876  49.058   8.826  1.00  0.00    +0.000 C 
ATOM    104  H6  UNL A   1      10.252  48.547  10.771  1.00  0.00    +0.000 H 
ATOM     17  C15 UNL A   1      11.988  49.334   8.038  1.00  0.00    +0.000 C 
ATOM     18  C16 UNL A   1      13.270  49.253   8.578  1.00  0.00    +0.000 C 
ATOM     19  C17 UNL A   1      13.492  48.924   9.926  1.00  0.00    +0.000 C 
ATOM    115  H17 UNL A   1      14.082  49.441   7.969  1.00  0.00    +0.000 H 
ATOM    114  H16 UNL A   1      11.864  49.600   7.049  1.00  0.00    +0.000 H 
BRANCH    7    6
ATOM     97  C72 UNL A   1      12.754  46.547  12.152  1.00  0.00    +0.000 C 
ATOM     98  C73 UNL A   1      12.804  45.958  13.425  1.00  0.00    +0.000 C 
ATOM      3  C2  UNL A   1      12.606  46.717  14.589  1.00  0.00    +0.000 C 
ATOM      4  C3  UNL A   1      12.356  48.082  14.452  1.00  0.00    +0.000 C 
ATOM      5  C4  UNL A   1      12.295  48.667  13.186  1.00  0.00    +0.000 C 
ATOM    102  H4  UNL A   1      12.214  48.665  15.293  1.00  0.00    +0.000 H 
ATOM      6  C5  UNL A   1      12.489  47.911  12.018  1.00  0.00    +0.000 C 
ATOM    103  H5  UNL A   1      12.102  49.677  13.107  1.00  0.00    +0.000 H 
ATOM    148  H50 UNL A   1      12.915  45.970  11.312  1.00  0.00    +0.000 H 
ATOM    149  H51 UNL A   1      12.990  44.946  13.507  1.00  0.00    +0.000 H 
BRANCH    3    2
ATOM      2  S1  UNL A   1      12.664  45.862  16.159  1.00  0.00    +0.000 S 
BRANCH    2    1
ATOM      1  C1  UNL A   1      11.373  46.689  17.132  1.00  0.00    +0.000 C 
ATOM     99  H1  UNL A   1      11.244  46.176  18.062  1.00  0.00    +0.000 H 
ATOM    100  H2  UNL A   1      10.453  46.676  16.587  1.00  0.00    +0.000 H 
ATOM    101  H3  UNL A   1      11.662  47.702  17.321  1.00  0.00    +0.000 H 
ENDBRANCH    2    1
ENDBRANCH    3    2
ENDBRANCH    7    6
BRANCH    9   10
ATOM    105  H7  UNL A   1       9.436  49.774   7.472  1.00  0.00    +0.000 H 
ATOM     10  C9  UNL A   1       9.505  48.992   8.198  1.00  0.00    +0.000 C 
ATOM    106  H8  UNL A   1       8.805  49.092   9.000  1.00  0.00    +0.000 H 
BRANCH   10   11
ATOM     11  C10 UNL A   1       9.172  47.665   7.502  1.00  0.00    +0.000 C 
ATOM    108  H10 UNL A   1       9.534  46.558   9.315  1.00  0.00    +0.000 H 
ATOM     12  C11 UNL A   1       9.012  46.422   8.390  1.00  0.00    +0.000 C 
ATOM    107  H9  UNL A   1      10.029  47.564   6.870  1.00  0.00    +0.000 H 
ATOM     15  C14 UNL A   1       7.831  47.717   6.804  1.00  0.00    +0.000 C 
ATOM    109  H11 UNL A   1       9.419  45.551   7.919  1.00  0.00    +0.000 H 
ATOM     13  C12 UNL A   1       7.516  46.270   8.644  1.00  0.00    +0.000 C 
ATOM     14  C13 UNL A   1       6.850  46.715   7.351  1.00  0.00    +0.000 C 
ATOM     16  O1  UNL A   1       7.577  48.474   5.874  1.00  0.00    +0.000 O 
ATOM    110  H12 UNL A   1       7.208  46.890   9.459  1.00  0.00    +0.000 H 
ATOM    111  H13 UNL A   1       7.253  45.266   8.907  1.00  0.00    +0.000 H 
ATOM    112  H14 UNL A   1       5.900  47.169   7.543  1.00  0.00    +0.000 H 
ATOM    113  H15 UNL A   1       6.645  45.909   6.678  1.00  0.00    +0.000 H 
ENDBRANCH   10   11
ENDBRANCH    9   10
ENDBRANCH   20   19
BRANCH   20   21
ATOM    117  H19 UNL A   1      15.203  46.988   9.628  1.00  0.00    +0.000 H 
ATOM     21  C19 UNL A   1      15.811  47.785  10.005  1.00  0.00    +0.000 C 
ATOM    118  H20 UNL A   1      16.403  47.426  10.820  1.00  0.00    +0.000 H 
ATOM    119  H21 UNL A   1      16.453  48.144   9.228  1.00  0.00    +0.000 H 
ENDBRANCH   20   21
ENDBRANCH   22   20
ENDBRANCH   24   22
ENDBRANCH   25   24
ENDBRANCH   26   25
ENDBRANCH   27   26
ENDBRANCH   28   27
ENDBRANCH   29   28
ENDBRANCH   30   29
ENDBRANCH   31   30
ENDBRANCH   32   31
ENDBRANCH   34   32
ENDBRANCH   38   37
BRANCH   42   43
ATOM     43  C36 UNL A   1      18.274  55.457  -0.053  1.00  0.00    +0.000 C 
ATOM     44  C37 UNL A   1      17.829  56.144  -1.192  1.00  0.00    +0.000 C 
ATOM     45  F1  UNL A   1      16.703  55.763  -1.813  1.00  0.00    +0.000 F 
ATOM     46  C38 UNL A   1      18.563  57.203  -1.723  1.00  0.00    +0.000 C 
ATOM     47  F2  UNL A   1      18.142  57.814  -2.838  1.00  0.00    +0.000 F 
ATOM     48  C39 UNL A   1      19.734  57.616  -1.105  1.00  0.00    +0.000 C 
ATOM     49  F3  UNL A   1      20.435  58.639  -1.613  1.00  0.00    +0.000 F 
ATOM     50  C40 UNL A   1      20.181  56.964   0.034  1.00  0.00    +0.000 C 
ATOM     51  F4  UNL A   1      21.307  57.370   0.638  1.00  0.00    +0.000 F 
ATOM     52  C41 UNL A   1      19.465  55.888   0.551  1.00  0.00    +0.000 C 
ATOM     53  F5  UNL A   1      19.931  55.269   1.646  1.00  0.00    +0.000 F 
ENDBRANCH   42   43
BRANCH   59   60
ATOM     65  C50 UNL A   1      18.026  46.532  -3.161  1.00  0.00    +0.000 C 
ATOM     66  F8  UNL A   1      18.463  45.603  -4.021  1.00  0.00    +0.000 F 
ATOM     67  C51 UNL A   1      18.653  46.693  -1.934  1.00  0.00    +0.000 C 
ATOM     68  F9  UNL A   1      19.709  45.930  -1.618  1.00  0.00    +0.000 F 
ATOM     69  C52 UNL A   1      18.187  47.643  -1.030  1.00  0.00    +0.000 C 
ATOM     70  F10 UNL A   1      18.806  47.768   0.153  1.00  0.00    +0.000 F 
ATOM     60  C47 UNL A   1      17.095  48.465  -1.349  1.00  0.00    +0.000 C 
ATOM     61  C48 UNL A   1      16.486  48.298  -2.601  1.00  0.00    +0.000 C 
ATOM     62  F6  UNL A   1      15.429  49.050  -2.943  1.00  0.00    +0.000 F 
ATOM     63  C49 UNL A   1      16.940  47.329  -3.491  1.00  0.00    +0.000 C 
ATOM     64  F7  UNL A   1      16.316  47.157  -4.665  1.00  0.00    +0.000 F 
ENDBRANCH   59   60
BRANCH   74   75
ATOM     75  C56 UNL A   1      12.631  48.289   3.991  1.00  0.00    +0.000 C 
ATOM     76  C57 UNL A   1      13.068  47.515   5.076  1.00  0.00    +0.000 C 
ATOM     77  F11 UNL A   1      14.291  47.716   5.589  1.00  0.00    +0.000 F 
ATOM     78  C58 UNL A   1      12.269  46.506   5.609  1.00  0.00    +0.000 C 
ATOM     79  F12 UNL A   1      12.727  45.755   6.618  1.00  0.00    +0.000 F 
ATOM     80  C59 UNL A   1      11.005  46.271   5.087  1.00  0.00    +0.000 C 
ATOM     81  F13 UNL A   1      10.235  45.305   5.603  1.00  0.00    +0.000 F 
ATOM     82  C60 UNL A   1      10.545  47.036   4.025  1.00  0.00    +0.000 C 
ATOM     83  F14 UNL A   1       9.320  46.820   3.527  1.00  0.00    +0.000 F 
ATOM     84  C61 UNL A   1      11.354  48.027   3.475  1.00  0.00    +0.000 C 
ATOM     85  F15 UNL A   1      10.887  48.745   2.442  1.00  0.00    +0.000 F 
ENDBRANCH   74   75
TORSDOF 22
ENDMDL
MODEL 2
REMARK VINA RESULT:      -8.7      4.596     11.517
ROOT
ATOM    136  H38 UNL A   1      15.003  46.785   1.023  1.00  0.00    +0.000 H 
ATOM    137  H39 UNL A   1      13.300  46.446   2.968  1.00  0.00    +0.000 H 
ATOM    138  H40 UNL A   1      14.663  50.353   3.099  1.00  0.00    +0.000 H 
ATOM    139  H41 UNL A   1      14.806  56.050   5.972  1.00  0.00    +0.000 H 
ATOM    140  H42 UNL A   1      16.442  56.386   4.058  1.00  0.00    +0.000 H 
ATOM    141  H43 UNL A   1      15.068  52.466   3.885  1.00  0.00    +0.000 H 
ATOM    142  H44 UNL A   1      11.734  52.001   7.619  1.00  0.00    +0.000 H 
ATOM    143  H45 UNL A   1      11.502  49.546   6.933  1.00  0.00    +0.000 H 
ATOM    144  H46 UNL A   1      17.805  51.002  -0.753  1.00  0.00    +0.000 H 
ATOM    145  H47 UNL A   1      18.406  53.310   0.183  1.00  0.00    +0.000 H 
ATOM     38  C32 UNL A   1      16.840  54.073   2.438  1.00  0.00    +0.000 C 
ATOM     39  C33 UNL A   1      16.837  52.751   1.723  1.00  0.00    +0.000 C 
ATOM     40  N3  UNL A   1      16.132  51.676   1.972  1.00  0.00    +0.000 N 
ATOM     41  C34 UNL A   1      16.476  50.762   0.986  1.00  0.00    +0.000 C 
ATOM     42  C35 UNL A   1      16.056  49.482   0.837  1.00  0.00    +0.000 C 
ATOM     54  C42 UNL A   1      15.147  48.817   1.732  1.00  0.00    +0.000 C 
ATOM     55  C43 UNL A   1      14.711  47.504   1.704  1.00  0.00    +0.000 C 
ATOM     56  C44 UNL A   1      13.808  47.318   2.756  1.00  0.00    +0.000 C 
ATOM     57  C45 UNL A   1      13.712  48.505   3.464  1.00  0.00    +0.000 C 
ATOM     58  N4  UNL A   1      14.534  49.418   2.822  1.00  0.00    +0.000 N 
ATOM     59  C46 UNL A   1      12.929  48.788   4.639  1.00  0.00    +0.000 C 
ATOM     71  C53 UNL A   1      12.889  49.981   5.279  1.00  0.00    +0.000 C 
ATOM     72  N5  UNL A   1      13.562  51.157   4.976  1.00  0.00    +0.000 N 
ATOM     73  C54 UNL A   1      13.186  52.029   5.877  1.00  0.00    +0.000 C 
ATOM     74  C55 UNL A   1      13.617  53.459   6.052  1.00  0.00    +0.000 C 
ATOM     86  C62 UNL A   1      14.542  53.975   5.220  1.00  0.00    +0.000 C 
ATOM     87  C63 UNL A   1      15.065  55.336   5.273  1.00  0.00    +0.000 C 
ATOM     88  C64 UNL A   1      15.937  55.510   4.267  1.00  0.00    +0.000 C 
ATOM     89  C65 UNL A   1      16.055  54.260   3.516  1.00  0.00    +0.000 C 
ATOM     90  N6  UNL A   1      15.199  53.402   4.159  1.00  0.00    +0.000 N 
ATOM     91  C66 UNL A   1      12.207  51.511   6.843  1.00  0.00    +0.000 C 
ATOM     92  C67 UNL A   1      12.088  50.249   6.456  1.00  0.00    +0.000 C 
ATOM     93  C68 UNL A   1      17.419  51.420   0.108  1.00  0.00    +0.000 C 
ATOM     94  C69 UNL A   1      17.724  52.630   0.556  1.00  0.00    +0.000 C 
ENDROOT
BRANCH   38   37
ATOM     34  C28 UNL A   1      19.232  57.292   0.917  1.00  0.00    +0.000 C 
ATOM     35  C29 UNL A   1      17.856  57.273   0.664  1.00  0.00    +0.000 C 
ATOM     36  C30 UNL A   1      17.068  56.238   1.176  1.00  0.00    +0.000 C 
ATOM     37  C31 UNL A   1      17.654  55.202   1.918  1.00  0.00    +0.000 C 
ATOM    134  H36 UNL A   1      17.424  58.021   0.100  1.00  0.00    +0.000 H 
ATOM    135  H37 UNL A   1      16.050  56.237   1.007  1.00  0.00    +0.000 H 
ATOM    146  H48 UNL A   1      19.474  54.477   2.716  1.00  0.00    +0.000 H 
ATOM    147  H49 UNL A   1      20.805  56.361   1.973  1.00  0.00    +0.000 H 
ATOM     95  C70 UNL A   1      19.032  55.240   2.180  1.00  0.00    +0.000 C 
ATOM     96  C71 UNL A   1      19.807  56.304   1.720  1.00  0.00    +0.000 C 
BRANCH   34   32
ATOM     33  O3  UNL A   1      19.638  59.557   0.481  1.00  0.00    +0.000 O 
ATOM     32  C27 UNL A   1      20.040  58.409   0.374  1.00  0.00    +0.000 C 
BRANCH   32   31
ATOM    133  H35 UNL A   1      21.995  57.965   0.369  1.00  0.00    +0.000 H 
ATOM     31  N2  UNL A   1      21.246  58.158  -0.238  1.00  0.00    +0.000 N 
BRANCH   31   30
ATOM    131  H33 UNL A   1      20.911  58.804  -2.170  1.00  0.00    +0.000 H 
ATOM    132  H34 UNL A   1      22.591  58.444  -1.765  1.00  0.00    +0.000 H 
ATOM     30  C26 UNL A   1      21.571  58.138  -1.654  1.00  0.00    +0.000 C 
BRANCH   30   29
ATOM    129  H31 UNL A   1      22.103  56.663  -3.082  1.00  0.00    +0.000 H 
ATOM    130  H32 UNL A   1      21.648  56.052  -1.464  1.00  0.00    +0.000 H 
ATOM     29  C25 UNL A   1      21.429  56.740  -2.254  1.00  0.00    +0.000 C 
BRANCH   29   28
ATOM     28  C24 UNL A   1      20.022  56.393  -2.752  1.00  0.00    +0.000 C 
ATOM    127  H29 UNL A   1      20.093  55.510  -3.351  1.00  0.00    +0.000 H 
ATOM    128  H30 UNL A   1      19.423  56.273  -1.873  1.00  0.00    +0.000 H 
BRANCH   28   27
ATOM     27  C23 UNL A   1      19.326  57.475  -3.588  1.00  0.00    +0.000 C 
ATOM    125  H27 UNL A   1      18.370  57.670  -3.148  1.00  0.00    +0.000 H 
ATOM    126  H28 UNL A   1      19.979  58.322  -3.581  1.00  0.00    +0.000 H 
BRANCH   27   26
ATOM     26  C22 UNL A   1      19.107  57.118  -5.061  1.00  0.00    +0.000 C 
ATOM    123  H25 UNL A   1      19.443  57.939  -5.658  1.00  0.00    +0.000 H 
ATOM    124  H26 UNL A   1      19.659  56.220  -5.245  1.00  0.00    +0.000 H 
BRANCH   26   25
ATOM     25  C21 UNL A   1      17.648  56.822  -5.424  1.00  0.00    +0.000 C 
ATOM    122  H24 UNL A   1      17.396  57.403  -6.286  1.00  0.00    +0.000 H 
ATOM    121  H23 UNL A   1      17.026  57.077  -4.592  1.00  0.00    +0.000 H 
BRANCH   25   24
ATOM    120  H22 UNL A   1      16.658  55.252  -6.307  1.00  0.00    +0.000 H 
ATOM     24  N1  UNL A   1      17.449  55.426  -5.748  1.00  0.00    +0.000 N 
BRANCH   24   22
ATOM     22  C20 UNL A   1      18.155  54.310  -5.419  1.00  0.00    +0.000 C 
ATOM     23  O2  UNL A   1      18.610  53.663  -6.371  1.00  0.00    +0.000 O 
BRANCH   22   20
ATOM    116  H18 UNL A   1      18.943  54.625  -3.516  1.00  0.00    +0.000 H 
ATOM     20  C18 UNL A   1      18.396  53.830  -3.977  1.00  0.00    +0.000 C 
BRANCH   20   19
ATOM      7  C6  UNL A   1      16.225  52.620  -3.292  1.00  0.00    +0.000 C 
ATOM      8  C7  UNL A   1      15.106  52.527  -2.435  1.00  0.00    +0.000 C 
ATOM      9  C8  UNL A   1      14.791  53.542  -1.525  1.00  0.00    +0.000 C 
ATOM    104  H6  UNL A   1      14.506  51.688  -2.482  1.00  0.00    +0.000 H 
ATOM     17  C15 UNL A   1      15.637  54.643  -1.435  1.00  0.00    +0.000 C 
ATOM     18  C16 UNL A   1      16.763  54.733  -2.250  1.00  0.00    +0.000 C 
ATOM     19  C17 UNL A   1      17.107  53.721  -3.161  1.00  0.00    +0.000 C 
ATOM    115  H17 UNL A   1      17.364  55.569  -2.181  1.00  0.00    +0.000 H 
ATOM    114  H16 UNL A   1      15.429  55.396  -0.762  1.00  0.00    +0.000 H 
BRANCH    7    6
ATOM     97  C72 UNL A   1      15.509  51.824  -5.583  1.00  0.00    +0.000 C 
ATOM     98  C73 UNL A   1      15.587  50.865  -6.604  1.00  0.00    +0.000 C 
ATOM      3  C2  UNL A   1      16.449  49.762  -6.506  1.00  0.00    +0.000 C 
ATOM      4  C3  UNL A   1      17.235  49.638  -5.360  1.00  0.00    +0.000 C 
ATOM      5  C4  UNL A   1      17.150  50.586  -4.339  1.00  0.00    +0.000 C 
ATOM    102  H4  UNL A   1      17.883  48.840  -5.266  1.00  0.00    +0.000 H 
ATOM      6  C5  UNL A   1      16.286  51.690  -4.430  1.00  0.00    +0.000 C 
ATOM    103  H5  UNL A   1      17.735  50.472  -3.497  1.00  0.00    +0.000 H 
ATOM    148  H50 UNL A   1      14.876  52.632  -5.684  1.00  0.00    +0.000 H 
ATOM    149  H51 UNL A   1      14.997  50.972  -7.444  1.00  0.00    +0.000 H 
BRANCH    3    2
ATOM      2  S1  UNL A   1      16.450  48.585  -7.853  1.00  0.00    +0.000 S 
BRANCH    2    1
ATOM      1  C1  UNL A   1      17.432  47.205  -7.200  1.00  0.00    +0.000 C 
ATOM     99  H1  UNL A   1      17.435  47.243  -6.131  1.00  0.00    +0.000 H 
ATOM    100  H2  UNL A   1      18.436  47.278  -7.561  1.00  0.00    +0.000 H 
ATOM    101  H3  UNL A   1      17.004  46.278  -7.522  1.00  0.00    +0.000 H 
ENDBRANCH    2    1
ENDBRANCH    3    2
ENDBRANCH    7    6
BRANCH    9   10
ATOM    105  H7  UNL A   1      13.021  52.579  -0.926  1.00  0.00    +0.000 H 
ATOM     10  C9  UNL A   1      13.492  53.525  -0.758  1.00  0.00    +0.000 C 
ATOM    106  H8  UNL A   1      12.922  54.355  -1.118  1.00  0.00    +0.000 H 
BRANCH   10   11
ATOM     11  C10 UNL A   1      13.630  53.725   0.759  1.00  0.00    +0.000 C 
ATOM    108  H10 UNL A   1      13.411  55.859   0.552  1.00  0.00    +0.000 H 
ATOM     12  C11 UNL A   1      13.307  55.118   1.318  1.00  0.00    +0.000 C 
ATOM    107  H9  UNL A   1      14.668  53.504   0.884  1.00  0.00    +0.000 H 
ATOM     15  C14 UNL A   1      12.664  52.853   1.531  1.00  0.00    +0.000 C 
ATOM    109  H11 UNL A   1      13.974  55.384   2.112  1.00  0.00    +0.000 H 
ATOM     13  C12 UNL A   1      11.862  55.059   1.803  1.00  0.00    +0.000 C 
ATOM     14  C13 UNL A   1      11.690  53.651   2.355  1.00  0.00    +0.000 C 
ATOM     16  O1  UNL A   1      12.689  51.628   1.511  1.00  0.00    +0.000 O 
ATOM    110  H12 UNL A   1      11.186  55.230   0.991  1.00  0.00    +0.000 H 
ATOM    111  H13 UNL A   1      11.653  55.807   2.538  1.00  0.00    +0.000 H 
ATOM    112  H14 UNL A   1      10.688  53.302   2.215  1.00  0.00    +0.000 H 
ATOM    113  H15 UNL A   1      11.867  53.583   3.408  1.00  0.00    +0.000 H 
ENDBRANCH   10   11
ENDBRANCH    9   10
ENDBRANCH   20   19
BRANCH   20   21
ATOM    117  H19 UNL A   1      18.820  51.762  -3.632  1.00  0.00    +0.000 H 
ATOM     21  C19 UNL A   1      19.369  52.661  -3.824  1.00  0.00    +0.000 C 
ATOM    118  H20 UNL A   1      20.034  52.854  -3.009  1.00  0.00    +0.000 H 
ATOM    119  H21 UNL A   1      19.934  52.548  -4.726  1.00  0.00    +0.000 H 
ENDBRANCH   20   21
ENDBRANCH   22   20
ENDBRANCH   24   22
ENDBRANCH   25   24
ENDBRANCH   26   25
ENDBRANCH   27   26
ENDBRANCH   28   27
ENDBRANCH   29   28
ENDBRANCH   30   29
ENDBRANCH   31   30
ENDBRANCH   32   31
ENDBRANCH   34   32
ENDBRANCH   38   37
BRANCH   42   43
ATOM     43  C36 UNL A   1      16.584  48.711  -0.338  1.00  0.00    +0.000 C 
ATOM     44  C37 UNL A   1      17.868  48.148  -0.329  1.00  0.00    +0.000 C 
ATOM     45  F1  UNL A   1      18.679  48.332   0.723  1.00  0.00    +0.000 F 
ATOM     46  C38 UNL A   1      18.341  47.423  -1.422  1.00  0.00    +0.000 C 
ATOM     47  F2  UNL A   1      19.587  46.933  -1.409  1.00  0.00    +0.000 F 
ATOM     48  C39 UNL A   1      17.526  47.220  -2.526  1.00  0.00    +0.000 C 
ATOM     49  F3  UNL A   1      17.979  46.518  -3.573  1.00  0.00    +0.000 F 
ATOM     50  C40 UNL A   1      16.246  47.751  -2.547  1.00  0.00    +0.000 C 
ATOM     51  F4  UNL A   1      15.454  47.546  -3.609  1.00  0.00    +0.000 F 
ATOM     52  C41 UNL A   1      15.781  48.499  -1.469  1.00  0.00    +0.000 C 
ATOM     53  F5  UNL A   1      14.542  49.012  -1.525  1.00  0.00    +0.000 F 
ENDBRANCH   42   43
BRANCH   59   60
ATOM     65  C50 UNL A   1      10.527  45.629   6.317  1.00  0.00    +0.000 C 
ATOM     66  F8  UNL A   1       9.777  44.648   6.836  1.00  0.00    +0.000 F 
ATOM     67  C51 UNL A   1      10.040  46.396   5.269  1.00  0.00    +0.000 C 
ATOM     68  F9  UNL A   1       8.811  46.166   4.787  1.00  0.00    +0.000 F 
ATOM     69  C52 UNL A   1      10.826  47.402   4.715  1.00  0.00    +0.000 C 
ATOM     70  F10 UNL A   1      10.334  48.119   3.694  1.00  0.00    +0.000 F 
ATOM     60  C47 UNL A   1      12.109  47.673   5.217  1.00  0.00    +0.000 C 
ATOM     61  C48 UNL A   1      12.575  46.897   6.288  1.00  0.00    +0.000 C 
ATOM     62  F6  UNL A   1      13.801  47.109   6.791  1.00  0.00    +0.000 F 
ATOM     63  C49 UNL A   1      11.795  45.875   6.822  1.00  0.00    +0.000 C 
ATOM     64  F7  UNL A   1      12.278  45.119   7.817  1.00  0.00    +0.000 F 
ENDBRANCH   59   60
BRANCH   74   75
ATOM     75  C56 UNL A   1      13.061  54.294   7.146  1.00  0.00    +0.000 C 
ATOM     76  C57 UNL A   1      12.010  55.190   6.900  1.00  0.00    +0.000 C 
ATOM     77  F11 UNL A   1      11.514  55.315   5.660  1.00  0.00    +0.000 F 
ATOM     78  C58 UNL A   1      11.492  55.988   7.918  1.00  0.00    +0.000 C 
ATOM     79  F12 UNL A   1      10.516  56.865   7.648  1.00  0.00    +0.000 F 
ATOM     80  C59 UNL A   1      11.996  55.886   9.207  1.00  0.00    +0.000 C 
ATOM     81  F13 UNL A   1      11.496  56.650  10.186  1.00  0.00    +0.000 F 
ATOM     82  C60 UNL A   1      13.024  54.994   9.476  1.00  0.00    +0.000 C 
ATOM     83  F14 UNL A   1      13.505  54.884  10.721  1.00  0.00    +0.000 F 
ATOM     84  C61 UNL A   1      13.559  54.214   8.454  1.00  0.00    +0.000 C 
ATOM     85  F15 UNL A   1      14.560  53.368   8.740  1.00  0.00    +0.000 F 
ENDBRANCH   74   75
TORSDOF 22
ENDMDL
MODEL 3
REMARK VINA RESULT:      -8.5     48.744     54.106
ROOT
ATOM    136  H38 UNL A   1      57.246  21.481  18.935  1.00  0.00    +0.000 H 
ATOM    137  H39 UNL A   1      54.752  22.229  18.802  1.00  0.00    +0.000 H 
ATOM    138  H40 UNL A   1      55.782  20.484  15.191  1.00  0.00    +0.000 H 
ATOM    139  H41 UNL A   1      54.259  18.899   9.199  1.00  0.00    +0.000 H 
ATOM    140  H42 UNL A   1      56.680  18.145   9.343  1.00  0.00    +0.000 H 
ATOM    141  H43 UNL A   1      55.665  19.865  12.989  1.00  0.00    +0.000 H 
ATOM    142  H44 UNL A   1      50.821  21.157  12.609  1.00  0.00    +0.000 H 
ATOM    143  H45 UNL A   1      51.029  22.128  14.968  1.00  0.00    +0.000 H 
ATOM    144  H46 UNL A   1      60.530  18.917  15.553  1.00  0.00    +0.000 H 
ATOM    145  H47 UNL A   1      60.491  18.361  13.053  1.00  0.00    +0.000 H 
ATOM     38  C32 UNL A   1      57.930  18.688  11.848  1.00  0.00    +0.000 C 
ATOM     39  C33 UNL A   1      58.335  19.038  13.252  1.00  0.00    +0.000 C 
ATOM     40  N3  UNL A   1      57.619  19.562  14.215  1.00  0.00    +0.000 N 
ATOM     41  C34 UNL A   1      58.460  19.631  15.317  1.00  0.00    +0.000 C 
ATOM     42  C35 UNL A   1      58.204  20.144  16.545  1.00  0.00    +0.000 C 
ATOM     54  C42 UNL A   1      56.955  20.749  16.927  1.00  0.00    +0.000 C 
ATOM     55  C43 UNL A   1      56.620  21.355  18.125  1.00  0.00    +0.000 C 
ATOM     56  C44 UNL A   1      55.285  21.769  18.048  1.00  0.00    +0.000 C 
ATOM     57  C45 UNL A   1      54.803  21.456  16.788  1.00  0.00    +0.000 C 
ATOM     58  N4  UNL A   1      55.835  20.826  16.112  1.00  0.00    +0.000 N 
ATOM     59  C46 UNL A   1      53.496  21.712  16.238  1.00  0.00    +0.000 C 
ATOM     71  C53 UNL A   1      53.098  21.374  14.988  1.00  0.00    +0.000 C 
ATOM     72  N5  UNL A   1      53.816  20.739  13.985  1.00  0.00    +0.000 N 
ATOM     73  C54 UNL A   1      52.996  20.627  12.970  1.00  0.00    +0.000 C 
ATOM     74  C55 UNL A   1      53.247  20.042  11.608  1.00  0.00    +0.000 C 
ATOM     86  C62 UNL A   1      54.474  19.578  11.306  1.00  0.00    +0.000 C 
ATOM     87  C63 UNL A   1      54.868  18.996  10.026  1.00  0.00    +0.000 C 
ATOM     88  C64 UNL A   1      56.151  18.606  10.099  1.00  0.00    +0.000 C 
ATOM     89  C65 UNL A   1      56.677  18.939  11.424  1.00  0.00    +0.000 C 
ATOM     90  N6  UNL A   1      55.615  19.521  12.068  1.00  0.00    +0.000 N 
ATOM     91  C66 UNL A   1      51.649  21.157  13.225  1.00  0.00    +0.000 C 
ATOM     92  C67 UNL A   1      51.776  21.634  14.455  1.00  0.00    +0.000 C 
ATOM     93  C68 UNL A   1      59.727  19.056  14.920  1.00  0.00    +0.000 C 
ATOM     94  C69 UNL A   1      59.723  18.732  13.635  1.00  0.00    +0.000 C 
ENDROOT
BRANCH   38   37
ATOM     34  C28 UNL A   1      60.647  16.667   9.216  1.00  0.00    +0.000 C 
ATOM     35  C29 UNL A   1      60.618  18.066   9.240  1.00  0.00    +0.000 C 
ATOM     36  C30 UNL A   1      59.751  18.730  10.111  1.00  0.00    +0.000 C 
ATOM     37  C31 UNL A   1      58.886  18.001  10.943  1.00  0.00    +0.000 C 
ATOM    134  H36 UNL A   1      61.237  18.606   8.615  1.00  0.00    +0.000 H 
ATOM    135  H37 UNL A   1      59.747  19.761  10.144  1.00  0.00    +0.000 H 
ATOM    146  H48 UNL A   1      58.297  16.054  11.523  1.00  0.00    +0.000 H 
ATOM    147  H49 UNL A   1      59.922  14.910  10.136  1.00  0.00    +0.000 H 
ATOM     95  C70 UNL A   1      58.936  16.598  10.923  1.00  0.00    +0.000 C 
ATOM     96  C71 UNL A   1      59.844  15.938  10.097  1.00  0.00    +0.000 C 
BRANCH   34   32
ATOM     33  O3  UNL A   1      62.558  16.593   7.864  1.00  0.00    +0.000 O 
ATOM     32  C27 UNL A   1      61.588  15.990   8.292  1.00  0.00    +0.000 C 
BRANCH   32   31
ATOM    133  H35 UNL A   1      61.905  14.014   8.422  1.00  0.00    +0.000 H 
ATOM     31  N2  UNL A   1      61.377  14.680   7.926  1.00  0.00    +0.000 N 
BRANCH   31   30
ATOM    131  H33 UNL A   1      60.980  13.332   6.415  1.00  0.00    +0.000 H 
ATOM    132  H34 UNL A   1      59.594  13.807   7.399  1.00  0.00    +0.000 H 
ATOM     30  C26 UNL A   1      60.486  14.141   6.913  1.00  0.00    +0.000 C 
BRANCH   30   29
ATOM    129  H31 UNL A   1      60.817  15.982   5.915  1.00  0.00    +0.000 H 
ATOM    130  H32 UNL A   1      60.066  14.690   4.934  1.00  0.00    +0.000 H 
ATOM     29  C25 UNL A   1      60.095  15.194   5.877  1.00  0.00    +0.000 C 
BRANCH   29   28
ATOM     28  C24 UNL A   1      58.706  15.810   6.080  1.00  0.00    +0.000 C 
ATOM    127  H29 UNL A   1      58.838  16.837   6.350  1.00  0.00    +0.000 H 
ATOM    128  H30 UNL A   1      58.187  15.669   5.154  1.00  0.00    +0.000 H 
BRANCH   28   27
ATOM     27  C23 UNL A   1      57.834  15.148   7.154  1.00  0.00    +0.000 C 
ATOM    125  H27 UNL A   1      58.115  14.118   7.220  1.00  0.00    +0.000 H 
ATOM    126  H28 UNL A   1      58.006  15.696   8.057  1.00  0.00    +0.000 H 
BRANCH   27   26
ATOM     26  C22 UNL A   1      56.325  15.213   6.898  1.00  0.00    +0.000 C 
ATOM    123  H25 UNL A   1      56.164  15.729   5.974  1.00  0.00    +0.000 H 
ATOM    124  H26 UNL A   1      55.973  14.203   6.874  1.00  0.00    +0.000 H 
BRANCH   26   25
ATOM     25  C21 UNL A   1      55.533  15.932   7.994  1.00  0.00    +0.000 C 
ATOM    122  H24 UNL A   1      55.958  16.904   8.130  1.00  0.00    +0.000 H 
ATOM    121  H23 UNL A   1      55.592  15.358   8.895  1.00  0.00    +0.000 H 
BRANCH   25   24
ATOM    120  H22 UNL A   1      53.582  15.308   7.826  1.00  0.00    +0.000 H 
ATOM     24  N1  UNL A   1      54.142  16.094   7.632  1.00  0.00    +0.000 N 
BRANCH   24   22
ATOM     22  C20 UNL A   1      53.467  17.134   7.070  1.00  0.00    +0.000 C 
ATOM     23  O2  UNL A   1      52.233  17.076   7.147  1.00  0.00    +0.000 O 
BRANCH   22   20
ATOM    116  H18 UNL A   1      54.896  18.651   7.049  1.00  0.00    +0.000 H 
ATOM     20  C18 UNL A   1      54.141  18.324   6.365  1.00  0.00    +0.000 C 
BRANCH   20   19
ATOM      7  C6  UNL A   1      56.237  18.339   4.864  1.00  0.00    +0.000 C 
ATOM      8  C7  UNL A   1      56.923  17.843   3.734  1.00  0.00    +0.000 C 
ATOM      9  C8  UNL A   1      56.292  17.022   2.792  1.00  0.00    +0.000 C 
ATOM    104  H6  UNL A   1      57.916  18.092   3.600  1.00  0.00    +0.000 H 
ATOM     17  C15 UNL A   1      54.970  16.650   3.012  1.00  0.00    +0.000 C 
ATOM     18  C16 UNL A   1      54.289  17.104   4.140  1.00  0.00    +0.000 C 
ATOM     19  C17 UNL A   1      54.906  17.917   5.106  1.00  0.00    +0.000 C 
ATOM    115  H17 UNL A   1      53.302  16.833   4.271  1.00  0.00    +0.000 H 
ATOM    114  H16 UNL A   1      54.490  16.036   2.336  1.00  0.00    +0.000 H 
BRANCH    7    6
ATOM     97  C72 UNL A   1      57.603  19.275   6.774  1.00  0.00    +0.000 C 
ATOM     98  C73 UNL A   1      58.123  20.389   7.451  1.00  0.00    +0.000 C 
ATOM      3  C2  UNL A   1      57.927  21.693   6.971  1.00  0.00    +0.000 C 
ATOM      4  C3  UNL A   1      57.198  21.860   5.794  1.00  0.00    +0.000 C 
ATOM      5  C4  UNL A   1      56.670  20.754   5.126  1.00  0.00    +0.000 C 
ATOM    102  H4  UNL A   1      57.046  22.808   5.415  1.00  0.00    +0.000 H 
ATOM      6  C5  UNL A   1      56.861  19.447   5.604  1.00  0.00    +0.000 C 
ATOM    103  H5  UNL A   1      56.129  20.900   4.261  1.00  0.00    +0.000 H 
ATOM    148  H50 UNL A   1      57.771  18.326   7.141  1.00  0.00    +0.000 H 
ATOM    149  H51 UNL A   1      58.660  20.246   8.321  1.00  0.00    +0.000 H 
BRANCH    3    2
ATOM      2  S1  UNL A   1      58.610  23.042   7.926  1.00  0.00    +0.000 S 
BRANCH    2    1
ATOM      1  C1  UNL A   1      59.988  22.267   8.818  1.00  0.00    +0.000 C 
ATOM     99  H1  UNL A   1      60.117  22.748   9.764  1.00  0.00    +0.000 H 
ATOM    100  H2  UNL A   1      60.885  22.364   8.243  1.00  0.00    +0.000 H 
ATOM    101  H3  UNL A   1      59.774  21.229   8.972  1.00  0.00    +0.000 H 
ENDBRANCH    2    1
ENDBRANCH    3    2
ENDBRANCH    7    6
BRANCH    9   10
ATOM    105  H7  UNL A   1      57.850  17.263   1.402  1.00  0.00    +0.000 H 
ATOM     10  C9  UNL A   1      56.971  16.661   1.495  1.00  0.00    +0.000 C 
ATOM    106  H8  UNL A   1      56.251  16.836   0.723  1.00  0.00    +0.000 H 
BRANCH   10   11
ATOM     11  C10 UNL A   1      57.387  15.188   1.366  1.00  0.00    +0.000 C 
ATOM    108  H10 UNL A   1      58.611  15.323   3.135  1.00  0.00    +0.000 H 
ATOM     12  C11 UNL A   1      58.136  14.561   2.551  1.00  0.00    +0.000 C 
ATOM    107  H9  UNL A   1      58.026  15.247   0.511  1.00  0.00    +0.000 H 
ATOM     15  C14 UNL A   1      56.189  14.274   1.243  1.00  0.00    +0.000 C 
ATOM    109  H11 UNL A   1      58.901  13.890   2.219  1.00  0.00    +0.000 H 
ATOM     13  C12 UNL A   1      57.085  13.835   3.384  1.00  0.00    +0.000 C 
ATOM     14  C13 UNL A   1      56.093  13.283   2.371  1.00  0.00    +0.000 C 
ATOM     16  O1  UNL A   1      55.395  14.316   0.310  1.00  0.00    +0.000 O 
ATOM    110  H12 UNL A   1      56.600  14.516   4.053  1.00  0.00    +0.000 H 
ATOM    111  H13 UNL A   1      57.513  13.064   3.990  1.00  0.00    +0.000 H 
ATOM    112  H14 UNL A   1      55.103  13.253   2.777  1.00  0.00    +0.000 H 
ATOM    113  H15 UNL A   1      56.305  12.277   2.074  1.00  0.00    +0.000 H 
ENDBRANCH   10   11
ENDBRANCH    9   10
ENDBRANCH   20   19
BRANCH   20   21
ATOM    117  H19 UNL A   1      53.626  20.323   6.926  1.00  0.00    +0.000 H 
ATOM     21  C19 UNL A   1      53.283  19.583   6.233  1.00  0.00    +0.000 C 
ATOM    118  H20 UNL A   1      52.262  19.343   6.442  1.00  0.00    +0.000 H 
ATOM    119  H21 UNL A   1      53.363  19.965   5.236  1.00  0.00    +0.000 H 
ENDBRANCH   20   21
ENDBRANCH   22   20
ENDBRANCH   24   22
ENDBRANCH   25   24
ENDBRANCH   26   25
ENDBRANCH   27   26
ENDBRANCH   28   27
ENDBRANCH   29   28
ENDBRANCH   30   29
ENDBRANCH   31   30
ENDBRANCH   32   31
ENDBRANCH   34   32
ENDBRANCH   38   37
BRANCH   42   43
ATOM     43  C36 UNL A   1      59.302  20.080  17.566  1.00  0.00    +0.000 C 
ATOM     44  C37 UNL A   1      60.071  21.208  17.889  1.00  0.00    +0.000 C 
ATOM     45  F1  UNL A   1      59.871  22.368  17.247  1.00  0.00    +0.000 F 
ATOM     46  C38 UNL A   1      61.078  21.137  18.849  1.00  0.00    +0.000 C 
ATOM     47  F2  UNL A   1      61.830  22.216  19.108  1.00  0.00    +0.000 F 
ATOM     48  C39 UNL A   1      61.311  19.950  19.527  1.00  0.00    +0.000 C 
ATOM     49  F3  UNL A   1      62.276  19.886  20.454  1.00  0.00    +0.000 F 
ATOM     50  C40 UNL A   1      60.549  18.829  19.238  1.00  0.00    +0.000 C 
ATOM     51  F4  UNL A   1      60.766  17.684  19.900  1.00  0.00    +0.000 F 
ATOM     52  C41 UNL A   1      59.560  18.888  18.259  1.00  0.00    +0.000 C 
ATOM     53  F5  UNL A   1      58.849  17.782  17.992  1.00  0.00    +0.000 F 
ENDBRANCH   42   43
BRANCH   59   60
ATOM     65  C50 UNL A   1      50.689  23.797  18.755  1.00  0.00    +0.000 C 
ATOM     66  F8  UNL A   1      49.817  24.449  19.536  1.00  0.00    +0.000 F 
ATOM     67  C51 UNL A   1      51.451  24.496  17.830  1.00  0.00    +0.000 C 
ATOM     68  F9  UNL A   1      51.326  25.826  17.729  1.00  0.00    +0.000 F 
ATOM     69  C52 UNL A   1      52.342  23.817  17.003  1.00  0.00    +0.000 C 
ATOM     70  F10 UNL A   1      53.056  24.517  16.110  1.00  0.00    +0.000 F 
ATOM     60  C47 UNL A   1      52.502  22.426  17.105  1.00  0.00    +0.000 C 
ATOM     61  C48 UNL A   1      51.735  21.741  18.059  1.00  0.00    +0.000 C 
ATOM     62  F6  UNL A   1      51.842  20.410  18.182  1.00  0.00    +0.000 F 
ATOM     63  C49 UNL A   1      50.826  22.421  18.866  1.00  0.00    +0.000 C 
ATOM     64  F7  UNL A   1      50.073  21.741  19.741  1.00  0.00    +0.000 F 
ENDBRANCH   59   60
BRANCH   74   75
ATOM     75  C56 UNL A   1      52.169  20.001  10.587  1.00  0.00    +0.000 C 
ATOM     76  C57 UNL A   1      51.514  18.798  10.284  1.00  0.00    +0.000 C 
ATOM     77  F11 UNL A   1      51.877  17.665  10.904  1.00  0.00    +0.000 F 
ATOM     78  C58 UNL A   1      50.513  18.748   9.317  1.00  0.00    +0.000 C 
ATOM     79  F12 UNL A   1      49.931  17.579   9.018  1.00  0.00    +0.000 F 
ATOM     80  C59 UNL A   1      50.128  19.904   8.654  1.00  0.00    +0.000 C 
ATOM     81  F13 UNL A   1      49.162  19.857   7.728  1.00  0.00    +0.000 F 
ATOM     82  C60 UNL A   1      50.750  21.108   8.950  1.00  0.00    +0.000 C 
ATOM     83  F14 UNL A   1      50.372  22.229   8.321  1.00  0.00    +0.000 F 
ATOM     84  C61 UNL A   1      51.769  21.154   9.898  1.00  0.00    +0.000 C 
ATOM     85  F15 UNL A   1      52.361  22.330  10.158  1.00  0.00    +0.000 F 
ENDBRANCH   74   75
TORSDOF 22
ENDMDL
MODEL 4
REMARK VINA RESULT:      -8.5      5.481     13.561
ROOT
ATOM    136  H38 UNL A   1      16.239  47.324   1.165  1.00  0.00    +0.000 H 
ATOM    137  H39 UNL A   1      15.326  47.368   3.608  1.00  0.00    +0.000 H 
ATOM    138  H40 UNL A   1      15.719  51.275   2.295  1.00  0.00    +0.000 H 
ATOM    139  H41 UNL A   1      15.391  57.542   3.456  1.00  0.00    +0.000 H 
ATOM    140  H42 UNL A   1      16.253  57.495   1.066  1.00  0.00    +0.000 H 
ATOM    141  H43 UNL A   1      15.839  53.561   2.348  1.00  0.00    +0.000 H 
ATOM    142  H44 UNL A   1      13.984  53.814   7.014  1.00  0.00    +0.000 H 
ATOM    143  H45 UNL A   1      14.133  51.259   7.072  1.00  0.00    +0.000 H 
ATOM    144  H46 UNL A   1      17.319  51.134  -2.455  1.00  0.00    +0.000 H 
ATOM    145  H47 UNL A   1      17.620  53.677  -2.382  1.00  0.00    +0.000 H 
ATOM     38  C32 UNL A   1      16.671  54.874   0.023  1.00  0.00    +0.000 C 
ATOM     39  C33 UNL A   1      16.761  53.409  -0.300  1.00  0.00    +0.000 C 
ATOM     40  N3  UNL A   1      16.433  52.377   0.436  1.00  0.00    +0.000 N 
ATOM     41  C34 UNL A   1      16.668  51.260  -0.355  1.00  0.00    +0.000 C 
ATOM     42  C35 UNL A   1      16.532  49.951  -0.030  1.00  0.00    +0.000 C 
ATOM     54  C42 UNL A   1      16.113  49.475   1.262  1.00  0.00    +0.000 C 
ATOM     55  C43 UNL A   1      16.007  48.170   1.709  1.00  0.00    +0.000 C 
ATOM     56  C44 UNL A   1      15.530  48.194   3.024  1.00  0.00    +0.000 C 
ATOM     57  C45 UNL A   1      15.378  49.516   3.409  1.00  0.00    +0.000 C 
ATOM     58  N4  UNL A   1      15.734  50.291   2.317  1.00  0.00    +0.000 N 
ATOM     59  C46 UNL A   1      14.941  50.036   4.680  1.00  0.00    +0.000 C 
ATOM     71  C53 UNL A   1      14.818  51.351   4.982  1.00  0.00    +0.000 C 
ATOM     72  N5  UNL A   1      15.077  52.457   4.185  1.00  0.00    +0.000 N 
ATOM     73  C54 UNL A   1      14.797  53.504   4.920  1.00  0.00    +0.000 C 
ATOM     74  C55 UNL A   1      14.917  54.964   4.578  1.00  0.00    +0.000 C 
ATOM     86  C62 UNL A   1      15.403  55.320   3.374  1.00  0.00    +0.000 C 
ATOM     87  C63 UNL A   1      15.587  56.691   2.906  1.00  0.00    +0.000 C 
ATOM     88  C64 UNL A   1      16.052  56.665   1.647  1.00  0.00    +0.000 C 
ATOM     89  C65 UNL A   1      16.226  55.274   1.230  1.00  0.00    +0.000 C 
ATOM     90  N6  UNL A   1      15.826  54.545   2.322  1.00  0.00    +0.000 N 
ATOM     91  C66 UNL A   1      14.302  53.178   6.265  1.00  0.00    +0.000 C 
ATOM     92  C67 UNL A   1      14.369  51.855   6.264  1.00  0.00    +0.000 C 
ATOM     93  C68 UNL A   1      17.124  51.740  -1.641  1.00  0.00    +0.000 C 
ATOM     94  C69 UNL A   1      17.260  53.058  -1.639  1.00  0.00    +0.000 C 
ENDROOT
BRANCH   38   37
ATOM     34  C28 UNL A   1      17.691  57.775  -2.966  1.00  0.00    +0.000 C 
ATOM     35  C29 UNL A   1      16.409  57.216  -2.953  1.00  0.00    +0.000 C 
ATOM     36  C30 UNL A   1      16.064  56.287  -1.968  1.00  0.00    +0.000 C 
ATOM     37  C31 UNL A   1      17.007  55.889  -1.008  1.00  0.00    +0.000 C 
ATOM    134  H36 UNL A   1      15.719  57.490  -3.670  1.00  0.00    +0.000 H 
ATOM    135  H37 UNL A   1      15.111  55.893  -1.947  1.00  0.00    +0.000 H 
ATOM    146  H48 UNL A   1      18.988  56.174  -0.325  1.00  0.00    +0.000 H 
ATOM    147  H49 UNL A   1      19.526  57.910  -1.928  1.00  0.00    +0.000 H 
ATOM     95  C70 UNL A   1      18.285  56.469  -1.020  1.00  0.00    +0.000 C 
ATOM     96  C71 UNL A   1      18.608  57.440  -1.966  1.00  0.00    +0.000 C 
BRANCH   34   32
ATOM     33  O3  UNL A   1      17.143  59.212  -4.732  1.00  0.00    +0.000 O 
ATOM     32  C27 UNL A   1      18.025  58.769  -4.013  1.00  0.00    +0.000 C 
BRANCH   32   31
ATOM    133  H35 UNL A   1      19.825  59.335  -3.335  1.00  0.00    +0.000 H 
ATOM     31  N2  UNL A   1      19.321  59.202  -4.170  1.00  0.00    +0.000 N 
BRANCH   31   30
ATOM    131  H33 UNL A   1      19.655  60.386  -5.827  1.00  0.00    +0.000 H 
ATOM    132  H34 UNL A   1      21.085  59.613  -5.139  1.00  0.00    +0.000 H 
ATOM     30  C26 UNL A   1      20.052  59.493  -5.391  1.00  0.00    +0.000 C 
BRANCH   30   29
ATOM    129  H31 UNL A   1      19.870  57.435  -5.868  1.00  0.00    +0.000 H 
ATOM    130  H32 UNL A   1      19.080  58.569  -7.002  1.00  0.00    +0.000 H 
ATOM     29  C25 UNL A   1      19.943  58.357  -6.407  1.00  0.00    +0.000 C 
BRANCH   29   28
ATOM     28  C24 UNL A   1      21.123  58.248  -7.380  1.00  0.00    +0.000 C 
ATOM    127  H29 UNL A   1      20.958  58.943  -8.175  1.00  0.00    +0.000 H 
ATOM    128  H30 UNL A   1      21.999  58.452  -6.799  1.00  0.00    +0.000 H 
BRANCH   28   27
ATOM     27  C23 UNL A   1      21.347  56.863  -8.001  1.00  0.00    +0.000 C 
ATOM    125  H27 UNL A   1      21.445  56.154  -7.206  1.00  0.00    +0.000 H 
ATOM    126  H28 UNL A   1      20.503  56.681  -8.634  1.00  0.00    +0.000 H 
BRANCH   27   26
ATOM     26  C22 UNL A   1      22.584  56.745  -8.897  1.00  0.00    +0.000 C 
ATOM    123  H25 UNL A   1      22.615  55.753  -9.296  1.00  0.00    +0.000 H 
ATOM    124  H26 UNL A   1      22.487  57.494  -9.655  1.00  0.00    +0.000 H 
BRANCH   26   25
ATOM     25  C21 UNL A   1      23.908  57.016  -8.176  1.00  0.00    +0.000 C 
ATOM    122  H24 UNL A   1      23.697  57.581  -7.293  1.00  0.00    +0.000 H 
ATOM    121  H23 UNL A   1      24.556  57.556  -8.833  1.00  0.00    +0.000 H 
BRANCH   25   24
ATOM    120  H22 UNL A   1      24.801  55.198  -8.531  1.00  0.00    +0.000 H 
ATOM     24  N1  UNL A   1      24.562  55.788  -7.780  1.00  0.00    +0.000 N 
BRANCH   24   22
ATOM     22  C20 UNL A   1      24.907  55.298  -6.557  1.00  0.00    +0.000 C 
ATOM     23  O2  UNL A   1      25.723  54.367  -6.563  1.00  0.00    +0.000 O 
BRANCH   22   20
ATOM    116  H18 UNL A   1      24.308  56.883  -5.345  1.00  0.00    +0.000 H 
ATOM     20  C18 UNL A   1      24.345  55.821  -5.224  1.00  0.00    +0.000 C 
BRANCH   20   19
ATOM      7  C6  UNL A   1      22.031  56.140  -4.133  1.00  0.00    +0.000 C 
ATOM      8  C7  UNL A   1      20.673  55.766  -4.037  1.00  0.00    +0.000 C 
ATOM      9  C8  UNL A   1      20.176  54.630  -4.685  1.00  0.00    +0.000 C 
ATOM    104  H6  UNL A   1      20.030  56.346  -3.474  1.00  0.00    +0.000 H 
ATOM     17  C15 UNL A   1      21.039  53.886  -5.483  1.00  0.00    +0.000 C 
ATOM     18  C16 UNL A   1      22.374  54.263  -5.615  1.00  0.00    +0.000 C 
ATOM     19  C17 UNL A   1      22.893  55.407  -4.985  1.00  0.00    +0.000 C 
ATOM    115  H17 UNL A   1      23.002  53.684  -6.194  1.00  0.00    +0.000 H 
ATOM    114  H16 UNL A   1      20.690  53.052  -5.979  1.00  0.00    +0.000 H 
BRANCH    7    6
ATOM     97  C72 UNL A   1      22.995  58.397  -3.524  1.00  0.00    +0.000 C 
ATOM     98  C73 UNL A   1      23.506  59.266  -2.547  1.00  0.00    +0.000 C 
ATOM      3  C2  UNL A   1      23.553  58.896  -1.194  1.00  0.00    +0.000 C 
ATOM      4  C3  UNL A   1      23.076  57.635  -0.837  1.00  0.00    +0.000 C 
ATOM      5  C4  UNL A   1      22.578  56.766  -1.809  1.00  0.00    +0.000 C 
ATOM    102  H4  UNL A   1      23.092  57.342   0.153  1.00  0.00    +0.000 H 
ATOM      6  C5  UNL A   1      22.531  57.129  -3.165  1.00  0.00    +0.000 C 
ATOM    103  H5  UNL A   1      22.236  55.836  -1.525  1.00  0.00    +0.000 H 
ATOM    148  H50 UNL A   1      22.960  58.696  -4.511  1.00  0.00    +0.000 H 
ATOM    149  H51 UNL A   1      23.855  60.195  -2.830  1.00  0.00    +0.000 H 
BRANCH    3    2
ATOM      2  S1  UNL A   1      24.248  60.068  -0.036  1.00  0.00    +0.000 S 
BRANCH    2    1
ATOM      1  C1  UNL A   1      25.854  60.482  -0.775  1.00  0.00    +0.000 C 
ATOM     99  H1  UNL A   1      25.921  60.046  -1.749  1.00  0.00    +0.000 H 
ATOM    100  H2  UNL A   1      26.640  60.099  -0.158  1.00  0.00    +0.000 H 
ATOM    101  H3  UNL A   1      25.947  61.546  -0.852  1.00  0.00    +0.000 H 
ENDBRANCH    2    1
ENDBRANCH    3    2
ENDBRANCH    7    6
BRANCH    9   10
ATOM    105  H7  UNL A   1      18.535  54.352  -3.401  1.00  0.00    +0.000 H 
ATOM     10  C9  UNL A   1      18.777  54.130  -4.419  1.00  0.00    +0.000 C 
ATOM    106  H8  UNL A   1      18.789  53.082  -4.636  1.00  0.00    +0.000 H 
BRANCH   10   11
ATOM     11  C10 UNL A   1      17.687  54.740  -5.312  1.00  0.00    +0.000 C 
ATOM    108  H10 UNL A   1      19.165  55.618  -6.611  1.00  0.00    +0.000 H 
ATOM     12  C11 UNL A   1      18.131  55.347  -6.651  1.00  0.00    +0.000 C 
ATOM    107  H9  UNL A   1      17.316  55.503  -4.661  1.00  0.00    +0.000 H 
ATOM     15  C14 UNL A   1      16.683  53.702  -5.763  1.00  0.00    +0.000 C 
ATOM    109  H11 UNL A   1      17.577  56.234  -6.880  1.00  0.00    +0.000 H 
ATOM     13  C12 UNL A   1      17.907  54.266  -7.704  1.00  0.00    +0.000 C 
ATOM     14  C13 UNL A   1      16.648  53.538  -7.259  1.00  0.00    +0.000 C 
ATOM     16  O1  UNL A   1      15.957  53.080  -4.996  1.00  0.00    +0.000 O 
ATOM    110  H12 UNL A   1      18.739  53.594  -7.735  1.00  0.00    +0.000 H 
ATOM    111  H13 UNL A   1      17.808  54.677  -8.687  1.00  0.00    +0.000 H 
ATOM    112  H14 UNL A   1      16.681  52.505  -7.535  1.00  0.00    +0.000 H 
ATOM    113  H15 UNL A   1      15.754  53.920  -7.707  1.00  0.00    +0.000 H 
ENDBRANCH   10   11
ENDBRANCH    9   10
ENDBRANCH   20   19
BRANCH   20   21
ATOM    117  H19 UNL A   1      26.291  55.689  -4.347  1.00  0.00    +0.000 H 
ATOM     21  C19 UNL A   1      25.273  55.682  -4.017  1.00  0.00    +0.000 C 
ATOM    118  H20 UNL A   1      25.067  54.762  -3.512  1.00  0.00    +0.000 H 
ATOM    119  H21 UNL A   1      25.109  56.500  -3.346  1.00  0.00    +0.000 H 
ENDBRANCH   20   21
ENDBRANCH   22   20
ENDBRANCH   24   22
ENDBRANCH   25   24
ENDBRANCH   26   25
ENDBRANCH   27   26
ENDBRANCH   28   27
ENDBRANCH   29   28
ENDBRANCH   30   29
ENDBRANCH   31   30
ENDBRANCH   32   31
ENDBRANCH   34   32
ENDBRANCH   38   37
BRANCH   42   43
ATOM     43  C36 UNL A   1      16.846  48.937  -1.091  1.00  0.00    +0.000 C 
ATOM     44  C37 UNL A   1      18.134  48.400  -1.234  1.00  0.00    +0.000 C 
ATOM     45  F1  UNL A   1      19.134  48.825  -0.449  1.00  0.00    +0.000 F 
ATOM     46  C38 UNL A   1      18.408  47.449  -2.215  1.00  0.00    +0.000 C 
ATOM     47  F2  UNL A   1      19.656  46.984  -2.363  1.00  0.00    +0.000 F 
ATOM     48  C39 UNL A   1      17.395  46.993  -3.045  1.00  0.00    +0.000 C 
ATOM     49  F3  UNL A   1      17.660  46.075  -3.984  1.00  0.00    +0.000 F 
ATOM     50  C40 UNL A   1      16.110  47.497  -2.907  1.00  0.00    +0.000 C 
ATOM     51  F4  UNL A   1      15.128  47.049  -3.702  1.00  0.00    +0.000 F 
ATOM     52  C41 UNL A   1      15.839  48.467  -1.947  1.00  0.00    +0.000 C 
ATOM     53  F5  UNL A   1      14.589  48.944  -1.847  1.00  0.00    +0.000 F 
ENDBRANCH   42   43
BRANCH   59   60
ATOM     65  C50 UNL A   1      14.047  47.165   7.765  1.00  0.00    +0.000 C 
ATOM     66  F8  UNL A   1      13.774  46.273   8.726  1.00  0.00    +0.000 F 
ATOM     67  C51 UNL A   1      15.309  47.735   7.686  1.00  0.00    +0.000 C 
ATOM     68  F9  UNL A   1      16.260  47.381   8.560  1.00  0.00    +0.000 F 
ATOM     69  C52 UNL A   1      15.589  48.678   6.701  1.00  0.00    +0.000 C 
ATOM     70  F10 UNL A   1      16.814  49.222   6.656  1.00  0.00    +0.000 F 
ATOM     60  C47 UNL A   1      14.614  49.051   5.762  1.00  0.00    +0.000 C 
ATOM     61  C48 UNL A   1      13.350  48.449   5.849  1.00  0.00    +0.000 C 
ATOM     62  F6  UNL A   1      12.381  48.785   4.984  1.00  0.00    +0.000 F 
ATOM     63  C49 UNL A   1      13.067  47.525   6.852  1.00  0.00    +0.000 C 
ATOM     64  F7  UNL A   1      11.840  46.994   6.943  1.00  0.00    +0.000 F 
ENDBRANCH   59   60
BRANCH   74   75
ATOM     75  C56 UNL A   1      14.537  56.010   5.560  1.00  0.00    +0.000 C 
ATOM     76  C57 UNL A   1      15.516  56.690   6.299  1.00  0.00    +0.000 C 
ATOM     77  F11 UNL A   1      16.810  56.379   6.138  1.00  0.00    +0.000 F 
ATOM     78  C58 UNL A   1      15.165  57.662   7.234  1.00  0.00    +0.000 C 
ATOM     79  F12 UNL A   1      16.117  58.267   7.956  1.00  0.00    +0.000 F 
ATOM     80  C59 UNL A   1      13.832  57.992   7.427  1.00  0.00    +0.000 C 
ATOM     81  F13 UNL A   1      13.496  58.930   8.322  1.00  0.00    +0.000 F 
ATOM     82  C60 UNL A   1      12.848  57.345   6.695  1.00  0.00    +0.000 C 
ATOM     83  F14 UNL A   1      11.561  57.670   6.870  1.00  0.00    +0.000 F 
ATOM     84  C61 UNL A   1      13.196  56.355   5.778  1.00  0.00    +0.000 C 
ATOM     85  F15 UNL A   1      12.223  55.737   5.091  1.00  0.00    +0.000 F 
ENDBRANCH   74   75
TORSDOF 22
ENDMDL
MODEL 5
REMARK VINA RESULT:      -8.4     28.720     37.019
ROOT
ATOM    136  H38 UNL A   1      27.743  23.065  -9.106  1.00  0.00    +0.000 H 
ATOM    137  H39 UNL A   1      26.179  24.843  -8.014  1.00  0.00    +0.000 H 
ATOM    138  H40 UNL A   1      24.459  23.606 -11.570  1.00  0.00    +0.000 H 
ATOM    139  H41 UNL A   1      19.820  24.120 -15.924  1.00  0.00    +0.000 H 
ATOM    140  H42 UNL A   1      21.332  22.367 -16.971  1.00  0.00    +0.000 H 
ATOM    141  H43 UNL A   1      23.067  23.568 -13.389  1.00  0.00    +0.000 H 
ATOM    142  H44 UNL A   1      19.898  26.906 -11.366  1.00  0.00    +0.000 H 
ATOM    143  H45 UNL A   1      21.599  27.178  -9.473  1.00  0.00    +0.000 H 
ATOM    144  H46 UNL A   1      27.416  20.074 -13.549  1.00  0.00    +0.000 H 
ATOM    145  H47 UNL A   1      25.977  20.118 -15.667  1.00  0.00    +0.000 H 
ATOM     38  C32 UNL A   1      23.671  21.777 -15.451  1.00  0.00    +0.000 C 
ATOM     39  C33 UNL A   1      24.784  21.617 -14.453  1.00  0.00    +0.000 C 
ATOM     40  N3  UNL A   1      24.941  22.192 -13.287  1.00  0.00    +0.000 N 
ATOM     41  C34 UNL A   1      26.106  21.656 -12.756  1.00  0.00    +0.000 C 
ATOM     42  C35 UNL A   1      26.723  21.966 -11.589  1.00  0.00    +0.000 C 
ATOM     54  C42 UNL A   1      26.256  22.965 -10.665  1.00  0.00    +0.000 C 
ATOM     55  C43 UNL A   1      26.845  23.397  -9.489  1.00  0.00    +0.000 C 
ATOM     56  C44 UNL A   1      26.012  24.361  -8.910  1.00  0.00    +0.000 C 
ATOM     57  C45 UNL A   1      24.925  24.559  -9.746  1.00  0.00    +0.000 C 
ATOM     58  N4  UNL A   1      25.084  23.692 -10.816  1.00  0.00    +0.000 N 
ATOM     59  C46 UNL A   1      23.822  25.470  -9.583  1.00  0.00    +0.000 C 
ATOM     71  C53 UNL A   1      22.790  25.606 -10.451  1.00  0.00    +0.000 C 
ATOM     72  N5  UNL A   1      22.563  24.941 -11.647  1.00  0.00    +0.000 N 
ATOM     73  C54 UNL A   1      21.432  25.411 -12.112  1.00  0.00    +0.000 C 
ATOM     74  C55 UNL A   1      20.715  25.070 -13.389  1.00  0.00    +0.000 C 
ATOM     86  C62 UNL A   1      21.270  24.186 -14.240  1.00  0.00    +0.000 C 
ATOM     87  C63 UNL A   1      20.700  23.766 -15.517  1.00  0.00    +0.000 C 
ATOM     88  C64 UNL A   1      21.504  22.847 -16.074  1.00  0.00    +0.000 C 
ATOM     89  C65 UNL A   1      22.662  22.635 -15.205  1.00  0.00    +0.000 C 
ATOM     90  N6  UNL A   1      22.444  23.479 -14.146  1.00  0.00    +0.000 N 
ATOM     91  C66 UNL A   1      20.798  26.415 -11.245  1.00  0.00    +0.000 C 
ATOM     92  C67 UNL A   1      21.684  26.524 -10.266  1.00  0.00    +0.000 C 
ATOM     93  C68 UNL A   1      26.593  20.678 -13.704  1.00  0.00    +0.000 C 
ATOM     94  C69 UNL A   1      25.847  20.661 -14.799  1.00  0.00    +0.000 C 
ENDROOT
BRANCH   38   37
ATOM     34  C28 UNL A   1      23.525  19.352 -18.985  1.00  0.00    +0.000 C 
ATOM     35  C29 UNL A   1      24.100  20.627 -19.043  1.00  0.00    +0.000 C 
ATOM     36  C30 UNL A   1      24.170  21.412 -17.890  1.00  0.00    +0.000 C 
ATOM     37  C31 UNL A   1      23.641  20.942 -16.678  1.00  0.00    +0.000 C 
ATOM    134  H36 UNL A   1      24.471  20.985 -19.937  1.00  0.00    +0.000 H 
ATOM    135  H37 UNL A   1      24.614  22.343 -17.930  1.00  0.00    +0.000 H 
ATOM    146  H48 UNL A   1      22.681  19.305 -15.743  1.00  0.00    +0.000 H 
ATOM    147  H49 UNL A   1      22.716  17.881 -17.704  1.00  0.00    +0.000 H 
ATOM     95  C70 UNL A   1      23.082  19.655 -16.627  1.00  0.00    +0.000 C 
ATOM     96  C71 UNL A   1      23.067  18.849 -17.764  1.00  0.00    +0.000 C 
BRANCH   34   32
ATOM     33  O3  UNL A   1      23.863  19.009 -21.276  1.00  0.00    +0.000 O 
ATOM     32  C27 UNL A   1      23.478  18.535 -20.220  1.00  0.00    +0.000 C 
BRANCH   32   31
ATOM    133  H35 UNL A   1      23.699  16.551 -20.034  1.00  0.00    +0.000 H 
ATOM     31  N2  UNL A   1      23.013  17.241 -20.177  1.00  0.00    +0.000 N 
BRANCH   31   30
ATOM    131  H33 UNL A   1      21.028  17.548 -20.653  1.00  0.00    +0.000 H 
ATOM    132  H34 UNL A   1      21.661  15.941 -21.017  1.00  0.00    +0.000 H 
ATOM     30  C26 UNL A   1      21.653  16.748 -20.313  1.00  0.00    +0.000 C 
BRANCH   30   29
ATOM    129  H31 UNL A   1      21.660  15.344 -18.724  1.00  0.00    +0.000 H 
ATOM    130  H32 UNL A   1      21.198  17.014 -18.284  1.00  0.00    +0.000 H 
ATOM     29  C25 UNL A   1      21.102  16.217 -18.991  1.00  0.00    +0.000 C 
BRANCH   29   28
ATOM     28  C24 UNL A   1      19.616  15.841 -19.018  1.00  0.00    +0.000 C 
ATOM    127  H29 UNL A   1      19.052  16.738 -19.167  1.00  0.00    +0.000 H 
ATOM    128  H30 UNL A   1      19.510  15.126 -19.808  1.00  0.00    +0.000 H 
BRANCH   28   27
ATOM     27  C23 UNL A   1      19.081  15.153 -17.756  1.00  0.00    +0.000 C 
ATOM    125  H27 UNL A   1      18.498  15.866 -17.211  1.00  0.00    +0.000 H 
ATOM    126  H28 UNL A   1      18.516  14.309 -18.094  1.00  0.00    +0.000 H 
BRANCH   27   26
ATOM     26  C22 UNL A   1      20.153  14.598 -16.814  1.00  0.00    +0.000 C 
ATOM    123  H25 UNL A   1      20.782  13.937 -17.373  1.00  0.00    +0.000 H 
ATOM    124  H26 UNL A   1      20.684  15.440 -16.422  1.00  0.00    +0.000 H 
BRANCH   26   25
ATOM     25  C21 UNL A   1      19.596  13.830 -15.612  1.00  0.00    +0.000 C 
ATOM    122  H24 UNL A   1      20.383  13.711 -14.898  1.00  0.00    +0.000 H 
ATOM    121  H23 UNL A   1      19.233  12.880 -15.946  1.00  0.00    +0.000 H 
BRANCH   25   24
ATOM    120  H22 UNL A   1      17.708  14.641 -15.534  1.00  0.00    +0.000 H 
ATOM     24  N1  UNL A   1      18.512  14.546 -14.974  1.00  0.00    +0.000 N 
BRANCH   24   22
ATOM     22  C20 UNL A   1      18.402  15.113 -13.741  1.00  0.00    +0.000 C 
ATOM     23  O2  UNL A   1      18.502  14.336 -12.783  1.00  0.00    +0.000 O 
BRANCH   22   20
ATOM    116  H18 UNL A   1      19.006  16.934 -12.929  1.00  0.00    +0.000 H 
ATOM     20  C18 UNL A   1      18.158  16.612 -13.496  1.00  0.00    +0.000 C 
BRANCH   20   19
ATOM      7  C6  UNL A   1      19.426  17.957 -15.294  1.00  0.00    +0.000 C 
ATOM      8  C7  UNL A   1      19.420  18.626 -16.537  1.00  0.00    +0.000 C 
ATOM      9  C8  UNL A   1      18.231  18.882 -17.229  1.00  0.00    +0.000 C 
ATOM    104  H6  UNL A   1      20.316  18.935 -16.946  1.00  0.00    +0.000 H 
ATOM     17  C15 UNL A   1      17.035  18.415 -16.694  1.00  0.00    +0.000 C 
ATOM     18  C16 UNL A   1      17.028  17.723 -15.484  1.00  0.00    +0.000 C 
ATOM     19  C17 UNL A   1      18.210  17.443 -14.779  1.00  0.00    +0.000 C 
ATOM    115  H17 UNL A   1      16.127  17.405 -15.096  1.00  0.00    +0.000 H 
ATOM    114  H16 UNL A   1      16.148  18.582 -17.194  1.00  0.00    +0.000 H 
BRANCH    7    6
ATOM     97  C72 UNL A   1      21.541  16.965 -14.328  1.00  0.00    +0.000 C 
ATOM     98  C73 UNL A   1      22.667  17.099 -13.501  1.00  0.00    +0.000 C 
ATOM      3  C2  UNL A   1      22.941  18.301 -12.830  1.00  0.00    +0.000 C 
ATOM      4  C3  UNL A   1      22.062  19.370 -13.004  1.00  0.00    +0.000 C 
ATOM      5  C4  UNL A   1      20.936  19.234 -13.818  1.00  0.00    +0.000 C 
ATOM    102  H4  UNL A   1      22.245  20.267 -12.528  1.00  0.00    +0.000 H 
ATOM      6  C5  UNL A   1      20.655  18.032 -14.489  1.00  0.00    +0.000 C 
ATOM    103  H5  UNL A   1      20.296  20.035 -13.928  1.00  0.00    +0.000 H 
ATOM    148  H50 UNL A   1      21.368  16.075 -14.820  1.00  0.00    +0.000 H 
ATOM    149  H51 UNL A   1      23.306  16.298 -13.383  1.00  0.00    +0.000 H 
BRANCH    3    2
ATOM      2  S1  UNL A   1      24.388  18.356 -11.779  1.00  0.00    +0.000 S 
BRANCH    2    1
ATOM      1  C1  UNL A   1      25.595  17.341 -12.679  1.00  0.00    +0.000 C 
ATOM     99  H1  UNL A   1      25.424  17.432 -13.730  1.00  0.00    +0.000 H 
ATOM    100  H2  UNL A   1      25.487  16.317 -12.388  1.00  0.00    +0.000 H 
ATOM    101  H3  UNL A   1      26.585  17.675 -12.447  1.00  0.00    +0.000 H 
ENDBRANCH    2    1
ENDBRANCH    3    2
ENDBRANCH    7    6
BRANCH    9   10
ATOM    105  H7  UNL A   1      17.196  20.002 -18.676  1.00  0.00    +0.000 H 
ATOM     10  C9  UNL A   1      18.215  19.765 -18.452  1.00  0.00    +0.000 C 
ATOM    106  H8  UNL A   1      18.705  19.212 -19.226  1.00  0.00    +0.000 H 
BRANCH   10   11
ATOM     11  C10 UNL A   1      18.990  21.084 -18.312  1.00  0.00    +0.000 C 
ATOM    108  H10 UNL A   1      20.756  20.201 -19.175  1.00  0.00    +0.000 H 
ATOM     12  C11 UNL A   1      20.352  21.179 -19.015  1.00  0.00    +0.000 C 
ATOM    107  H9  UNL A   1      19.115  21.117 -17.251  1.00  0.00    +0.000 H 
ATOM     15  C14 UNL A   1      18.243  22.244 -18.932  1.00  0.00    +0.000 C 
ATOM    109  H11 UNL A   1      21.059  21.724 -18.424  1.00  0.00    +0.000 H 
ATOM     13  C12 UNL A   1      20.095  21.870 -20.351  1.00  0.00    +0.000 C 
ATOM     14  C13 UNL A   1      19.000  22.886 -20.063  1.00  0.00    +0.000 C 
ATOM     16  O1  UNL A   1      17.151  22.637 -18.538  1.00  0.00    +0.000 O 
ATOM    110  H12 UNL A   1      19.768  21.162 -21.083  1.00  0.00    +0.000 H 
ATOM    111  H13 UNL A   1      20.978  22.330 -20.742  1.00  0.00    +0.000 H 
ATOM    112  H14 UNL A   1      18.371  23.028 -20.917  1.00  0.00    +0.000 H 
ATOM    113  H15 UNL A   1      19.375  23.860 -19.826  1.00  0.00    +0.000 H 
ENDBRANCH   10   11
ENDBRANCH    9   10
ENDBRANCH   20   19
BRANCH   20   21
ATOM    117  H19 UNL A   1      17.332  17.683 -11.839  1.00  0.00    +0.000 H 
ATOM     21  C19 UNL A   1      17.008  16.947 -12.545  1.00  0.00    +0.000 C 
ATOM    118  H20 UNL A   1      16.706  16.063 -12.026  1.00  0.00    +0.000 H 
ATOM    119  H21 UNL A   1      16.182  17.330 -13.107  1.00  0.00    +0.000 H 
ENDBRANCH   20   21
ENDBRANCH   22   20
ENDBRANCH   24   22
ENDBRANCH   25   24
ENDBRANCH   26   25
ENDBRANCH   27   26
ENDBRANCH   28   27
ENDBRANCH   29   28
ENDBRANCH   30   29
ENDBRANCH   31   30
ENDBRANCH   32   31
ENDBRANCH   34   32
ENDBRANCH   38   37
BRANCH   42   43
ATOM     43  C36 UNL A   1      27.978  21.217 -11.249  1.00  0.00    +0.000 C 
ATOM     44  C37 UNL A   1      27.950  20.053 -10.468  1.00  0.00    +0.000 C 
ATOM     45  F1  UNL A   1      26.790  19.607  -9.963  1.00  0.00    +0.000 F 
ATOM     46  C38 UNL A   1      29.122  19.360 -10.171  1.00  0.00    +0.000 C 
ATOM     47  F2  UNL A   1      29.076  18.276  -9.385  1.00  0.00    +0.000 F 
ATOM     48  C39 UNL A   1      30.336  19.800 -10.676  1.00  0.00    +0.000 C 
ATOM     49  F3  UNL A   1      31.462  19.129 -10.394  1.00  0.00    +0.000 F 
ATOM     50  C40 UNL A   1      30.384  20.938 -11.467  1.00  0.00    +0.000 C 
ATOM     51  F4  UNL A   1      31.557  21.357 -11.964  1.00  0.00    +0.000 F 
ATOM     52  C41 UNL A   1      29.219  21.648 -11.742  1.00  0.00    +0.000 C 
ATOM     53  F5  UNL A   1      29.300  22.753 -12.499  1.00  0.00    +0.000 F 
ENDBRANCH   42   43
BRANCH   59   60
ATOM     65  C50 UNL A   1      23.879  28.001  -6.097  1.00  0.00    +0.000 C 
ATOM     66  F8  UNL A   1      23.899  28.791  -5.016  1.00  0.00    +0.000 F 
ATOM     67  C51 UNL A   1      24.542  28.388  -7.253  1.00  0.00    +0.000 C 
ATOM     68  F9  UNL A   1      25.217  29.544  -7.281  1.00  0.00    +0.000 F 
ATOM     69  C52 UNL A   1      24.504  27.578  -8.384  1.00  0.00    +0.000 C 
ATOM     70  F10 UNL A   1      25.144  27.983  -9.491  1.00  0.00    +0.000 F 
ATOM     60  C47 UNL A   1      23.819  26.353  -8.371  1.00  0.00    +0.000 C 
ATOM     61  C48 UNL A   1      23.170  25.973  -7.188  1.00  0.00    +0.000 C 
ATOM     62  F6  UNL A   1      22.489  24.818  -7.132  1.00  0.00    +0.000 F 
ATOM     63  C49 UNL A   1      23.189  26.798  -6.066  1.00  0.00    +0.000 C 
ATOM     64  F7  UNL A   1      22.527  26.435  -4.959  1.00  0.00    +0.000 F 
ENDBRANCH   59   60
BRANCH   74   75
ATOM     75  C56 UNL A   1      19.424  25.717 -13.734  1.00  0.00    +0.000 C 
ATOM     76  C57 UNL A   1      19.395  26.934 -14.429  1.00  0.00    +0.000 C 
ATOM     77  F11 UNL A   1      20.544  27.538 -14.768  1.00  0.00    +0.000 F 
ATOM     78  C58 UNL A   1      18.188  27.555 -14.742  1.00  0.00    +0.000 C 
ATOM     79  F12 UNL A   1      18.189  28.738 -15.371  1.00  0.00    +0.000 F 
ATOM     80  C59 UNL A   1      16.987  26.957 -14.392  1.00  0.00    +0.000 C 
ATOM     81  F13 UNL A   1      15.826  27.551 -14.697  1.00  0.00    +0.000 F 
ATOM     82  C60 UNL A   1      16.991  25.744 -13.719  1.00  0.00    +0.000 C 
ATOM     83  F14 UNL A   1      15.833  25.157 -13.390  1.00  0.00    +0.000 F 
ATOM     84  C61 UNL A   1      18.198  25.135 -13.383  1.00  0.00    +0.000 C 
ATOM     85  F15 UNL A   1      18.173  23.967 -12.723  1.00  0.00    +0.000 F 
ENDBRANCH   74   75
TORSDOF 22
ENDMDL
MODEL 6
REMARK VINA RESULT:      -8.3      6.548     14.986
ROOT
ATOM    136  H38 UNL A   1      16.230  47.279   1.380  1.00  0.00    +0.000 H 
ATOM    137  H39 UNL A   1      15.357  47.413   3.833  1.00  0.00    +0.000 H 
ATOM    138  H40 UNL A   1      15.748  51.270   2.379  1.00  0.00    +0.000 H 
ATOM    139  H41 UNL A   1      15.469  57.575   3.326  1.00  0.00    +0.000 H 
ATOM    140  H42 UNL A   1      16.291  57.440   0.927  1.00  0.00    +0.000 H 
ATOM    141  H43 UNL A   1      15.879  53.556   2.351  1.00  0.00    +0.000 H 
ATOM    142  H44 UNL A   1      14.101  53.980   7.034  1.00  0.00    +0.000 H 
ATOM    143  H45 UNL A   1      14.239  51.429   7.178  1.00  0.00    +0.000 H 
ATOM    144  H46 UNL A   1      17.270  50.956  -2.387  1.00  0.00    +0.000 H 
ATOM    145  H47 UNL A   1      17.585  53.498  -2.408  1.00  0.00    +0.000 H 
ATOM     38  C32 UNL A   1      16.681  54.783  -0.031  1.00  0.00    +0.000 C 
ATOM     39  C33 UNL A   1      16.758  53.307  -0.305  1.00  0.00    +0.000 C 
ATOM     40  N3  UNL A   1      16.437  52.303   0.472  1.00  0.00    +0.000 N 
ATOM     41  C34 UNL A   1      16.653  51.158  -0.284  1.00  0.00    +0.000 C 
ATOM     42  C35 UNL A   1      16.516  49.862   0.089  1.00  0.00    +0.000 C 
ATOM     54  C42 UNL A   1      16.116  49.433   1.403  1.00  0.00    +0.000 C 
ATOM     55  C43 UNL A   1      16.011  48.145   1.897  1.00  0.00    +0.000 C 
ATOM     56  C44 UNL A   1      15.555  48.217   3.218  1.00  0.00    +0.000 C 
ATOM     57  C45 UNL A   1      15.416  49.553   3.559  1.00  0.00    +0.000 C 
ATOM     58  N4  UNL A   1      15.758  50.287   2.435  1.00  0.00    +0.000 N 
ATOM     59  C46 UNL A   1      15.002  50.119   4.818  1.00  0.00    +0.000 C 
ATOM     71  C53 UNL A   1      14.890  51.444   5.076  1.00  0.00    +0.000 C 
ATOM     72  N5  UNL A   1      15.142  52.520   4.236  1.00  0.00    +0.000 N 
ATOM     73  C54 UNL A   1      14.879  53.594   4.939  1.00  0.00    +0.000 C 
ATOM     74  C55 UNL A   1      15.000  55.040   4.545  1.00  0.00    +0.000 C 
ATOM     86  C62 UNL A   1      15.469  55.352   3.322  1.00  0.00    +0.000 C 
ATOM     87  C63 UNL A   1      15.652  56.704   2.803  1.00  0.00    +0.000 C 
ATOM     88  C64 UNL A   1      16.096  56.633   1.538  1.00  0.00    +0.000 C 
ATOM     89  C65 UNL A   1      16.256  55.226   1.167  1.00  0.00    +0.000 C 
ATOM     90  N6  UNL A   1      15.870  54.539   2.290  1.00  0.00    +0.000 N 
ATOM     91  C66 UNL A   1      14.404  53.318   6.303  1.00  0.00    +0.000 C 
ATOM     92  C67 UNL A   1      14.465  51.994   6.346  1.00  0.00    +0.000 C 
ATOM     93  C68 UNL A   1      17.091  51.590  -1.593  1.00  0.00    +0.000 C 
ATOM     94  C69 UNL A   1      17.233  52.907  -1.638  1.00  0.00    +0.000 C 
ENDROOT
BRANCH   38   37
ATOM     34  C28 UNL A   1      17.663  57.570  -3.139  1.00  0.00    +0.000 C 
ATOM     35  C29 UNL A   1      16.349  57.106  -3.016  1.00  0.00    +0.000 C 
ATOM     36  C30 UNL A   1      16.018  56.215  -1.991  1.00  0.00    +0.000 C 
ATOM     37  C31 UNL A   1      17.004  55.759  -1.102  1.00  0.00    +0.000 C 
ATOM    134  H36 UNL A   1      15.626  57.421  -3.681  1.00  0.00    +0.000 H 
ATOM    135  H37 UNL A   1      15.044  55.891  -1.888  1.00  0.00    +0.000 H 
ATOM    146  H48 UNL A   1      19.049  55.907  -0.583  1.00  0.00    +0.000 H 
ATOM    147  H49 UNL A   1      19.580  57.582  -2.252  1.00  0.00    +0.000 H 
ATOM     95  C70 UNL A   1      18.316  56.244  -1.225  1.00  0.00    +0.000 C 
ATOM     96  C71 UNL A   1      18.631  57.179  -2.210  1.00  0.00    +0.000 C 
BRANCH   34   32
ATOM     33  O3  UNL A   1      17.144  59.336  -4.587  1.00  0.00    +0.000 O 
ATOM     32  C27 UNL A   1      17.982  58.526  -4.226  1.00  0.00    +0.000 C 
BRANCH   32   31
ATOM    133  H35 UNL A   1      19.475  57.661  -5.249  1.00  0.00    +0.000 H 
ATOM     31  N2  UNL A   1      19.223  58.510  -4.820  1.00  0.00    +0.000 N 
BRANCH   31   30
ATOM    131  H33 UNL A   1      20.389  59.799  -5.934  1.00  0.00    +0.000 H 
ATOM    132  H34 UNL A   1      19.837  60.420  -4.377  1.00  0.00    +0.000 H 
ATOM     30  C26 UNL A   1      20.215  59.569  -4.903  1.00  0.00    +0.000 C 
BRANCH   30   29
ATOM    129  H31 UNL A   1      21.385  58.245  -3.730  1.00  0.00    +0.000 H 
ATOM    130  H32 UNL A   1      22.249  59.080  -5.054  1.00  0.00    +0.000 H 
ATOM     29  C25 UNL A   1      21.539  59.163  -4.257  1.00  0.00    +0.000 C 
BRANCH   29   28
ATOM     28  C24 UNL A   1      22.114  60.187  -3.272  1.00  0.00    +0.000 C 
ATOM    127  H29 UNL A   1      22.849  59.691  -2.674  1.00  0.00    +0.000 H 
ATOM    128  H30 UNL A   1      22.508  60.980  -3.873  1.00  0.00    +0.000 H 
BRANCH   28   27
ATOM     27  C23 UNL A   1      21.100  60.843  -2.326  1.00  0.00    +0.000 C 
ATOM    125  H27 UNL A   1      20.285  61.207  -2.915  1.00  0.00    +0.000 H 
ATOM    126  H28 UNL A   1      20.816  60.087  -1.624  1.00  0.00    +0.000 H 
BRANCH   27   26
ATOM     26  C22 UNL A   1      21.645  62.010  -1.497  1.00  0.00    +0.000 C 
ATOM    123  H25 UNL A   1      20.844  62.697  -1.318  1.00  0.00    +0.000 H 
ATOM    124  H26 UNL A   1      22.038  61.590  -0.595  1.00  0.00    +0.000 H 
BRANCH   26   25
ATOM     25  C21 UNL A   1      22.793  62.772  -2.166  1.00  0.00    +0.000 C 
ATOM    122  H24 UNL A   1      22.522  62.956  -3.184  1.00  0.00    +0.000 H 
ATOM    121  H23 UNL A   1      23.683  62.181  -2.105  1.00  0.00    +0.000 H 
BRANCH   25   24
ATOM    120  H22 UNL A   1      22.268  64.665  -1.560  1.00  0.00    +0.000 H 
ATOM     24  N1  UNL A   1      23.034  64.047  -1.526  1.00  0.00    +0.000 N 
BRANCH   24   22
ATOM     22  C20 UNL A   1      24.126  64.549  -0.887  1.00  0.00    +0.000 C 
ATOM     23  O2  UNL A   1      24.754  65.420  -1.502  1.00  0.00    +0.000 O 
BRANCH   22   20
ATOM    116  H18 UNL A   1      24.024  63.218   0.713  1.00  0.00    +0.000 H 
ATOM     20  C18 UNL A   1      24.599  64.095   0.505  1.00  0.00    +0.000 C 
BRANCH   20   19
ATOM      7  C6  UNL A   1      26.411  62.289   0.185  1.00  0.00    +0.000 C 
ATOM      8  C7  UNL A   1      27.777  61.941   0.111  1.00  0.00    +0.000 C 
ATOM      9  C8  UNL A   1      28.787  62.849   0.451  1.00  0.00    +0.000 C 
ATOM    104  H6  UNL A   1      28.038  60.992  -0.201  1.00  0.00    +0.000 H 
ATOM     17  C15 UNL A   1      28.425  64.140   0.820  1.00  0.00    +0.000 C 
ATOM     18  C16 UNL A   1      27.082  64.509   0.864  1.00  0.00    +0.000 C 
ATOM     19  C17 UNL A   1      26.052  63.619   0.515  1.00  0.00    +0.000 C 
ATOM    115  H17 UNL A   1      26.836  65.465   1.162  1.00  0.00    +0.000 H 
ATOM    114  H16 UNL A   1      29.154  64.828   1.062  1.00  0.00    +0.000 H 
BRANCH    7    6
ATOM     97  C72 UNL A   1      25.408  60.212  -0.851  1.00  0.00    +0.000 C 
ATOM     98  C73 UNL A   1      24.406  59.229  -0.852  1.00  0.00    +0.000 C 
ATOM      3  C2  UNL A   1      23.415  59.195   0.142  1.00  0.00    +0.000 C 
ATOM      4  C3  UNL A   1      23.448  60.168   1.140  1.00  0.00    +0.000 C 
ATOM      5  C4  UNL A   1      24.437  61.153   1.135  1.00  0.00    +0.000 C 
ATOM    102  H4  UNL A   1      22.735  60.161   1.886  1.00  0.00    +0.000 H 
ATOM      6  C5  UNL A   1      25.429  61.194   0.142  1.00  0.00    +0.000 C 
ATOM    103  H5  UNL A   1      24.439  61.867   1.879  1.00  0.00    +0.000 H 
ATOM    148  H50 UNL A   1      26.133  60.208  -1.585  1.00  0.00    +0.000 H 
ATOM    149  H51 UNL A   1      24.398  58.517  -1.599  1.00  0.00    +0.000 H 
BRANCH    3    2
ATOM      2  S1  UNL A   1      22.170  57.915   0.031  1.00  0.00    +0.000 S 
BRANCH    2    1
ATOM      1  C1  UNL A   1      22.686  56.957  -1.422  1.00  0.00    +0.000 C 
ATOM     99  H1  UNL A   1      23.564  56.394  -1.184  1.00  0.00    +0.000 H 
ATOM    100  H2  UNL A   1      22.898  57.622  -2.232  1.00  0.00    +0.000 H 
ATOM    101  H3  UNL A   1      21.899  56.288  -1.706  1.00  0.00    +0.000 H 
ENDBRANCH    2    1
ENDBRANCH    3    2
ENDBRANCH    7    6
BRANCH    9   10
ATOM    105  H7  UNL A   1      30.768  62.849  -0.254  1.00  0.00    +0.000 H 
ATOM     10  C9  UNL A   1      30.226  62.410   0.558  1.00  0.00    +0.000 C 
ATOM    106  H8  UNL A   1      30.215  61.340   0.532  1.00  0.00    +0.000 H 
BRANCH   10   11
ATOM     11  C10 UNL A   1      30.929  62.799   1.866  1.00  0.00    +0.000 C 
ATOM    108  H10 UNL A   1      29.336  61.948   3.041  1.00  0.00    +0.000 H 
ATOM     12  C11 UNL A   1      30.364  62.220   3.171  1.00  0.00    +0.000 C 
ATOM    107  H9  UNL A   1      30.799  63.860   1.841  1.00  0.00    +0.000 H 
ATOM     15  C14 UNL A   1      32.359  62.304   1.905  1.00  0.00    +0.000 C 
ATOM    109  H11 UNL A   1      30.406  62.935   3.966  1.00  0.00    +0.000 H 
ATOM     13  C12 UNL A   1      31.202  60.986   3.488  1.00  0.00    +0.000 C 
ATOM     14  C13 UNL A   1      32.610  61.339   3.032  1.00  0.00    +0.000 C 
ATOM     16  O1  UNL A   1      33.227  62.670   1.121  1.00  0.00    +0.000 O 
ATOM    110  H12 UNL A   1      30.835  60.135   2.953  1.00  0.00    +0.000 H 
ATOM    111  H13 UNL A   1      31.167  60.733   4.527  1.00  0.00    +0.000 H 
ATOM    112  H14 UNL A   1      33.133  60.471   2.689  1.00  0.00    +0.000 H 
ATOM    113  H15 UNL A   1      33.220  61.744   3.812  1.00  0.00    +0.000 H 
ENDBRANCH   10   11
ENDBRANCH    9   10
ENDBRANCH   20   19
BRANCH   20   21
ATOM    117  H19 UNL A   1      23.716  64.424   2.425  1.00  0.00    +0.000 H 
ATOM     21  C19 UNL A   1      24.200  65.005   1.667  1.00  0.00    +0.000 C 
ATOM    118  H20 UNL A   1      23.531  65.761   1.315  1.00  0.00    +0.000 H 
ATOM    119  H21 UNL A   1      25.076  65.466   2.075  1.00  0.00    +0.000 H 
ENDBRANCH   20   21
ENDBRANCH   22   20
ENDBRANCH   24   22
ENDBRANCH   25   24
ENDBRANCH   26   25
ENDBRANCH   27   26
ENDBRANCH   28   27
ENDBRANCH   29   28
ENDBRANCH   30   29
ENDBRANCH   31   30
ENDBRANCH   32   31
ENDBRANCH   34   32
ENDBRANCH   38   37
BRANCH   42   43
ATOM     43  C36 UNL A   1      16.808  48.810  -0.941  1.00  0.00    +0.000 C 
ATOM     44  C37 UNL A   1      18.074  48.214  -1.043  1.00  0.00    +0.000 C 
ATOM     45  F1  UNL A   1      19.075  48.614  -0.245  1.00  0.00    +0.000 F 
ATOM     46  C38 UNL A   1      18.328  47.229  -1.995  1.00  0.00    +0.000 C 
ATOM     47  F2  UNL A   1      19.557  46.707  -2.104  1.00  0.00    +0.000 F 
ATOM     48  C39 UNL A   1      17.314  46.798  -2.837  1.00  0.00    +0.000 C 
ATOM     49  F3  UNL A   1      17.558  45.846  -3.748  1.00  0.00    +0.000 F 
ATOM     50  C40 UNL A   1      16.050  47.359  -2.739  1.00  0.00    +0.000 C 
ATOM     51  F4  UNL A   1      15.066  46.935  -3.546  1.00  0.00    +0.000 F 
ATOM     52  C41 UNL A   1      15.800  48.363  -1.808  1.00  0.00    +0.000 C 
ATOM     53  F5  UNL A   1      14.570  48.896  -1.747  1.00  0.00    +0.000 F 
ENDBRANCH   42   43
BRANCH   59   60
ATOM     65  C50 UNL A   1      14.142  47.360   8.013  1.00  0.00    +0.000 C 
ATOM     66  F8  UNL A   1      13.879  46.503   9.008  1.00  0.00    +0.000 F 
ATOM     67  C51 UNL A   1      15.420  47.878   7.862  1.00  0.00    +0.000 C 
ATOM     68  F9  UNL A   1      16.395  47.507   8.702  1.00  0.00    +0.000 F 
ATOM     69  C52 UNL A   1      15.689  48.786   6.842  1.00  0.00    +0.000 C 
ATOM     70  F10 UNL A   1      16.931  49.280   6.728  1.00  0.00    +0.000 F 
ATOM     60  C47 UNL A   1      14.687  49.174   5.939  1.00  0.00    +0.000 C 
ATOM     61  C48 UNL A   1      13.407  48.624   6.098  1.00  0.00    +0.000 C 
ATOM     62  F6  UNL A   1      12.413  48.977   5.269  1.00  0.00    +0.000 F 
ATOM     63  C49 UNL A   1      13.135  47.737   7.136  1.00  0.00    +0.000 C 
ATOM     64  F7  UNL A   1      11.894  47.257   7.296  1.00  0.00    +0.000 F 
ENDBRANCH   59   60
BRANCH   74   75
ATOM     75  C56 UNL A   1      14.641  56.122   5.496  1.00  0.00    +0.000 C 
ATOM     76  C57 UNL A   1      15.621  56.731   6.293  1.00  0.00    +0.000 C 
ATOM     77  F11 UNL A   1      16.895  56.320   6.216  1.00  0.00    +0.000 F 
ATOM     78  C58 UNL A   1      15.288  57.736   7.199  1.00  0.00    +0.000 C 
ATOM     79  F12 UNL A   1      16.237  58.273   7.977  1.00  0.00    +0.000 F 
ATOM     80  C59 UNL A   1      13.975  58.170   7.305  1.00  0.00    +0.000 C 
ATOM     81  F13 UNL A   1      13.657  59.139   8.172  1.00  0.00    +0.000 F 
ATOM     82  C60 UNL A   1      12.992  57.594   6.514  1.00  0.00    +0.000 C 
ATOM     83  F14 UNL A   1      11.725  58.019   6.605  1.00  0.00    +0.000 F 
ATOM     84  C61 UNL A   1      13.319  56.571   5.626  1.00  0.00    +0.000 C 
ATOM     85  F15 UNL A   1      12.347  56.024   4.881  1.00  0.00    +0.000 F 
ENDBRANCH   74   75
TORSDOF 22
ENDMDL
MODEL 7
REMARK VINA RESULT:      -8.3      5.394     13.207
ROOT
ATOM    136  H38 UNL A   1      14.798  46.574   0.888  1.00  0.00    +0.000 H 
ATOM    137  H39 UNL A   1      13.161  46.384   2.909  1.00  0.00    +0.000 H 
ATOM    138  H40 UNL A   1      14.684  50.233   2.827  1.00  0.00    +0.000 H 
ATOM    139  H41 UNL A   1      15.170  56.029   5.454  1.00  0.00    +0.000 H 
ATOM    140  H42 UNL A   1      16.742  56.219   3.467  1.00  0.00    +0.000 H 
ATOM    141  H43 UNL A   1      15.204  52.356   3.508  1.00  0.00    +0.000 H 
ATOM    142  H44 UNL A   1      12.004  52.182   7.382  1.00  0.00    +0.000 H 
ATOM    143  H45 UNL A   1      11.647  49.713   6.807  1.00  0.00    +0.000 H 
ATOM    144  H46 UNL A   1      17.696  50.596  -1.165  1.00  0.00    +0.000 H 
ATOM    145  H47 UNL A   1      18.426  52.912  -0.348  1.00  0.00    +0.000 H 
ATOM     38  C32 UNL A   1      16.982  53.830   1.930  1.00  0.00    +0.000 C 
ATOM     39  C33 UNL A   1      16.898  52.481   1.272  1.00  0.00    +0.000 C 
ATOM     40  N3  UNL A   1      16.160  51.448   1.592  1.00  0.00    +0.000 N 
ATOM     41  C34 UNL A   1      16.428  50.481   0.632  1.00  0.00    +0.000 C 
ATOM     42  C35 UNL A   1      15.951  49.215   0.552  1.00  0.00    +0.000 C 
ATOM     54  C42 UNL A   1      15.051  48.625   1.507  1.00  0.00    +0.000 C 
ATOM     55  C43 UNL A   1      14.563  47.331   1.549  1.00  0.00    +0.000 C 
ATOM     56  C44 UNL A   1      13.694  47.225   2.642  1.00  0.00    +0.000 C 
ATOM     57  C45 UNL A   1      13.674  48.443   3.303  1.00  0.00    +0.000 C 
ATOM     58  N4  UNL A   1      14.506  49.294   2.593  1.00  0.00    +0.000 N 
ATOM     59  C46 UNL A   1      12.950  48.804   4.494  1.00  0.00    +0.000 C 
ATOM     71  C53 UNL A   1      12.983  50.023   5.085  1.00  0.00    +0.000 C 
ATOM     72  N5  UNL A   1      13.691  51.156   4.709  1.00  0.00    +0.000 N 
ATOM     73  C54 UNL A   1      13.386  52.079   5.587  1.00  0.00    +0.000 C 
ATOM     74  C55 UNL A   1      13.882  53.496   5.686  1.00  0.00    +0.000 C 
ATOM     86  C62 UNL A   1      14.793  53.938   4.799  1.00  0.00    +0.000 C 
ATOM     87  C63 UNL A   1      15.372  55.278   4.776  1.00  0.00    +0.000 C 
ATOM     88  C64 UNL A   1      16.211  55.375   3.732  1.00  0.00    +0.000 C 
ATOM     89  C65 UNL A   1      16.249  54.092   3.029  1.00  0.00    +0.000 C 
ATOM     90  N6  UNL A   1      15.384  53.297   3.738  1.00  0.00    +0.000 N 
ATOM     91  C66 UNL A   1      12.426  51.641   6.610  1.00  0.00    +0.000 C 
ATOM     92  C67 UNL A   1      12.241  50.371   6.280  1.00  0.00    +0.000 C 
ATOM     93  C68 UNL A   1      17.362  51.064  -0.307  1.00  0.00    +0.000 C 
ATOM     94  C69 UNL A   1      17.733  52.277   0.078  1.00  0.00    +0.000 C 
ENDROOT
BRANCH   38   37
ATOM     34  C28 UNL A   1      19.352  56.960   0.205  1.00  0.00    +0.000 C 
ATOM     35  C29 UNL A   1      19.794  56.317   1.366  1.00  0.00    +0.000 C 
ATOM     36  C30 UNL A   1      19.038  55.281   1.920  1.00  0.00    +0.000 C 
ATOM     37  C31 UNL A   1      17.820  54.901   1.335  1.00  0.00    +0.000 C 
ATOM    134  H36 UNL A   1      20.678  56.608   1.812  1.00  0.00    +0.000 H 
ATOM    135  H37 UNL A   1      19.376  54.793   2.763  1.00  0.00    +0.000 H 
ATOM    146  H48 UNL A   1      16.495  55.277  -0.271  1.00  0.00    +0.000 H 
ATOM    147  H49 UNL A   1      17.894  56.954  -1.323  1.00  0.00    +0.000 H 
ATOM     95  C70 UNL A   1      17.394  55.542   0.161  1.00  0.00    +0.000 C 
ATOM     96  C71 UNL A   1      18.179  56.534  -0.425  1.00  0.00    +0.000 C 
BRANCH   34   32
ATOM     33  O3  UNL A   1      20.031  58.373  -1.535  1.00  0.00    +0.000 O 
ATOM     32  C27 UNL A   1      20.182  58.045  -0.369  1.00  0.00    +0.000 C 
BRANCH   32   31
ATOM    133  H35 UNL A   1      21.784  58.110   0.835  1.00  0.00    +0.000 H 
ATOM     31  N2  UNL A   1      21.113  58.691   0.411  1.00  0.00    +0.000 N 
BRANCH   31   30
ATOM    131  H33 UNL A   1      20.350  60.609   0.397  1.00  0.00    +0.000 H 
ATOM    132  H34 UNL A   1      21.415  60.220   1.750  1.00  0.00    +0.000 H 
ATOM     30  C26 UNL A   1      21.247  60.109   0.698  1.00  0.00    +0.000 C 
BRANCH   30   29
ATOM    129  H31 UNL A   1      22.402  60.402  -1.055  1.00  0.00    +0.000 H 
ATOM    130  H32 UNL A   1      22.325  61.792   0.067  1.00  0.00    +0.000 H 
ATOM     29  C25 UNL A   1      22.431  60.733  -0.038  1.00  0.00    +0.000 C 
BRANCH   29   28
ATOM     28  C24 UNL A   1      23.807  60.377   0.538  1.00  0.00    +0.000 C 
ATOM    127  H29 UNL A   1      24.240  61.272   0.931  1.00  0.00    +0.000 H 
ATOM    128  H30 UNL A   1      23.627  59.622   1.276  1.00  0.00    +0.000 H 
BRANCH   28   27
ATOM     27  C23 UNL A   1      24.805  59.765  -0.452  1.00  0.00    +0.000 C 
ATOM    125  H27 UNL A   1      24.888  60.426  -1.290  1.00  0.00    +0.000 H 
ATOM    126  H28 UNL A   1      25.722  59.642   0.087  1.00  0.00    +0.000 H 
BRANCH   27   26
ATOM     26  C22 UNL A   1      24.430  58.377  -0.979  1.00  0.00    +0.000 C 
ATOM    123  H25 UNL A   1      25.134  57.670  -0.591  1.00  0.00    +0.000 H 
ATOM    124  H26 UNL A   1      23.430  58.184  -0.654  1.00  0.00    +0.000 H 
BRANCH   26   25
ATOM     25  C21 UNL A   1      24.428  58.265  -2.506  1.00  0.00    +0.000 C 
ATOM    122  H24 UNL A   1      24.855  57.321  -2.772  1.00  0.00    +0.000 H 
ATOM    121  H23 UNL A   1      24.998  59.073  -2.914  1.00  0.00    +0.000 H 
BRANCH   25   24
ATOM    120  H22 UNL A   1      22.427  57.791  -2.540  1.00  0.00    +0.000 H 
ATOM     24  N1  UNL A   1      23.086  58.320  -3.045  1.00  0.00    +0.000 N 
BRANCH   24   22
ATOM     22  C20 UNL A   1      22.568  58.970  -4.123  1.00  0.00    +0.000 C 
ATOM     23  O2  UNL A   1      22.634  60.206  -4.088  1.00  0.00    +0.000 O 
BRANCH   22   20
ATOM    116  H18 UNL A   1      22.746  57.863  -5.880  1.00  0.00    +0.000 H 
ATOM     20  C18 UNL A   1      21.922  58.267  -5.330  1.00  0.00    +0.000 C 
BRANCH   20   19
ATOM      7  C6  UNL A   1      21.614  55.738  -4.938  1.00  0.00    +0.000 C 
ATOM      8  C7  UNL A   1      20.820  54.672  -4.462  1.00  0.00    +0.000 C 
ATOM      9  C8  UNL A   1      19.488  54.862  -4.076  1.00  0.00    +0.000 C 
ATOM    104  H6  UNL A   1      21.233  53.728  -4.396  1.00  0.00    +0.000 H 
ATOM     17  C15 UNL A   1      18.959  56.148  -4.120  1.00  0.00    +0.000 C 
ATOM     18  C16 UNL A   1      19.741  57.216  -4.556  1.00  0.00    +0.000 C 
ATOM     19  C17 UNL A   1      21.084  57.051  -4.934  1.00  0.00    +0.000 C 
ATOM    115  H17 UNL A   1      19.320  58.157  -4.600  1.00  0.00    +0.000 H 
ATOM    114  H16 UNL A   1      17.983  56.311  -3.829  1.00  0.00    +0.000 H 
BRANCH    7    6
ATOM     97  C72 UNL A   1      22.935  55.045  -6.980  1.00  0.00    +0.000 C 
ATOM     98  C73 UNL A   1      24.161  54.679  -7.555  1.00  0.00    +0.000 C 
ATOM      3  C2  UNL A   1      25.346  54.666  -6.802  1.00  0.00    +0.000 C 
ATOM      4  C3  UNL A   1      25.277  55.029  -5.457  1.00  0.00    +0.000 C 
ATOM      5  C4  UNL A   1      24.055  55.382  -4.882  1.00  0.00    +0.000 C 
ATOM    102  H4  UNL A   1      26.135  55.035  -4.883  1.00  0.00    +0.000 H 
ATOM      6  C5  UNL A   1      22.866  55.394  -5.630  1.00  0.00    +0.000 C 
ATOM    103  H5  UNL A   1      24.025  55.641  -3.884  1.00  0.00    +0.000 H 
ATOM    148  H50 UNL A   1      22.080  55.058  -7.558  1.00  0.00    +0.000 H 
ATOM    149  H51 UNL A   1      24.193  54.413  -8.551  1.00  0.00    +0.000 H 
BRANCH    3    2
ATOM      2  S1  UNL A   1      26.850  54.158  -7.626  1.00  0.00    +0.000 S 
BRANCH    2    1
ATOM      1  C1  UNL A   1      28.128  55.160  -6.817  1.00  0.00    +0.000 C 
ATOM     99  H1  UNL A   1      28.807  55.535  -7.554  1.00  0.00    +0.000 H 
ATOM    100  H2  UNL A   1      28.664  54.557  -6.114  1.00  0.00    +0.000 H 
ATOM    101  H3  UNL A   1      27.668  55.981  -6.306  1.00  0.00    +0.000 H 
ENDBRANCH    2    1
ENDBRANCH    3    2
ENDBRANCH    7    6
BRANCH    9   10
ATOM    105  H7  UNL A   1      17.603  53.932  -4.078  1.00  0.00    +0.000 H 
ATOM     10  C9  UNL A   1      18.594  53.689  -3.758  1.00  0.00    +0.000 C 
ATOM    106  H8  UNL A   1      18.674  53.531  -2.703  1.00  0.00    +0.000 H 
BRANCH   10   11
ATOM     11  C10 UNL A   1      18.997  52.365  -4.422  1.00  0.00    +0.000 C 
ATOM    108  H10 UNL A   1      19.754  51.596  -2.557  1.00  0.00    +0.000 H 
ATOM     12  C11 UNL A   1      19.420  51.213  -3.499  1.00  0.00    +0.000 C 
ATOM    107  H9  UNL A   1      19.826  52.694  -5.011  1.00  0.00    +0.000 H 
ATOM     15  C14 UNL A   1      17.846  51.743  -5.181  1.00  0.00    +0.000 C 
ATOM    109  H11 UNL A   1      20.228  50.652  -3.920  1.00  0.00    +0.000 H 
ATOM     13  C12 UNL A   1      18.181  50.344  -3.307  1.00  0.00    +0.000 C 
ATOM     14  C13 UNL A   1      17.456  50.392  -4.643  1.00  0.00    +0.000 C 
ATOM     16  O1  UNL A   1      17.305  52.269  -6.147  1.00  0.00    +0.000 O 
ATOM    110  H12 UNL A   1      17.563  50.738  -2.528  1.00  0.00    +0.000 H 
ATOM    111  H13 UNL A   1      18.432  49.343  -3.021  1.00  0.00    +0.000 H 
ATOM    112  H14 UNL A   1      16.397  50.320  -4.510  1.00  0.00    +0.000 H 
ATOM    113  H15 UNL A   1      17.713  49.584  -5.296  1.00  0.00    +0.000 H 
ENDBRANCH   10   11
ENDBRANCH    9   10
ENDBRANCH   20   19
BRANCH   20   21
ATOM    117  H19 UNL A   1      21.671  60.183  -6.248  1.00  0.00    +0.000 H 
ATOM     21  C19 UNL A   1      21.285  59.192  -6.369  1.00  0.00    +0.000 C 
ATOM    118  H20 UNL A   1      20.225  59.202  -6.235  1.00  0.00    +0.000 H 
ATOM    119  H21 UNL A   1      21.517  58.836  -7.351  1.00  0.00    +0.000 H 
ENDBRANCH   20   21
ENDBRANCH   22   20
ENDBRANCH   24   22
ENDBRANCH   25   24
ENDBRANCH   26   25
ENDBRANCH   27   26
ENDBRANCH   28   27
ENDBRANCH   29   28
ENDBRANCH   30   29
ENDBRANCH   31   30
ENDBRANCH   32   31
ENDBRANCH   34   32
ENDBRANCH   38   37
BRANCH   42   43
ATOM     43  C36 UNL A   1      16.401  48.377  -0.609  1.00  0.00    +0.000 C 
ATOM     44  C37 UNL A   1      15.581  48.174  -1.729  1.00  0.00    +0.000 C 
ATOM     45  F1  UNL A   1      14.345  48.691  -1.763  1.00  0.00    +0.000 F 
ATOM     46  C38 UNL A   1      16.016  47.404  -2.806  1.00  0.00    +0.000 C 
ATOM     47  F2  UNL A   1      15.199  47.187  -3.845  1.00  0.00    +0.000 F 
ATOM     48  C39 UNL A   1      17.289  46.853  -2.797  1.00  0.00    +0.000 C 
ATOM     49  F3  UNL A   1      17.708  46.118  -3.836  1.00  0.00    +0.000 F 
ATOM     50  C40 UNL A   1      18.123  47.058  -1.709  1.00  0.00    +0.000 C 
ATOM     51  F4  UNL A   1      19.357  46.534  -1.705  1.00  0.00    +0.000 F 
ATOM     52  C41 UNL A   1      17.681  47.803  -0.619  1.00  0.00    +0.000 C 
ATOM     53  F5  UNL A   1      18.506  47.972   0.425  1.00  0.00    +0.000 F 
ENDBRANCH   42   43
BRANCH   59   60
ATOM     65  C50 UNL A   1      10.575  45.726   6.349  1.00  0.00    +0.000 C 
ATOM     66  F8  UNL A   1       9.839  44.768   6.929  1.00  0.00    +0.000 F 
ATOM     67  C51 UNL A   1      11.887  45.933   6.749  1.00  0.00    +0.000 C 
ATOM     68  F9  UNL A   1      12.424  45.161   7.704  1.00  0.00    +0.000 F 
ATOM     69  C52 UNL A   1      12.645  46.942   6.163  1.00  0.00    +0.000 C 
ATOM     70  F10 UNL A   1      13.907  47.126   6.578  1.00  0.00    +0.000 F 
ATOM     60  C47 UNL A   1      12.109  47.749   5.148  1.00  0.00    +0.000 C 
ATOM     61  C48 UNL A   1      10.786  47.512   4.746  1.00  0.00    +0.000 C 
ATOM     62  F6  UNL A   1      10.225  48.268   3.790  1.00  0.00    +0.000 F 
ATOM     63  C49 UNL A   1      10.023  46.518   5.353  1.00  0.00    +0.000 C 
ATOM     64  F7  UNL A   1       8.748  46.337   4.983  1.00  0.00    +0.000 F 
ENDBRANCH   59   60
BRANCH   74   75
ATOM     75  C56 UNL A   1      13.402  54.396   6.764  1.00  0.00    +0.000 C 
ATOM     76  C57 UNL A   1      12.422  55.365   6.506  1.00  0.00    +0.000 C 
ATOM     77  F11 UNL A   1      11.925  55.500   5.268  1.00  0.00    +0.000 F 
ATOM     78  C58 UNL A   1      11.978  56.224   7.510  1.00  0.00    +0.000 C 
ATOM     79  F12 UNL A   1      11.070  57.168   7.227  1.00  0.00    +0.000 F 
ATOM     80  C59 UNL A   1      12.486  56.112   8.796  1.00  0.00    +0.000 C 
ATOM     81  F13 UNL A   1      12.056  56.935   9.761  1.00  0.00    +0.000 F 
ATOM     82  C60 UNL A   1      13.444  55.150   9.077  1.00  0.00    +0.000 C 
ATOM     83  F14 UNL A   1      13.927  55.031  10.321  1.00  0.00    +0.000 F 
ATOM     84  C61 UNL A   1      13.907  54.308   8.069  1.00  0.00    +0.000 C 
ATOM     85  F15 UNL A   1      14.841  53.393   8.367  1.00  0.00    +0.000 F 
ENDBRANCH   74   75
TORSDOF 22
ENDMDL
MODEL 8
REMARK VINA RESULT:      -8.2     20.502     27.240
ROOT
ATOM    136  H38 UNL A   1       3.898  27.891   4.386  1.00  0.00    +0.000 H 
ATOM    137  H39 UNL A   1       4.003  26.695   6.701  1.00  0.00    +0.000 H 
ATOM    138  H40 UNL A   1       7.563  25.987   4.708  1.00  0.00    +0.000 H 
ATOM    139  H41 UNL A   1      13.256  23.114   4.440  1.00  0.00    +0.000 H 
ATOM    140  H42 UNL A   1      13.161  24.304   2.197  1.00  0.00    +0.000 H 
ATOM    141  H43 UNL A   1       9.590  25.056   4.188  1.00  0.00    +0.000 H 
ATOM    142  H44 UNL A   1       9.988  22.780   8.653  1.00  0.00    +0.000 H 
ATOM    143  H45 UNL A   1       7.596  23.564   9.120  1.00  0.00    +0.000 H 
ATOM    144  H46 UNL A   1       7.378  28.438   0.338  1.00  0.00    +0.000 H 
ATOM    145  H47 UNL A   1       9.564  27.291  -0.347  1.00  0.00    +0.000 H 
ATOM     38  C32 UNL A   1      10.737  25.730   1.728  1.00  0.00    +0.000 C 
ATOM     39  C33 UNL A   1       9.408  26.431   1.746  1.00  0.00    +0.000 C 
ATOM     40  N3  UNL A   1       8.509  26.478   2.697  1.00  0.00    +0.000 N 
ATOM     41  C34 UNL A   1       7.495  27.298   2.218  1.00  0.00    +0.000 C 
ATOM     42  C35 UNL A   1       6.319  27.619   2.809  1.00  0.00    +0.000 C 
ATOM     54  C42 UNL A   1       5.894  27.127   4.093  1.00  0.00    +0.000 C 
ATOM     55  C43 UNL A   1       4.694  27.342   4.747  1.00  0.00    +0.000 C 
ATOM     56  C44 UNL A   1       4.745  26.689   5.984  1.00  0.00    +0.000 C 
ATOM     57  C45 UNL A   1       5.962  26.034   6.082  1.00  0.00    +0.000 C 
ATOM     58  N4  UNL A   1       6.659  26.315   4.918  1.00  0.00    +0.000 N 
ATOM     59  C46 UNL A   1       6.454  25.211   7.157  1.00  0.00    +0.000 C 
ATOM     71  C53 UNL A   1       7.663  24.599   7.178  1.00  0.00    +0.000 C 
ATOM     72  N5  UNL A   1       8.663  24.611   6.217  1.00  0.00    +0.000 N 
ATOM     73  C54 UNL A   1       9.638  23.883   6.703  1.00  0.00    +0.000 C 
ATOM     74  C55 UNL A   1      10.960  23.530   6.080  1.00  0.00    +0.000 C 
ATOM     86  C62 UNL A   1      11.239  23.962   4.836  1.00  0.00    +0.000 C 
ATOM     87  C63 UNL A   1      12.470  23.690   4.100  1.00  0.00    +0.000 C 
ATOM     88  C64 UNL A   1      12.416  24.312   2.911  1.00  0.00    +0.000 C 
ATOM     89  C65 UNL A   1      11.131  25.001   2.790  1.00  0.00    +0.000 C 
ATOM     90  N6  UNL A   1      10.494  24.730   3.975  1.00  0.00    +0.000 N 
ATOM     91  C66 UNL A   1       9.374  23.346   8.045  1.00  0.00    +0.000 C 
ATOM     92  C67 UNL A   1       8.143  23.781   8.273  1.00  0.00    +0.000 C 
ATOM     93  C68 UNL A   1       7.908  27.762   0.912  1.00  0.00    +0.000 C 
ATOM     94  C69 UNL A   1       9.053  27.205   0.546  1.00  0.00    +0.000 C 
ENDROOT
BRANCH   38   37
ATOM     34  C28 UNL A   1      13.338  26.188  -1.651  1.00  0.00    +0.000 C 
ATOM     35  C29 UNL A   1      13.272  27.200  -0.686  1.00  0.00    +0.000 C 
ATOM     36  C30 UNL A   1      12.443  27.046   0.428  1.00  0.00    +0.000 C 
ATOM     37  C31 UNL A   1      11.654  25.895   0.571  1.00  0.00    +0.000 C 
ATOM    134  H36 UNL A   1      13.834  28.058  -0.799  1.00  0.00    +0.000 H 
ATOM    135  H37 UNL A   1      12.412  27.783   1.149  1.00  0.00    +0.000 H 
ATOM    146  H48 UNL A   1      11.156  24.034  -0.302  1.00  0.00    +0.000 H 
ATOM    147  H49 UNL A   1      12.722  24.229  -2.142  1.00  0.00    +0.000 H 
ATOM     95  C70 UNL A   1      11.741  24.879  -0.393  1.00  0.00    +0.000 C 
ATOM     96  C71 UNL A   1      12.613  25.007  -1.473  1.00  0.00    +0.000 C 
BRANCH   34   32
ATOM     33  O3  UNL A   1      15.424  26.105  -2.713  1.00  0.00    +0.000 O 
ATOM     32  C27 UNL A   1      14.237  26.372  -2.815  1.00  0.00    +0.000 C 
BRANCH   32   31
ATOM    133  H35 UNL A   1      14.037  26.339  -4.810  1.00  0.00    +0.000 H 
ATOM     31  N2  UNL A   1      13.736  26.829  -4.011  1.00  0.00    +0.000 N 
BRANCH   31   30
ATOM    131  H33 UNL A   1      12.826  28.583  -3.415  1.00  0.00    +0.000 H 
ATOM    132  H34 UNL A   1      13.162  28.445  -5.142  1.00  0.00    +0.000 H 
ATOM     30  C26 UNL A   1      12.825  27.933  -4.265  1.00  0.00    +0.000 C 
BRANCH   30   29
ATOM    129  H31 UNL A   1      10.962  28.079  -5.266  1.00  0.00    +0.000 H 
ATOM    130  H32 UNL A   1      11.476  26.426  -4.817  1.00  0.00    +0.000 H 
ATOM     29  C25 UNL A   1      11.398  27.450  -4.517  1.00  0.00    +0.000 C 
BRANCH   29   28
ATOM     28  C24 UNL A   1      10.484  27.472  -3.287  1.00  0.00    +0.000 C 
ATOM    127  H29 UNL A   1       9.481  27.309  -3.619  1.00  0.00    +0.000 H 
ATOM    128  H30 UNL A   1      10.855  26.707  -2.636  1.00  0.00    +0.000 H 
BRANCH   28   27
ATOM     27  C23 UNL A   1      10.505  28.767  -2.465  1.00  0.00    +0.000 C 
ATOM    125  H27 UNL A   1      10.842  28.528  -1.478  1.00  0.00    +0.000 H 
ATOM    126  H28 UNL A   1      11.153  29.440  -2.986  1.00  0.00    +0.000 H 
BRANCH   27   26
ATOM     26  C22 UNL A   1       9.156  29.482  -2.346  1.00  0.00    +0.000 C 
ATOM    123  H25 UNL A   1       8.733  29.243  -1.392  1.00  0.00    +0.000 H 
ATOM    124  H26 UNL A   1       9.350  30.528  -2.461  1.00  0.00    +0.000 H 
BRANCH   26   25
ATOM     25  C21 UNL A   1       8.145  29.099  -3.431  1.00  0.00    +0.000 C 
ATOM    122  H24 UNL A   1       7.166  29.130  -3.000  1.00  0.00    +0.000 H 
ATOM    121  H23 UNL A   1       8.377  28.118  -3.789  1.00  0.00    +0.000 H 
BRANCH   25   24
ATOM    120  H22 UNL A   1       7.431  30.665  -4.556  1.00  0.00    +0.000 H 
ATOM     24  N1  UNL A   1       8.178  30.023  -4.543  1.00  0.00    +0.000 N 
BRANCH   24   22
ATOM     22  C20 UNL A   1       9.052  30.168  -5.577  1.00  0.00    +0.000 C 
ATOM     23  O2  UNL A   1       9.138  29.202  -6.346  1.00  0.00    +0.000 O 
BRANCH   22   20
ATOM    116  H18 UNL A   1       9.223  32.150  -6.196  1.00  0.00    +0.000 H 
ATOM     20  C18 UNL A   1       9.910  31.423  -5.817  1.00  0.00    +0.000 C 
BRANCH   20   19
ATOM      7  C6  UNL A   1       9.701  32.961  -3.758  1.00  0.00    +0.000 C 
ATOM      8  C7  UNL A   1      10.212  33.407  -2.520  1.00  0.00    +0.000 C 
ATOM      9  C8  UNL A   1      11.484  33.032  -2.072  1.00  0.00    +0.000 C 
ATOM    104  H6  UNL A   1       9.633  34.025  -1.930  1.00  0.00    +0.000 H 
ATOM     17  C15 UNL A   1      12.234  32.157  -2.851  1.00  0.00    +0.000 C 
ATOM     18  C16 UNL A   1      11.729  31.681  -4.059  1.00  0.00    +0.000 C 
ATOM     19  C17 UNL A   1      10.450  32.033  -4.523  1.00  0.00    +0.000 C 
ATOM    115  H17 UNL A   1      12.312  31.051  -4.631  1.00  0.00    +0.000 H 
ATOM    114  H16 UNL A   1      13.169  31.859  -2.533  1.00  0.00    +0.000 H 
BRANCH    7    6
ATOM     97  C72 UNL A   1       8.577  34.543  -5.379  1.00  0.00    +0.000 C 
ATOM     98  C73 UNL A   1       7.419  35.213  -5.803  1.00  0.00    +0.000 C 
ATOM      3  C2  UNL A   1       6.184  35.009  -5.168  1.00  0.00    +0.000 C 
ATOM      4  C3  UNL A   1       6.132  34.117  -4.097  1.00  0.00    +0.000 C 
ATOM      5  C4  UNL A   1       7.285  33.459  -3.669  1.00  0.00    +0.000 C 
ATOM    102  H4  UNL A   1       5.234  33.943  -3.618  1.00  0.00    +0.000 H 
ATOM      6  C5  UNL A   1       8.525  33.662  -4.298  1.00  0.00    +0.000 C 
ATOM    103  H5  UNL A   1       7.226  32.807  -2.871  1.00  0.00    +0.000 H 
ATOM    148  H50 UNL A   1       9.471  34.702  -5.870  1.00  0.00    +0.000 H 
ATOM    149  H51 UNL A   1       7.477  35.871  -6.596  1.00  0.00    +0.000 H 
BRANCH    3    2
ATOM      2  S1  UNL A   1       4.777  35.934  -5.770  1.00  0.00    +0.000 S 
BRANCH    2    1
ATOM      1  C1  UNL A   1       5.305  37.662  -5.589  1.00  0.00    +0.000 C 
ATOM     99  H1  UNL A   1       6.300  37.691  -5.198  1.00  0.00    +0.000 H 
ATOM    100  H2  UNL A   1       4.643  38.168  -4.918  1.00  0.00    +0.000 H 
ATOM    101  H3  UNL A   1       5.282  38.144  -6.544  1.00  0.00    +0.000 H 
ENDBRANCH    2    1
ENDBRANCH    3    2
ENDBRANCH    7    6
BRANCH    9   10
ATOM    105  H7  UNL A   1      11.916  34.720  -0.896  1.00  0.00    +0.000 H 
ATOM     10  C9  UNL A   1      12.097  33.667  -0.849  1.00  0.00    +0.000 C 
ATOM    106  H8  UNL A   1      13.136  33.413  -0.870  1.00  0.00    +0.000 H 
BRANCH   10   11
ATOM     11  C10 UNL A   1      11.557  33.150   0.493  1.00  0.00    +0.000 C 
ATOM    108  H10 UNL A   1      10.374  31.648  -0.500  1.00  0.00    +0.000 H 
ATOM     12  C11 UNL A   1      10.775  31.829   0.476  1.00  0.00    +0.000 C 
ATOM    107  H9  UNL A   1      10.914  33.961   0.762  1.00  0.00    +0.000 H 
ATOM     15  C14 UNL A   1      12.673  32.834   1.464  1.00  0.00    +0.000 C 
ATOM    109  H11 UNL A   1       9.952  31.854   1.160  1.00  0.00    +0.000 H 
ATOM     13  C12 UNL A   1      11.773  30.738   0.848  1.00  0.00    +0.000 C 
ATOM     14  C13 UNL A   1      12.700  31.384   1.867  1.00  0.00    +0.000 C 
ATOM     16  O1  UNL A   1      13.454  33.672   1.898  1.00  0.00    +0.000 O 
ATOM    110  H12 UNL A   1      12.323  30.421  -0.013  1.00  0.00    +0.000 H 
ATOM    111  H13 UNL A   1      11.290  29.867   1.240  1.00  0.00    +0.000 H 
ATOM    112  H14 UNL A   1      13.690  30.982   1.798  1.00  0.00    +0.000 H 
ATOM    113  H15 UNL A   1      12.400  31.218   2.880  1.00  0.00    +0.000 H 
ENDBRANCH   10   11
ENDBRANCH    9   10
ENDBRANCH   20   19
BRANCH   20   21
ATOM    117  H19 UNL A   1      11.174  32.308  -7.297  1.00  0.00    +0.000 H 
ATOM     21  C19 UNL A   1      10.916  31.325  -6.964  1.00  0.00    +0.000 C 
ATOM    118  H20 UNL A   1      10.481  30.777  -7.773  1.00  0.00    +0.000 H 
ATOM    119  H21 UNL A   1      11.796  30.819  -6.624  1.00  0.00    +0.000 H 
ENDBRANCH   20   21
ENDBRANCH   22   20
ENDBRANCH   24   22
ENDBRANCH   25   24
ENDBRANCH   26   25
ENDBRANCH   27   26
ENDBRANCH   28   27
ENDBRANCH   29   28
ENDBRANCH   30   29
ENDBRANCH   31   30
ENDBRANCH   32   31
ENDBRANCH   34   32
ENDBRANCH   38   37
BRANCH   42   43
ATOM     43  C36 UNL A   1       5.400  28.545   2.067  1.00  0.00    +0.000 C 
ATOM     44  C37 UNL A   1       5.583  29.936   2.091  1.00  0.00    +0.000 C 
ATOM     45  F1  UNL A   1       6.565  30.475   2.828  1.00  0.00    +0.000 F 
ATOM     46  C38 UNL A   1       4.730  30.783   1.386  1.00  0.00    +0.000 C 
ATOM     47  F2  UNL A   1       4.897  32.110   1.460  1.00  0.00    +0.000 F 
ATOM     48  C39 UNL A   1       3.703  30.254   0.618  1.00  0.00    +0.000 C 
ATOM     49  F3  UNL A   1       2.888  31.070  -0.063  1.00  0.00    +0.000 F 
ATOM     50  C40 UNL A   1       3.517  28.881   0.565  1.00  0.00    +0.000 C 
ATOM     51  F4  UNL A   1       2.531  28.369  -0.185  1.00  0.00    +0.000 F 
ATOM     52  C41 UNL A   1       4.350  28.034   1.290  1.00  0.00    +0.000 C 
ATOM     53  F5  UNL A   1       4.136  26.711   1.228  1.00  0.00    +0.000 F 
ENDBRANCH   42   43
BRANCH   59   60
ATOM     65  C50 UNL A   1       3.820  24.603  10.512  1.00  0.00    +0.000 C 
ATOM     66  F8  UNL A   1       2.999  24.411  11.553  1.00  0.00    +0.000 F 
ATOM     67  C51 UNL A   1       3.718  23.796   9.388  1.00  0.00    +0.000 C 
ATOM     68  F9  UNL A   1       2.787  22.835   9.337  1.00  0.00    +0.000 F 
ATOM     69  C52 UNL A   1       4.585  23.981   8.314  1.00  0.00    +0.000 C 
ATOM     70  F10 UNL A   1       4.471  23.178   7.246  1.00  0.00    +0.000 F 
ATOM     60  C47 UNL A   1       5.555  24.994   8.338  1.00  0.00    +0.000 C 
ATOM     61  C48 UNL A   1       5.630  25.810   9.476  1.00  0.00    +0.000 C 
ATOM     62  F6  UNL A   1       6.552  26.782   9.551  1.00  0.00    +0.000 F 
ATOM     63  C49 UNL A   1       4.778  25.605  10.558  1.00  0.00    +0.000 C 
ATOM     64  F7  UNL A   1       4.896  26.369  11.653  1.00  0.00    +0.000 F 
ENDBRANCH   59   60
BRANCH   74   75
ATOM     75  C56 UNL A   1      11.944  22.688   6.807  1.00  0.00    +0.000 C 
ATOM     76  C57 UNL A   1      11.911  21.291   6.698  1.00  0.00    +0.000 C 
ATOM     77  F11 UNL A   1      10.967  20.701   5.949  1.00  0.00    +0.000 F 
ATOM     78  C58 UNL A   1      12.821  20.494   7.390  1.00  0.00    +0.000 C 
ATOM     79  F12 UNL A   1      12.741  19.160   7.301  1.00  0.00    +0.000 F 
ATOM     80  C59 UNL A   1      13.798  21.080   8.180  1.00  0.00    +0.000 C 
ATOM     81  F13 UNL A   1      14.675  20.314   8.841  1.00  0.00    +0.000 F 
ATOM     82  C60 UNL A   1      13.860  22.461   8.289  1.00  0.00    +0.000 C 
ATOM     83  F14 UNL A   1      14.811  23.031   9.041  1.00  0.00    +0.000 F 
ATOM     84  C61 UNL A   1      12.935  23.258   7.618  1.00  0.00    +0.000 C 
ATOM     85  F15 UNL A   1      13.012  24.591   7.749  1.00  0.00    +0.000 F 
ENDBRANCH   74   75
TORSDOF 22
ENDMDL
MODEL 9
REMARK VINA RESULT:      -8.1     43.972     47.214
ROOT
ATOM    136  H38 UNL A   1      18.721  34.041  47.823  1.00  0.00    +0.000 H 
ATOM    137  H39 UNL A   1      16.897  35.392  49.105  1.00  0.00    +0.000 H 
ATOM    138  H40 UNL A   1      20.143  37.879  48.458  1.00  0.00    +0.000 H 
ATOM    139  H41 UNL A   1      23.034  43.506  49.303  1.00  0.00    +0.000 H 
ATOM    140  H42 UNL A   1      24.798  42.195  48.029  1.00  0.00    +0.000 H 
ATOM    141  H43 UNL A   1      21.540  39.685  48.638  1.00  0.00    +0.000 H 
ATOM    142  H44 UNL A   1      18.086  42.454  51.019  1.00  0.00    +0.000 H 
ATOM    143  H45 UNL A   1      16.635  40.347  51.092  1.00  0.00    +0.000 H 
ATOM    144  H46 UNL A   1      23.554  35.289  45.851  1.00  0.00    +0.000 H 
ATOM    145  H47 UNL A   1      25.201  37.224  46.169  1.00  0.00    +0.000 H 
ATOM     38  C32 UNL A   1      24.056  39.508  47.430  1.00  0.00    +0.000 C 
ATOM     39  C33 UNL A   1      23.416  38.167  47.202  1.00  0.00    +0.000 C 
ATOM     40  N3  UNL A   1      22.216  37.756  47.525  1.00  0.00    +0.000 N 
ATOM     41  C34 UNL A   1      22.117  36.459  47.041  1.00  0.00    +0.000 C 
ATOM     42  C35 UNL A   1      21.088  35.586  47.167  1.00  0.00    +0.000 C 
ATOM     54  C42 UNL A   1      19.866  35.868  47.874  1.00  0.00    +0.000 C 
ATOM     55  C43 UNL A   1      18.792  35.029  48.112  1.00  0.00    +0.000 C 
ATOM     56  C44 UNL A   1      17.819  35.750  48.812  1.00  0.00    +0.000 C 
ATOM     57  C45 UNL A   1      18.304  37.027  49.044  1.00  0.00    +0.000 C 
ATOM     58  N4  UNL A   1      19.558  37.088  48.459  1.00  0.00    +0.000 N 
ATOM     59  C46 UNL A   1      17.672  38.113  49.748  1.00  0.00    +0.000 C 
ATOM     71  C53 UNL A   1      18.215  39.340  49.936  1.00  0.00    +0.000 C 
ATOM     72  N5  UNL A   1      19.449  39.820  49.522  1.00  0.00    +0.000 N 
ATOM     73  C54 UNL A   1      19.508  41.063  49.933  1.00  0.00    +0.000 C 
ATOM     74  C55 UNL A   1      20.626  42.058  49.787  1.00  0.00    +0.000 C 
ATOM     86  C62 UNL A   1      21.771  41.680  49.189  1.00  0.00    +0.000 C 
ATOM     87  C63 UNL A   1      22.942  42.528  48.986  1.00  0.00    +0.000 C 
ATOM     88  C64 UNL A   1      23.878  41.832  48.321  1.00  0.00    +0.000 C 
ATOM     89  C65 UNL A   1      23.381  40.477  48.077  1.00  0.00    +0.000 C 
ATOM     90  N6  UNL A   1      22.128  40.475  48.635  1.00  0.00    +0.000 N 
ATOM     91  C66 UNL A   1      18.301  41.521  50.634  1.00  0.00    +0.000 C 
ATOM     92  C67 UNL A   1      17.559  40.422  50.641  1.00  0.00    +0.000 C 
ATOM     93  C68 UNL A   1      23.361  36.164  46.364  1.00  0.00    +0.000 C 
ATOM     94  C69 UNL A   1      24.222  37.164  46.489  1.00  0.00    +0.000 C 
ENDROOT
BRANCH   38   37
ATOM     34  C28 UNL A   1      27.970  40.273  45.853  1.00  0.00    +0.000 C 
ATOM     35  C29 UNL A   1      26.860  40.910  45.288  1.00  0.00    +0.000 C 
ATOM     36  C30 UNL A   1      25.585  40.682  45.812  1.00  0.00    +0.000 C 
ATOM     37  C31 UNL A   1      25.407  39.794  46.884  1.00  0.00    +0.000 C 
ATOM    134  H36 UNL A   1      26.983  41.547  44.486  1.00  0.00    +0.000 H 
ATOM    135  H37 UNL A   1      24.770  41.169  45.409  1.00  0.00    +0.000 H 
ATOM    146  H48 UNL A   1      26.409  38.510  48.235  1.00  0.00    +0.000 H 
ATOM    147  H49 UNL A   1      28.634  39.041  47.434  1.00  0.00    +0.000 H 
ATOM     95  C70 UNL A   1      26.530  39.173  47.454  1.00  0.00    +0.000 C 
ATOM     96  C71 UNL A   1      27.808  39.448  46.969  1.00  0.00    +0.000 C 
BRANCH   34   32
ATOM     33  O3  UNL A   1      29.576  40.183  44.151  1.00  0.00    +0.000 O 
ATOM     32  C27 UNL A   1      29.312  40.546  45.286  1.00  0.00    +0.000 C 
BRANCH   32   31
ATOM    133  H35 UNL A   1      31.179  40.894  45.929  1.00  0.00    +0.000 H 
ATOM     31  N2  UNL A   1      30.255  41.216  46.030  1.00  0.00    +0.000 N 
BRANCH   31   30
ATOM    131  H33 UNL A   1      30.692  43.147  46.614  1.00  0.00    +0.000 H 
ATOM    132  H34 UNL A   1      29.046  42.603  46.943  1.00  0.00    +0.000 H 
ATOM     30  C26 UNL A   1      30.081  42.332  46.944  1.00  0.00    +0.000 C 
BRANCH   30   29
ATOM    129  H31 UNL A   1      30.881  42.840  48.841  1.00  0.00    +0.000 H 
ATOM    130  H32 UNL A   1      29.583  41.610  48.847  1.00  0.00    +0.000 H 
ATOM     29  C25 UNL A   1      30.474  41.967  48.374  1.00  0.00    +0.000 C 
BRANCH   29   28
ATOM     28  C24 UNL A   1      31.507  40.840  48.490  1.00  0.00    +0.000 C 
ATOM    127  H29 UNL A   1      31.716  40.483  47.504  1.00  0.00    +0.000 H 
ATOM    128  H30 UNL A   1      32.354  41.271  48.983  1.00  0.00    +0.000 H 
BRANCH   28   27
ATOM     27  C23 UNL A   1      31.089  39.640  49.348  1.00  0.00    +0.000 C 
ATOM    125  H27 UNL A   1      31.433  39.810  50.347  1.00  0.00    +0.000 H 
ATOM    126  H28 UNL A   1      30.023  39.574  49.269  1.00  0.00    +0.000 H 
BRANCH   27   26
ATOM     26  C22 UNL A   1      31.634  38.286  48.882  1.00  0.00    +0.000 C 
ATOM    123  H25 UNL A   1      32.665  38.226  49.164  1.00  0.00    +0.000 H 
ATOM    124  H26 UNL A   1      31.033  37.535  49.350  1.00  0.00    +0.000 H 
BRANCH   26   25
ATOM     25  C21 UNL A   1      31.533  38.056  47.371  1.00  0.00    +0.000 C 
ATOM    122  H24 UNL A   1      31.355  39.000  46.902  1.00  0.00    +0.000 H 
ATOM    121  H23 UNL A   1      30.733  37.373  47.178  1.00  0.00    +0.000 H 
BRANCH   25   24
ATOM    120  H22 UNL A   1      33.550  37.657  47.395  1.00  0.00    +0.000 H 
ATOM     24  N1  UNL A   1      32.757  37.507  46.830  1.00  0.00    +0.000 N 
BRANCH   24   22
ATOM     22  C20 UNL A   1      33.014  36.821  45.683  1.00  0.00    +0.000 C 
ATOM     23  O2  UNL A   1      33.885  35.945  45.764  1.00  0.00    +0.000 O 
BRANCH   22   20
ATOM    116  H18 UNL A   1      32.940  36.628  43.609  1.00  0.00    +0.000 H 
ATOM     20  C18 UNL A   1      32.306  37.082  44.341  1.00  0.00    +0.000 C 
BRANCH   20   19
ATOM      7  C6  UNL A   1      30.879  35.057  43.627  1.00  0.00    +0.000 C 
ATOM      8  C7  UNL A   1      29.638  34.384  43.636  1.00  0.00    +0.000 C 
ATOM      9  C8  UNL A   1      28.476  34.991  44.123  1.00  0.00    +0.000 C 
ATOM    104  H6  UNL A   1      29.588  33.418  43.275  1.00  0.00    +0.000 H 
ATOM     17  C15 UNL A   1      28.567  36.273  44.657  1.00  0.00    +0.000 C 
ATOM     18  C16 UNL A   1      29.792  36.937  44.686  1.00  0.00    +0.000 C 
ATOM     19  C17 UNL A   1      30.974  36.342  44.215  1.00  0.00    +0.000 C 
ATOM    115  H17 UNL A   1      29.832  37.895  45.066  1.00  0.00    +0.000 H 
ATOM    114  H16 UNL A   1      27.724  36.735  45.032  1.00  0.00    +0.000 H 
BRANCH    7    6
ATOM     97  C72 UNL A   1      33.004  33.722  43.318  1.00  0.00    +0.000 C 
ATOM     98  C73 UNL A   1      34.022  33.255  42.471  1.00  0.00    +0.000 C 
ATOM      3  C2  UNL A   1      34.008  33.525  41.094  1.00  0.00    +0.000 C 
ATOM      4  C3  UNL A   1      32.951  34.275  40.579  1.00  0.00    +0.000 C 
ATOM      5  C4  UNL A   1      31.944  34.749  41.422  1.00  0.00    +0.000 C 
ATOM    102  H4  UNL A   1      32.912  34.481  39.569  1.00  0.00    +0.000 H 
ATOM      6  C5  UNL A   1      31.955  34.485  42.802  1.00  0.00    +0.000 C 
ATOM    103  H5  UNL A   1      31.175  35.307  41.022  1.00  0.00    +0.000 H 
ATOM    148  H50 UNL A   1      33.031  33.500  44.325  1.00  0.00    +0.000 H 
ATOM    149  H51 UNL A   1      34.797  32.702  42.870  1.00  0.00    +0.000 H 
BRANCH    3    2
ATOM      2  S1  UNL A   1      35.368  32.905  40.111  1.00  0.00    +0.000 S 
BRANCH    2    1
ATOM      1  C1  UNL A   1      35.824  31.364  40.955  1.00  0.00    +0.000 C 
ATOM     99  H1  UNL A   1      36.120  30.635  40.231  1.00  0.00    +0.000 H 
ATOM    100  H2  UNL A   1      34.984  30.997  41.507  1.00  0.00    +0.000 H 
ATOM    101  H3  UNL A   1      36.636  31.551  41.626  1.00  0.00    +0.000 H 
ENDBRANCH    2    1
ENDBRANCH    3    2
ENDBRANCH    7    6
BRANCH    9   10
ATOM    105  H7  UNL A   1      27.066  33.965  42.949  1.00  0.00    +0.000 H 
ATOM     10  C9  UNL A   1      27.125  34.342  43.949  1.00  0.00    +0.000 C 
ATOM    106  H8  UNL A   1      26.400  35.100  44.161  1.00  0.00    +0.000 H 
BRANCH   10   11
ATOM     11  C10 UNL A   1      26.830  33.184  44.913  1.00  0.00    +0.000 C 
ATOM    108  H10 UNL A   1      28.630  33.583  46.029  1.00  0.00    +0.000 H 
ATOM     12  C11 UNL A   1      27.695  33.082  46.178  1.00  0.00    +0.000 C 
ATOM    107  H9  UNL A   1      27.012  32.351  44.268  1.00  0.00    +0.000 H 
ATOM     15  C14 UNL A   1      25.439  33.282  45.500  1.00  0.00    +0.000 C 
ATOM    109  H11 UNL A   1      27.914  32.062  46.419  1.00  0.00    +0.000 H 
ATOM     13  C12 UNL A   1      26.904  33.759  47.292  1.00  0.00    +0.000 C 
ATOM     14  C13 UNL A   1      25.448  33.427  46.998  1.00  0.00    +0.000 C 
ATOM     16  O1  UNL A   1      24.414  33.223  44.832  1.00  0.00    +0.000 O 
ATOM    110  H12 UNL A   1      27.059  34.817  47.273  1.00  0.00    +0.000 H 
ATOM    111  H13 UNL A   1      27.205  33.422  48.261  1.00  0.00    +0.000 H 
ATOM    112  H14 UNL A   1      24.800  34.217  47.314  1.00  0.00    +0.000 H 
ATOM    113  H15 UNL A   1      25.099  32.555  47.512  1.00  0.00    +0.000 H 
ENDBRANCH   10   11
ENDBRANCH    9   10
ENDBRANCH   20   19
BRANCH   20   21
ATOM    117  H19 UNL A   1      32.887  38.633  42.988  1.00  0.00    +0.000 H 
ATOM     21  C19 UNL A   1      32.294  38.538  43.874  1.00  0.00    +0.000 C 
ATOM    118  H20 UNL A   1      32.697  39.162  44.643  1.00  0.00    +0.000 H 
ATOM    119  H21 UNL A   1      31.287  38.836  43.665  1.00  0.00    +0.000 H 
ENDBRANCH   20   21
ENDBRANCH   22   20
ENDBRANCH   24   22
ENDBRANCH   25   24
ENDBRANCH   26   25
ENDBRANCH   27   26
ENDBRANCH   28   27
ENDBRANCH   29   28
ENDBRANCH   30   29
ENDBRANCH   31   30
ENDBRANCH   32   31
ENDBRANCH   34   32
ENDBRANCH   38   37
BRANCH   42   43
ATOM     43  C36 UNL A   1      21.242  34.235  46.531  1.00  0.00    +0.000 C 
ATOM     44  C37 UNL A   1      21.829  33.163  47.219  1.00  0.00    +0.000 C 
ATOM     45  F1  UNL A   1      22.315  33.339  48.456  1.00  0.00    +0.000 F 
ATOM     46  C38 UNL A   1      21.954  31.911  46.621  1.00  0.00    +0.000 C 
ATOM     47  F2  UNL A   1      22.559  30.913  47.280  1.00  0.00    +0.000 F 
ATOM     48  C39 UNL A   1      21.464  31.700  45.340  1.00  0.00    +0.000 C 
ATOM     49  F3  UNL A   1      21.580  30.493  44.769  1.00  0.00    +0.000 F 
ATOM     50  C40 UNL A   1      20.863  32.741  44.650  1.00  0.00    +0.000 C 
ATOM     51  F4  UNL A   1      20.380  32.535  43.417  1.00  0.00    +0.000 F 
ATOM     52  C41 UNL A   1      20.762  34.001  45.234  1.00  0.00    +0.000 C 
ATOM     53  F5  UNL A   1      20.187  34.992  44.536  1.00  0.00    +0.000 F 
ENDBRANCH   42   43
BRANCH   59   60
ATOM     65  C50 UNL A   1      13.796  37.343  51.466  1.00  0.00    +0.000 C 
ATOM     66  F8  UNL A   1      12.593  37.104  52.005  1.00  0.00    +0.000 F 
ATOM     67  C51 UNL A   1      14.924  37.375  52.273  1.00  0.00    +0.000 C 
ATOM     68  F9  UNL A   1      14.812  37.149  53.588  1.00  0.00    +0.000 F 
ATOM     69  C52 UNL A   1      16.172  37.645  51.718  1.00  0.00    +0.000 C 
ATOM     70  F10 UNL A   1      17.243  37.682  52.524  1.00  0.00    +0.000 F 
ATOM     60  C47 UNL A   1      16.316  37.866  50.340  1.00  0.00    +0.000 C 
ATOM     61  C48 UNL A   1      15.165  37.812  49.540  1.00  0.00    +0.000 C 
ATOM     62  F6  UNL A   1      15.250  38.032  48.219  1.00  0.00    +0.000 F 
ATOM     63  C49 UNL A   1      13.915  37.567  50.103  1.00  0.00    +0.000 C 
ATOM     64  F7  UNL A   1      12.823  37.562  49.325  1.00  0.00    +0.000 F 
ENDBRANCH   59   60
BRANCH   74   75
ATOM     75  C56 UNL A   1      20.492  43.437  50.322  1.00  0.00    +0.000 C 
ATOM     76  C57 UNL A   1      20.836  43.728  51.650  1.00  0.00    +0.000 C 
ATOM     77  F11 UNL A   1      21.270  42.748  52.458  1.00  0.00    +0.000 F 
ATOM     78  C58 UNL A   1      20.699  45.015  52.163  1.00  0.00    +0.000 C 
ATOM     79  F12 UNL A   1      20.996  45.258  53.446  1.00  0.00    +0.000 F 
ATOM     80  C59 UNL A   1      20.241  46.042  51.351  1.00  0.00    +0.000 C 
ATOM     81  F13 UNL A   1      20.114  47.281  51.843  1.00  0.00    +0.000 F 
ATOM     82  C60 UNL A   1      19.912  45.781  50.029  1.00  0.00    +0.000 C 
ATOM     83  F14 UNL A   1      19.481  46.773  49.238  1.00  0.00    +0.000 F 
ATOM     84  C61 UNL A   1      20.024  44.489  49.522  1.00  0.00    +0.000 C 
ATOM     85  F15 UNL A   1      19.689  44.262  48.243  1.00  0.00    +0.000 F 
ENDBRANCH   74   75
TORSDOF 22
ENDMDL
MODEL 10
REMARK VINA RESULT:      -8.1     19.967     25.621
ROOT
ATOM    136  H38 UNL A   1      11.097  34.614  -3.092  1.00  0.00    +0.000 H 
ATOM    137  H39 UNL A   1      12.664  34.354  -1.023  1.00  0.00    +0.000 H 
ATOM    138  H40 UNL A   1       9.949  31.229  -0.999  1.00  0.00    +0.000 H 
ATOM    139  H41 UNL A   1       7.511  26.064   1.851  1.00  0.00    +0.000 H 
ATOM    140  H42 UNL A   1       6.005  26.304  -0.181  1.00  0.00    +0.000 H 
ATOM    141  H43 UNL A   1       8.739  29.436  -0.247  1.00  0.00    +0.000 H 
ATOM    142  H44 UNL A   1      11.737  28.740   3.727  1.00  0.00    +0.000 H 
ATOM    143  H45 UNL A   1      12.907  30.917   3.062  1.00  0.00    +0.000 H 
ATOM    144  H46 UNL A   1       7.067  31.679  -5.076  1.00  0.00    +0.000 H 
ATOM    145  H47 UNL A   1       5.593  29.781  -4.190  1.00  0.00    +0.000 H 
ATOM     38  C32 UNL A   1       6.603  28.555  -1.825  1.00  0.00    +0.000 C 
ATOM     39  C33 UNL A   1       7.145  29.764  -2.536  1.00  0.00    +0.000 C 
ATOM     40  N3  UNL A   1       8.178  30.510  -2.233  1.00  0.00    +0.000 N 
ATOM     41  C34 UNL A   1       8.266  31.460  -3.242  1.00  0.00    +0.000 C 
ATOM     42  C35 UNL A   1       9.138  32.490  -3.358  1.00  0.00    +0.000 C 
ATOM     54  C42 UNL A   1      10.164  32.797  -2.397  1.00  0.00    +0.000 C 
ATOM     55  C43 UNL A   1      11.054  33.857  -2.391  1.00  0.00    +0.000 C 
ATOM     56  C44 UNL A   1      11.886  33.725  -1.274  1.00  0.00    +0.000 C 
ATOM     57  C45 UNL A   1      11.487  32.606  -0.562  1.00  0.00    +0.000 C 
ATOM     58  N4  UNL A   1      10.433  32.043  -1.264  1.00  0.00    +0.000 N 
ATOM     59  C46 UNL A   1      12.026  32.086   0.669  1.00  0.00    +0.000 C 
ATOM     71  C53 UNL A   1      11.577  30.979   1.309  1.00  0.00    +0.000 C 
ATOM     72  N5  UNL A   1      10.541  30.127   0.955  1.00  0.00    +0.000 N 
ATOM     73  C54 UNL A   1      10.504  29.201   1.881  1.00  0.00    +0.000 C 
ATOM     74  C55 UNL A   1       9.564  28.036   2.022  1.00  0.00    +0.000 C 
ATOM     86  C62 UNL A   1       8.575  27.876   1.122  1.00  0.00    +0.000 C 
ATOM     87  C63 UNL A   1       7.583  26.804   1.135  1.00  0.00    +0.000 C 
ATOM     88  C64 UNL A   1       6.781  26.937   0.067  1.00  0.00    +0.000 C 
ATOM     89  C65 UNL A   1       7.186  28.122  -0.691  1.00  0.00    +0.000 C 
ATOM     90  N6  UNL A   1       8.251  28.621   0.015  1.00  0.00    +0.000 N 
ATOM     91  C66 UNL A   1      11.535  29.349   2.919  1.00  0.00    +0.000 C 
ATOM     92  C67 UNL A   1      12.138  30.468   2.543  1.00  0.00    +0.000 C 
ATOM     93  C68 UNL A   1       7.210  31.171  -4.189  1.00  0.00    +0.000 C 
ATOM     94  C69 UNL A   1       6.449  30.172  -3.766  1.00  0.00    +0.000 C 
ENDROOT
BRANCH   38   37
ATOM     34  C28 UNL A   1       3.297  26.404  -3.508  1.00  0.00    +0.000 C 
ATOM     35  C29 UNL A   1       4.599  26.113  -3.929  1.00  0.00    +0.000 C 
ATOM     36  C30 UNL A   1       5.682  26.795  -3.368  1.00  0.00    +0.000 C 
ATOM     37  C31 UNL A   1       5.469  27.792  -2.404  1.00  0.00    +0.000 C 
ATOM    134  H36 UNL A   1       4.759  25.395  -4.653  1.00  0.00    +0.000 H 
ATOM    135  H37 UNL A   1       6.643  26.563  -3.664  1.00  0.00    +0.000 H 
ATOM    146  H48 UNL A   1       3.993  28.804  -1.277  1.00  0.00    +0.000 H 
ATOM    147  H49 UNL A   1       2.135  27.501  -2.127  1.00  0.00    +0.000 H 
ATOM     95  C70 UNL A   1       4.160  28.065  -1.977  1.00  0.00    +0.000 C 
ATOM     96  C71 UNL A   1       3.086  27.343  -2.494  1.00  0.00    +0.000 C 
BRANCH   34   32
ATOM     33  O3  UNL A   1       1.140  25.494  -3.474  1.00  0.00    +0.000 O 
ATOM     32  C27 UNL A   1       2.169  25.655  -4.110  1.00  0.00    +0.000 C 
BRANCH   32   31
ATOM    133  H35 UNL A   1       2.238  25.821  -6.107  1.00  0.00    +0.000 H 
ATOM     31  N2  UNL A   1       2.274  25.152  -5.386  1.00  0.00    +0.000 N 
BRANCH   31   30
ATOM    131  H33 UNL A   1       1.850  23.143  -5.182  1.00  0.00    +0.000 H 
ATOM    132  H34 UNL A   1       2.094  23.708  -6.836  1.00  0.00    +0.000 H 
ATOM     30  C26 UNL A   1       2.430  23.775  -5.822  1.00  0.00    +0.000 C 
BRANCH   30   29
ATOM    129  H31 UNL A   1       4.245  23.247  -6.781  1.00  0.00    +0.000 H 
ATOM    130  H32 UNL A   1       4.411  24.053  -5.194  1.00  0.00    +0.000 H 
ATOM     29  C25 UNL A   1       3.888  23.322  -5.775  1.00  0.00    +0.000 C 
BRANCH   29   28
ATOM     28  C24 UNL A   1       4.122  21.974  -5.085  1.00  0.00    +0.000 C 
ATOM    127  H29 UNL A   1       3.255  21.368  -5.246  1.00  0.00    +0.000 H 
ATOM    128  H30 UNL A   1       5.016  21.575  -5.518  1.00  0.00    +0.000 H 
BRANCH   28   27
ATOM     27  C23 UNL A   1       4.380  22.035  -3.574  1.00  0.00    +0.000 C 
ATOM    125  H27 UNL A   1       3.649  22.683  -3.138  1.00  0.00    +0.000 H 
ATOM    126  H28 UNL A   1       4.322  21.027  -3.221  1.00  0.00    +0.000 H 
BRANCH   27   26
ATOM     26  C22 UNL A   1       5.767  22.548  -3.173  1.00  0.00    +0.000 C 
ATOM    123  H25 UNL A   1       6.420  21.706  -3.075  1.00  0.00    +0.000 H 
ATOM    124  H26 UNL A   1       6.079  23.226  -3.939  1.00  0.00    +0.000 H 
BRANCH   26   25
ATOM     25  C21 UNL A   1       5.789  23.329  -1.855  1.00  0.00    +0.000 C 
ATOM    122  H24 UNL A   1       5.619  22.640  -1.056  1.00  0.00    +0.000 H 
ATOM    121  H23 UNL A   1       5.027  24.079  -1.885  1.00  0.00    +0.000 H 
BRANCH   25   24
ATOM    120  H22 UNL A   1       7.087  24.924  -1.876  1.00  0.00    +0.000 H 
ATOM     24  N1  UNL A   1       7.067  23.970  -1.634  1.00  0.00    +0.000 N 
BRANCH   24   22
ATOM     22  C20 UNL A   1       8.249  23.494  -1.154  1.00  0.00    +0.000 C 
ATOM     23  O2  UNL A   1       8.197  22.950  -0.044  1.00  0.00    +0.000 O 
BRANCH   22   20
ATOM    116  H18 UNL A   1       9.390  23.247  -2.880  1.00  0.00    +0.000 H 
ATOM     20  C18 UNL A   1       9.594  23.608  -1.894  1.00  0.00    +0.000 C 
BRANCH   20   19
ATOM      7  C6  UNL A   1       9.791  25.763  -3.294  1.00  0.00    +0.000 C 
ATOM      8  C7  UNL A   1      10.141  27.129  -3.376  1.00  0.00    +0.000 C 
ATOM      9  C8  UNL A   1      10.820  27.777  -2.339  1.00  0.00    +0.000 C 
ATOM    104  H6  UNL A   1       9.888  27.662  -4.223  1.00  0.00    +0.000 H 
ATOM     17  C15 UNL A   1      11.109  27.062  -1.181  1.00  0.00    +0.000 C 
ATOM     18  C16 UNL A   1      10.740  25.723  -1.072  1.00  0.00    +0.000 C 
ATOM     19  C17 UNL A   1      10.045  25.054  -2.094  1.00  0.00    +0.000 C 
ATOM    115  H17 UNL A   1      10.983  25.206  -0.213  1.00  0.00    +0.000 H 
ATOM    114  H16 UNL A   1      11.599  27.524  -0.401  1.00  0.00    +0.000 H 
BRANCH    7    6
ATOM     97  C72 UNL A   1       8.066  24.942  -4.950  1.00  0.00    +0.000 C 
ATOM     98  C73 UNL A   1       7.764  24.240  -6.127  1.00  0.00    +0.000 C 
ATOM      3  C2  UNL A   1       8.775  23.684  -6.926  1.00  0.00    +0.000 C 
ATOM      4  C3  UNL A   1      10.100  23.845  -6.521  1.00  0.00    +0.000 C 
ATOM      5  C4  UNL A   1      10.401  24.533  -5.345  1.00  0.00    +0.000 C 
ATOM    102  H4  UNL A   1      10.863  23.452  -7.095  1.00  0.00    +0.000 H 
ATOM      6  C5  UNL A   1       9.393  25.090  -4.540  1.00  0.00    +0.000 C 
ATOM    103  H5  UNL A   1      11.387  24.637  -5.061  1.00  0.00    +0.000 H 
ATOM    148  H50 UNL A   1       7.306  25.352  -4.386  1.00  0.00    +0.000 H 
ATOM    149  H51 UNL A   1       6.778  24.129  -6.411  1.00  0.00    +0.000 H 
BRANCH    3    2
ATOM      2  S1  UNL A   1       8.278  22.786  -8.391  1.00  0.00    +0.000 S 
BRANCH    2    1
ATOM      1  C1  UNL A   1       9.002  23.758  -9.742  1.00  0.00    +0.000 C 
ATOM     99  H1  UNL A   1       8.235  24.333 -10.218  1.00  0.00    +0.000 H 
ATOM    100  H2  UNL A   1       9.449  23.099 -10.456  1.00  0.00    +0.000 H 
ATOM    101  H3  UNL A   1       9.748  24.417  -9.348  1.00  0.00    +0.000 H 
ENDBRANCH    2    1
ENDBRANCH    3    2
ENDBRANCH    7    6
BRANCH    9   10
ATOM    105  H7  UNL A   1      11.609  29.559  -1.548  1.00  0.00    +0.000 H 
ATOM     10  C9  UNL A   1      11.361  29.175  -2.516  1.00  0.00    +0.000 C 
ATOM    106  H8  UNL A   1      10.593  29.731  -3.011  1.00  0.00    +0.000 H 
BRANCH   10   11
ATOM     11  C10 UNL A   1      12.609  29.282  -3.404  1.00  0.00    +0.000 C 
ATOM    108  H10 UNL A   1      11.818  31.021  -4.401  1.00  0.00    +0.000 H 
ATOM     12  C11 UNL A   1      12.770  30.558  -4.243  1.00  0.00    +0.000 C 
ATOM    107  H9  UNL A   1      12.462  28.434  -4.039  1.00  0.00    +0.000 H 
ATOM     15  C14 UNL A   1      13.882  29.289  -2.587  1.00  0.00    +0.000 C 
ATOM    109  H11 UNL A   1      13.184  30.342  -5.206  1.00  0.00    +0.000 H 
ATOM     13  C12 UNL A   1      13.681  31.483  -3.442  1.00  0.00    +0.000 C 
ATOM     14  C13 UNL A   1      14.675  30.557  -2.755  1.00  0.00    +0.000 C 
ATOM     16  O1  UNL A   1      14.244  28.353  -1.884  1.00  0.00    +0.000 O 
ATOM    110  H12 UNL A   1      13.116  32.032  -2.718  1.00  0.00    +0.000 H 
ATOM    111  H13 UNL A   1      14.168  32.205  -4.063  1.00  0.00    +0.000 H 
ATOM    112  H14 UNL A   1      14.979  30.952  -1.808  1.00  0.00    +0.000 H 
ATOM    113  H15 UNL A   1      15.582  30.422  -3.307  1.00  0.00    +0.000 H 
ENDBRANCH   10   11
ENDBRANCH    9   10
ENDBRANCH   20   19
BRANCH   20   21
ATOM    117  H19 UNL A   1      10.302  21.639  -1.450  1.00  0.00    +0.000 H 
ATOM     21  C19 UNL A   1      10.684  22.639  -1.433  1.00  0.00    +0.000 C 
ATOM    118  H20 UNL A   1      10.986  22.890  -0.439  1.00  0.00    +0.000 H 
ATOM    119  H21 UNL A   1      11.525  22.712  -2.091  1.00  0.00    +0.000 H 
ENDBRANCH   20   21
ENDBRANCH   22   20
ENDBRANCH   24   22
ENDBRANCH   25   24
ENDBRANCH   26   25
ENDBRANCH   27   26
ENDBRANCH   28   27
ENDBRANCH   29   28
ENDBRANCH   30   29
ENDBRANCH   31   30
ENDBRANCH   32   31
ENDBRANCH   34   32
ENDBRANCH   38   37
BRANCH   42   43
ATOM     43  C36 UNL A   1       9.016  33.369  -4.569  1.00  0.00    +0.000 C 
ATOM     44  C37 UNL A   1       9.567  32.997  -5.804  1.00  0.00    +0.000 C 
ATOM     45  F1  UNL A   1      10.264  31.858  -5.917  1.00  0.00    +0.000 F 
ATOM     46  C38 UNL A   1       9.434  33.817  -6.923  1.00  0.00    +0.000 C 
ATOM     47  F2  UNL A   1      10.007  33.463  -8.081  1.00  0.00    +0.000 F 
ATOM     48  C39 UNL A   1       8.721  35.004  -6.836  1.00  0.00    +0.000 C 
ATOM     49  F3  UNL A   1       8.590  35.788  -7.914  1.00  0.00    +0.000 F 
ATOM     50  C40 UNL A   1       8.152  35.380  -5.629  1.00  0.00    +0.000 C 
ATOM     51  F4  UNL A   1       7.454  36.522  -5.547  1.00  0.00    +0.000 F 
ATOM     52  C41 UNL A   1       8.306  34.577  -4.502  1.00  0.00    +0.000 C 
ATOM     53  F5  UNL A   1       7.755  34.976  -3.346  1.00  0.00    +0.000 F 
ENDBRANCH   42   43
BRANCH   59   60
ATOM     65  C50 UNL A   1      15.260  34.293   2.467  1.00  0.00    +0.000 C 
ATOM     66  F8  UNL A   1      16.263  34.981   3.028  1.00  0.00    +0.000 F 
ATOM     67  C51 UNL A   1      13.946  34.694   2.663  1.00  0.00    +0.000 C 
ATOM     68  F9  UNL A   1      13.682  35.781   3.399  1.00  0.00    +0.000 F 
ATOM     69  C52 UNL A   1      12.902  33.966   2.098  1.00  0.00    +0.000 C 
ATOM     70  F10 UNL A   1      11.642  34.371   2.314  1.00  0.00    +0.000 F 
ATOM     60  C47 UNL A   1      13.157  32.836   1.307  1.00  0.00    +0.000 C 
ATOM     61  C48 UNL A   1      14.493  32.457   1.107  1.00  0.00    +0.000 C 
ATOM     62  F6  UNL A   1      14.785  31.374   0.372  1.00  0.00    +0.000 F 
ATOM     63  C49 UNL A   1      15.533  33.173   1.696  1.00  0.00    +0.000 C 
ATOM     64  F7  UNL A   1      16.799  32.768   1.527  1.00  0.00    +0.000 F 
ENDBRANCH   59   60
BRANCH   74   75
ATOM     75  C56 UNL A   1       9.694  27.085   3.154  1.00  0.00    +0.000 C 
ATOM     76  C57 UNL A   1      10.717  26.125   3.169  1.00  0.00    +0.000 C 
ATOM     77  F11 UNL A   1      11.574  26.045   2.141  1.00  0.00    +0.000 F 
ATOM     78  C58 UNL A   1      10.836  25.218   4.220  1.00  0.00    +0.000 C 
ATOM     79  F12 UNL A   1      11.797  24.285   4.190  1.00  0.00    +0.000 F 
ATOM     80  C59 UNL A   1       9.954  25.273   5.289  1.00  0.00    +0.000 C 
ATOM     81  F13 UNL A   1      10.073  24.404   6.302  1.00  0.00    +0.000 F 
ATOM     82  C60 UNL A   1       8.946  26.225   5.304  1.00  0.00    +0.000 C 
ATOM     83  F14 UNL A   1       8.100  26.289   6.340  1.00  0.00    +0.000 F 
ATOM     84  C61 UNL A   1       8.810  27.115   4.241  1.00  0.00    +0.000 C 
ATOM     85  F15 UNL A   1       7.820  28.019   4.276  1.00  0.00    +0.000 F 
ENDBRANCH   74   75
TORSDOF 22
ENDMDL
