MODEL 1
REMARK VINA RESULT:      -8.5      0.000      0.000
ROOT
ATOM    142  H34 UNL A   1      18.180  50.866  -2.543  1.00  0.00    +0.000 H 
ATOM    143  H35 UNL A   1      18.577  53.439  -2.425  1.00  0.00    +0.000 H 
ATOM    144  H36 UNL A   1      16.487  52.288   0.960  1.00  0.00    +0.000 H 
ATOM    145  H37 UNL A   1      13.433  53.830   6.338  1.00  0.00    +0.000 H 
ATOM    146  H38 UNL A   1      13.292  51.295   6.365  1.00  0.00    +0.000 H 
ATOM    147  H39 UNL A   1      15.359  52.414   2.936  1.00  0.00    +0.000 H 
ATOM    148  H40 UNL A   1      15.907  57.403   3.245  1.00  0.00    +0.000 H 
ATOM    149  H41 UNL A   1      17.129  57.282   0.997  1.00  0.00    +0.000 H 
ATOM    150  H42 UNL A   1      15.899  47.308   0.754  1.00  0.00    +0.000 H 
ATOM    151  H43 UNL A   1      14.508  47.429   2.901  1.00  0.00    +0.000 H 
ATOM     50  C38 UNL A   1      14.394  50.039   4.060  1.00  0.00    +0.000 C 
ATOM     51  C39 UNL A   1      15.053  49.627   2.771  1.00  0.00    +0.000 C 
ATOM     52  N3  UNL A   1      15.697  50.364   1.899  1.00  0.00    +0.000 N 
ATOM     53  C40 UNL A   1      16.122  49.494   0.902  1.00  0.00    +0.000 C 
ATOM     54  C41 UNL A   1      16.799  49.779  -0.236  1.00  0.00    +0.000 C 
ATOM     66  C48 UNL A   1      17.203  51.102  -0.633  1.00  0.00    +0.000 C 
ATOM     67  C49 UNL A   1      17.878  51.489  -1.779  1.00  0.00    +0.000 C 
ATOM     68  C50 UNL A   1      18.078  52.872  -1.722  1.00  0.00    +0.000 C 
ATOM     69  C51 UNL A   1      17.494  53.352  -0.561  1.00  0.00    +0.000 C 
ATOM     70  N4  UNL A   1      16.964  52.254   0.100  1.00  0.00    +0.000 N 
ATOM     71  C52 UNL A   1      17.428  54.709  -0.084  1.00  0.00    +0.000 C 
ATOM     83  C59 UNL A   1      16.790  55.107   1.044  1.00  0.00    +0.000 C 
ATOM     84  N5  UNL A   1      16.099  54.340   1.970  1.00  0.00    +0.000 N 
ATOM     85  C60 UNL A   1      15.693  55.173   2.895  1.00  0.00    +0.000 C 
ATOM     86  C61 UNL A   1      14.899  54.893   4.139  1.00  0.00    +0.000 C 
ATOM     98  C68 UNL A   1      14.577  53.622   4.442  1.00  0.00    +0.000 C 
ATOM     99  C69 UNL A   1      13.828  53.200   5.623  1.00  0.00    +0.000 C 
ATOM    100  C70 UNL A   1      13.736  51.862   5.627  1.00  0.00    +0.000 C 
ATOM    101  C71 UNL A   1      14.367  51.336   4.416  1.00  0.00    +0.000 C 
ATOM    102  N6  UNL A   1      14.856  52.451   3.783  1.00  0.00    +0.000 N 
ATOM    103  C72 UNL A   1      16.085  56.570   2.661  1.00  0.00    +0.000 C 
ATOM    104  C73 UNL A   1      16.726  56.478   1.505  1.00  0.00    +0.000 C 
ATOM    105  C74 UNL A   1      15.688  48.168   1.286  1.00  0.00    +0.000 C 
ATOM    106  C75 UNL A   1      14.983  48.202   2.408  1.00  0.00    +0.000 C 
ENDROOT
BRANCH   50   49
ATOM    107  C76 UNL A   1      14.395  48.335   5.918  1.00  0.00    +0.000 C 
ATOM    108  C77 UNL A   1      13.774  47.281   6.592  1.00  0.00    +0.000 C 
ATOM    140  H32 UNL A   1      10.697  47.590   5.291  1.00  0.00    +0.000 H 
ATOM     46  C34 UNL A   1      12.448  46.959   6.294  1.00  0.00    +0.000 C 
ATOM     47  C35 UNL A   1      11.711  47.746   5.406  1.00  0.00    +0.000 C 
ATOM     48  C36 UNL A   1      12.353  48.740   4.678  1.00  0.00    +0.000 C 
ATOM    141  H33 UNL A   1      11.832  49.267   3.961  1.00  0.00    +0.000 H 
ATOM     49  C37 UNL A   1      13.708  49.033   4.911  1.00  0.00    +0.000 C 
ATOM    152  H44 UNL A   1      15.362  48.603   6.160  1.00  0.00    +0.000 H 
ATOM    153  H45 UNL A   1      14.292  46.744   7.305  1.00  0.00    +0.000 H 
BRANCH   46   44
ATOM     44  C33 UNL A   1      11.865  45.723   6.855  1.00  0.00    +0.000 C 
ATOM     45  O10 UNL A   1      11.907  44.676   6.219  1.00  0.00    +0.000 O 
BRANCH   44   43
ATOM     43  N2  UNL A   1      11.235  45.782   8.077  1.00  0.00    +0.000 N 
ATOM    139  H31 UNL A   1      11.764  45.470   8.847  1.00  0.00    +0.000 H 
BRANCH   43   42
ATOM    137  H29 UNL A   1       9.691  46.066   9.416  1.00  0.00    +0.000 H 
ATOM     42  C32 UNL A   1       9.888  46.243   8.380  1.00  0.00    +0.000 C 
ATOM    138  H30 UNL A   1       9.843  47.284   8.137  1.00  0.00    +0.000 H 
BRANCH   42   41
ATOM     41  C31 UNL A   1       8.823  45.536   7.555  1.00  0.00    +0.000 C 
ATOM    135  H27 UNL A   1       9.315  44.881   6.867  1.00  0.00    +0.000 H 
ATOM    136  H28 UNL A   1       8.194  45.020   8.252  1.00  0.00    +0.000 H 
BRANCH   41   40
ATOM    133  H25 UNL A   1       8.053  46.258   5.718  1.00  0.00    +0.000 H 
ATOM    134  H26 UNL A   1       6.914  46.268   7.099  1.00  0.00    +0.000 H 
ATOM     40  C30 UNL A   1       7.910  46.464   6.758  1.00  0.00    +0.000 C 
BRANCH   40   39
ATOM    131  H23 UNL A   1       7.319  48.348   7.537  1.00  0.00    +0.000 H 
ATOM    132  H24 UNL A   1       9.083  48.039   7.495  1.00  0.00    +0.000 H 
ATOM     39  C29 UNL A   1       8.147  47.962   6.981  1.00  0.00    +0.000 C 
BRANCH   39   38
ATOM    129  H21 UNL A   1       9.244  48.577   5.264  1.00  0.00    +0.000 H 
ATOM    130  H22 UNL A   1       7.472  48.547   5.072  1.00  0.00    +0.000 H 
ATOM     38  C28 UNL A   1       8.295  48.802   5.706  1.00  0.00    +0.000 C 
BRANCH   38   37
ATOM     37  C27 UNL A   1       8.220  50.310   5.939  1.00  0.00    +0.000 C 
ATOM    127  H19 UNL A   1       8.834  50.805   5.216  1.00  0.00    +0.000 H 
ATOM    128  H20 UNL A   1       7.199  50.617   5.842  1.00  0.00    +0.000 H 
BRANCH   37   36
ATOM     36  N1  UNL A   1       8.678  50.660   7.266  1.00  0.00    +0.000 N 
ATOM    126  H18 UNL A   1       8.083  50.534   8.039  1.00  0.00    +0.000 H 
BRANCH   36    2
ATOM      1  O1  UNL A   1      10.266  52.308   7.174  1.00  0.00    +0.000 O 
ATOM      2  C1  UNL A   1       9.930  51.162   7.449  1.00  0.00    +0.000 C 
BRANCH    2    3
ATOM      3  C2  UNL A   1      10.928  50.249   8.045  1.00  0.00    +0.000 C 
ATOM    109  H1  UNL A   1      10.541  49.381   8.448  1.00  0.00    +0.000 H 
BRANCH    3    4
ATOM      4  C3  UNL A   1      12.270  50.377   8.143  1.00  0.00    +0.000 C 
ATOM    110  H2  UNL A   1      12.830  50.474   7.282  1.00  0.00    +0.000 H 
BRANCH    4    5
ATOM      5  C4  UNL A   1      12.993  50.384   9.520  1.00  0.00    +0.000 C 
ATOM      6  C5  UNL A   1      12.685  49.039  10.122  1.00  0.00    +0.000 C 
ATOM      7  C6  UNL A   1      13.587  48.052  10.203  1.00  0.00    +0.000 C 
ATOM      9  C7  UNL A   1      15.014  48.268   9.792  1.00  0.00    +0.000 C 
ATOM     10  O3  UNL A   1      15.811  47.339   9.861  1.00  0.00    +0.000 O 
ATOM     11  C8  UNL A   1      15.427  49.633   9.387  1.00  0.00    +0.000 C 
ATOM     12  C9  UNL A   1      14.477  50.568   9.290  1.00  0.00    +0.000 C 
ATOM     13  C10 UNL A   1      14.706  52.017   9.059  1.00  0.00    +0.000 C 
ATOM     14  O4  UNL A   1      15.654  52.527   8.518  1.00  0.00    +0.000 O 
ATOM     15  C11 UNL A   1      13.559  52.696   9.723  1.00  0.00    +0.000 C 
ATOM     16  C12 UNL A   1      13.439  54.018   9.871  1.00  0.00    +0.000 C 
ATOM     17  C13 UNL A   1      12.518  54.524  10.898  1.00  0.00    +0.000 C 
ATOM     18  C14 UNL A   1      11.711  55.639  10.626  1.00  0.00    +0.000 C 
ATOM     19  C15 UNL A   1      10.934  56.186  11.646  1.00  0.00    +0.000 C 
ATOM     21  C16 UNL A   1      10.984  55.661  12.935  1.00  0.00    +0.000 C 
ATOM     23  C17 UNL A   1      11.780  54.565  13.221  1.00  0.00    +0.000 C 
ATOM     24  C18 UNL A   1      12.512  53.964  12.196  1.00  0.00    +0.000 C 
ATOM     25  O7  UNL A   1      13.298  52.911  12.583  1.00  0.00    +0.000 O 
ATOM     26  C19 UNL A   1      13.187  51.631  11.904  1.00  0.00    +0.000 C 
ATOM     35  C26 UNL A   1      12.701  51.650  10.409  1.00  0.00    +0.000 C 
ATOM    111  H3  UNL A   1      11.736  48.869  10.488  1.00  0.00    +0.000 H 
ATOM    113  H5  UNL A   1      16.414  49.854   9.186  1.00  0.00    +0.000 H 
ATOM    114  H6  UNL A   1      13.981  54.667   9.280  1.00  0.00    +0.000 H 
ATOM    115  H7  UNL A   1      11.693  56.050   9.680  1.00  0.00    +0.000 H 
ATOM    118  H10 UNL A   1      11.833  54.197  14.184  1.00  0.00    +0.000 H 
ATOM    119  H11 UNL A   1      14.182  51.266  11.754  1.00  0.00    +0.000 H 
ATOM    125  H17 UNL A   1      11.640  51.776  10.475  1.00  0.00    +0.000 H 
BRANCH    7    8
ATOM    112  H4  UNL A   1      12.967  46.134  10.090  1.00  0.00    +0.000 H 
ATOM      8  O2  UNL A   1      13.231  46.809  10.685  1.00  0.00    +0.000 O 
ENDBRANCH    7    8
BRANCH   19   20
ATOM    116  H8  UNL A   1      10.456  58.131  11.504  1.00  0.00    +0.000 H 
ATOM     20  O5  UNL A   1      10.114  57.260  11.440  1.00  0.00    +0.000 O 
ENDBRANCH   19   20
BRANCH   21   22
ATOM    117  H9  UNL A   1      10.648  56.846  14.516  1.00  0.00    +0.000 H 
ATOM     22  O6  UNL A   1      10.251  56.225  13.937  1.00  0.00    +0.000 O 
ENDBRANCH   21   22
BRANCH   26   27
ATOM     34  C25 UNL A   1      11.008  50.635  12.800  1.00  0.00    +0.000 C 
ATOM     28  C21 UNL A   1      13.102  49.824  13.676  1.00  0.00    +0.000 C 
ATOM    120  H12 UNL A   1      14.123  49.923  13.783  1.00  0.00    +0.000 H 
ATOM    121  H13 UNL A   1      12.959  48.159  14.971  1.00  0.00    +0.000 H 
ATOM     27  C20 UNL A   1      12.408  50.690  12.811  1.00  0.00    +0.000 C 
ATOM    124  H16 UNL A   1      10.472  51.292  12.211  1.00  0.00    +0.000 H 
ATOM     29  C22 UNL A   1      12.430  48.832  14.394  1.00  0.00    +0.000 C 
ATOM     30  C23 UNL A   1      11.044  48.759  14.325  1.00  0.00    +0.000 C 
ATOM     32  C24 UNL A   1      10.336  49.696  13.580  1.00  0.00    +0.000 C 
BRANCH   30   31
ATOM    122  H14 UNL A   1      10.384  46.897  14.664  1.00  0.00    +0.000 H 
ATOM     31  O8  UNL A   1      10.375  47.775  14.992  1.00  0.00    +0.000 O 
ENDBRANCH   30   31
BRANCH   32   33
ATOM     33  O9  UNL A   1       8.970  49.680  13.592  1.00  0.00    +0.000 O 
ATOM    123  H15 UNL A   1       8.514  49.175  14.236  1.00  0.00    +0.000 H 
ENDBRANCH   32   33
ENDBRANCH   26   27
ENDBRANCH    4    5
ENDBRANCH    3    4
ENDBRANCH    2    3
ENDBRANCH   36    2
ENDBRANCH   37   36
ENDBRANCH   38   37
ENDBRANCH   39   38
ENDBRANCH   40   39
ENDBRANCH   41   40
ENDBRANCH   42   41
ENDBRANCH   43   42
ENDBRANCH   44   43
ENDBRANCH   46   44
ENDBRANCH   50   49
BRANCH   54   55
ATOM     65  F5  UNL A   1      15.236  49.041  -2.493  1.00  0.00    +0.000 F 
ATOM     55  C42 UNL A   1      17.155  48.638  -1.143  1.00  0.00    +0.000 C 
ATOM     56  C43 UNL A   1      18.276  47.831  -0.903  1.00  0.00    +0.000 C 
ATOM     57  F1  UNL A   1      19.108  48.115   0.109  1.00  0.00    +0.000 F 
ATOM     58  C44 UNL A   1      18.560  46.737  -1.719  1.00  0.00    +0.000 C 
ATOM     59  F2  UNL A   1      19.653  45.998  -1.490  1.00  0.00    +0.000 F 
ATOM     60  C45 UNL A   1      17.716  46.417  -2.773  1.00  0.00    +0.000 C 
ATOM     61  F3  UNL A   1      17.984  45.357  -3.548  1.00  0.00    +0.000 F 
ATOM     62  C46 UNL A   1      16.597  47.196  -3.024  1.00  0.00    +0.000 C 
ATOM     63  F4  UNL A   1      15.776  46.882  -4.035  1.00  0.00    +0.000 F 
ATOM     64  C47 UNL A   1      16.324  48.304  -2.224  1.00  0.00    +0.000 C 
ENDBRANCH   54   55
BRANCH   71   72
ATOM     72  C53 UNL A   1      18.109  55.767  -0.899  1.00  0.00    +0.000 C 
ATOM     73  C54 UNL A   1      17.416  56.483  -1.885  1.00  0.00    +0.000 C 
ATOM     74  F6  UNL A   1      16.138  56.183  -2.165  1.00  0.00    +0.000 F 
ATOM     75  C55 UNL A   1      18.045  57.492  -2.610  1.00  0.00    +0.000 C 
ATOM     76  F7  UNL A   1      17.375  58.140  -3.572  1.00  0.00    +0.000 F 
ATOM     77  C56 UNL A   1      19.366  57.821  -2.343  1.00  0.00    +0.000 C 
ATOM     78  F8  UNL A   1      19.967  58.800  -3.034  1.00  0.00    +0.000 F 
ATOM     79  C57 UNL A   1      20.065  57.133  -1.363  1.00  0.00    +0.000 C 
ATOM     80  F9  UNL A   1      21.338  57.457  -1.096  1.00  0.00    +0.000 F 
ATOM     81  C58 UNL A   1      19.447  56.106  -0.654  1.00  0.00    +0.000 C 
ATOM     82  F10 UNL A   1      20.149  55.455   0.285  1.00  0.00    +0.000 F 
ENDBRANCH   71   72
BRANCH   86   87
ATOM     97  F15 UNL A   1      12.298  56.048   4.076  1.00  0.00    +0.000 F 
ATOM     87  C62 UNL A   1      14.470  55.992   5.040  1.00  0.00    +0.000 C 
ATOM     88  C63 UNL A   1      15.355  56.537   5.980  1.00  0.00    +0.000 C 
ATOM     89  F11 UNL A   1      16.592  56.033   6.106  1.00  0.00    +0.000 F 
ATOM     90  C64 UNL A   1      14.963  57.585   6.810  1.00  0.00    +0.000 C 
ATOM     91  F12 UNL A   1      15.818  58.070   7.721  1.00  0.00    +0.000 F 
ATOM     92  C65 UNL A   1      13.689  58.122   6.699  1.00  0.00    +0.000 C 
ATOM     93  F13 UNL A   1      13.318  59.139   7.489  1.00  0.00    +0.000 F 
ATOM     94  C66 UNL A   1      12.799  57.601   5.773  1.00  0.00    +0.000 C 
ATOM     95  F14 UNL A   1      11.571  58.126   5.653  1.00  0.00    +0.000 F 
ATOM     96  C67 UNL A   1      13.181  56.536   4.962  1.00  0.00    +0.000 C 
ENDBRANCH   86   87
TORSDOF 23
ENDMDL
MODEL 2
REMARK VINA RESULT:      -8.4      1.456      7.690
ROOT
ATOM    142  H34 UNL A   1      15.903  57.423   3.417  1.00  0.00    +0.000 H 
ATOM    143  H35 UNL A   1      17.022  57.307   1.065  1.00  0.00    +0.000 H 
ATOM    144  H36 UNL A   1      15.792  53.494   2.111  1.00  0.00    +0.000 H 
ATOM    145  H37 UNL A   1      15.546  47.249   0.860  1.00  0.00    +0.000 H 
ATOM    146  H38 UNL A   1      14.210  47.403   3.013  1.00  0.00    +0.000 H 
ATOM    147  H39 UNL A   1      15.461  51.240   2.018  1.00  0.00    +0.000 H 
ATOM    148  H40 UNL A   1      17.722  50.818  -2.453  1.00  0.00    +0.000 H 
ATOM    149  H41 UNL A   1      18.150  53.340  -2.336  1.00  0.00    +0.000 H 
ATOM    150  H42 UNL A   1      13.502  53.810   6.566  1.00  0.00    +0.000 H 
ATOM    151  H43 UNL A   1      13.235  51.264   6.559  1.00  0.00    +0.000 H 
ATOM     50  C38 UNL A   1      14.112  50.015   4.142  1.00  0.00    +0.000 C 
ATOM     51  C39 UNL A   1      14.193  51.472   4.513  1.00  0.00    +0.000 C 
ATOM     52  N3  UNL A   1      14.689  52.473   3.829  1.00  0.00    +0.000 N 
ATOM     53  C40 UNL A   1      14.497  53.605   4.612  1.00  0.00    +0.000 C 
ATOM     54  C41 UNL A   1      14.870  54.882   4.358  1.00  0.00    +0.000 C 
ATOM     66  C48 UNL A   1      15.576  55.304   3.177  1.00  0.00    +0.000 C 
ATOM     67  C49 UNL A   1      16.011  56.574   2.840  1.00  0.00    +0.000 C 
ATOM     68  C50 UNL A   1      16.624  56.509   1.585  1.00  0.00    +0.000 C 
ATOM     69  C51 UNL A   1      16.606  55.192   1.157  1.00  0.00    +0.000 C 
ATOM     70  N4  UNL A   1      15.957  54.464   2.142  1.00  0.00    +0.000 N 
ATOM     71  C52 UNL A   1      17.136  54.637  -0.062  1.00  0.00    +0.000 C 
ATOM     83  C59 UNL A   1      17.125  53.322  -0.387  1.00  0.00    +0.000 C 
ATOM     84  N5  UNL A   1      16.610  52.252   0.331  1.00  0.00    +0.000 N 
ATOM     85  C60 UNL A   1      16.810  51.192  -0.411  1.00  0.00    +0.000 C 
ATOM     86  C61 UNL A   1      16.453  49.759  -0.133  1.00  0.00    +0.000 C 
ATOM     98  C68 UNL A   1      15.778  49.457   0.992  1.00  0.00    +0.000 C 
ATOM     99  C69 UNL A   1      15.350  48.116   1.383  1.00  0.00    +0.000 C 
ATOM    100  C70 UNL A   1      14.661  48.195   2.530  1.00  0.00    +0.000 C 
ATOM    101  C71 UNL A   1      14.652  49.585   2.987  1.00  0.00    +0.000 C 
ATOM    102  N6  UNL A   1      15.321  50.265   2.002  1.00  0.00    +0.000 N 
ATOM    103  C72 UNL A   1      17.474  51.470  -1.692  1.00  0.00    +0.000 C 
ATOM    104  C73 UNL A   1      17.670  52.779  -1.614  1.00  0.00    +0.000 C 
ATOM    105  C74 UNL A   1      13.815  53.176   5.814  1.00  0.00    +0.000 C 
ATOM    106  C75 UNL A   1      13.646  51.861   5.823  1.00  0.00    +0.000 C 
ENDROOT
BRANCH   50   49
ATOM    107  C76 UNL A   1      14.299  48.230   5.912  1.00  0.00    +0.000 C 
ATOM    108  C77 UNL A   1      13.719  47.201   6.658  1.00  0.00    +0.000 C 
ATOM    140  H32 UNL A   1      10.496  47.834   5.973  1.00  0.00    +0.000 H 
ATOM     46  C34 UNL A   1      12.336  47.008   6.606  1.00  0.00    +0.000 C 
ATOM     47  C35 UNL A   1      11.524  47.897   5.898  1.00  0.00    +0.000 C 
ATOM     48  C36 UNL A   1      12.109  48.867   5.094  1.00  0.00    +0.000 C 
ATOM    141  H33 UNL A   1      11.515  49.471   4.506  1.00  0.00    +0.000 H 
ATOM     49  C37 UNL A   1      13.504  49.032   5.076  1.00  0.00    +0.000 C 
ATOM    152  H44 UNL A   1      15.315  48.402   5.975  1.00  0.00    +0.000 H 
ATOM    153  H45 UNL A   1      14.307  46.588   7.243  1.00  0.00    +0.000 H 
BRANCH   46   44
ATOM     44  C33 UNL A   1      11.755  45.801   7.229  1.00  0.00    +0.000 C 
ATOM     45  O10 UNL A   1      11.515  44.810   6.548  1.00  0.00    +0.000 O 
BRANCH   44   43
ATOM     43  N2  UNL A   1      11.447  45.828   8.569  1.00  0.00    +0.000 N 
ATOM    139  H31 UNL A   1      11.115  44.983   8.950  1.00  0.00    +0.000 H 
BRANCH   43   42
ATOM    137  H29 UNL A   1      11.557  47.856   8.937  1.00  0.00    +0.000 H 
ATOM     42  C32 UNL A   1      11.545  46.945   9.498  1.00  0.00    +0.000 C 
ATOM    138  H30 UNL A   1      10.702  46.892  10.154  1.00  0.00    +0.000 H 
BRANCH   42   41
ATOM     41  C31 UNL A   1      12.798  46.888  10.358  1.00  0.00    +0.000 C 
ATOM    135  H27 UNL A   1      12.509  47.031  11.378  1.00  0.00    +0.000 H 
ATOM    136  H28 UNL A   1      13.247  45.933  10.176  1.00  0.00    +0.000 H 
BRANCH   41   40
ATOM    133  H25 UNL A   1      13.639  48.319   9.041  1.00  0.00    +0.000 H 
ATOM    134  H26 UNL A   1      13.810  48.671  10.788  1.00  0.00    +0.000 H 
ATOM     40  C30 UNL A   1      13.858  47.933  10.014  1.00  0.00    +0.000 C 
BRANCH   40   39
ATOM    131  H23 UNL A   1      15.587  47.222  11.019  1.00  0.00    +0.000 H 
ATOM    132  H24 UNL A   1      15.302  46.550   9.383  1.00  0.00    +0.000 H 
ATOM     39  C29 UNL A   1      15.301  47.420  10.007  1.00  0.00    +0.000 C 
BRANCH   39   38
ATOM    129  H21 UNL A   1      17.140  47.791   9.002  1.00  0.00    +0.000 H 
ATOM    130  H22 UNL A   1      15.828  48.945   8.651  1.00  0.00    +0.000 H 
ATOM     38  C28 UNL A   1      16.337  48.375   9.400  1.00  0.00    +0.000 C 
BRANCH   38   37
ATOM     37  C27 UNL A   1      16.920  49.378  10.394  1.00  0.00    +0.000 C 
ATOM    127  H19 UNL A   1      16.203  49.561  11.167  1.00  0.00    +0.000 H 
ATOM    128  H20 UNL A   1      17.819  48.966  10.803  1.00  0.00    +0.000 H 
BRANCH   37   36
ATOM     36  N1  UNL A   1      17.245  50.631   9.747  1.00  0.00    +0.000 N 
ATOM    126  H18 UNL A   1      18.137  51.028   9.868  1.00  0.00    +0.000 H 
BRANCH   36    2
ATOM      1  O1  UNL A   1      16.440  51.444   7.763  1.00  0.00    +0.000 O 
ATOM      2  C1  UNL A   1      16.323  51.261   8.969  1.00  0.00    +0.000 C 
BRANCH    2    3
ATOM      3  C2  UNL A   1      15.093  51.726   9.646  1.00  0.00    +0.000 C 
ATOM    109  H1  UNL A   1      15.241  52.438  10.379  1.00  0.00    +0.000 H 
BRANCH    3    4
ATOM      4  C3  UNL A   1      13.807  51.361   9.451  1.00  0.00    +0.000 C 
ATOM    110  H2  UNL A   1      13.544  50.897   8.568  1.00  0.00    +0.000 H 
BRANCH    4    5
ATOM      5  C4  UNL A   1      12.712  51.621  10.525  1.00  0.00    +0.000 C 
ATOM      6  C5  UNL A   1      13.419  51.456  11.843  1.00  0.00    +0.000 C 
ATOM      7  C6  UNL A   1      13.745  52.489  12.631  1.00  0.00    +0.000 C 
ATOM      9  C7  UNL A   1      13.319  53.888  12.293  1.00  0.00    +0.000 C 
ATOM     10  O3  UNL A   1      13.650  54.814  13.025  1.00  0.00    +0.000 O 
ATOM     11  C8  UNL A   1      12.442  54.088  11.115  1.00  0.00    +0.000 C 
ATOM     12  C9  UNL A   1      12.180  53.027  10.347  1.00  0.00    +0.000 C 
ATOM     13  C10 UNL A   1      11.205  52.985   9.228  1.00  0.00    +0.000 C 
ATOM     14  O4  UNL A   1      10.822  53.912   8.560  1.00  0.00    +0.000 O 
ATOM     15  C11 UNL A   1      10.739  51.572   9.179  1.00  0.00    +0.000 C 
ATOM     16  C12 UNL A   1       9.753  51.122   8.398  1.00  0.00    +0.000 C 
ATOM     17  C13 UNL A   1       9.110  49.849   8.751  1.00  0.00    +0.000 C 
ATOM     18  C14 UNL A   1       8.773  48.932   7.743  1.00  0.00    +0.000 C 
ATOM     19  C15 UNL A   1       8.053  47.786   8.075  1.00  0.00    +0.000 C 
ATOM     21  C16 UNL A   1       7.633  47.566   9.384  1.00  0.00    +0.000 C 
ATOM     23  C17 UNL A   1       7.951  48.463  10.388  1.00  0.00    +0.000 C 
ATOM     24  C18 UNL A   1       8.730  49.582  10.086  1.00  0.00    +0.000 C 
ATOM     25  O7  UNL A   1       8.961  50.431  11.135  1.00  0.00    +0.000 O 
ATOM     26  C19 UNL A   1      10.320  50.815  11.476  1.00  0.00    +0.000 C 
ATOM     35  C26 UNL A   1      11.382  50.803  10.318  1.00  0.00    +0.000 C 
ATOM    111  H3  UNL A   1      13.664  50.503  12.154  1.00  0.00    +0.000 H 
ATOM    113  H5  UNL A   1      12.047  55.015  10.896  1.00  0.00    +0.000 H 
ATOM    114  H6  UNL A   1       9.449  51.656   7.569  1.00  0.00    +0.000 H 
ATOM    115  H7  UNL A   1       9.056  49.105   6.766  1.00  0.00    +0.000 H 
ATOM    118  H10 UNL A   1       7.615  48.308  11.352  1.00  0.00    +0.000 H 
ATOM    119  H11 UNL A   1      10.309  51.864  11.686  1.00  0.00    +0.000 H 
ATOM    125  H17 UNL A   1      11.638  49.771  10.199  1.00  0.00    +0.000 H 
BRANCH    7    8
ATOM    112  H4  UNL A   1      14.205  51.632  14.400  1.00  0.00    +0.000 H 
ATOM      8  O2  UNL A   1      14.469  52.292  13.789  1.00  0.00    +0.000 O 
ENDBRANCH    7    8
BRANCH   19   20
ATOM    116  H8  UNL A   1       7.331  46.033   7.413  1.00  0.00    +0.000 H 
ATOM     20  O5  UNL A   1       7.710  46.846   7.143  1.00  0.00    +0.000 O 
ENDBRANCH   19   20
BRANCH   21   22
ATOM    117  H9  UNL A   1       6.092  46.292   9.242  1.00  0.00    +0.000 H 
ATOM     22  O6  UNL A   1       6.895  46.461   9.695  1.00  0.00    +0.000 O 
ENDBRANCH   21   22
BRANCH   26   27
ATOM     34  C25 UNL A   1      10.744  50.614  13.990  1.00  0.00    +0.000 C 
ATOM     28  C21 UNL A   1      11.075  48.674  12.599  1.00  0.00    +0.000 C 
ATOM    120  H12 UNL A   1      11.177  48.254  11.662  1.00  0.00    +0.000 H 
ATOM    121  H13 UNL A   1      11.473  46.873  13.633  1.00  0.00    +0.000 H 
ATOM     27  C20 UNL A   1      10.727  50.032  12.716  1.00  0.00    +0.000 C 
ATOM    124  H16 UNL A   1      10.541  51.620  14.100  1.00  0.00    +0.000 H 
ATOM     29  C22 UNL A   1      11.287  47.884  13.731  1.00  0.00    +0.000 C 
ATOM     30  C23 UNL A   1      11.245  48.469  14.990  1.00  0.00    +0.000 C 
ATOM     32  C24 UNL A   1      11.036  49.839  15.112  1.00  0.00    +0.000 C 
BRANCH   30   31
ATOM    122  H14 UNL A   1      11.026  46.854  16.158  1.00  0.00    +0.000 H 
ATOM     31  O8  UNL A   1      11.414  47.706  16.108  1.00  0.00    +0.000 O 
ENDBRANCH   30   31
BRANCH   32   33
ATOM     33  O9  UNL A   1      11.091  50.427  16.344  1.00  0.00    +0.000 O 
ATOM    123  H15 UNL A   1      11.686  51.133  16.500  1.00  0.00    +0.000 H 
ENDBRANCH   32   33
ENDBRANCH   26   27
ENDBRANCH    4    5
ENDBRANCH    3    4
ENDBRANCH    2    3
ENDBRANCH   36    2
ENDBRANCH   37   36
ENDBRANCH   38   37
ENDBRANCH   39   38
ENDBRANCH   40   39
ENDBRANCH   41   40
ENDBRANCH   42   41
ENDBRANCH   43   42
ENDBRANCH   44   43
ENDBRANCH   46   44
ENDBRANCH   50   49
BRANCH   54   55
ATOM     65  F5  UNL A   1      12.234  55.886   4.713  1.00  0.00    +0.000 F 
ATOM     55  C42 UNL A   1      14.520  55.929   5.374  1.00  0.00    +0.000 C 
ATOM     56  C43 UNL A   1      15.497  56.512   6.193  1.00  0.00    +0.000 C 
ATOM     57  F1  UNL A   1      16.766  56.083   6.141  1.00  0.00    +0.000 F 
ATOM     58  C44 UNL A   1      15.168  57.526   7.090  1.00  0.00    +0.000 C 
ATOM     59  F2  UNL A   1      16.111  58.048   7.886  1.00  0.00    +0.000 F 
ATOM     60  C45 UNL A   1      13.863  57.993   7.166  1.00  0.00    +0.000 C 
ATOM     61  F3  UNL A   1      13.552  58.978   8.020  1.00  0.00    +0.000 F 
ATOM     62  C46 UNL A   1      12.883  57.437   6.359  1.00  0.00    +0.000 C 
ATOM     63  F4  UNL A   1      11.625  57.893   6.423  1.00  0.00    +0.000 F 
ATOM     64  C47 UNL A   1      13.204  56.406   5.478  1.00  0.00    +0.000 C 
ENDBRANCH   54   55
BRANCH   71   72
ATOM     72  C53 UNL A   1      17.756  55.583  -1.045  1.00  0.00    +0.000 C 
ATOM     73  C54 UNL A   1      19.123  55.893  -0.994  1.00  0.00    +0.000 C 
ATOM     74  F6  UNL A   1      19.891  55.395  -0.013  1.00  0.00    +0.000 F 
ATOM     75  C55 UNL A   1      19.699  56.741  -1.936  1.00  0.00    +0.000 C 
ATOM     76  F7  UNL A   1      20.999  57.052  -1.848  1.00  0.00    +0.000 F 
ATOM     77  C56 UNL A   1      18.927  57.271  -2.959  1.00  0.00    +0.000 C 
ATOM     78  F8  UNL A   1      19.486  58.079  -3.872  1.00  0.00    +0.000 F 
ATOM     79  C57 UNL A   1      17.576  56.968  -3.035  1.00  0.00    +0.000 C 
ATOM     80  F9  UNL A   1      16.832  57.470  -4.030  1.00  0.00    +0.000 F 
ATOM     81  C58 UNL A   1      16.992  56.141  -2.080  1.00  0.00    +0.000 C 
ATOM     82  F10 UNL A   1      15.682  55.868  -2.176  1.00  0.00    +0.000 F 
ENDBRANCH   71   72
BRANCH   86   87
ATOM     97  F15 UNL A   1      18.821  48.202   0.129  1.00  0.00    +0.000 F 
ATOM     87  C62 UNL A   1      16.828  48.677  -1.076  1.00  0.00    +0.000 C 
ATOM     88  C63 UNL A   1      16.019  48.372  -2.179  1.00  0.00    +0.000 C 
ATOM     89  F11 UNL A   1      14.865  49.031  -2.364  1.00  0.00    +0.000 F 
ATOM     90  C64 UNL A   1      16.380  47.374  -3.080  1.00  0.00    +0.000 C 
ATOM     91  F12 UNL A   1      15.575  47.082  -4.111  1.00  0.00    +0.000 F 
ATOM     92  C65 UNL A   1      17.568  46.678  -2.908  1.00  0.00    +0.000 C 
ATOM     93  F13 UNL A   1      17.922  45.727  -3.784  1.00  0.00    +0.000 F 
ATOM     94  C66 UNL A   1      18.387  46.966  -1.827  1.00  0.00    +0.000 C 
ATOM     95  F14 UNL A   1      19.542  46.306  -1.666  1.00  0.00    +0.000 F 
ATOM     96  C67 UNL A   1      18.013  47.946  -0.912  1.00  0.00    +0.000 C 
ENDBRANCH   86   87
TORSDOF 23
ENDMDL
MODEL 3
REMARK VINA RESULT:      -8.3      1.979      8.003
ROOT
ATOM    142  H34 UNL A   1      15.913  57.565   3.310  1.00  0.00    +0.000 H 
ATOM    143  H35 UNL A   1      16.939  57.399   0.920  1.00  0.00    +0.000 H 
ATOM    144  H36 UNL A   1      15.913  53.585   2.165  1.00  0.00    +0.000 H 
ATOM    145  H37 UNL A   1      15.877  47.289   1.169  1.00  0.00    +0.000 H 
ATOM    146  H38 UNL A   1      14.623  47.477   3.369  1.00  0.00    +0.000 H 
ATOM    147  H39 UNL A   1      15.672  51.318   2.173  1.00  0.00    +0.000 H 
ATOM    148  H40 UNL A   1      17.766  50.805  -2.369  1.00  0.00    +0.000 H 
ATOM    149  H41 UNL A   1      18.093  53.345  -2.368  1.00  0.00    +0.000 H 
ATOM    150  H42 UNL A   1      13.794  53.990   6.696  1.00  0.00    +0.000 H 
ATOM    151  H43 UNL A   1      13.633  51.437   6.800  1.00  0.00    +0.000 H 
ATOM     50  C38 UNL A   1      14.462  50.127   4.399  1.00  0.00    +0.000 C 
ATOM     51  C39 UNL A   1      14.497  51.600   4.709  1.00  0.00    +0.000 C 
ATOM     52  N3  UNL A   1      14.924  52.592   3.966  1.00  0.00    +0.000 N 
ATOM     53  C40 UNL A   1      14.717  53.746   4.712  1.00  0.00    +0.000 C 
ATOM     54  C41 UNL A   1      15.025  55.025   4.392  1.00  0.00    +0.000 C 
ATOM     66  C48 UNL A   1      15.665  55.426   3.167  1.00  0.00    +0.000 C 
ATOM     67  C49 UNL A   1      16.033  56.699   2.763  1.00  0.00    +0.000 C 
ATOM     68  C50 UNL A   1      16.597  56.607   1.487  1.00  0.00    +0.000 C 
ATOM     69  C51 UNL A   1      16.616  55.274   1.112  1.00  0.00    +0.000 C 
ATOM     70  N4  UNL A   1      16.038  54.561   2.150  1.00  0.00    +0.000 N 
ATOM     71  C52 UNL A   1      17.119  54.692  -0.106  1.00  0.00    +0.000 C 
ATOM     83  C59 UNL A   1      17.149  53.365  -0.379  1.00  0.00    +0.000 C 
ATOM     84  N5  UNL A   1      16.709  52.306   0.401  1.00  0.00    +0.000 N 
ATOM     85  C60 UNL A   1      16.923  51.225  -0.307  1.00  0.00    +0.000 C 
ATOM     86  C61 UNL A   1      16.637  49.792   0.042  1.00  0.00    +0.000 C 
ATOM     98  C68 UNL A   1      16.021  49.508   1.205  1.00  0.00    +0.000 C 
ATOM     99  C69 UNL A   1      15.666  48.169   1.665  1.00  0.00    +0.000 C 
ATOM    100  C70 UNL A   1      15.021  48.267   2.837  1.00  0.00    +0.000 C 
ATOM    101  C71 UNL A   1      14.973  49.673   3.240  1.00  0.00    +0.000 C 
ATOM    102  N6  UNL A   1      15.573  50.338   2.201  1.00  0.00    +0.000 N 
ATOM    103  C72 UNL A   1      17.522  51.477  -1.625  1.00  0.00    +0.000 C 
ATOM    104  C73 UNL A   1      17.666  52.795  -1.605  1.00  0.00    +0.000 C 
ATOM    105  C74 UNL A   1      14.102  53.339   5.957  1.00  0.00    +0.000 C 
ATOM    106  C75 UNL A   1      13.988  52.019   6.024  1.00  0.00    +0.000 C 
ENDROOT
BRANCH   50   49
ATOM    107  C76 UNL A   1      14.792  48.454   6.254  1.00  0.00    +0.000 C 
ATOM    108  C77 UNL A   1      14.292  47.432   7.065  1.00  0.00    +0.000 C 
ATOM    140  H32 UNL A   1      11.024  47.825   6.415  1.00  0.00    +0.000 H 
ATOM     46  C34 UNL A   1      12.923  47.151   7.052  1.00  0.00    +0.000 C 
ATOM     47  C35 UNL A   1      12.044  47.948   6.316  1.00  0.00    +0.000 C 
ATOM     48  C36 UNL A   1      12.553  48.908   5.450  1.00  0.00    +0.000 C 
ATOM    141  H33 UNL A   1      11.911  49.442   4.843  1.00  0.00    +0.000 H 
ATOM     49  C37 UNL A   1      13.934  49.159   5.394  1.00  0.00    +0.000 C 
ATOM    152  H44 UNL A   1      15.796  48.693   6.288  1.00  0.00    +0.000 H 
ATOM    153  H45 UNL A   1      14.928  46.889   7.669  1.00  0.00    +0.000 H 
BRANCH   46   44
ATOM     44  C33 UNL A   1      12.431  45.945   7.748  1.00  0.00    +0.000 C 
ATOM     45  O10 UNL A   1      11.925  45.027   7.112  1.00  0.00    +0.000 O 
BRANCH   44   43
ATOM     43  N2  UNL A   1      12.508  45.893   9.121  1.00  0.00    +0.000 N 
ATOM    139  H31 UNL A   1      12.734  45.015   9.505  1.00  0.00    +0.000 H 
BRANCH   43   42
ATOM    137  H29 UNL A   1      12.057  47.862   9.544  1.00  0.00    +0.000 H 
ATOM     42  C32 UNL A   1      12.296  46.968  10.080  1.00  0.00    +0.000 C 
ATOM    138  H30 UNL A   1      11.499  46.667  10.728  1.00  0.00    +0.000 H 
BRANCH   42   41
ATOM     41  C31 UNL A   1      13.516  47.232  10.949  1.00  0.00    +0.000 C 
ATOM    135  H27 UNL A   1      13.183  47.382  11.954  1.00  0.00    +0.000 H 
ATOM    136  H28 UNL A   1      14.156  46.381  10.838  1.00  0.00    +0.000 H 
BRANCH   41   40
ATOM    133  H25 UNL A   1      13.866  48.904   9.693  1.00  0.00    +0.000 H 
ATOM    134  H26 UNL A   1      14.388  49.083  11.397  1.00  0.00    +0.000 H 
ATOM     40  C30 UNL A   1      14.343  48.448  10.536  1.00  0.00    +0.000 C 
BRANCH   40   39
ATOM    131  H23 UNL A   1      16.221  47.536  10.920  1.00  0.00    +0.000 H 
ATOM    132  H24 UNL A   1      15.756  47.673   9.195  1.00  0.00    +0.000 H 
ATOM     39  C29 UNL A   1      15.796  48.149  10.153  1.00  0.00    +0.000 C 
BRANCH   39   38
ATOM    129  H21 UNL A   1      17.587  49.072   9.467  1.00  0.00    +0.000 H 
ATOM    130  H22 UNL A   1      16.130  50.097   9.421  1.00  0.00    +0.000 H 
ATOM     38  C28 UNL A   1      16.697  49.379   9.975  1.00  0.00    +0.000 C 
BRANCH   38   37
ATOM     37  C27 UNL A   1      17.100  50.052  11.286  1.00  0.00    +0.000 C 
ATOM    127  H19 UNL A   1      16.565  49.596  12.092  1.00  0.00    +0.000 H 
ATOM    128  H20 UNL A   1      18.155  49.933  11.418  1.00  0.00    +0.000 H 
BRANCH   37   36
ATOM     36  N1  UNL A   1      16.801  51.468  11.263  1.00  0.00    +0.000 N 
ATOM    126  H18 UNL A   1      17.518  52.117  11.084  1.00  0.00    +0.000 H 
BRANCH   36    2
ATOM      1  O1  UNL A   1      14.818  52.428  10.636  1.00  0.00    +0.000 O 
ATOM      2  C1  UNL A   1      15.531  51.905  11.485  1.00  0.00    +0.000 C 
BRANCH    2    3
ATOM      3  C2  UNL A   1      14.990  51.700  12.846  1.00  0.00    +0.000 C 
ATOM    109  H1  UNL A   1      15.424  52.279  13.581  1.00  0.00    +0.000 H 
BRANCH    3    4
ATOM      4  C3  UNL A   1      14.013  50.870  13.273  1.00  0.00    +0.000 C 
ATOM    110  H2  UNL A   1      14.216  49.863  13.374  1.00  0.00    +0.000 H 
BRANCH    4    5
ATOM      5  C4  UNL A   1      12.588  51.391  13.616  1.00  0.00    +0.000 C 
ATOM      6  C5  UNL A   1      12.805  52.787  14.135  1.00  0.00    +0.000 C 
ATOM      7  C6  UNL A   1      12.504  53.884  13.426  1.00  0.00    +0.000 C 
ATOM      9  C7  UNL A   1      11.818  53.785  12.096  1.00  0.00    +0.000 C 
ATOM     10  O3  UNL A   1      11.574  54.807  11.463  1.00  0.00    +0.000 O 
ATOM     11  C8  UNL A   1      11.391  52.446  11.626  1.00  0.00    +0.000 C 
ATOM     12  C9  UNL A   1      11.751  51.386  12.356  1.00  0.00    +0.000 C 
ATOM     13  C10 UNL A   1      11.289  49.990  12.145  1.00  0.00    +0.000 C 
ATOM     14  O4  UNL A   1      10.901  49.499  11.116  1.00  0.00    +0.000 O 
ATOM     15  C11 UNL A   1      11.324  49.368  13.498  1.00  0.00    +0.000 C 
ATOM     16  C12 UNL A   1      10.859  48.150  13.787  1.00  0.00    +0.000 C 
ATOM     17  C13 UNL A   1      10.555  47.834  15.189  1.00  0.00    +0.000 C 
ATOM     18  C14 UNL A   1      10.888  46.575  15.711  1.00  0.00    +0.000 C 
ATOM     19  C15 UNL A   1      10.483  46.242  17.003  1.00  0.00    +0.000 C 
ATOM     21  C16 UNL A   1       9.721  47.130  17.758  1.00  0.00    +0.000 C 
ATOM     23  C17 UNL A   1       9.379  48.373  17.256  1.00  0.00    +0.000 C 
ATOM     24  C18 UNL A   1       9.834  48.748  15.991  1.00  0.00    +0.000 C 
ATOM     25  O7  UNL A   1       9.414  49.980  15.563  1.00  0.00    +0.000 O 
ATOM     26  C19 UNL A   1      10.383  50.963  15.109  1.00  0.00    +0.000 C 
ATOM     35  C26 UNL A   1      11.731  50.420  14.512  1.00  0.00    +0.000 C 
ATOM    111  H3  UNL A   1      13.205  52.906  15.079  1.00  0.00    +0.000 H 
ATOM    113  H5  UNL A   1      10.835  52.336  10.764  1.00  0.00    +0.000 H 
ATOM    114  H6  UNL A   1      10.717  47.448  13.044  1.00  0.00    +0.000 H 
ATOM    115  H7  UNL A   1      11.426  45.902  15.145  1.00  0.00    +0.000 H 
ATOM    118  H10 UNL A   1       8.793  49.016  17.810  1.00  0.00    +0.000 H 
ATOM    119  H11 UNL A   1       9.979  51.420  14.229  1.00  0.00    +0.000 H 
ATOM    125  H17 UNL A   1      12.314  50.152  15.368  1.00  0.00    +0.000 H 
BRANCH    7    8
ATOM    112  H4  UNL A   1      13.648  55.313  14.278  1.00  0.00    +0.000 H 
ATOM      8  O2  UNL A   1      12.802  55.141  13.912  1.00  0.00    +0.000 O 
ENDBRANCH    7    8
BRANCH   19   20
ATOM    116  H8  UNL A   1      11.363  44.442  17.132  1.00  0.00    +0.000 H 
ATOM     20  O5  UNL A   1      10.791  45.039  17.575  1.00  0.00    +0.000 O 
ENDBRANCH   19   20
BRANCH   21   22
ATOM    117  H9  UNL A   1       8.758  47.371  19.500  1.00  0.00    +0.000 H 
ATOM     22  O6  UNL A   1       9.296  46.782  19.008  1.00  0.00    +0.000 O 
ENDBRANCH   21   22
BRANCH   26   27
ATOM     34  C25 UNL A   1       9.952  53.261  16.144  1.00  0.00    +0.000 C 
ATOM     28  C21 UNL A   1      11.304  51.677  17.357  1.00  0.00    +0.000 C 
ATOM    120  H12 UNL A   1      11.842  50.797  17.382  1.00  0.00    +0.000 H 
ATOM    121  H13 UNL A   1      11.836  52.254  19.320  1.00  0.00    +0.000 H 
ATOM     27  C20 UNL A   1      10.550  51.996  16.213  1.00  0.00    +0.000 C 
ATOM    124  H16 UNL A   1       9.434  53.541  15.296  1.00  0.00    +0.000 H 
ATOM     29  C22 UNL A   1      11.336  52.532  18.461  1.00  0.00    +0.000 C 
ATOM     30  C23 UNL A   1      10.689  53.760  18.393  1.00  0.00    +0.000 C 
ATOM     32  C24 UNL A   1      10.054  54.146  17.217  1.00  0.00    +0.000 C 
BRANCH   30   31
ATOM    122  H14 UNL A   1      11.013  55.465  19.397  1.00  0.00    +0.000 H 
ATOM     31  O8  UNL A   1      10.681  54.592  19.474  1.00  0.00    +0.000 O 
ENDBRANCH   30   31
BRANCH   32   33
ATOM     33  O9  UNL A   1       9.503  55.392  17.121  1.00  0.00    +0.000 O 
ATOM    123  H15 UNL A   1       8.726  55.599  17.603  1.00  0.00    +0.000 H 
ENDBRANCH   32   33
ENDBRANCH   26   27
ENDBRANCH    4    5
ENDBRANCH    3    4
ENDBRANCH    2    3
ENDBRANCH   36    2
ENDBRANCH   37   36
ENDBRANCH   38   37
ENDBRANCH   39   38
ENDBRANCH   40   39
ENDBRANCH   41   40
ENDBRANCH   42   41
ENDBRANCH   43   42
ENDBRANCH   44   43
ENDBRANCH   46   44
ENDBRANCH   50   49
BRANCH   54   55
ATOM     65  F5  UNL A   1      12.409  56.109   4.647  1.00  0.00    +0.000 F 
ATOM     55  C42 UNL A   1      14.674  56.098   5.381  1.00  0.00    +0.000 C 
ATOM     56  C43 UNL A   1      15.640  56.666   6.222  1.00  0.00    +0.000 C 
ATOM     57  F1  UNL A   1      16.898  56.200   6.218  1.00  0.00    +0.000 F 
ATOM     58  C44 UNL A   1      15.312  57.703   7.093  1.00  0.00    +0.000 C 
ATOM     59  F2  UNL A   1      16.244  58.210   7.911  1.00  0.00    +0.000 F 
ATOM     60  C45 UNL A   1      14.020  58.208   7.119  1.00  0.00    +0.000 C 
ATOM     61  F3  UNL A   1      13.710  59.215   7.948  1.00  0.00    +0.000 F 
ATOM     62  C46 UNL A   1      13.050  57.667   6.289  1.00  0.00    +0.000 C 
ATOM     63  F4  UNL A   1      11.804  58.160   6.306  1.00  0.00    +0.000 F 
ATOM     64  C47 UNL A   1      13.370  56.614   5.435  1.00  0.00    +0.000 C 
ENDBRANCH   54   55
BRANCH   71   72
ATOM     72  C53 UNL A   1      17.659  55.621  -1.151  1.00  0.00    +0.000 C 
ATOM     73  C54 UNL A   1      16.833  56.144  -2.156  1.00  0.00    +0.000 C 
ATOM     74  F6  UNL A   1      15.549  55.764  -2.239  1.00  0.00    +0.000 F 
ATOM     75  C55 UNL A   1      17.333  57.039  -3.098  1.00  0.00    +0.000 C 
ATOM     76  F7  UNL A   1      16.536  57.499  -4.071  1.00  0.00    +0.000 F 
ATOM     77  C56 UNL A   1      18.657  57.447  -3.035  1.00  0.00    +0.000 C 
ATOM     78  F8  UNL A   1      19.134  58.317  -3.937  1.00  0.00    +0.000 F 
ATOM     79  C57 UNL A   1      19.488  56.951  -2.042  1.00  0.00    +0.000 C 
ATOM     80  F9  UNL A   1      20.764  57.354  -1.974  1.00  0.00    +0.000 F 
ATOM     81  C58 UNL A   1      18.997  56.037  -1.114  1.00  0.00    +0.000 C 
ATOM     82  F10 UNL A   1      19.825  55.570  -0.167  1.00  0.00    +0.000 F 
ENDBRANCH   71   72
BRANCH   86   87
ATOM     97  F15 UNL A   1      14.903  48.743  -1.957  1.00  0.00    +0.000 F 
ATOM     87  C62 UNL A   1      17.019  48.688  -0.874  1.00  0.00    +0.000 C 
ATOM     88  C63 UNL A   1      18.280  48.084  -0.785  1.00  0.00    +0.000 C 
ATOM     89  F11 UNL A   1      19.177  48.535   0.105  1.00  0.00    +0.000 F 
ATOM     90  C64 UNL A   1      18.631  47.031  -1.626  1.00  0.00    +0.000 C 
ATOM     91  F12 UNL A   1      19.854  46.489  -1.542  1.00  0.00    +0.000 F 
ATOM     92  C65 UNL A   1      17.722  46.549  -2.556  1.00  0.00    +0.000 C 
ATOM     93  F13 UNL A   1      18.056  45.526  -3.355  1.00  0.00    +0.000 F 
ATOM     94  C66 UNL A   1      16.466  47.128  -2.657  1.00  0.00    +0.000 C 
ATOM     95  F14 UNL A   1      15.579  46.656  -3.544  1.00  0.00    +0.000 F 
ATOM     96  C67 UNL A   1      16.123  48.197  -1.835  1.00  0.00    +0.000 C 
ENDBRANCH   86   87
TORSDOF 23
ENDMDL
MODEL 4
REMARK VINA RESULT:      -8.1     26.042     32.719
ROOT
ATOM    142  H34 UNL A   1      26.825  27.056 -12.406  1.00  0.00    +0.000 H 
ATOM    143  H35 UNL A   1      28.272  24.894 -12.244  1.00  0.00    +0.000 H 
ATOM    144  H36 UNL A   1      26.104  25.275  -8.736  1.00  0.00    +0.000 H 
ATOM    145  H37 UNL A   1      24.753  23.243  -2.848  1.00  0.00    +0.000 H 
ATOM    146  H38 UNL A   1      23.138  25.184  -3.114  1.00  0.00    +0.000 H 
ATOM    147  H39 UNL A   1      25.323  24.858  -6.635  1.00  0.00    +0.000 H 
ATOM    148  H40 UNL A   1      28.161  20.742  -6.101  1.00  0.00    +0.000 H 
ATOM    149  H41 UNL A   1      29.087  21.229  -8.438  1.00  0.00    +0.000 H 
ATOM    150  H42 UNL A   1      23.219  29.358  -9.176  1.00  0.00    +0.000 H 
ATOM    151  H43 UNL A   1      22.423  29.000  -6.769  1.00  0.00    +0.000 H 
ATOM     50  C38 UNL A   1      23.408  26.600  -5.570  1.00  0.00    +0.000 C 
ATOM     51  C39 UNL A   1      23.732  27.155  -6.931  1.00  0.00    +0.000 C 
ATOM     52  N3  UNL A   1      24.538  26.677  -7.849  1.00  0.00    +0.000 N 
ATOM     53  C40 UNL A   1      24.461  27.558  -8.921  1.00  0.00    +0.000 C 
ATOM     54  C41 UNL A   1      25.133  27.518 -10.096  1.00  0.00    +0.000 C 
ATOM     66  C48 UNL A   1      26.101  26.512 -10.447  1.00  0.00    +0.000 C 
ATOM     67  C49 UNL A   1      26.846  26.401 -11.609  1.00  0.00    +0.000 C 
ATOM     68  C50 UNL A   1      27.633  25.249 -11.515  1.00  0.00    +0.000 C 
ATOM     69  C51 UNL A   1      27.408  24.664 -10.280  1.00  0.00    +0.000 C 
ATOM     70  N4  UNL A   1      26.463  25.448  -9.636  1.00  0.00    +0.000 N 
ATOM     71  C52 UNL A   1      28.005  23.475  -9.728  1.00  0.00    +0.000 C 
ATOM     83  C59 UNL A   1      27.770  22.992  -8.484  1.00  0.00    +0.000 C 
ATOM     84  N5  UNL A   1      26.927  23.492  -7.502  1.00  0.00    +0.000 N 
ATOM     85  C60 UNL A   1      27.019  22.662  -6.493  1.00  0.00    +0.000 C 
ATOM     86  C61 UNL A   1      26.325  22.708  -5.162  1.00  0.00    +0.000 C 
ATOM     98  C68 UNL A   1      25.422  23.677  -4.924  1.00  0.00    +0.000 C 
ATOM     99  C69 UNL A   1      24.660  23.835  -3.688  1.00  0.00    +0.000 C 
ATOM    100  C70 UNL A   1      23.821  24.872  -3.821  1.00  0.00    +0.000 C 
ATOM    101  C71 UNL A   1      24.031  25.491  -5.131  1.00  0.00    +0.000 C 
ATOM    102  N6  UNL A   1      24.985  24.703  -5.723  1.00  0.00    +0.000 N 
ATOM    103  C72 UNL A   1      27.933  21.534  -6.723  1.00  0.00    +0.000 C 
ATOM    104  C73 UNL A   1      28.385  21.800  -7.941  1.00  0.00    +0.000 C 
ATOM    105  C74 UNL A   1      23.512  28.587  -8.555  1.00  0.00    +0.000 C 
ATOM    106  C75 UNL A   1      23.068  28.410  -7.318  1.00  0.00    +0.000 C 
ENDROOT
BRANCH   50   49
ATOM    107  C76 UNL A   1      22.834  28.471  -3.982  1.00  0.00    +0.000 C 
ATOM    108  C77 UNL A   1      21.984  29.025  -3.021  1.00  0.00    +0.000 C 
ATOM    140  H32 UNL A   1      19.320  27.042  -3.501  1.00  0.00    +0.000 H 
ATOM     46  C34 UNL A   1      20.735  28.443  -2.791  1.00  0.00    +0.000 C 
ATOM     47  C35 UNL A   1      20.292  27.380  -3.582  1.00  0.00    +0.000 C 
ATOM     48  C36 UNL A   1      21.170  26.782  -4.477  1.00  0.00    +0.000 C 
ATOM    141  H33 UNL A   1      20.873  25.945  -5.003  1.00  0.00    +0.000 H 
ATOM     49  C37 UNL A   1      22.458  27.308  -4.674  1.00  0.00    +0.000 C 
ATOM    152  H44 UNL A   1      23.742  28.918  -4.185  1.00  0.00    +0.000 H 
ATOM    153  H45 UNL A   1      22.276  29.857  -2.487  1.00  0.00    +0.000 H 
BRANCH   46   44
ATOM     44  C33 UNL A   1      19.930  28.902  -1.640  1.00  0.00    +0.000 C 
ATOM     45  O10 UNL A   1      19.209  29.888  -1.744  1.00  0.00    +0.000 O 
BRANCH   44   43
ATOM     43  N2  UNL A   1      20.043  28.233  -0.443  1.00  0.00    +0.000 N 
ATOM    139  H31 UNL A   1      19.258  27.703  -0.173  1.00  0.00    +0.000 H 
BRANCH   43   42
ATOM    137  H29 UNL A   1      22.011  28.666  -0.000  1.00  0.00    +0.000 H 
ATOM     42  C32 UNL A   1      21.170  28.207   0.477  1.00  0.00    +0.000 C 
ATOM    138  H30 UNL A   1      20.876  28.734   1.361  1.00  0.00    +0.000 H 
BRANCH   42   41
ATOM     41  C31 UNL A   1      21.560  26.797   0.894  1.00  0.00    +0.000 C 
ATOM    135  H27 UNL A   1      22.500  26.563   0.442  1.00  0.00    +0.000 H 
ATOM    136  H28 UNL A   1      21.595  26.798   1.964  1.00  0.00    +0.000 H 
BRANCH   41   40
ATOM    133  H25 UNL A   1      20.355  25.118   1.364  1.00  0.00    +0.000 H 
ATOM    134  H26 UNL A   1      19.699  26.227   0.120  1.00  0.00    +0.000 H 
ATOM     40  C30 UNL A   1      20.559  25.714   0.498  1.00  0.00    +0.000 C 
BRANCH   40   39
ATOM    131  H23 UNL A   1      20.154  24.435  -1.147  1.00  0.00    +0.000 H 
ATOM    132  H24 UNL A   1      21.692  25.350  -1.228  1.00  0.00    +0.000 H 
ATOM     39  C29 UNL A   1      21.021  24.777  -0.622  1.00  0.00    +0.000 C 
BRANCH   39   38
ATOM    129  H21 UNL A   1      21.509  22.710  -0.761  1.00  0.00    +0.000 H 
ATOM    130  H22 UNL A   1      22.849  23.784  -0.285  1.00  0.00    +0.000 H 
ATOM     38  C28 UNL A   1      21.814  23.545  -0.165  1.00  0.00    +0.000 C 
BRANCH   38   37
ATOM     37  C27 UNL A   1      21.613  23.183   1.306  1.00  0.00    +0.000 C 
ATOM    127  H19 UNL A   1      21.216  24.031   1.823  1.00  0.00    +0.000 H 
ATOM    128  H20 UNL A   1      20.937  22.355   1.361  1.00  0.00    +0.000 H 
BRANCH   37   36
ATOM     36  N1  UNL A   1      22.862  22.794   1.926  1.00  0.00    +0.000 N 
ATOM    126  H18 UNL A   1      23.711  23.155   1.584  1.00  0.00    +0.000 H 
BRANCH   36    2
ATOM      1  O1  UNL A   1      21.928  21.780   3.754  1.00  0.00    +0.000 O 
ATOM      2  C1  UNL A   1      22.866  21.933   2.980  1.00  0.00    +0.000 C 
BRANCH    2    3
ATOM      3  C2  UNL A   1      24.088  21.123   3.168  1.00  0.00    +0.000 C 
ATOM    109  H1  UNL A   1      24.486  20.725   2.303  1.00  0.00    +0.000 H 
BRANCH    3    4
ATOM      4  C3  UNL A   1      24.762  20.824   4.300  1.00  0.00    +0.000 C 
ATOM    110  H2  UNL A   1      25.170  21.589   4.860  1.00  0.00    +0.000 H 
BRANCH    4    5
ATOM      5  C4  UNL A   1      24.941  19.356   4.782  1.00  0.00    +0.000 C 
ATOM      6  C5  UNL A   1      23.679  18.655   4.354  1.00  0.00    +0.000 C 
ATOM      7  C6  UNL A   1      23.635  17.796   3.326  1.00  0.00    +0.000 C 
ATOM      9  C7  UNL A   1      24.883  17.390   2.598  1.00  0.00    +0.000 C 
ATOM     10  O3  UNL A   1      24.806  16.617   1.650  1.00  0.00    +0.000 O 
ATOM     11  C8  UNL A   1      26.183  17.886   3.108  1.00  0.00    +0.000 C 
ATOM     12  C9  UNL A   1      26.163  18.768   4.111  1.00  0.00    +0.000 C 
ATOM     13  C10 UNL A   1      27.348  19.256   4.862  1.00  0.00    +0.000 C 
ATOM     14  O4  UNL A   1      28.487  19.304   4.472  1.00  0.00    +0.000 O 
ATOM     15  C11 UNL A   1      26.834  19.579   6.221  1.00  0.00    +0.000 C 
ATOM     16  C12 UNL A   1      27.597  19.927   7.261  1.00  0.00    +0.000 C 
ATOM     17  C13 UNL A   1      27.038  19.792   8.612  1.00  0.00    +0.000 C 
ATOM     18  C14 UNL A   1      27.281  20.784   9.574  1.00  0.00    +0.000 C 
ATOM     19  C15 UNL A   1      26.853  20.586  10.885  1.00  0.00    +0.000 C 
ATOM     21  C16 UNL A   1      26.224  19.400  11.254  1.00  0.00    +0.000 C 
ATOM     23  C17 UNL A   1      25.982  18.408  10.320  1.00  0.00    +0.000 C 
ATOM     24  C18 UNL A   1      26.344  18.619   8.989  1.00  0.00    +0.000 C 
ATOM     25  O7  UNL A   1      26.099  17.567   8.146  1.00  0.00    +0.000 O 
ATOM     26  C19 UNL A   1      25.331  17.771   6.930  1.00  0.00    +0.000 C 
ATOM     35  C26 UNL A   1      25.365  19.207   6.291  1.00  0.00    +0.000 C 
ATOM    111  H3  UNL A   1      22.809  18.845   4.874  1.00  0.00    +0.000 H 
ATOM    113  H5  UNL A   1      27.074  17.562   2.701  1.00  0.00    +0.000 H 
ATOM    114  H6  UNL A   1      28.555  20.282   7.118  1.00  0.00    +0.000 H 
ATOM    115  H7  UNL A   1      27.773  21.653   9.312  1.00  0.00    +0.000 H 
ATOM    118  H10 UNL A   1      25.540  17.520  10.605  1.00  0.00    +0.000 H 
ATOM    119  H11 UNL A   1      25.823  17.227   6.150  1.00  0.00    +0.000 H 
ATOM    125  H17 UNL A   1      24.688  19.781   6.888  1.00  0.00    +0.000 H 
BRANCH    7    8
ATOM    112  H4  UNL A   1      21.683  17.301   3.473  1.00  0.00    +0.000 H 
ATOM      8  O2  UNL A   1      22.437  17.246   2.918  1.00  0.00    +0.000 O 
ENDBRANCH    7    8
BRANCH   19   20
ATOM    116  H8  UNL A   1      27.314  22.391  11.634  1.00  0.00    +0.000 H 
ATOM     20  O5  UNL A   1      27.043  21.523  11.862  1.00  0.00    +0.000 O 
ENDBRANCH   19   20
BRANCH   21   22
ATOM    117  H9  UNL A   1      25.585  18.341  12.832  1.00  0.00    +0.000 H 
ATOM     22  O6  UNL A   1      25.842  19.197  12.548  1.00  0.00    +0.000 O 
ENDBRANCH   21   22
BRANCH   26   27
ATOM     34  C25 UNL A   1      22.939  17.955   7.815  1.00  0.00    +0.000 C 
ATOM     28  C21 UNL A   1      23.609  15.929   6.694  1.00  0.00    +0.000 C 
ATOM    120  H12 UNL A   1      24.353  15.325   6.311  1.00  0.00    +0.000 H 
ATOM    121  H13 UNL A   1      22.059  14.540   6.327  1.00  0.00    +0.000 H 
ATOM     27  C20 UNL A   1      23.934  17.215   7.163  1.00  0.00    +0.000 C 
ATOM    124  H16 UNL A   1      23.162  18.881   8.213  1.00  0.00    +0.000 H 
ATOM     29  C22 UNL A   1      22.296  15.457   6.738  1.00  0.00    +0.000 C 
ATOM     30  C23 UNL A   1      21.311  16.230   7.340  1.00  0.00    +0.000 C 
ATOM     32  C24 UNL A   1      21.646  17.445   7.929  1.00  0.00    +0.000 C 
BRANCH   30   31
ATOM    122  H14 UNL A   1      19.316  16.417   7.280  1.00  0.00    +0.000 H 
ATOM     31  O8  UNL A   1      20.017  15.800   7.361  1.00  0.00    +0.000 O 
ENDBRANCH   30   31
BRANCH   32   33
ATOM     33  O9  UNL A   1      20.695  18.157   8.604  1.00  0.00    +0.000 O 
ATOM    123  H15 UNL A   1      20.952  18.797   9.238  1.00  0.00    +0.000 H 
ENDBRANCH   32   33
ENDBRANCH   26   27
ENDBRANCH    4    5
ENDBRANCH    3    4
ENDBRANCH    2    3
ENDBRANCH   36    2
ENDBRANCH   37   36
ENDBRANCH   38   37
ENDBRANCH   39   38
ENDBRANCH   40   39
ENDBRANCH   41   40
ENDBRANCH   42   41
ENDBRANCH   43   42
ENDBRANCH   44   43
ENDBRANCH   46   44
ENDBRANCH   50   49
BRANCH   54   55
ATOM     65  F5  UNL A   1      23.500  27.113 -12.388  1.00  0.00    +0.000 F 
ATOM     55  C42 UNL A   1      24.848  28.595 -11.102  1.00  0.00    +0.000 C 
ATOM     56  C43 UNL A   1      25.413  29.873 -10.990  1.00  0.00    +0.000 C 
ATOM     57  F1  UNL A   1      26.165  30.188  -9.924  1.00  0.00    +0.000 F 
ATOM     58  C44 UNL A   1      25.188  30.844 -11.964  1.00  0.00    +0.000 C 
ATOM     59  F2  UNL A   1      25.713  32.068 -11.821  1.00  0.00    +0.000 F 
ATOM     60  C45 UNL A   1      24.417  30.546 -13.078  1.00  0.00    +0.000 C 
ATOM     61  F3  UNL A   1      24.213  31.478 -14.020  1.00  0.00    +0.000 F 
ATOM     62  C46 UNL A   1      23.855  29.286 -13.214  1.00  0.00    +0.000 C 
ATOM     63  F4  UNL A   1      23.119  28.995 -14.294  1.00  0.00    +0.000 F 
ATOM     64  C47 UNL A   1      24.059  28.321 -12.230  1.00  0.00    +0.000 C 
ENDBRANCH   54   55
BRANCH   71   72
ATOM     72  C53 UNL A   1      28.968  22.715 -10.590  1.00  0.00    +0.000 C 
ATOM     73  C54 UNL A   1      28.527  21.703 -11.454  1.00  0.00    +0.000 C 
ATOM     74  F6  UNL A   1      27.233  21.348 -11.473  1.00  0.00    +0.000 F 
ATOM     75  C55 UNL A   1      29.422  21.029 -12.281  1.00  0.00    +0.000 C 
ATOM     76  F7  UNL A   1      28.986  20.041 -13.072  1.00  0.00    +0.000 F 
ATOM     77  C56 UNL A   1      30.766  21.375 -12.279  1.00  0.00    +0.000 C 
ATOM     78  F8  UNL A   1      31.624  20.733 -13.084  1.00  0.00    +0.000 F 
ATOM     79  C57 UNL A   1      31.220  22.382 -11.441  1.00  0.00    +0.000 C 
ATOM     80  F9  UNL A   1      32.516  22.724 -11.447  1.00  0.00    +0.000 F 
ATOM     81  C58 UNL A   1      30.332  23.039 -10.595  1.00  0.00    +0.000 C 
ATOM     82  F10 UNL A   1      30.800  24.006  -9.791  1.00  0.00    +0.000 F 
ENDBRANCH   71   72
BRANCH   86   87
ATOM     97  F15 UNL A   1      24.588  20.540  -4.543  1.00  0.00    +0.000 F 
ATOM     87  C62 UNL A   1      26.615  21.702  -4.109  1.00  0.00    +0.000 C 
ATOM     88  C63 UNL A   1      27.784  21.783  -3.340  1.00  0.00    +0.000 C 
ATOM     89  F11 UNL A   1      28.679  22.753  -3.583  1.00  0.00    +0.000 F 
ATOM     90  C64 UNL A   1      28.046  20.856  -2.335  1.00  0.00    +0.000 C 
ATOM     91  F12 UNL A   1      29.184  20.938  -1.632  1.00  0.00    +0.000 F 
ATOM     92  C65 UNL A   1      27.136  19.844  -2.066  1.00  0.00    +0.000 C 
ATOM     93  F13 UNL A   1      27.384  18.960  -1.089  1.00  0.00    +0.000 F 
ATOM     94  C66 UNL A   1      25.971  19.747  -2.812  1.00  0.00    +0.000 C 
ATOM     95  F14 UNL A   1      25.083  18.780  -2.545  1.00  0.00    +0.000 F 
ATOM     96  C67 UNL A   1      25.720  20.658  -3.833  1.00  0.00    +0.000 C 
ENDBRANCH   86   87
TORSDOF 23
ENDMDL
MODEL 5
REMARK VINA RESULT:      -7.9     44.832     52.967
ROOT
ATOM    142  H34 UNL A   1      22.246  27.445  58.116  1.00  0.00    +0.000 H 
ATOM    143  H35 UNL A   1      23.486  25.283  57.353  1.00  0.00    +0.000 H 
ATOM    144  H36 UNL A   1      25.158  28.511  55.370  1.00  0.00    +0.000 H 
ATOM    145  H37 UNL A   1      29.217  30.803  51.023  1.00  0.00    +0.000 H 
ATOM    146  H38 UNL A   1      28.207  32.932  51.969  1.00  0.00    +0.000 H 
ATOM    147  H39 UNL A   1      26.477  29.716  53.954  1.00  0.00    +0.000 H 
ATOM    148  H40 UNL A   1      28.868  25.627  52.265  1.00  0.00    +0.000 H 
ATOM    149  H41 UNL A   1      27.355  24.257  53.810  1.00  0.00    +0.000 H 
ATOM    150  H42 UNL A   1      22.843  32.654  57.002  1.00  0.00    +0.000 H 
ATOM    151  H43 UNL A   1      24.210  34.024  55.325  1.00  0.00    +0.000 H 
ATOM     50  C38 UNL A   1      26.163  32.497  53.903  1.00  0.00    +0.000 C 
ATOM     51  C39 UNL A   1      25.146  32.002  54.898  1.00  0.00    +0.000 C 
ATOM     52  N3  UNL A   1      24.924  30.780  55.315  1.00  0.00    +0.000 N 
ATOM     53  C40 UNL A   1      23.895  30.874  56.244  1.00  0.00    +0.000 C 
ATOM     54  C41 UNL A   1      23.284  29.880  56.932  1.00  0.00    +0.000 C 
ATOM     66  C48 UNL A   1      23.605  28.483  56.800  1.00  0.00    +0.000 C 
ATOM     67  C49 UNL A   1      23.027  27.402  57.443  1.00  0.00    +0.000 C 
ATOM     68  C50 UNL A   1      23.682  26.240  57.023  1.00  0.00    +0.000 C 
ATOM     69  C51 UNL A   1      24.642  26.594  56.089  1.00  0.00    +0.000 C 
ATOM     70  N4  UNL A   1      24.586  27.973  55.965  1.00  0.00    +0.000 N 
ATOM     71  C52 UNL A   1      25.549  25.739  55.367  1.00  0.00    +0.000 C 
ATOM     83  C59 UNL A   1      26.430  26.157  54.426  1.00  0.00    +0.000 C 
ATOM     84  N5  UNL A   1      26.669  27.446  53.970  1.00  0.00    +0.000 N 
ATOM     85  C60 UNL A   1      27.630  27.341  53.086  1.00  0.00    +0.000 C 
ATOM     86  C61 UNL A   1      28.291  28.418  52.274  1.00  0.00    +0.000 C 
ATOM     98  C68 UNL A   1      27.939  29.701  52.472  1.00  0.00    +0.000 C 
ATOM     99  C69 UNL A   1      28.508  30.850  51.772  1.00  0.00    +0.000 C 
ATOM    100  C70 UNL A   1      27.960  31.973  52.258  1.00  0.00    +0.000 C 
ATOM    101  C71 UNL A   1      26.957  31.619  53.262  1.00  0.00    +0.000 C 
ATOM    102  N6  UNL A   1      27.027  30.252  53.338  1.00  0.00    +0.000 N 
ATOM    103  C72 UNL A   1      28.114  25.968  52.883  1.00  0.00    +0.000 C 
ATOM    104  C73 UNL A   1      27.329  25.283  53.702  1.00  0.00    +0.000 C 
ATOM    105  C74 UNL A   1      23.551  32.275  56.352  1.00  0.00    +0.000 C 
ATOM    106  C75 UNL A   1      24.262  33.009  55.507  1.00  0.00    +0.000 C 
ENDROOT
BRANCH   50   49
ATOM    107  C76 UNL A   1      27.022  34.826  54.332  1.00  0.00    +0.000 C 
ATOM    108  C77 UNL A   1      26.957  36.203  54.098  1.00  0.00    +0.000 C 
ATOM    140  H32 UNL A   1      25.024  36.157  51.356  1.00  0.00    +0.000 H 
ATOM     46  C34 UNL A   1      26.155  36.687  53.062  1.00  0.00    +0.000 C 
ATOM     47  C35 UNL A   1      25.502  35.803  52.199  1.00  0.00    +0.000 C 
ATOM     48  C36 UNL A   1      25.503  34.443  52.484  1.00  0.00    +0.000 C 
ATOM    141  H33 UNL A   1      24.955  33.797  51.897  1.00  0.00    +0.000 H 
ATOM     49  C37 UNL A   1      26.247  33.941  53.565  1.00  0.00    +0.000 C 
ATOM    152  H44 UNL A   1      27.643  34.459  55.071  1.00  0.00    +0.000 H 
ATOM    153  H45 UNL A   1      27.497  36.856  54.685  1.00  0.00    +0.000 H 
BRANCH   46   44
ATOM     44  C33 UNL A   1      25.927  38.142  52.949  1.00  0.00    +0.000 C 
ATOM     45  O10 UNL A   1      26.645  38.928  53.557  1.00  0.00    +0.000 O 
BRANCH   44   43
ATOM     43  N2  UNL A   1      24.870  38.592  52.192  1.00  0.00    +0.000 N 
ATOM    139  H31 UNL A   1      24.478  37.936  51.572  1.00  0.00    +0.000 H 
BRANCH   43   42
ATOM    137  H29 UNL A   1      23.207  39.802  52.354  1.00  0.00    +0.000 H 
ATOM     42  C32 UNL A   1      24.258  39.913  52.187  1.00  0.00    +0.000 C 
ATOM    138  H30 UNL A   1      24.726  40.487  52.959  1.00  0.00    +0.000 H 
BRANCH   42   41
ATOM     41  C31 UNL A   1      24.466  40.655  50.875  1.00  0.00    +0.000 C 
ATOM    135  H27 UNL A   1      24.904  41.605  51.096  1.00  0.00    +0.000 H 
ATOM    136  H28 UNL A   1      25.093  40.031  50.272  1.00  0.00    +0.000 H 
BRANCH   41   40
ATOM    133  H25 UNL A   1      22.380  40.424  50.581  1.00  0.00    +0.000 H 
ATOM    134  H26 UNL A   1      23.088  41.957  49.985  1.00  0.00    +0.000 H 
ATOM     40  C30 UNL A   1      23.192  40.895  50.067  1.00  0.00    +0.000 C 
BRANCH   40   39
ATOM    131  H23 UNL A   1      22.215  40.347  48.265  1.00  0.00    +0.000 H 
ATOM    132  H24 UNL A   1      23.869  41.011  48.086  1.00  0.00    +0.000 H 
ATOM     39  C29 UNL A   1      23.219  40.359  48.632  1.00  0.00    +0.000 C 
BRANCH   39   38
ATOM    129  H21 UNL A   1      24.575  38.989  47.730  1.00  0.00    +0.000 H 
ATOM    130  H22 UNL A   1      24.160  38.650  49.429  1.00  0.00    +0.000 H 
ATOM     38  C28 UNL A   1      23.801  38.949  48.467  1.00  0.00    +0.000 C 
BRANCH   38   37
ATOM     37  C27 UNL A   1      22.779  37.898  48.034  1.00  0.00    +0.000 C 
ATOM    127  H19 UNL A   1      23.298  37.026  47.694  1.00  0.00    +0.000 H 
ATOM    128  H20 UNL A   1      22.157  37.665  48.873  1.00  0.00    +0.000 H 
BRANCH   37   36
ATOM     36  N1  UNL A   1      21.938  38.393  46.965  1.00  0.00    +0.000 N 
ATOM    126  H18 UNL A   1      21.171  38.972  47.174  1.00  0.00    +0.000 H 
BRANCH   36    2
ATOM      1  O1  UNL A   1      23.221  38.387  45.069  1.00  0.00    +0.000 O 
ATOM      2  C1  UNL A   1      22.205  38.062  45.673  1.00  0.00    +0.000 C 
BRANCH    2    3
ATOM      3  C2  UNL A   1      21.196  37.233  44.980  1.00  0.00    +0.000 C 
ATOM    109  H1  UNL A   1      21.465  36.916  44.035  1.00  0.00    +0.000 H 
BRANCH    3    4
ATOM      4  C3  UNL A   1      19.976  36.827  45.395  1.00  0.00    +0.000 C 
ATOM    110  H2  UNL A   1      19.190  37.496  45.377  1.00  0.00    +0.000 H 
BRANCH    4    5
ATOM      5  C4  UNL A   1      19.725  35.378  45.900  1.00  0.00    +0.000 C 
ATOM      6  C5  UNL A   1      21.090  34.853  46.256  1.00  0.00    +0.000 C 
ATOM      7  C6  UNL A   1      21.505  34.698  47.521  1.00  0.00    +0.000 C 
ATOM      9  C7  UNL A   1      20.579  34.939  48.677  1.00  0.00    +0.000 C 
ATOM     10  O3  UNL A   1      20.995  34.808  49.823  1.00  0.00    +0.000 O 
ATOM     11  C8  UNL A   1      19.161  35.257  48.385  1.00  0.00    +0.000 C 
ATOM     12  C9  UNL A   1      18.814  35.434  47.107  1.00  0.00    +0.000 C 
ATOM     13  C10 UNL A   1      17.428  35.596  46.600  1.00  0.00    +0.000 C 
ATOM     14  O4  UNL A   1      16.474  36.012  47.207  1.00  0.00    +0.000 O 
ATOM     15  C11 UNL A   1      17.460  35.047  45.216  1.00  0.00    +0.000 C 
ATOM     16  C12 UNL A   1      16.387  34.876  44.440  1.00  0.00    +0.000 C 
ATOM     17  C13 UNL A   1      16.486  33.946  43.307  1.00  0.00    +0.000 C 
ATOM     18  C14 UNL A   1      15.898  34.275  42.077  1.00  0.00    +0.000 C 
ATOM     19  C15 UNL A   1      15.890  33.333  41.049  1.00  0.00    +0.000 C 
ATOM     21  C16 UNL A   1      16.424  32.063  41.247  1.00  0.00    +0.000 C 
ATOM     23  C17 UNL A   1      17.002  31.720  42.456  1.00  0.00    +0.000 C 
ATOM     24  C18 UNL A   1      17.079  32.673  43.473  1.00  0.00    +0.000 C 
ATOM     25  O7  UNL A   1      17.633  32.230  44.644  1.00  0.00    +0.000 O 
ATOM     26  C19 UNL A   1      18.741  32.953  45.245  1.00  0.00    +0.000 C 
ATOM     35  C26 UNL A   1      18.844  34.491  44.941  1.00  0.00    +0.000 C 
ATOM    111  H3  UNL A   1      21.735  34.601  45.493  1.00  0.00    +0.000 H 
ATOM    113  H5  UNL A   1      18.466  35.339  49.143  1.00  0.00    +0.000 H 
ATOM    114  H6  UNL A   1      15.509  35.384  44.631  1.00  0.00    +0.000 H 
ATOM    115  H7  UNL A   1      15.474  35.205  41.934  1.00  0.00    +0.000 H 
ATOM    118  H10 UNL A   1      17.373  30.768  42.605  1.00  0.00    +0.000 H 
ATOM    119  H11 UNL A   1      18.554  33.000  46.298  1.00  0.00    +0.000 H 
ATOM    125  H17 UNL A   1      19.264  34.542  43.958  1.00  0.00    +0.000 H 
BRANCH    7    8
ATOM    112  H4  UNL A   1      23.271  34.692  48.499  1.00  0.00    +0.000 H 
ATOM      8  O2  UNL A   1      22.796  34.295  47.795  1.00  0.00    +0.000 O 
ENDBRANCH    7    8
BRANCH   19   20
ATOM    116  H8  UNL A   1      14.672  34.244  39.737  1.00  0.00    +0.000 H 
ATOM     20  O5  UNL A   1      15.349  33.600  39.822  1.00  0.00    +0.000 O 
ENDBRANCH   19   20
BRANCH   21   22
ATOM    117  H9  UNL A   1      16.254  30.229  40.456  1.00  0.00    +0.000 H 
ATOM     22  O6  UNL A   1      16.379  31.134  40.248  1.00  0.00    +0.000 O 
ENDBRANCH   21   22
BRANCH   26   27
ATOM     34  C25 UNL A   1      21.070  32.701  44.219  1.00  0.00    +0.000 C 
ATOM     28  C21 UNL A   1      20.160  30.870  45.496  1.00  0.00    +0.000 C 
ATOM    120  H12 UNL A   1      19.356  30.414  45.955  1.00  0.00    +0.000 H 
ATOM    121  H13 UNL A   1      21.490  29.268  45.859  1.00  0.00    +0.000 H 
ATOM     27  C20 UNL A   1      20.014  32.166  44.969  1.00  0.00    +0.000 C 
ATOM    124  H16 UNL A   1      20.972  33.629  43.780  1.00  0.00    +0.000 H 
ATOM     29  C22 UNL A   1      21.376  30.189  45.407  1.00  0.00    +0.000 C 
ATOM     30  C23 UNL A   1      22.430  30.761  44.707  1.00  0.00    +0.000 C 
ATOM     32  C24 UNL A   1      22.256  31.983  44.065  1.00  0.00    +0.000 C 
BRANCH   30   31
ATOM    122  H14 UNL A   1      24.340  30.505  44.151  1.00  0.00    +0.000 H 
ATOM     31  O8  UNL A   1      23.636  30.126  44.641  1.00  0.00    +0.000 O 
ENDBRANCH   30   31
BRANCH   32   33
ATOM     33  O9  UNL A   1      23.262  32.496  43.297  1.00  0.00    +0.000 O 
ATOM    123  H15 UNL A   1      23.821  31.921  42.813  1.00  0.00    +0.000 H 
ENDBRANCH   32   33
ENDBRANCH   26   27
ENDBRANCH    4    5
ENDBRANCH    3    4
ENDBRANCH    2    3
ENDBRANCH   36    2
ENDBRANCH   37   36
ENDBRANCH   38   37
ENDBRANCH   39   38
ENDBRANCH   40   39
ENDBRANCH   41   40
ENDBRANCH   42   41
ENDBRANCH   43   42
ENDBRANCH   44   43
ENDBRANCH   46   44
ENDBRANCH   50   49
BRANCH   54   55
ATOM     65  F5  UNL A   1      23.787  30.543  59.650  1.00  0.00    +0.000 F 
ATOM     55  C42 UNL A   1      22.200  30.260  57.898  1.00  0.00    +0.000 C 
ATOM     56  C43 UNL A   1      20.850  30.271  57.520  1.00  0.00    +0.000 C 
ATOM     57  F1  UNL A   1      20.502  30.018  56.250  1.00  0.00    +0.000 F 
ATOM     58  C44 UNL A   1      19.850  30.568  58.444  1.00  0.00    +0.000 C 
ATOM     59  F2  UNL A   1      18.569  30.603  58.054  1.00  0.00    +0.000 F 
ATOM     60  C45 UNL A   1      20.180  30.832  59.765  1.00  0.00    +0.000 C 
ATOM     61  F3  UNL A   1      19.214  31.104  60.655  1.00  0.00    +0.000 F 
ATOM     62  C46 UNL A   1      21.507  30.818  60.163  1.00  0.00    +0.000 C 
ATOM     63  F4  UNL A   1      21.826  31.063  61.441  1.00  0.00    +0.000 F 
ATOM     64  C47 UNL A   1      22.511  30.546  59.236  1.00  0.00    +0.000 C 
ENDBRANCH   54   55
BRANCH   71   72
ATOM     72  C53 UNL A   1      25.513  24.271  55.670  1.00  0.00    +0.000 C 
ATOM     73  C54 UNL A   1      24.872  23.367  54.812  1.00  0.00    +0.000 C 
ATOM     74  F6  UNL A   1      24.216  23.813  53.729  1.00  0.00    +0.000 F 
ATOM     75  C55 UNL A   1      24.877  22.001  55.079  1.00  0.00    +0.000 C 
ATOM     76  F7  UNL A   1      24.229  21.158  54.265  1.00  0.00    +0.000 F 
ATOM     77  C56 UNL A   1      25.546  21.513  56.193  1.00  0.00    +0.000 C 
ATOM     78  F8  UNL A   1      25.560  20.196  56.444  1.00  0.00    +0.000 F 
ATOM     79  C57 UNL A   1      26.196  22.390  57.048  1.00  0.00    +0.000 C 
ATOM     80  F9  UNL A   1      26.852  21.918  58.118  1.00  0.00    +0.000 F 
ATOM     81  C58 UNL A   1      26.171  23.758  56.797  1.00  0.00    +0.000 C 
ATOM     82  F10 UNL A   1      26.804  24.583  57.644  1.00  0.00    +0.000 F 
ENDBRANCH   71   72
BRANCH   86   87
ATOM     97  F15 UNL A   1      27.753  28.224  49.485  1.00  0.00    +0.000 F 
ATOM     87  C62 UNL A   1      29.326  28.090  51.262  1.00  0.00    +0.000 C 
ATOM     88  C63 UNL A   1      30.651  27.840  51.644  1.00  0.00    +0.000 C 
ATOM     89  F11 UNL A   1      31.006  27.941  52.933  1.00  0.00    +0.000 F 
ATOM     90  C64 UNL A   1      31.619  27.507  50.699  1.00  0.00    +0.000 C 
ATOM     91  F12 UNL A   1      32.886  27.300  51.086  1.00  0.00    +0.000 F 
ATOM     92  C65 UNL A   1      31.276  27.397  49.360  1.00  0.00    +0.000 C 
ATOM     93  F13 UNL A   1      32.206  27.064  48.453  1.00  0.00    +0.000 F 
ATOM     94  C66 UNL A   1      29.970  27.636  48.960  1.00  0.00    +0.000 C 
ATOM     95  F14 UNL A   1      29.632  27.517  47.668  1.00  0.00    +0.000 F 
ATOM     96  C67 UNL A   1      29.008  27.994  49.899  1.00  0.00    +0.000 C 
ENDBRANCH   86   87
TORSDOF 23
ENDMDL
MODEL 6
REMARK VINA RESULT:      -7.9      5.430     12.761
ROOT
ATOM    142  H34 UNL A   1      14.960  46.479   1.121  1.00  0.00    +0.000 H 
ATOM    143  H35 UNL A   1      13.289  46.235   3.106  1.00  0.00    +0.000 H 
ATOM    144  H36 UNL A   1      14.676  50.136   3.045  1.00  0.00    +0.000 H 
ATOM    145  H37 UNL A   1      14.939  55.930   5.688  1.00  0.00    +0.000 H 
ATOM    146  H38 UNL A   1      16.343  56.246   3.596  1.00  0.00    +0.000 H 
ATOM    147  H39 UNL A   1      15.003  52.311   3.643  1.00  0.00    +0.000 H 
ATOM    148  H40 UNL A   1      11.923  51.969   7.603  1.00  0.00    +0.000 H 
ATOM    149  H41 UNL A   1      11.589  49.510   6.974  1.00  0.00    +0.000 H 
ATOM    150  H42 UNL A   1      17.756  50.586  -0.891  1.00  0.00    +0.000 H 
ATOM    151  H43 UNL A   1      18.255  52.991  -0.170  1.00  0.00    +0.000 H 
ATOM     50  C38 UNL A   1      16.703  53.875   2.062  1.00  0.00    +0.000 C 
ATOM     51  C39 UNL A   1      16.721  52.508   1.430  1.00  0.00    +0.000 C 
ATOM     52  N3  UNL A   1      16.053  51.432   1.767  1.00  0.00    +0.000 N 
ATOM     53  C40 UNL A   1      16.418  50.452   0.852  1.00  0.00    +0.000 C 
ATOM     54  C41 UNL A   1      16.025  49.157   0.798  1.00  0.00    +0.000 C 
ATOM     66  C48 UNL A   1      15.125  48.541   1.737  1.00  0.00    +0.000 C 
ATOM     67  C49 UNL A   1      14.683  47.229   1.773  1.00  0.00    +0.000 C 
ATOM     68  C50 UNL A   1      13.798  47.094   2.847  1.00  0.00    +0.000 C 
ATOM     69  C51 UNL A   1      13.718  48.312   3.503  1.00  0.00    +0.000 C 
ATOM     70  N4  UNL A   1      14.535  49.191   2.810  1.00  0.00    +0.000 N 
ATOM     71  C52 UNL A   1      12.950  48.651   4.674  1.00  0.00    +0.000 C 
ATOM     83  C59 UNL A   1      12.965  49.858   5.290  1.00  0.00    +0.000 C 
ATOM     84  N5  UNL A   1      13.673  51.001   4.949  1.00  0.00    +0.000 N 
ATOM     85  C60 UNL A   1      13.331  51.910   5.827  1.00  0.00    +0.000 C 
ATOM     86  C61 UNL A   1      13.789  53.337   5.940  1.00  0.00    +0.000 C 
ATOM     98  C68 UNL A   1      14.621  53.837   5.008  1.00  0.00    +0.000 C 
ATOM     99  C69 UNL A   1      15.131  55.205   4.980  1.00  0.00    +0.000 C 
ATOM    100  C70 UNL A   1      15.888  55.366   3.885  1.00  0.00    +0.000 C 
ATOM    101  C71 UNL A   1      15.967  54.094   3.167  1.00  0.00    +0.000 C 
ATOM    102  N6  UNL A   1      15.168  53.249   3.895  1.00  0.00    +0.000 N 
ATOM    103  C72 UNL A   1      12.360  51.447   6.828  1.00  0.00    +0.000 C 
ATOM    104  C73 UNL A   1      12.193  50.180   6.472  1.00  0.00    +0.000 C 
ATOM    105  C74 UNL A   1      17.347  51.064  -0.074  1.00  0.00    +0.000 C 
ATOM    106  C75 UNL A   1      17.604  52.320   0.268  1.00  0.00    +0.000 C 
ENDROOT
BRANCH   50   49
ATOM    107  C76 UNL A   1      18.843  55.204   2.012  1.00  0.00    +0.000 C 
ATOM    108  C77 UNL A   1      19.556  56.335   1.604  1.00  0.00    +0.000 C 
ATOM    140  H32 UNL A   1      17.428  57.459  -0.733  1.00  0.00    +0.000 H 
ATOM     46  C34 UNL A   1      18.993  57.201   0.664  1.00  0.00    +0.000 C 
ATOM     47  C35 UNL A   1      17.774  56.891   0.057  1.00  0.00    +0.000 C 
ATOM     48  C36 UNL A   1      17.032  55.812   0.522  1.00  0.00    +0.000 C 
ATOM    141  H33 UNL A   1      16.095  55.630   0.132  1.00  0.00    +0.000 H 
ATOM     49  C37 UNL A   1      17.550  54.968   1.519  1.00  0.00    +0.000 C 
ATOM    152  H44 UNL A   1      19.269  54.539   2.677  1.00  0.00    +0.000 H 
ATOM    153  H45 UNL A   1      20.491  56.529   1.995  1.00  0.00    +0.000 H 
BRANCH   46   44
ATOM     44  C33 UNL A   1      19.654  58.495   0.393  1.00  0.00    +0.000 C 
ATOM     45  O10 UNL A   1      19.505  59.438   1.161  1.00  0.00    +0.000 O 
BRANCH   44   43
ATOM     43  N2  UNL A   1      20.396  58.631  -0.758  1.00  0.00    +0.000 N 
ATOM    139  H31 UNL A   1      20.386  59.525  -1.170  1.00  0.00    +0.000 H 
BRANCH   43   42
ATOM    137  H29 UNL A   1      22.163  58.030  -1.637  1.00  0.00    +0.000 H 
ATOM     42  C32 UNL A   1      21.192  57.626  -1.447  1.00  0.00    +0.000 C 
ATOM    138  H30 UNL A   1      21.235  56.763  -0.815  1.00  0.00    +0.000 H 
BRANCH   42   41
ATOM     41  C31 UNL A   1      20.579  57.192  -2.770  1.00  0.00    +0.000 C 
ATOM    135  H27 UNL A   1      20.000  58.006  -3.151  1.00  0.00    +0.000 H 
ATOM    136  H28 UNL A   1      21.395  56.920  -3.406  1.00  0.00    +0.000 H 
BRANCH   41   40
ATOM    133  H25 UNL A   1      20.131  55.262  -2.019  1.00  0.00    +0.000 H 
ATOM    134  H26 UNL A   1      18.723  56.320  -2.344  1.00  0.00    +0.000 H 
ATOM     40  C30 UNL A   1      19.674  55.965  -2.684  1.00  0.00    +0.000 C 
BRANCH   40   39
ATOM    131  H23 UNL A   1      18.791  55.891  -4.613  1.00  0.00    +0.000 H 
ATOM    132  H24 UNL A   1      20.372  55.065  -4.445  1.00  0.00    +0.000 H 
ATOM     39  C29 UNL A   1      19.410  55.254  -4.015  1.00  0.00    +0.000 C 
BRANCH   39   38
ATOM    129  H21 UNL A   1      19.270  53.288  -3.214  1.00  0.00    +0.000 H 
ATOM    130  H22 UNL A   1      17.716  54.075  -3.588  1.00  0.00    +0.000 H 
ATOM     38  C28 UNL A   1      18.720  53.889  -3.908  1.00  0.00    +0.000 C 
BRANCH   38   37
ATOM     37  C27 UNL A   1      18.625  53.129  -5.230  1.00  0.00    +0.000 C 
ATOM    127  H19 UNL A   1      19.606  52.820  -5.525  1.00  0.00    +0.000 H 
ATOM    128  H20 UNL A   1      17.988  52.282  -5.089  1.00  0.00    +0.000 H 
BRANCH   37   36
ATOM     36  N1  UNL A   1      18.059  53.958  -6.273  1.00  0.00    +0.000 N 
ATOM    126  H18 UNL A   1      18.159  54.936  -6.229  1.00  0.00    +0.000 H 
BRANCH   36    2
ATOM      1  O1  UNL A   1      17.459  53.774  -8.475  1.00  0.00    +0.000 O 
ATOM      2  C1  UNL A   1      17.390  53.391  -7.313  1.00  0.00    +0.000 C 
BRANCH    2    3
ATOM      3  C2  UNL A   1      16.547  52.218  -6.997  1.00  0.00    +0.000 C 
ATOM    109  H1  UNL A   1      15.658  52.435  -6.519  1.00  0.00    +0.000 H 
BRANCH    3    4
ATOM      4  C3  UNL A   1      16.763  50.907  -7.238  1.00  0.00    +0.000 C 
ATOM    110  H2  UNL A   1      17.463  50.633  -7.945  1.00  0.00    +0.000 H 
BRANCH    4    5
ATOM      5  C4  UNL A   1      15.985  49.796  -6.476  1.00  0.00    +0.000 C 
ATOM      6  C5  UNL A   1      15.361  48.954  -7.557  1.00  0.00    +0.000 C 
ATOM      7  C6  UNL A   1      15.811  47.734  -7.882  1.00  0.00    +0.000 C 
ATOM      9  C7  UNL A   1      16.911  47.078  -7.101  1.00  0.00    +0.000 C 
ATOM     10  O3  UNL A   1      17.312  45.969  -7.436  1.00  0.00    +0.000 O 
ATOM     11  C8  UNL A   1      17.423  47.771  -5.895  1.00  0.00    +0.000 C 
ATOM     12  C9  UNL A   1      16.964  49.000  -5.641  1.00  0.00    +0.000 C 
ATOM     13  C10 UNL A   1      17.228  49.787  -4.410  1.00  0.00    +0.000 C 
ATOM     14  O4  UNL A   1      18.172  49.685  -3.668  1.00  0.00    +0.000 O 
ATOM     15  C11 UNL A   1      16.030  50.657  -4.249  1.00  0.00    +0.000 C 
ATOM     16  C12 UNL A   1      15.792  51.436  -3.190  1.00  0.00    +0.000 C 
ATOM     17  C13 UNL A   1      14.415  51.888  -2.952  1.00  0.00    +0.000 C 
ATOM     18  C14 UNL A   1      14.173  53.204  -2.528  1.00  0.00    +0.000 C 
ATOM     19  C15 UNL A   1      12.876  53.584  -2.186  1.00  0.00    +0.000 C 
ATOM     21  C16 UNL A   1      11.834  52.663  -2.224  1.00  0.00    +0.000 C 
ATOM     23  C17 UNL A   1      12.056  51.360  -2.633  1.00  0.00    +0.000 C 
ATOM     24  C18 UNL A   1      13.335  50.980  -3.043  1.00  0.00    +0.000 C 
ATOM     25  O7  UNL A   1      13.466  49.663  -3.394  1.00  0.00    +0.000 O 
ATOM     26  C19 UNL A   1      14.028  49.305  -4.686  1.00  0.00    +0.000 C 
ATOM     35  C26 UNL A   1      15.031  50.323  -5.340  1.00  0.00    +0.000 C 
ATOM    111  H3  UNL A   1      14.552  49.333  -8.072  1.00  0.00    +0.000 H 
ATOM    113  H5  UNL A   1      18.112  47.320  -5.273  1.00  0.00    +0.000 H 
ATOM    114  H6  UNL A   1      16.557  51.712  -2.555  1.00  0.00    +0.000 H 
ATOM    115  H7  UNL A   1      14.947  53.883  -2.471  1.00  0.00    +0.000 H 
ATOM    118  H10 UNL A   1      11.284  50.674  -2.633  1.00  0.00    +0.000 H 
ATOM    119  H11 UNL A   1      14.698  48.487  -4.523  1.00  0.00    +0.000 H 
ATOM    125  H17 UNL A   1      14.405  51.086  -5.755  1.00  0.00    +0.000 H 
BRANCH    7    8
ATOM    112  H4  UNL A   1      15.804  46.500  -9.480  1.00  0.00    +0.000 H 
ATOM      8  O2  UNL A   1      15.260  47.038  -8.939  1.00  0.00    +0.000 O 
ENDBRANCH    7    8
BRANCH   19   20
ATOM    116  H8  UNL A   1      12.018  54.993  -1.042  1.00  0.00    +0.000 H 
ATOM     20  O5  UNL A   1      12.573  54.855  -1.784  1.00  0.00    +0.000 O 
ENDBRANCH   19   20
BRANCH   21   22
ATOM    117  H9  UNL A   1       9.839  52.508  -2.100  1.00  0.00    +0.000 H 
ATOM     22  O6  UNL A   1      10.574  53.032  -1.850  1.00  0.00    +0.000 O 
ENDBRANCH   21   22
BRANCH   26   27
ATOM     34  C25 UNL A   1      12.093  49.807  -6.281  1.00  0.00    +0.000 C 
ATOM     28  C21 UNL A   1      12.606  47.509  -5.765  1.00  0.00    +0.000 C 
ATOM    120  H12 UNL A   1      13.097  46.813  -5.183  1.00  0.00    +0.000 H 
ATOM    121  H13 UNL A   1      11.535  46.068  -6.882  1.00  0.00    +0.000 H 
ATOM     27  C20 UNL A   1      12.881  48.877  -5.589  1.00  0.00    +0.000 C 
ATOM    124  H16 UNL A   1      12.240  50.818  -6.134  1.00  0.00    +0.000 H 
ATOM     29  C22 UNL A   1      11.677  47.077  -6.714  1.00  0.00    +0.000 C 
ATOM     30  C23 UNL A   1      10.945  48.016  -7.431  1.00  0.00    +0.000 C 
ATOM     32  C24 UNL A   1      11.110  49.372  -7.169  1.00  0.00    +0.000 C 
BRANCH   30   31
ATOM    122  H14 UNL A   1       9.541  48.245  -8.843  1.00  0.00    +0.000 H 
ATOM     31  O8  UNL A   1      10.059  47.612  -8.387  1.00  0.00    +0.000 O 
ENDBRANCH   30   31
BRANCH   32   33
ATOM     33  O9  UNL A   1      10.321  50.287  -7.806  1.00  0.00    +0.000 O 
ATOM    123  H15 UNL A   1      10.043  51.059  -7.355  1.00  0.00    +0.000 H 
ENDBRANCH   32   33
ENDBRANCH   26   27
ENDBRANCH    4    5
ENDBRANCH    3    4
ENDBRANCH    2    3
ENDBRANCH   36    2
ENDBRANCH   37   36
ENDBRANCH   38   37
ENDBRANCH   39   38
ENDBRANCH   40   39
ENDBRANCH   41   40
ENDBRANCH   42   41
ENDBRANCH   43   42
ENDBRANCH   44   43
ENDBRANCH   46   44
ENDBRANCH   50   49
BRANCH   54   55
ATOM     65  F5  UNL A   1      14.451  48.326  -1.419  1.00  0.00    +0.000 F 
ATOM     55  C42 UNL A   1      16.561  48.308  -0.317  1.00  0.00    +0.000 C 
ATOM     56  C43 UNL A   1      17.880  47.834  -0.310  1.00  0.00    +0.000 C 
ATOM     57  F1  UNL A   1      18.724  48.201   0.665  1.00  0.00    +0.000 F 
ATOM     58  C44 UNL A   1      18.346  46.997  -1.322  1.00  0.00    +0.000 C 
ATOM     59  F2  UNL A   1      19.620  46.581  -1.312  1.00  0.00    +0.000 F 
ATOM     60  C45 UNL A   1      17.495  46.599  -2.343  1.00  0.00    +0.000 C 
ATOM     61  F3  UNL A   1      17.943  45.783  -3.308  1.00  0.00    +0.000 F 
ATOM     62  C46 UNL A   1      16.185  47.049  -2.365  1.00  0.00    +0.000 C 
ATOM     63  F4  UNL A   1      15.359  46.657  -3.345  1.00  0.00    +0.000 F 
ATOM     64  C47 UNL A   1      15.723  47.905  -1.368  1.00  0.00    +0.000 C 
ENDBRANCH   54   55
BRANCH   71   72
ATOM     72  C53 UNL A   1      12.072  47.589   5.263  1.00  0.00    +0.000 C 
ATOM     73  C54 UNL A   1      12.505  46.803   6.340  1.00  0.00    +0.000 C 
ATOM     74  F6  UNL A   1      13.749  46.945   6.822  1.00  0.00    +0.000 F 
ATOM     75  C55 UNL A   1      11.668  45.846   6.908  1.00  0.00    +0.000 C 
ATOM     76  F7  UNL A   1      12.113  45.081   7.913  1.00  0.00    +0.000 F 
ATOM     77  C56 UNL A   1      10.378  45.677   6.427  1.00  0.00    +0.000 C 
ATOM     78  F8  UNL A   1       9.570  44.762   6.982  1.00  0.00    +0.000 F 
ATOM     79  C57 UNL A   1       9.926  46.452   5.370  1.00  0.00    +0.000 C 
ATOM     80  F9  UNL A   1       8.676  46.298   4.913  1.00  0.00    +0.000 F 
ATOM     81  C58 UNL A   1      10.769  47.392   4.784  1.00  0.00    +0.000 C 
ATOM     82  F10 UNL A   1      10.307  48.125   3.760  1.00  0.00    +0.000 F 
ENDBRANCH   71   72
BRANCH   86   87
ATOM     97  F15 UNL A   1      15.049  53.391   8.492  1.00  0.00    +0.000 F 
ATOM     87  C62 UNL A   1      13.336  54.202   7.058  1.00  0.00    +0.000 C 
ATOM     88  C63 UNL A   1      12.227  55.046   6.909  1.00  0.00    +0.000 C 
ATOM     89  F11 UNL A   1      11.590  55.113   5.730  1.00  0.00    +0.000 F 
ATOM     90  C64 UNL A   1      11.784  55.841   7.964  1.00  0.00    +0.000 C 
ATOM     91  F12 UNL A   1      10.739  56.661   7.788  1.00  0.00    +0.000 F 
ATOM     92  C65 UNL A   1      12.427  55.790   9.192  1.00  0.00    +0.000 C 
ATOM     93  F13 UNL A   1      11.992  56.545  10.210  1.00  0.00    +0.000 F 
ATOM     94  C66 UNL A   1      13.524  54.959   9.362  1.00  0.00    +0.000 C 
ATOM     95  F14 UNL A   1      14.139  54.896  10.551  1.00  0.00    +0.000 F 
ATOM     96  C67 UNL A   1      13.983  54.184   8.301  1.00  0.00    +0.000 C 
ENDBRANCH   86   87
TORSDOF 23
ENDMDL
MODEL 7
REMARK VINA RESULT:      -7.9     29.182     35.463
ROOT
ATOM    142  H34 UNL A   1      22.044  21.424   4.747  1.00  0.00    +0.000 H 
ATOM    143  H35 UNL A   1      23.957  20.216   6.043  1.00  0.00    +0.000 H 
ATOM    144  H36 UNL A   1      21.609  17.340   4.208  1.00  0.00    +0.000 H 
ATOM    145  H37 UNL A   1      20.185  11.208   3.210  1.00  0.00    +0.000 H 
ATOM    146  H38 UNL A   1      18.497  12.385   1.723  1.00  0.00    +0.000 H 
ATOM    147  H39 UNL A   1      20.806  15.302   3.577  1.00  0.00    +0.000 H 
ATOM    148  H40 UNL A   1      24.340  12.812   6.144  1.00  0.00    +0.000 H 
ATOM    149  H41 UNL A   1      25.219  15.093   6.905  1.00  0.00    +0.000 H 
ATOM    150  H42 UNL A   1      18.050  19.731   1.600  1.00  0.00    +0.000 H 
ATOM    151  H43 UNL A   1      17.039  17.461   0.984  1.00  0.00    +0.000 H 
ATOM     50  C38 UNL A   1      18.575  15.227   1.888  1.00  0.00    +0.000 C 
ATOM     51  C39 UNL A   1      18.833  16.689   2.138  1.00  0.00    +0.000 C 
ATOM     52  N3  UNL A   1      19.794  17.254   2.827  1.00  0.00    +0.000 N 
ATOM     53  C40 UNL A   1      19.584  18.624   2.726  1.00  0.00    +0.000 C 
ATOM     54  C41 UNL A   1      20.290  19.631   3.293  1.00  0.00    +0.000 C 
ATOM     66  C48 UNL A   1      21.429  19.443   4.152  1.00  0.00    +0.000 C 
ATOM     67  C49 UNL A   1      22.197  20.404   4.787  1.00  0.00    +0.000 C 
ATOM     68  C50 UNL A   1      23.214  19.755   5.494  1.00  0.00    +0.000 C 
ATOM     69  C51 UNL A   1      23.057  18.389   5.331  1.00  0.00    +0.000 C 
ATOM     70  N4  UNL A   1      21.960  18.211   4.502  1.00  0.00    +0.000 N 
ATOM     71  C52 UNL A   1      23.851  17.322   5.885  1.00  0.00    +0.000 C 
ATOM     83  C59 UNL A   1      23.600  16.000   5.719  1.00  0.00    +0.000 C 
ATOM     84  N5  UNL A   1      22.583  15.390   5.000  1.00  0.00    +0.000 N 
ATOM     85  C60 UNL A   1      22.785  14.102   5.116  1.00  0.00    +0.000 C 
ATOM     86  C61 UNL A   1      21.990  12.963   4.540  1.00  0.00    +0.000 C 
ATOM     98  C68 UNL A   1      20.948  13.231   3.733  1.00  0.00    +0.000 C 
ATOM     99  C69 UNL A   1      20.101  12.229   3.090  1.00  0.00    +0.000 C 
ATOM    100  C70 UNL A   1      19.196  12.852   2.320  1.00  0.00    +0.000 C 
ATOM    101  C71 UNL A   1      19.361  14.299   2.464  1.00  0.00    +0.000 C 
ATOM    102  N6  UNL A   1      20.437  14.430   3.305  1.00  0.00    +0.000 N 
ATOM    103  C72 UNL A   1      23.960  13.746   5.923  1.00  0.00    +0.000 C 
ATOM    104  C73 UNL A   1      24.404  14.940   6.290  1.00  0.00    +0.000 C 
ATOM    105  C74 UNL A   1      18.420  18.811   1.887  1.00  0.00    +0.000 C 
ATOM    106  C75 UNL A   1      17.891  17.647   1.536  1.00  0.00    +0.000 C 
ENDROOT
BRANCH   50   49
ATOM    107  C76 UNL A   1      17.511  14.657  -0.324  1.00  0.00    +0.000 C 
ATOM    108  C77 UNL A   1      16.367  14.411  -1.089  1.00  0.00    +0.000 C 
ATOM    140  H32 UNL A   1      14.170  13.981   1.410  1.00  0.00    +0.000 H 
ATOM     46  C34 UNL A   1      15.135  14.252  -0.451  1.00  0.00    +0.000 C 
ATOM     47  C35 UNL A   1      15.055  14.235   0.943  1.00  0.00    +0.000 C 
ATOM     48  C36 UNL A   1      16.176  14.560   1.696  1.00  0.00    +0.000 C 
ATOM    141  H33 UNL A   1      16.101  14.629   2.722  1.00  0.00    +0.000 H 
ATOM     49  C37 UNL A   1      17.413  14.795   1.071  1.00  0.00    +0.000 C 
ATOM    152  H44 UNL A   1      18.431  14.738  -0.785  1.00  0.00    +0.000 H 
ATOM    153  H45 UNL A   1      16.433  14.348  -2.116  1.00  0.00    +0.000 H 
BRANCH   46   44
ATOM     44  C33 UNL A   1      13.905  14.198  -1.269  1.00  0.00    +0.000 C 
ATOM     45  O10 UNL A   1      13.374  13.121  -1.517  1.00  0.00    +0.000 O 
BRANCH   44   43
ATOM     43  N2  UNL A   1      13.399  15.370  -1.784  1.00  0.00    +0.000 N 
ATOM    139  H31 UNL A   1      13.497  16.165  -1.213  1.00  0.00    +0.000 H 
BRANCH   43   42
ATOM    137  H29 UNL A   1      13.012  14.793  -3.727  1.00  0.00    +0.000 H 
ATOM     42  C32 UNL A   1      12.737  15.585  -3.062  1.00  0.00    +0.000 C 
ATOM    138  H30 UNL A   1      11.683  15.604  -2.879  1.00  0.00    +0.000 H 
BRANCH   42   41
ATOM     41  C31 UNL A   1      13.112  16.912  -3.705  1.00  0.00    +0.000 C 
ATOM    135  H27 UNL A   1      13.071  16.791  -4.767  1.00  0.00    +0.000 H 
ATOM    136  H28 UNL A   1      12.414  17.635  -3.335  1.00  0.00    +0.000 H 
BRANCH   41   40
ATOM    133  H25 UNL A   1      14.706  17.144  -2.328  1.00  0.00    +0.000 H 
ATOM    134  H26 UNL A   1      15.177  16.998  -4.050  1.00  0.00    +0.000 H 
ATOM     40  C30 UNL A   1      14.502  17.429  -3.339  1.00  0.00    +0.000 C 
BRANCH   40   39
ATOM    131  H23 UNL A   1      15.503  19.135  -4.110  1.00  0.00    +0.000 H 
ATOM    132  H24 UNL A   1      13.748  19.330  -3.804  1.00  0.00    +0.000 H 
ATOM     39  C29 UNL A   1      14.682  18.947  -3.449  1.00  0.00    +0.000 C 
BRANCH   39   38
ATOM    129  H21 UNL A   1      14.025  19.902  -1.665  1.00  0.00    +0.000 H 
ATOM    130  H22 UNL A   1      15.566  19.017  -1.537  1.00  0.00    +0.000 H 
ATOM     38  C28 UNL A   1      14.963  19.674  -2.127  1.00  0.00    +0.000 C 
BRANCH   38   37
ATOM     37  C27 UNL A   1      15.750  20.974  -2.284  1.00  0.00    +0.000 C 
ATOM    127  H19 UNL A   1      16.275  20.954  -3.216  1.00  0.00    +0.000 H 
ATOM    128  H20 UNL A   1      15.062  21.792  -2.255  1.00  0.00    +0.000 H 
BRANCH   37   36
ATOM     36  N1  UNL A   1      16.705  21.142  -1.209  1.00  0.00    +0.000 N 
ATOM    126  H18 UNL A   1      17.412  20.472  -1.074  1.00  0.00    +0.000 H 
BRANCH   36    2
ATOM      1  O1  UNL A   1      17.266  23.259  -0.540  1.00  0.00    +0.000 O 
ATOM      2  C1  UNL A   1      16.628  22.224  -0.387  1.00  0.00    +0.000 C 
BRANCH    2    3
ATOM      3  C2  UNL A   1      15.686  22.126   0.749  1.00  0.00    +0.000 C 
ATOM    109  H1  UNL A   1      14.727  22.452   0.550  1.00  0.00    +0.000 H 
BRANCH    3    4
ATOM      4  C3  UNL A   1      15.890  21.675   2.006  1.00  0.00    +0.000 C 
ATOM    110  H2  UNL A   1      16.856  21.538   2.341  1.00  0.00    +0.000 H 
BRANCH    4    5
ATOM      5  C4  UNL A   1      14.705  21.358   2.963  1.00  0.00    +0.000 C 
ATOM      6  C5  UNL A   1      13.919  22.639   3.039  1.00  0.00    +0.000 C 
ATOM      7  C6  UNL A   1      12.739  22.809   2.427  1.00  0.00    +0.000 C 
ATOM      9  C7  UNL A   1      12.067  21.676   1.708  1.00  0.00    +0.000 C 
ATOM     10  O3  UNL A   1      10.997  21.869   1.141  1.00  0.00    +0.000 O 
ATOM     11  C8  UNL A   1      12.693  20.334   1.775  1.00  0.00    +0.000 C 
ATOM     12  C9  UNL A   1      13.886  20.233   2.367  1.00  0.00    +0.000 C 
ATOM     13  C10 UNL A   1      14.597  18.966   2.677  1.00  0.00    +0.000 C 
ATOM     14  O4  UNL A   1      14.475  17.907   2.116  1.00  0.00    +0.000 O 
ATOM     15  C11 UNL A   1      15.414  19.271   3.884  1.00  0.00    +0.000 C 
ATOM     16  C12 UNL A   1      16.111  18.368   4.579  1.00  0.00    +0.000 C 
ATOM     17  C13 UNL A   1      16.501  18.698   5.956  1.00  0.00    +0.000 C 
ATOM     18  C14 UNL A   1      17.777  18.348   6.426  1.00  0.00    +0.000 C 
ATOM     19  C15 UNL A   1      18.091  18.554   7.768  1.00  0.00    +0.000 C 
ATOM     21  C16 UNL A   1      17.141  19.062   8.649  1.00  0.00    +0.000 C 
ATOM     23  C17 UNL A   1      15.876  19.406   8.204  1.00  0.00    +0.000 C 
ATOM     24  C18 UNL A   1      15.567  19.271   6.850  1.00  0.00    +0.000 C 
ATOM     25  O7  UNL A   1      14.282  19.600   6.511  1.00  0.00    +0.000 O 
ATOM     26  C19 UNL A   1      14.031  20.560   5.450  1.00  0.00    +0.000 C 
ATOM     35  C26 UNL A   1      15.123  20.692   4.327  1.00  0.00    +0.000 C 
ATOM    111  H3  UNL A   1      14.306  23.423   3.587  1.00  0.00    +0.000 H 
ATOM    113  H5  UNL A   1      12.224  19.506   1.377  1.00  0.00    +0.000 H 
ATOM    114  H6  UNL A   1      16.368  17.461   4.159  1.00  0.00    +0.000 H 
ATOM    115  H7  UNL A   1      18.475  17.944   5.783  1.00  0.00    +0.000 H 
ATOM    118  H10 UNL A   1      15.168  19.758   8.867  1.00  0.00    +0.000 H 
ATOM    119  H11 UNL A   1      13.226  20.175   4.859  1.00  0.00    +0.000 H 
ATOM    125  H17 UNL A   1      15.892  21.290   4.771  1.00  0.00    +0.000 H 
BRANCH    7    8
ATOM    112  H4  UNL A   1      11.187  24.077   2.668  1.00  0.00    +0.000 H 
ATOM      8  O2  UNL A   1      12.099  24.031   2.456  1.00  0.00    +0.000 O 
ENDBRANCH    7    8
BRANCH   19   20
ATOM    116  H8  UNL A   1      19.759  18.862   8.843  1.00  0.00    +0.000 H 
ATOM     20  O5  UNL A   1      19.321  18.251   8.282  1.00  0.00    +0.000 O 
ENDBRANCH   19   20
BRANCH   21   22
ATOM    117  H9  UNL A   1      17.515  18.476  10.529  1.00  0.00    +0.000 H 
ATOM     22  O6  UNL A   1      17.443  19.224   9.970  1.00  0.00    +0.000 O 
ENDBRANCH   21   22
BRANCH   26   27
ATOM     34  C25 UNL A   1      12.288  22.210   6.333  1.00  0.00    +0.000 C 
ATOM     28  C21 UNL A   1      14.622  22.784   6.508  1.00  0.00    +0.000 C 
ATOM    120  H12 UNL A   1      15.606  22.611   6.248  1.00  0.00    +0.000 H 
ATOM    121  H13 UNL A   1      15.045  24.537   7.610  1.00  0.00    +0.000 H 
ATOM     27  C20 UNL A   1      13.629  21.876   6.100  1.00  0.00    +0.000 C 
ATOM    124  H16 UNL A   1      11.536  21.586   6.001  1.00  0.00    +0.000 H 
ATOM     29  C22 UNL A   1      14.299  23.917   7.258  1.00  0.00    +0.000 C 
ATOM     30  C23 UNL A   1      12.966  24.201   7.526  1.00  0.00    +0.000 C 
ATOM     32  C24 UNL A   1      11.965  23.384   7.012  1.00  0.00    +0.000 C 
BRANCH   30   31
ATOM    122  H14 UNL A   1      13.258  25.645   8.887  1.00  0.00    +0.000 H 
ATOM     31  O8  UNL A   1      12.635  25.284   8.287  1.00  0.00    +0.000 O 
ENDBRANCH   30   31
BRANCH   32   33
ATOM     33  O9  UNL A   1      10.654  23.720   7.196  1.00  0.00    +0.000 O 
ATOM    123  H15 UNL A   1       9.985  23.277   6.713  1.00  0.00    +0.000 H 
ENDBRANCH   32   33
ENDBRANCH   26   27
ENDBRANCH    4    5
ENDBRANCH    3    4
ENDBRANCH    2    3
ENDBRANCH   36    2
ENDBRANCH   37   36
ENDBRANCH   38   37
ENDBRANCH   39   38
ENDBRANCH   40   39
ENDBRANCH   41   40
ENDBRANCH   42   41
ENDBRANCH   43   42
ENDBRANCH   44   43
ENDBRANCH   46   44
ENDBRANCH   50   49
BRANCH   54   55
ATOM     65  F5  UNL A   1      21.205  21.108   1.042  1.00  0.00    +0.000 F 
ATOM     55  C42 UNL A   1      19.857  21.038   3.003  1.00  0.00    +0.000 C 
ATOM     56  C43 UNL A   1      18.994  21.732   3.863  1.00  0.00    +0.000 C 
ATOM     57  F1  UNL A   1      18.466  21.117   4.931  1.00  0.00    +0.000 F 
ATOM     58  C44 UNL A   1      18.649  23.059   3.613  1.00  0.00    +0.000 C 
ATOM     59  F2  UNL A   1      17.797  23.693   4.430  1.00  0.00    +0.000 F 
ATOM     60  C45 UNL A   1      19.180  23.722   2.516  1.00  0.00    +0.000 C 
ATOM     61  F3  UNL A   1      18.857  25.003   2.286  1.00  0.00    +0.000 F 
ATOM     62  C46 UNL A   1      20.042  23.058   1.658  1.00  0.00    +0.000 C 
ATOM     63  F4  UNL A   1      20.564  23.701   0.604  1.00  0.00    +0.000 F 
ATOM     64  C47 UNL A   1      20.370  21.724   1.892  1.00  0.00    +0.000 C 
ENDBRANCH   54   55
BRANCH   71   72
ATOM     72  C53 UNL A   1      25.041  17.698   6.714  1.00  0.00    +0.000 C 
ATOM     73  C54 UNL A   1      24.949  17.808   8.109  1.00  0.00    +0.000 C 
ATOM     74  F6  UNL A   1      23.767  17.643   8.723  1.00  0.00    +0.000 F 
ATOM     75  C55 UNL A   1      26.068  18.119   8.877  1.00  0.00    +0.000 C 
ATOM     76  F7  UNL A   1      25.952  18.254  10.204  1.00  0.00    +0.000 F 
ATOM     77  C56 UNL A   1      27.302  18.296   8.267  1.00  0.00    +0.000 C 
ATOM     78  F8  UNL A   1      28.381  18.584   9.009  1.00  0.00    +0.000 F 
ATOM     79  C57 UNL A   1      27.417  18.180   6.890  1.00  0.00    +0.000 C 
ATOM     80  F9  UNL A   1      28.610  18.340   6.302  1.00  0.00    +0.000 F 
ATOM     81  C58 UNL A   1      26.294  17.895   6.118  1.00  0.00    +0.000 C 
ATOM     82  F10 UNL A   1      26.434  17.793   4.788  1.00  0.00    +0.000 F 
ENDBRANCH   71   72
BRANCH   86   87
ATOM     97  F15 UNL A   1      20.753  11.451   6.610  1.00  0.00    +0.000 F 
ATOM     87  C62 UNL A   1      22.340  11.553   4.843  1.00  0.00    +0.000 C 
ATOM     88  C63 UNL A   1      23.332  10.885   4.114  1.00  0.00    +0.000 C 
ATOM     89  F11 UNL A   1      23.947  11.508   3.096  1.00  0.00    +0.000 F 
ATOM     90  C64 UNL A   1      23.680   9.570   4.412  1.00  0.00    +0.000 C 
ATOM     91  F12 UNL A   1      24.613   8.944   3.681  1.00  0.00    +0.000 F 
ATOM     92  C65 UNL A   1      23.058   8.906   5.459  1.00  0.00    +0.000 C 
ATOM     93  F13 UNL A   1      23.403   7.645   5.754  1.00  0.00    +0.000 F 
ATOM     94  C66 UNL A   1      22.076   9.548   6.197  1.00  0.00    +0.000 C 
ATOM     95  F14 UNL A   1      21.482   8.915   7.218  1.00  0.00    +0.000 F 
ATOM     96  C67 UNL A   1      21.709  10.854   5.883  1.00  0.00    +0.000 C 
ENDBRANCH   86   87
TORSDOF 23
ENDMDL
MODEL 8
REMARK VINA RESULT:      -7.9      2.847      6.899
ROOT
ATOM    142  H34 UNL A   1      13.884  46.853   1.949  1.00  0.00    +0.000 H 
ATOM    143  H35 UNL A   1      15.544  47.271  -0.016  1.00  0.00    +0.000 H 
ATOM    144  H36 UNL A   1      15.251  50.754   2.204  1.00  0.00    +0.000 H 
ATOM    145  H37 UNL A   1      16.707  56.906   3.018  1.00  0.00    +0.000 H 
ATOM    146  H38 UNL A   1      15.316  56.420   5.086  1.00  0.00    +0.000 H 
ATOM    147  H39 UNL A   1      15.555  52.915   2.864  1.00  0.00    +0.000 H 
ATOM    148  H40 UNL A   1      18.662  53.932  -0.956  1.00  0.00    +0.000 H 
ATOM    149  H41 UNL A   1      18.287  51.523  -1.739  1.00  0.00    +0.000 H 
ATOM    150  H42 UNL A   1      12.173  49.836   6.060  1.00  0.00    +0.000 H 
ATOM    151  H43 UNL A   1      12.382  52.293   6.753  1.00  0.00    +0.000 H 
ATOM     50  C38 UNL A   1      14.244  53.784   5.179  1.00  0.00    +0.000 C 
ATOM     51  C39 UNL A   1      13.822  52.350   5.002  1.00  0.00    +0.000 C 
ATOM     52  N3  UNL A   1      14.197  51.484   4.092  1.00  0.00    +0.000 N 
ATOM     53  C40 UNL A   1      13.529  50.303   4.389  1.00  0.00    +0.000 C 
ATOM     54  C41 UNL A   1      13.557  49.124   3.721  1.00  0.00    +0.000 C 
ATOM     66  C48 UNL A   1      14.314  48.889   2.520  1.00  0.00    +0.000 C 
ATOM     67  C49 UNL A   1      14.390  47.732   1.762  1.00  0.00    +0.000 C 
ATOM     68  C50 UNL A   1      15.270  47.961   0.700  1.00  0.00    +0.000 C 
ATOM     69  C51 UNL A   1      15.711  49.272   0.772  1.00  0.00    +0.000 C 
ATOM     70  N4  UNL A   1      15.120  49.829   1.896  1.00  0.00    +0.000 N 
ATOM     71  C52 UNL A   1      16.611  49.966  -0.113  1.00  0.00    +0.000 C 
ATOM     83  C59 UNL A   1      16.956  51.272  -0.003  1.00  0.00    +0.000 C 
ATOM     84  N5  UNL A   1      16.561  52.200   0.949  1.00  0.00    +0.000 N 
ATOM     85  C60 UNL A   1      17.186  53.311   0.649  1.00  0.00    +0.000 C 
ATOM     86  C61 UNL A   1      17.134  54.643   1.342  1.00  0.00    +0.000 C 
ATOM     98  C68 UNL A   1      16.412  54.770   2.470  1.00  0.00    +0.000 C 
ATOM     99  C69 UNL A   1      16.286  55.995   3.257  1.00  0.00    +0.000 C 
ATOM    100  C70 UNL A   1      15.536  55.743   4.339  1.00  0.00    +0.000 C 
ATOM    101  C71 UNL A   1      15.076  54.355   4.289  1.00  0.00    +0.000 C 
ATOM    102  N6  UNL A   1      15.662  53.849   3.157  1.00  0.00    +0.000 N 
ATOM    103  C72 UNL A   1      18.055  53.213  -0.531  1.00  0.00    +0.000 C 
ATOM    104  C73 UNL A   1      17.856  51.957  -0.908  1.00  0.00    +0.000 C 
ATOM    105  C74 UNL A   1      12.744  50.549   5.580  1.00  0.00    +0.000 C 
ATOM    106  C75 UNL A   1      12.854  51.812   5.970  1.00  0.00    +0.000 C 
ENDROOT
BRANCH   50   49
ATOM    107  C76 UNL A   1      14.293  54.616   7.558  1.00  0.00    +0.000 C 
ATOM    108  C77 UNL A   1      13.665  55.258   8.628  1.00  0.00    +0.000 C 
ATOM    140  H32 UNL A   1      11.115  56.655   6.955  1.00  0.00    +0.000 H 
ATOM     46  C34 UNL A   1      12.458  55.928   8.416  1.00  0.00    +0.000 C 
ATOM     47  C35 UNL A   1      11.931  56.047   7.128  1.00  0.00    +0.000 C 
ATOM     48  C36 UNL A   1      12.513  55.341   6.083  1.00  0.00    +0.000 C 
ATOM    141  H33 UNL A   1      12.078  55.360   5.148  1.00  0.00    +0.000 H 
ATOM     49  C37 UNL A   1      13.690  54.601   6.290  1.00  0.00    +0.000 C 
ATOM    152  H44 UNL A   1      15.204  54.152   7.699  1.00  0.00    +0.000 H 
ATOM    153  H45 UNL A   1      14.089  55.237   9.568  1.00  0.00    +0.000 H 
BRANCH   46   44
ATOM     44  C33 UNL A   1      11.697  56.425   9.582  1.00  0.00    +0.000 C 
ATOM     45  O10 UNL A   1      11.400  57.611   9.665  1.00  0.00    +0.000 O 
BRANCH   44   43
ATOM     43  N2  UNL A   1      11.375  55.544  10.588  1.00  0.00    +0.000 N 
ATOM    139  H31 UNL A   1      11.948  55.580  11.388  1.00  0.00    +0.000 H 
BRANCH   43   42
ATOM    137  H29 UNL A   1       9.865  54.568  11.602  1.00  0.00    +0.000 H 
ATOM     42  C32 UNL A   1      10.299  54.564  10.624  1.00  0.00    +0.000 C 
ATOM    138  H30 UNL A   1       9.590  54.839   9.871  1.00  0.00    +0.000 H 
BRANCH   42   41
ATOM     41  C31 UNL A   1      10.775  53.154  10.310  1.00  0.00    +0.000 C 
ATOM    135  H27 UNL A   1      11.781  53.056  10.658  1.00  0.00    +0.000 H 
ATOM    136  H28 UNL A   1      10.093  52.489  10.799  1.00  0.00    +0.000 H 
BRANCH   41   40
ATOM    133  H25 UNL A   1      11.523  53.330   8.335  1.00  0.00    +0.000 H 
ATOM    134  H26 UNL A   1      10.875  51.722   8.784  1.00  0.00    +0.000 H 
ATOM     40  C30 UNL A   1      10.746  52.784   8.828  1.00  0.00    +0.000 C 
BRANCH   40   39
ATOM    131  H23 UNL A   1       8.718  52.334   8.393  1.00  0.00    +0.000 H 
ATOM    132  H24 UNL A   1       9.149  54.073   8.399  1.00  0.00    +0.000 H 
ATOM     39  C29 UNL A   1       9.428  53.082   8.107  1.00  0.00    +0.000 C 
BRANCH   39   38
ATOM    129  H21 UNL A   1       9.295  54.094   6.240  1.00  0.00    +0.000 H 
ATOM    130  H22 UNL A   1      10.489  52.774   6.313  1.00  0.00    +0.000 H 
ATOM     38  C28 UNL A   1       9.505  53.100   6.575  1.00  0.00    +0.000 C 
BRANCH   38   37
ATOM     37  C27 UNL A   1       8.528  52.146   5.888  1.00  0.00    +0.000 C 
ATOM    127  H19 UNL A   1       7.865  51.738   6.622  1.00  0.00    +0.000 H 
ATOM    128  H20 UNL A   1       7.983  52.694   5.149  1.00  0.00    +0.000 H 
BRANCH   37   36
ATOM     36  N1  UNL A   1       9.227  51.062   5.231  1.00  0.00    +0.000 N 
ATOM    126  H18 UNL A   1      10.000  51.257   4.655  1.00  0.00    +0.000 H 
BRANCH   36    2
ATOM      1  O1  UNL A   1       7.888  49.254   4.805  1.00  0.00    +0.000 O 
ATOM      2  C1  UNL A   1       8.819  49.776   5.407  1.00  0.00    +0.000 C 
BRANCH    2    3
ATOM      3  C2  UNL A   1       9.583  48.967   6.381  1.00  0.00    +0.000 C 
ATOM    109  H1  UNL A   1       9.734  47.983   6.110  1.00  0.00    +0.000 H 
BRANCH    3    4
ATOM      4  C3  UNL A   1      10.113  49.321   7.573  1.00  0.00    +0.000 C 
ATOM    110  H2  UNL A   1      10.935  49.946   7.593  1.00  0.00    +0.000 H 
BRANCH    4    5
ATOM      5  C4  UNL A   1       9.518  48.812   8.917  1.00  0.00    +0.000 C 
ATOM      6  C5  UNL A   1       8.027  48.920   8.741  1.00  0.00    +0.000 C 
ATOM      7  C6  UNL A   1       7.236  47.855   8.551  1.00  0.00    +0.000 C 
ATOM      9  C7  UNL A   1       7.784  46.459   8.613  1.00  0.00    +0.000 C 
ATOM     10  O3  UNL A   1       7.037  45.507   8.416  1.00  0.00    +0.000 O 
ATOM     11  C8  UNL A   1       9.206  46.281   8.989  1.00  0.00    +0.000 C 
ATOM     12  C9  UNL A   1       9.955  47.379   9.130  1.00  0.00    +0.000 C 
ATOM     13  C10 UNL A   1      11.343  47.421   9.655  1.00  0.00    +0.000 C 
ATOM     14  O4  UNL A   1      12.156  46.531   9.636  1.00  0.00    +0.000 O 
ATOM     15  C11 UNL A   1      11.473  48.762  10.288  1.00  0.00    +0.000 C 
ATOM     16  C12 UNL A   1      12.527  49.168  11.002  1.00  0.00    +0.000 C 
ATOM     17  C13 UNL A   1      12.353  50.306  11.915  1.00  0.00    +0.000 C 
ATOM     18  C14 UNL A   1      13.360  51.278  12.022  1.00  0.00    +0.000 C 
ATOM     19  C15 UNL A   1      13.241  52.283  12.980  1.00  0.00    +0.000 C 
ATOM     21  C16 UNL A   1      12.157  52.305  13.853  1.00  0.00    +0.000 C 
ATOM     23  C17 UNL A   1      11.159  51.350  13.766  1.00  0.00    +0.000 C 
ATOM     24  C18 UNL A   1      11.228  50.377  12.768  1.00  0.00    +0.000 C 
ATOM     25  O7  UNL A   1      10.217  49.454  12.784  1.00  0.00    +0.000 O 
ATOM     26  C19 UNL A   1       9.436  49.207  11.584  1.00  0.00    +0.000 C 
ATOM     35  C26 UNL A   1      10.138  49.476  10.203  1.00  0.00    +0.000 C 
ATOM    111  H3  UNL A   1       7.594  49.855   8.768  1.00  0.00    +0.000 H 
ATOM    113  H5  UNL A   1       9.605  45.342   9.136  1.00  0.00    +0.000 H 
ATOM    114  H6  UNL A   1      13.439  48.694  10.915  1.00  0.00    +0.000 H 
ATOM    115  H7  UNL A   1      14.180  51.249  11.397  1.00  0.00    +0.000 H 
ATOM    118  H10 UNL A   1      10.371  51.357  14.433  1.00  0.00    +0.000 H 
ATOM    119  H11 UNL A   1       9.305  48.148  11.504  1.00  0.00    +0.000 H 
ATOM    125  H17 UNL A   1      10.097  50.539  10.085  1.00  0.00    +0.000 H 
BRANCH    7    8
ATOM    112  H4  UNL A   1       5.268  47.432   8.707  1.00  0.00    +0.000 H 
ATOM      8  O2  UNL A   1       5.886  48.013   8.310  1.00  0.00    +0.000 O 
ENDBRANCH    7    8
BRANCH   19   20
ATOM    116  H8  UNL A   1      13.984  54.143  12.846  1.00  0.00    +0.000 H 
ATOM     20  O5  UNL A   1      14.178  53.268  13.121  1.00  0.00    +0.000 O 
ENDBRANCH   19   20
BRANCH   21   22
ATOM    117  H9  UNL A   1      12.447  54.113  14.669  1.00  0.00    +0.000 H 
ATOM     22  O6  UNL A   1      12.066  53.270  14.815  1.00  0.00    +0.000 O 
ENDBRANCH   21   22
BRANCH   26   27
ATOM     34  C25 UNL A   1       6.968  49.220  12.253  1.00  0.00    +0.000 C 
ATOM     28  C21 UNL A   1       7.958  51.257  11.430  1.00  0.00    +0.000 C 
ATOM    120  H12 UNL A   1       8.735  51.746  10.960  1.00  0.00    +0.000 H 
ATOM    121  H13 UNL A   1       6.732  52.975  11.554  1.00  0.00    +0.000 H 
ATOM     27  C20 UNL A   1       8.090  49.895  11.754  1.00  0.00    +0.000 C 
ATOM    124  H16 UNL A   1       7.022  48.209  12.454  1.00  0.00    +0.000 H 
ATOM     29  C22 UNL A   1       6.790  51.960  11.734  1.00  0.00    +0.000 C 
ATOM     30  C23 UNL A   1       5.707  51.283  12.280  1.00  0.00    +0.000 C 
ATOM     32  C24 UNL A   1       5.777  49.908  12.480  1.00  0.00    +0.000 C 
BRANCH   30   31
ATOM    122  H14 UNL A   1       4.144  51.785  13.431  1.00  0.00    +0.000 H 
ATOM     31  O8  UNL A   1       4.571  51.961  12.616  1.00  0.00    +0.000 O 
ENDBRANCH   30   31
BRANCH   32   33
ATOM     33  O9  UNL A   1       4.678  49.230  12.926  1.00  0.00    +0.000 O 
ATOM    123  H15 UNL A   1       4.188  48.694  12.336  1.00  0.00    +0.000 H 
ENDBRANCH   32   33
ENDBRANCH   26   27
ENDBRANCH    4    5
ENDBRANCH    3    4
ENDBRANCH    2    3
ENDBRANCH   36    2
ENDBRANCH   37   36
ENDBRANCH   38   37
ENDBRANCH   39   38
ENDBRANCH   40   39
ENDBRANCH   41   40
ENDBRANCH   42   41
ENDBRANCH   43   42
ENDBRANCH   44   43
ENDBRANCH   46   44
ENDBRANCH   50   49
BRANCH   54   55
ATOM     65  F5  UNL A   1      11.076  48.299   2.607  1.00  0.00    +0.000 F 
ATOM     55  C42 UNL A   1      12.748  47.988   4.272  1.00  0.00    +0.000 C 
ATOM     56  C43 UNL A   1      13.156  47.281   5.412  1.00  0.00    +0.000 C 
ATOM     57  F1  UNL A   1      14.333  47.557   5.993  1.00  0.00    +0.000 F 
ATOM     58  C44 UNL A   1      12.364  46.267   5.948  1.00  0.00    +0.000 C 
ATOM     59  F2  UNL A   1      12.788  45.583   7.019  1.00  0.00    +0.000 F 
ATOM     60  C45 UNL A   1      11.141  45.960   5.369  1.00  0.00    +0.000 C 
ATOM     61  F3  UNL A   1      10.375  44.993   5.895  1.00  0.00    +0.000 F 
ATOM     62  C46 UNL A   1      10.714  46.652   4.247  1.00  0.00    +0.000 C 
ATOM     63  F4  UNL A   1       9.528  46.363   3.694  1.00  0.00    +0.000 F 
ATOM     64  C47 UNL A   1      11.514  47.649   3.695  1.00  0.00    +0.000 C 
ENDBRANCH   54   55
BRANCH   71   72
ATOM     72  C53 UNL A   1      17.206  49.190  -1.249  1.00  0.00    +0.000 C 
ATOM     73  C54 UNL A   1      18.262  48.292  -1.041  1.00  0.00    +0.000 C 
ATOM     74  F6  UNL A   1      18.807  48.161   0.178  1.00  0.00    +0.000 F 
ATOM     75  C55 UNL A   1      18.782  47.545  -2.095  1.00  0.00    +0.000 C 
ATOM     76  F7  UNL A   1      19.814  46.718  -1.882  1.00  0.00    +0.000 F 
ATOM     77  C56 UNL A   1      18.238  47.662  -3.366  1.00  0.00    +0.000 C 
ATOM     78  F8  UNL A   1      18.733  46.934  -4.377  1.00  0.00    +0.000 F 
ATOM     79  C57 UNL A   1      17.185  48.536  -3.590  1.00  0.00    +0.000 C 
ATOM     80  F9  UNL A   1      16.652  48.641  -4.815  1.00  0.00    +0.000 F 
ATOM     81  C58 UNL A   1      16.680  49.303  -2.544  1.00  0.00    +0.000 C 
ATOM     82  F10 UNL A   1      15.664  50.144  -2.791  1.00  0.00    +0.000 F 
ENDBRANCH   71   72
BRANCH   86   87
ATOM     97  F15 UNL A   1      19.812  55.282   2.064  1.00  0.00    +0.000 F 
ATOM     87  C62 UNL A   1      17.869  55.816   0.805  1.00  0.00    +0.000 C 
ATOM     88  C63 UNL A   1      17.256  56.696  -0.097  1.00  0.00    +0.000 C 
ATOM     89  F11 UNL A   1      16.006  56.457  -0.521  1.00  0.00    +0.000 F 
ATOM     90  C64 UNL A   1      17.933  57.812  -0.583  1.00  0.00    +0.000 C 
ATOM     91  F12 UNL A   1      17.336  58.623  -1.467  1.00  0.00    +0.000 F 
ATOM     92  C65 UNL A   1      19.227  58.080  -0.160  1.00  0.00    +0.000 C 
ATOM     93  F13 UNL A   1      19.873  59.161  -0.618  1.00  0.00    +0.000 F 
ATOM     94  C66 UNL A   1      19.851  57.225   0.736  1.00  0.00    +0.000 C 
ATOM     95  F14 UNL A   1      21.095  57.488   1.158  1.00  0.00    +0.000 F 
ATOM     96  C67 UNL A   1      19.184  56.096   1.202  1.00  0.00    +0.000 C 
ENDBRANCH   86   87
TORSDOF 23
ENDMDL
MODEL 9
REMARK VINA RESULT:      -7.8     20.401     25.337
ROOT
ATOM    142  H34 UNL A   1      16.039  34.194 -13.521  1.00  0.00    +0.000 H 
ATOM    143  H35 UNL A   1      17.058  31.799 -13.671  1.00  0.00    +0.000 H 
ATOM    144  H36 UNL A   1      13.796  31.669 -11.122  1.00  0.00    +0.000 H 
ATOM    145  H37 UNL A   1      10.116  28.433  -7.047  1.00  0.00    +0.000 H 
ATOM    146  H38 UNL A   1       8.956  30.690  -7.119  1.00  0.00    +0.000 H 
ATOM    147  H39 UNL A   1      12.244  30.871  -9.656  1.00  0.00    +0.000 H 
ATOM    148  H40 UNL A   1      14.176  26.230  -9.714  1.00  0.00    +0.000 H 
ATOM    149  H41 UNL A   1      15.959  27.126 -11.319  1.00  0.00    +0.000 H 
ATOM    150  H42 UNL A   1      11.782  36.265 -11.007  1.00  0.00    +0.000 H 
ATOM    151  H43 UNL A   1      10.109  35.438  -9.254  1.00  0.00    +0.000 H 
ATOM     50  C38 UNL A   1      10.286  32.637  -8.715  1.00  0.00    +0.000 C 
ATOM     51  C39 UNL A   1      11.159  33.462  -9.624  1.00  0.00    +0.000 C 
ATOM     52  N3  UNL A   1      12.187  33.089 -10.346  1.00  0.00    +0.000 N 
ATOM     53  C40 UNL A   1      12.620  34.228 -11.013  1.00  0.00    +0.000 C 
ATOM     54  C41 UNL A   1      13.673  34.367 -11.853  1.00  0.00    +0.000 C 
ATOM     66  C48 UNL A   1      14.577  33.304 -12.207  1.00  0.00    +0.000 C 
ATOM     67  C49 UNL A   1      15.684  33.355 -13.037  1.00  0.00    +0.000 C 
ATOM     68  C50 UNL A   1      16.239  32.073 -13.106  1.00  0.00    +0.000 C 
ATOM     69  C51 UNL A   1      15.502  31.233 -12.287  1.00  0.00    +0.000 C 
ATOM     70  N4  UNL A   1      14.483  32.001 -11.745  1.00  0.00    +0.000 N 
ATOM     71  C52 UNL A   1      15.707  29.832 -12.023  1.00  0.00    +0.000 C 
ATOM     83  C59 UNL A   1      14.969  29.087 -11.165  1.00  0.00    +0.000 C 
ATOM     84  N5  UNL A   1      13.885  29.471 -10.389  1.00  0.00    +0.000 N 
ATOM     85  C60 UNL A   1      13.496  28.392  -9.756  1.00  0.00    +0.000 C 
ATOM     86  C61 UNL A   1      12.365  28.221  -8.782  1.00  0.00    +0.000 C 
ATOM     98  C68 UNL A   1      11.558  29.267  -8.521  1.00  0.00    +0.000 C 
ATOM     99  C69 UNL A   1      10.414  29.242  -7.614  1.00  0.00    +0.000 C 
ATOM    100  C70 UNL A   1       9.812  30.440  -7.637  1.00  0.00    +0.000 C 
ATOM    101  C71 UNL A   1      10.566  31.336  -8.514  1.00  0.00    +0.000 C 
ATOM    102  N6  UNL A   1      11.574  30.548  -9.010  1.00  0.00    +0.000 N 
ATOM    103  C72 UNL A   1      14.291  27.195 -10.062  1.00  0.00    +0.000 C 
ATOM    104  C73 UNL A   1      15.193  27.680 -10.904  1.00  0.00    +0.000 C 
ATOM    105  C74 UNL A   1      11.730  35.304 -10.632  1.00  0.00    +0.000 C 
ATOM    106  C75 UNL A   1      10.839  34.894  -9.740  1.00  0.00    +0.000 C 
ENDROOT
BRANCH   50   49
ATOM    107  C76 UNL A   1       9.356  33.882  -6.730  1.00  0.00    +0.000 C 
ATOM    108  C77 UNL A   1       8.261  34.317  -5.981  1.00  0.00    +0.000 C 
ATOM    140  H32 UNL A   1       5.844  33.739  -8.235  1.00  0.00    +0.000 H 
ATOM     46  C34 UNL A   1       6.972  34.181  -6.503  1.00  0.00    +0.000 C 
ATOM     47  C35 UNL A   1       6.781  33.710  -7.804  1.00  0.00    +0.000 C 
ATOM     48  C36 UNL A   1       7.863  33.203  -8.513  1.00  0.00    +0.000 C 
ATOM    141  H33 UNL A   1       7.713  32.779  -9.441  1.00  0.00    +0.000 H 
ATOM     49  C37 UNL A   1       9.160  33.265  -7.977  1.00  0.00    +0.000 C 
ATOM    152  H44 UNL A   1      10.314  34.014  -6.367  1.00  0.00    +0.000 H 
ATOM    153  H45 UNL A   1       8.402  34.736  -5.049  1.00  0.00    +0.000 H 
BRANCH   46   44
ATOM     44  C33 UNL A   1       5.811  34.451  -5.630  1.00  0.00    +0.000 C 
ATOM     45  O10 UNL A   1       4.814  35.003  -6.080  1.00  0.00    +0.000 O 
BRANCH   44   43
ATOM     43  N2  UNL A   1       5.891  34.115  -4.298  1.00  0.00    +0.000 N 
ATOM    139  H31 UNL A   1       5.998  34.868  -3.672  1.00  0.00    +0.000 H 
BRANCH   43   42
ATOM    137  H29 UNL A   1       5.911  32.059  -4.469  1.00  0.00    +0.000 H 
ATOM     42  C32 UNL A   1       5.840  32.792  -3.693  1.00  0.00    +0.000 C 
ATOM    138  H30 UNL A   1       6.655  32.723  -3.002  1.00  0.00    +0.000 H 
BRANCH   42   41
ATOM     41  C31 UNL A   1       4.557  32.549  -2.912  1.00  0.00    +0.000 C 
ATOM    135  H27 UNL A   1       4.361  33.416  -2.316  1.00  0.00    +0.000 H 
ATOM    136  H28 UNL A   1       3.794  32.354  -3.637  1.00  0.00    +0.000 H 
BRANCH   41   40
ATOM    133  H25 UNL A   1       4.264  30.483  -2.544  1.00  0.00    +0.000 H 
ATOM    134  H26 UNL A   1       5.601  31.255  -1.637  1.00  0.00    +0.000 H 
ATOM     40  C30 UNL A   1       4.592  31.335  -1.986  1.00  0.00    +0.000 C 
BRANCH   40   39
ATOM    131  H23 UNL A   1       2.697  31.510  -1.047  1.00  0.00    +0.000 H 
ATOM    132  H24 UNL A   1       3.931  30.575  -0.147  1.00  0.00    +0.000 H 
ATOM     39  C29 UNL A   1       3.717  31.445  -0.733  1.00  0.00    +0.000 C 
BRANCH   39   38
ATOM    129  H21 UNL A   1       4.273  33.479  -0.448  1.00  0.00    +0.000 H 
ATOM    130  H22 UNL A   1       3.129  32.822   0.749  1.00  0.00    +0.000 H 
ATOM     38  C28 UNL A   1       4.012  32.647   0.173  1.00  0.00    +0.000 C 
BRANCH   38   37
ATOM     37  C27 UNL A   1       5.149  32.417   1.168  1.00  0.00    +0.000 C 
ATOM    127  H19 UNL A   1       4.880  32.848   2.110  1.00  0.00    +0.000 H 
ATOM    128  H20 UNL A   1       5.305  31.363   1.266  1.00  0.00    +0.000 H 
BRANCH   37   36
ATOM     36  N1  UNL A   1       6.381  33.020   0.708  1.00  0.00    +0.000 N 
ATOM    126  H18 UNL A   1       6.481  33.999   0.721  1.00  0.00    +0.000 H 
BRANCH   36    2
ATOM      1  O1  UNL A   1       7.384  31.014   0.247  1.00  0.00    +0.000 O 
ATOM      2  C1  UNL A   1       7.401  32.239   0.258  1.00  0.00    +0.000 C 
BRANCH    2    3
ATOM      3  C2  UNL A   1       8.590  32.943  -0.269  1.00  0.00    +0.000 C 
ATOM    109  H1  UNL A   1       8.418  33.527  -1.102  1.00  0.00    +0.000 H 
BRANCH    3    4
ATOM      4  C3  UNL A   1       9.866  32.938   0.175  1.00  0.00    +0.000 C 
ATOM    110  H2  UNL A   1      10.163  33.648   0.863  1.00  0.00    +0.000 H 
BRANCH    4    5
ATOM      5  C4  UNL A   1      10.901  31.889  -0.323  1.00  0.00    +0.000 C 
ATOM      6  C5  UNL A   1      10.653  31.779  -1.804  1.00  0.00    +0.000 C 
ATOM      7  C6  UNL A   1      11.475  32.305  -2.723  1.00  0.00    +0.000 C 
ATOM      9  C7  UNL A   1      12.771  32.950  -2.327  1.00  0.00    +0.000 C 
ATOM     10  O3  UNL A   1      13.491  33.438  -3.190  1.00  0.00    +0.000 O 
ATOM     11  C8  UNL A   1      13.169  32.904  -0.900  1.00  0.00    +0.000 C 
ATOM     12  C9  UNL A   1      12.294  32.401  -0.026  1.00  0.00    +0.000 C 
ATOM     13  C10 UNL A   1      12.563  32.121   1.408  1.00  0.00    +0.000 C 
ATOM     14  O4  UNL A   1      13.385  32.651   2.111  1.00  0.00    +0.000 O 
ATOM     15  C11 UNL A   1      11.664  30.984   1.751  1.00  0.00    +0.000 C 
ATOM     16  C12 UNL A   1      11.680  30.326   2.914  1.00  0.00    +0.000 C 
ATOM     17  C13 UNL A   1      11.075  28.989   2.965  1.00  0.00    +0.000 C 
ATOM     18  C14 UNL A   1      10.308  28.609   4.078  1.00  0.00    +0.000 C 
ATOM     19  C15 UNL A   1       9.844  27.298   4.173  1.00  0.00    +0.000 C 
ATOM     21  C16 UNL A   1      10.169  26.358   3.199  1.00  0.00    +0.000 C 
ATOM     23  C17 UNL A   1      10.929  26.714   2.099  1.00  0.00    +0.000 C 
ATOM     24  C18 UNL A   1      11.344  28.039   1.954  1.00  0.00    +0.000 C 
ATOM     25  O7  UNL A   1      12.123  28.287   0.855  1.00  0.00    +0.000 O 
ATOM     26  C19 UNL A   1      11.759  29.344  -0.073  1.00  0.00    +0.000 C 
ATOM     35  C26 UNL A   1      10.926  30.548   0.500  1.00  0.00    +0.000 C 
ATOM    111  H3  UNL A   1       9.812  31.277  -2.126  1.00  0.00    +0.000 H 
ATOM    113  H5  UNL A   1      14.091  33.250  -0.593  1.00  0.00    +0.000 H 
ATOM    114  H6  UNL A   1      12.106  30.747   3.754  1.00  0.00    +0.000 H 
ATOM    115  H7  UNL A   1      10.090  29.294   4.818  1.00  0.00    +0.000 H 
ATOM    118  H10 UNL A   1      11.189  26.007   1.394  1.00  0.00    +0.000 H 
ATOM    119  H11 UNL A   1      12.658  29.866  -0.327  1.00  0.00    +0.000 H 
ATOM    125  H17 UNL A   1       9.925  30.174   0.563  1.00  0.00    +0.000 H 
BRANCH    7    8
ATOM    112  H4  UNL A   1      11.549  31.599  -4.613  1.00  0.00    +0.000 H 
ATOM      8  O2  UNL A   1      11.158  32.251  -4.065  1.00  0.00    +0.000 O 
ENDBRANCH    7    8
BRANCH   19   20
ATOM    116  H8  UNL A   1       9.417  26.240   5.825  1.00  0.00    +0.000 H 
ATOM     20  O5  UNL A   1       9.078  26.873   5.223  1.00  0.00    +0.000 O 
ENDBRANCH   19   20
BRANCH   21   22
ATOM    117  H9  UNL A   1       8.886  24.828   3.029  1.00  0.00    +0.000 H 
ATOM     22  O6  UNL A   1       9.744  25.067   3.319  1.00  0.00    +0.000 O 
ENDBRANCH   21   22
BRANCH   26   27
ATOM     34  C25 UNL A   1       9.827  28.260  -1.350  1.00  0.00    +0.000 C 
ATOM     28  C21 UNL A   1      11.946  28.532  -2.464  1.00  0.00    +0.000 C 
ATOM    120  H12 UNL A   1      12.956  28.740  -2.424  1.00  0.00    +0.000 H 
ATOM    121  H13 UNL A   1      11.957  28.051  -4.523  1.00  0.00    +0.000 H 
ATOM     27  C20 UNL A   1      11.159  28.691  -1.310  1.00  0.00    +0.000 C 
ATOM    124  H16 UNL A   1       9.240  28.319  -0.503  1.00  0.00    +0.000 H 
ATOM     29  C22 UNL A   1      11.384  28.097  -3.666  1.00  0.00    +0.000 C 
ATOM     30  C23 UNL A   1      10.045  27.725  -3.698  1.00  0.00    +0.000 C 
ATOM     32  C24 UNL A   1       9.289  27.749  -2.531  1.00  0.00    +0.000 C 
BRANCH   30   31
ATOM    122  H14 UNL A   1       9.978  27.308  -5.658  1.00  0.00    +0.000 H 
ATOM     31  O8  UNL A   1       9.470  27.331  -4.871  1.00  0.00    +0.000 O 
ENDBRANCH   30   31
BRANCH   32   33
ATOM     33  O9  UNL A   1       8.002  27.293  -2.547  1.00  0.00    +0.000 O 
ATOM    123  H15 UNL A   1       7.364  27.673  -1.976  1.00  0.00    +0.000 H 
ENDBRANCH   32   33
ENDBRANCH   26   27
ENDBRANCH    4    5
ENDBRANCH    3    4
ENDBRANCH    2    3
ENDBRANCH   36    2
ENDBRANCH   37   36
ENDBRANCH   38   37
ENDBRANCH   39   38
ENDBRANCH   40   39
ENDBRANCH   41   40
ENDBRANCH   42   41
ENDBRANCH   43   42
ENDBRANCH   44   43
ENDBRANCH   46   44
ENDBRANCH   50   49
BRANCH   54   55
ATOM     65  F5  UNL A   1      12.553  35.177 -14.337  1.00  0.00    +0.000 F 
ATOM     55  C42 UNL A   1      13.912  35.718 -12.459  1.00  0.00    +0.000 C 
ATOM     56  C43 UNL A   1      14.749  36.661 -11.845  1.00  0.00    +0.000 C 
ATOM     57  F1  UNL A   1      15.294  36.401 -10.648  1.00  0.00    +0.000 F 
ATOM     58  C44 UNL A   1      15.009  37.889 -12.450  1.00  0.00    +0.000 C 
ATOM     59  F2  UNL A   1      15.787  38.788 -11.830  1.00  0.00    +0.000 F 
ATOM     60  C45 UNL A   1      14.460  38.186 -13.689  1.00  0.00    +0.000 C 
ATOM     61  F3  UNL A   1      14.724  39.363 -14.274  1.00  0.00    +0.000 F 
ATOM     62  C46 UNL A   1      13.637  37.265 -14.318  1.00  0.00    +0.000 C 
ATOM     63  F4  UNL A   1      13.115  37.546 -15.520  1.00  0.00    +0.000 F 
ATOM     64  C47 UNL A   1      13.356  36.046 -13.705  1.00  0.00    +0.000 C 
ENDBRANCH   54   55
BRANCH   71   72
ATOM     72  C53 UNL A   1      16.826  29.144 -12.744  1.00  0.00    +0.000 C 
ATOM     73  C54 UNL A   1      18.118  29.093 -12.202  1.00  0.00    +0.000 C 
ATOM     74  F6  UNL A   1      18.391  29.724 -11.050  1.00  0.00    +0.000 F 
ATOM     75  C55 UNL A   1      19.142  28.417 -12.858  1.00  0.00    +0.000 C 
ATOM     76  F7  UNL A   1      20.378  28.410 -12.341  1.00  0.00    +0.000 F 
ATOM     77  C56 UNL A   1      18.887  27.758 -14.052  1.00  0.00    +0.000 C 
ATOM     78  F8  UNL A   1      19.873  27.098 -14.678  1.00  0.00    +0.000 F 
ATOM     79  C57 UNL A   1      17.613  27.786 -14.600  1.00  0.00    +0.000 C 
ATOM     80  F9  UNL A   1      17.364  27.139 -15.747  1.00  0.00    +0.000 F 
ATOM     81  C58 UNL A   1      16.593  28.482 -13.958  1.00  0.00    +0.000 C 
ATOM     82  F10 UNL A   1      15.372  28.496 -14.513  1.00  0.00    +0.000 F 
ENDBRANCH   71   72
BRANCH   86   87
ATOM     97  F15 UNL A   1      13.127  27.680  -6.093  1.00  0.00    +0.000 F 
ATOM     87  C62 UNL A   1      12.121  26.921  -8.109  1.00  0.00    +0.000 C 
ATOM     88  C63 UNL A   1      11.500  25.865  -8.788  1.00  0.00    +0.000 C 
ATOM     89  F11 UNL A   1      11.075  26.039 -10.049  1.00  0.00    +0.000 F 
ATOM     90  C64 UNL A   1      11.292  24.636  -8.168  1.00  0.00    +0.000 C 
ATOM     91  F12 UNL A   1      10.670  23.651  -8.829  1.00  0.00    +0.000 F 
ATOM     92  C65 UNL A   1      11.721  24.433  -6.865  1.00  0.00    +0.000 C 
ATOM     93  F13 UNL A   1      11.533  23.245  -6.273  1.00  0.00    +0.000 F 
ATOM     94  C66 UNL A   1      12.343  25.462  -6.174  1.00  0.00    +0.000 C 
ATOM     95  F14 UNL A   1      12.772  25.266  -4.920  1.00  0.00    +0.000 F 
ATOM     96  C67 UNL A   1      12.527  26.699  -6.785  1.00  0.00    +0.000 C 
ENDBRANCH   86   87
TORSDOF 23
ENDMDL
MODEL 10
REMARK VINA RESULT:      -7.8     44.602     49.210
ROOT
ATOM    142  H34 UNL A   1      34.540  30.372  43.746  1.00  0.00    +0.000 H 
ATOM    143  H35 UNL A   1      33.536  28.521  45.284  1.00  0.00    +0.000 H 
ATOM    144  H36 UNL A   1      32.347  32.210  46.741  1.00  0.00    +0.000 H 
ATOM    145  H37 UNL A   1      29.406  35.681  51.206  1.00  0.00    +0.000 H 
ATOM    146  H38 UNL A   1      30.142  37.466  49.558  1.00  0.00    +0.000 H 
ATOM    147  H39 UNL A   1      31.388  33.785  48.082  1.00  0.00    +0.000 H 
ATOM    148  H40 UNL A   1      29.504  30.347  51.232  1.00  0.00    +0.000 H 
ATOM    149  H41 UNL A   1      30.623  28.572  49.765  1.00  0.00    +0.000 H 
ATOM    150  H42 UNL A   1      34.170  35.718  43.650  1.00  0.00    +0.000 H 
ATOM    151  H43 UNL A   1      33.224  37.518  45.207  1.00  0.00    +0.000 H 
ATOM     50  C38 UNL A   1      31.677  36.477  47.373  1.00  0.00    +0.000 C 
ATOM     51  C39 UNL A   1      32.435  35.708  46.323  1.00  0.00    +0.000 C 
ATOM     52  N3  UNL A   1      32.565  34.412  46.180  1.00  0.00    +0.000 N 
ATOM     53  C40 UNL A   1      33.345  34.228  45.045  1.00  0.00    +0.000 C 
ATOM     54  C41 UNL A   1      33.786  33.068  44.501  1.00  0.00    +0.000 C 
ATOM     66  C48 UNL A   1      33.519  31.762  45.043  1.00  0.00    +0.000 C 
ATOM     67  C49 UNL A   1      33.940  30.531  44.571  1.00  0.00    +0.000 C 
ATOM     68  C50 UNL A   1      33.414  29.539  45.404  1.00  0.00    +0.000 C 
ATOM     69  C51 UNL A   1      32.698  30.154  46.418  1.00  0.00    +0.000 C 
ATOM     70  N4  UNL A   1      32.768  31.518  46.182  1.00  0.00    +0.000 N 
ATOM     71  C52 UNL A   1      31.996  29.544  47.518  1.00  0.00    +0.000 C 
ATOM     83  C59 UNL A   1      31.358  30.220  48.504  1.00  0.00    +0.000 C 
ATOM     84  N5  UNL A   1      31.220  31.590  48.671  1.00  0.00    +0.000 N 
ATOM     85  C60 UNL A   1      30.496  31.749  49.750  1.00  0.00    +0.000 C 
ATOM     86  C61 UNL A   1      30.034  33.021  50.403  1.00  0.00    +0.000 C 
ATOM     98  C68 UNL A   1      30.317  34.200  49.818  1.00  0.00    +0.000 C 
ATOM     99  C69 UNL A   1      29.918  35.510  50.326  1.00  0.00    +0.000 C 
ATOM    100  C70 UNL A   1      30.324  36.454  49.465  1.00  0.00    +0.000 C 
ATOM    101  C71 UNL A   1      31.066  35.820  48.375  1.00  0.00    +0.000 C 
ATOM    102  N6  UNL A   1      30.993  34.480  48.657  1.00  0.00    +0.000 N 
ATOM    103  C72 UNL A   1      30.087  30.492  50.392  1.00  0.00    +0.000 C 
ATOM    104  C73 UNL A   1      30.664  29.591  49.608  1.00  0.00    +0.000 C 
ATOM    105  C74 UNL A   1      33.639  35.543  44.518  1.00  0.00    +0.000 C 
ATOM    106  C75 UNL A   1      33.140  36.493  45.297  1.00  0.00    +0.000 C 
ENDROOT
BRANCH   50   49
ATOM    107  C76 UNL A   1      30.739  38.673  46.567  1.00  0.00    +0.000 C 
ATOM    108  C77 UNL A   1      30.847  40.060  46.437  1.00  0.00    +0.000 C 
ATOM    140  H32 UNL A   1      33.311  40.585  48.652  1.00  0.00    +0.000 H 
ATOM     46  C34 UNL A   1      31.847  40.740  47.136  1.00  0.00    +0.000 C 
ATOM     47  C35 UNL A   1      32.668  40.061  48.038  1.00  0.00    +0.000 C 
ATOM     48  C36 UNL A   1      32.612  38.674  48.103  1.00  0.00    +0.000 C 
ATOM    141  H33 UNL A   1      33.274  38.163  48.708  1.00  0.00    +0.000 H 
ATOM     49  C37 UNL A   1      31.660  37.962  47.354  1.00  0.00    +0.000 C 
ATOM    152  H44 UNL A   1      29.979  38.168  46.084  1.00  0.00    +0.000 H 
ATOM    153  H45 UNL A   1      30.194  40.577  45.829  1.00  0.00    +0.000 H 
BRANCH   46   44
ATOM     44  C33 UNL A   1      32.087  42.168  46.838  1.00  0.00    +0.000 C 
ATOM     45  O10 UNL A   1      32.862  42.490  45.945  1.00  0.00    +0.000 O 
BRANCH   44   43
ATOM     43  N2  UNL A   1      31.465  43.121  47.611  1.00  0.00    +0.000 N 
ATOM    139  H31 UNL A   1      31.791  43.201  48.536  1.00  0.00    +0.000 H 
BRANCH   43   42
ATOM    137  H29 UNL A   1      30.009  44.489  48.126  1.00  0.00    +0.000 H 
ATOM     42  C32 UNL A   1      30.386  44.024  47.239  1.00  0.00    +0.000 C 
ATOM    138  H30 UNL A   1      30.789  44.741  46.554  1.00  0.00    +0.000 H 
BRANCH   42   41
ATOM     41  C31 UNL A   1      29.238  43.316  46.536  1.00  0.00    +0.000 C 
ATOM    135  H27 UNL A   1      28.913  43.932  45.725  1.00  0.00    +0.000 H 
ATOM    136  H28 UNL A   1      29.619  42.367  46.219  1.00  0.00    +0.000 H 
BRANCH   41   40
ATOM    133  H25 UNL A   1      28.083  43.659  48.279  1.00  0.00    +0.000 H 
ATOM    134  H26 UNL A   1      27.166  43.190  46.814  1.00  0.00    +0.000 H 
ATOM     40  C30 UNL A   1      28.030  43.020  47.422  1.00  0.00    +0.000 C 
BRANCH   40   39
ATOM    131  H23 UNL A   1      26.888  41.358  48.084  1.00  0.00    +0.000 H 
ATOM    132  H24 UNL A   1      28.371  40.968  47.157  1.00  0.00    +0.000 H 
ATOM     39  C29 UNL A   1      27.923  41.574  47.917  1.00  0.00    +0.000 C 
BRANCH   39   38
ATOM    129  H21 UNL A   1      29.678  41.655  49.118  1.00  0.00    +0.000 H 
ATOM    130  H22 UNL A   1      28.136  41.713  50.009  1.00  0.00    +0.000 H 
ATOM     38  C28 UNL A   1      28.687  41.262  49.211  1.00  0.00    +0.000 C 
BRANCH   38   37
ATOM     37  C27 UNL A   1      28.789  39.772  49.533  1.00  0.00    +0.000 C 
ATOM    127  H19 UNL A   1      29.585  39.345  48.959  1.00  0.00    +0.000 H 
ATOM    128  H20 UNL A   1      28.979  39.664  50.580  1.00  0.00    +0.000 H 
BRANCH   37   36
ATOM     36  N1  UNL A   1      27.557  39.081  49.218  1.00  0.00    +0.000 N 
ATOM    126  H18 UNL A   1      27.313  38.919  48.279  1.00  0.00    +0.000 H 
BRANCH   36    2
ATOM      1  O1  UNL A   1      26.472  39.299  51.223  1.00  0.00    +0.000 O 
ATOM      2  C1  UNL A   1      26.737  38.652  50.216  1.00  0.00    +0.000 C 
BRANCH    2    3
ATOM      3  C2  UNL A   1      26.118  37.321  50.038  1.00  0.00    +0.000 C 
ATOM    109  H1  UNL A   1      25.265  37.158  50.595  1.00  0.00    +0.000 H 
BRANCH    3    4
ATOM      4  C3  UNL A   1      26.499  36.287  49.257  1.00  0.00    +0.000 C 
ATOM    110  H2  UNL A   1      27.266  35.673  49.574  1.00  0.00    +0.000 H 
BRANCH    4    5
ATOM      5  C4  UNL A   1      25.813  35.997  47.891  1.00  0.00    +0.000 C 
ATOM      6  C5  UNL A   1      24.480  36.691  47.976  1.00  0.00    +0.000 C 
ATOM      7  C6  UNL A   1      24.205  37.825  47.318  1.00  0.00    +0.000 C 
ATOM      9  C7  UNL A   1      25.188  38.423  46.355  1.00  0.00    +0.000 C 
ATOM     10  O3  UNL A   1      24.914  39.472  45.784  1.00  0.00    +0.000 O 
ATOM     11  C8  UNL A   1      26.435  37.673  46.072  1.00  0.00    +0.000 C 
ATOM     12  C9  UNL A   1      26.672  36.568  46.784  1.00  0.00    +0.000 C 
ATOM     13  C10 UNL A   1      27.772  35.599  46.542  1.00  0.00    +0.000 C 
ATOM     14  O4  UNL A   1      28.829  35.816  46.006  1.00  0.00    +0.000 O 
ATOM     15  C11 UNL A   1      27.242  34.292  47.020  1.00  0.00    +0.000 C 
ATOM     16  C12 UNL A   1      27.860  33.118  46.866  1.00  0.00    +0.000 C 
ATOM     17  C13 UNL A   1      27.062  31.890  46.978  1.00  0.00    +0.000 C 
ATOM     18  C14 UNL A   1      27.585  30.774  47.649  1.00  0.00    +0.000 C 
ATOM     19  C15 UNL A   1      26.873  29.576  47.641  1.00  0.00    +0.000 C 
ATOM     21  C16 UNL A   1      25.673  29.469  46.943  1.00  0.00    +0.000 C 
ATOM     23  C17 UNL A   1      25.147  30.558  46.271  1.00  0.00    +0.000 C 
ATOM     24  C18 UNL A   1      25.813  31.783  46.326  1.00  0.00    +0.000 C 
ATOM     25  O7  UNL A   1      25.236  32.791  45.600  1.00  0.00    +0.000 O 
ATOM     26  C19 UNL A   1      24.927  34.061  46.235  1.00  0.00    +0.000 C 
ATOM     35  C26 UNL A   1      25.805  34.480  47.469  1.00  0.00    +0.000 C 
ATOM    111  H3  UNL A   1      23.745  36.275  48.568  1.00  0.00    +0.000 H 
ATOM    113  H5  UNL A   1      27.098  37.994  45.350  1.00  0.00    +0.000 H 
ATOM    114  H6  UNL A   1      28.873  33.075  46.674  1.00  0.00    +0.000 H 
ATOM    115  H7  UNL A   1      28.489  30.839  48.143  1.00  0.00    +0.000 H 
ATOM    118  H10 UNL A   1      24.270  30.465  45.734  1.00  0.00    +0.000 H 
ATOM    119  H11 UNL A   1      25.215  34.834  45.552  1.00  0.00    +0.000 H 
ATOM    125  H17 UNL A   1      25.412  33.907  48.283  1.00  0.00    +0.000 H 
BRANCH    7    8
ATOM    112  H4  UNL A   1      22.529  38.371  48.303  1.00  0.00    +0.000 H 
ATOM      8  O2  UNL A   1      22.997  38.469  47.497  1.00  0.00    +0.000 O 
ENDBRANCH    7    8
BRANCH   19   20
ATOM    116  H8  UNL A   1      27.012  27.611  48.034  1.00  0.00    +0.000 H 
ATOM     20  O5  UNL A   1      27.320  28.459  48.291  1.00  0.00    +0.000 O 
ENDBRANCH   19   20
BRANCH   21   22
ATOM    117  H9  UNL A   1      24.102  28.260  46.641  1.00  0.00    +0.000 H 
ATOM     22  O6  UNL A   1      25.000  28.282  46.908  1.00  0.00    +0.000 O 
ENDBRANCH   21   22
BRANCH   26   27
ATOM     34  C25 UNL A   1      22.552  34.790  45.627  1.00  0.00    +0.000 C 
ATOM     28  C21 UNL A   1      22.881  33.419  47.582  1.00  0.00    +0.000 C 
ATOM    120  H12 UNL A   1      23.512  33.002  48.284  1.00  0.00    +0.000 H 
ATOM    121  H13 UNL A   1      21.113  32.731  48.515  1.00  0.00    +0.000 H 
ATOM     27  C20 UNL A   1      23.427  34.105  46.481  1.00  0.00    +0.000 C 
ATOM    124  H16 UNL A   1      22.928  35.341  44.839  1.00  0.00    +0.000 H 
ATOM     29  C22 UNL A   1      21.500  33.295  47.741  1.00  0.00    +0.000 C 
ATOM     30  C23 UNL A   1      20.649  33.937  46.850  1.00  0.00    +0.000 C 
ATOM     32  C24 UNL A   1      21.175  34.730  45.836  1.00  0.00    +0.000 C 
BRANCH   30   31
ATOM    122  H14 UNL A   1      18.796  34.447  47.424  1.00  0.00    +0.000 H 
ATOM     31  O8  UNL A   1      19.297  33.798  46.970  1.00  0.00    +0.000 O 
ENDBRANCH   30   31
BRANCH   32   33
ATOM     33  O9  UNL A   1      20.336  35.437  45.021  1.00  0.00    +0.000 O 
ATOM    123  H15 UNL A   1      20.467  35.428  44.094  1.00  0.00    +0.000 H 
ENDBRANCH   32   33
ENDBRANCH   26   27
ENDBRANCH    4    5
ENDBRANCH    3    4
ENDBRANCH    2    3
ENDBRANCH   36    2
ENDBRANCH   37   36
ENDBRANCH   38   37
ENDBRANCH   39   38
ENDBRANCH   40   39
ENDBRANCH   41   40
ENDBRANCH   42   41
ENDBRANCH   43   42
ENDBRANCH   44   43
ENDBRANCH   46   44
ENDBRANCH   50   49
BRANCH   54   55
ATOM     65  F5  UNL A   1      32.645  33.180  41.900  1.00  0.00    +0.000 F 
ATOM     55  C42 UNL A   1      34.607  33.151  43.248  1.00  0.00    +0.000 C 
ATOM     56  C43 UNL A   1      36.008  33.136  43.286  1.00  0.00    +0.000 C 
ATOM     57  F1  UNL A   1      36.652  33.130  44.462  1.00  0.00    +0.000 F 
ATOM     58  C44 UNL A   1      36.757  33.152  42.110  1.00  0.00    +0.000 C 
ATOM     59  F2  UNL A   1      38.095  33.169  42.170  1.00  0.00    +0.000 F 
ATOM     60  C45 UNL A   1      36.119  33.157  40.878  1.00  0.00    +0.000 C 
ATOM     61  F3  UNL A   1      36.841  33.158  39.749  1.00  0.00    +0.000 F 
ATOM     62  C46 UNL A   1      34.734  33.162  40.817  1.00  0.00    +0.000 C 
ATOM     63  F4  UNL A   1      34.117  33.157  39.628  1.00  0.00    +0.000 F 
ATOM     64  C47 UNL A   1      33.983  33.171  41.991  1.00  0.00    +0.000 C 
ENDBRANCH   54   55
BRANCH   71   72
ATOM     72  C53 UNL A   1      31.974  28.047  47.585  1.00  0.00    +0.000 C 
ATOM     73  C54 UNL A   1      30.861  27.315  47.149  1.00  0.00    +0.000 C 
ATOM     74  F6  UNL A   1      29.759  27.953  46.723  1.00  0.00    +0.000 F 
ATOM     75  C55 UNL A   1      30.865  25.923  47.177  1.00  0.00    +0.000 C 
ATOM     76  F7  UNL A   1      29.777  25.244  46.789  1.00  0.00    +0.000 F 
ATOM     77  C56 UNL A   1      31.990  25.239  47.615  1.00  0.00    +0.000 C 
ATOM     78  F8  UNL A   1      31.995  23.899  47.631  1.00  0.00    +0.000 F 
ATOM     79  C57 UNL A   1      33.106  25.944  48.040  1.00  0.00    +0.000 C 
ATOM     80  F9  UNL A   1      34.197  25.284  48.452  1.00  0.00    +0.000 F 
ATOM     81  C58 UNL A   1      33.095  27.336  48.037  1.00  0.00    +0.000 C 
ATOM     82  F10 UNL A   1      34.188  27.991  48.457  1.00  0.00    +0.000 F 
ENDBRANCH   71   72
BRANCH   86   87
ATOM     97  F15 UNL A   1      27.239  33.533  50.564  1.00  0.00    +0.000 F 
ATOM     87  C62 UNL A   1      29.271  32.999  51.676  1.00  0.00    +0.000 C 
ATOM     88  C63 UNL A   1      29.911  32.731  52.893  1.00  0.00    +0.000 C 
ATOM     89  F11 UNL A   1      31.221  32.445  52.911  1.00  0.00    +0.000 F 
ATOM     90  C64 UNL A   1      29.202  32.734  54.092  1.00  0.00    +0.000 C 
ATOM     91  F12 UNL A   1      29.831  32.446  55.240  1.00  0.00    +0.000 F 
ATOM     92  C65 UNL A   1      27.846  33.025  54.098  1.00  0.00    +0.000 C 
ATOM     93  F13 UNL A   1      27.167  33.041  55.254  1.00  0.00    +0.000 F 
ATOM     94  C66 UNL A   1      27.193  33.298  52.905  1.00  0.00    +0.000 C 
ATOM     95  F14 UNL A   1      25.886  33.595  52.909  1.00  0.00    +0.000 F 
ATOM     96  C67 UNL A   1      27.895  33.270  51.704  1.00  0.00    +0.000 C 
ENDBRANCH   86   87
TORSDOF 23
ENDMDL
