MODEL 1
REMARK VINA RESULT:     -11.0      0.000      0.000
ROOT
ATOM    129  H38 UNL A   1      43.112  26.006  28.382  1.00  0.00    +0.000 H 
ATOM     33  C27 UNL A   1      40.903  27.795  28.663  1.00  0.00    +0.000 C 
ATOM     34  C28 UNL A   1      42.337  28.036  29.032  1.00  0.00    +0.000 C 
ATOM     35  N4  UNL A   1      42.883  29.108  29.548  1.00  0.00    +0.000 N 
ATOM     36  C29 UNL A   1      44.228  28.808  29.718  1.00  0.00    +0.000 C 
ATOM     37  C30 UNL A   1      45.211  29.604  30.202  1.00  0.00    +0.000 C 
ATOM     49  C37 UNL A   1      45.017  30.966  30.631  1.00  0.00    +0.000 C 
ATOM     50  C38 UNL A   1      45.962  31.873  31.080  1.00  0.00    +0.000 C 
ATOM     51  C39 UNL A   1      45.304  33.055  31.434  1.00  0.00    +0.000 C 
ATOM     52  C40 UNL A   1      43.955  32.902  31.163  1.00  0.00    +0.000 C 
ATOM     53  N5  UNL A   1      43.792  31.617  30.670  1.00  0.00    +0.000 N 
ATOM     54  C41 UNL A   1      42.891  33.855  31.348  1.00  0.00    +0.000 C 
ATOM     66  C48 UNL A   1      41.595  33.651  31.013  1.00  0.00    +0.000 C 
ATOM     67  N6  UNL A   1      41.006  32.526  30.455  1.00  0.00    +0.000 N 
ATOM     68  C49 UNL A   1      39.729  32.805  30.351  1.00  0.00    +0.000 C 
ATOM     69  C50 UNL A   1      38.618  31.955  29.807  1.00  0.00    +0.000 C 
ATOM     81  C57 UNL A   1      38.903  30.718  29.360  1.00  0.00    +0.000 C 
ATOM     82  C58 UNL A   1      37.932  29.778  28.816  1.00  0.00    +0.000 C 
ATOM     83  C59 UNL A   1      38.552  28.621  28.546  1.00  0.00    +0.000 C 
ATOM     84  C60 UNL A   1      39.979  28.758  28.847  1.00  0.00    +0.000 C 
ATOM     85  N7  UNL A   1      40.097  30.040  29.320  1.00  0.00    +0.000 N 
ATOM     86  C61 UNL A   1      39.361  34.138  30.843  1.00  0.00    +0.000 C 
ATOM     87  C62 UNL A   1      40.540  34.626  31.201  1.00  0.00    +0.000 C 
ATOM     88  C63 UNL A   1      44.416  27.446  29.265  1.00  0.00    +0.000 C 
ATOM     89  C64 UNL A   1      43.284  26.934  28.798  1.00  0.00    +0.000 C 
ATOM    120  H29 UNL A   1      46.979  31.705  31.142  1.00  0.00    +0.000 H 
ATOM    121  H30 UNL A   1      45.750  33.898  31.830  1.00  0.00    +0.000 H 
ATOM    122  H31 UNL A   1      42.934  31.225  30.389  1.00  0.00    +0.000 H 
ATOM    123  H32 UNL A   1      36.929  29.973  28.662  1.00  0.00    +0.000 H 
ATOM    124  H33 UNL A   1      38.096  27.768  28.186  1.00  0.00    +0.000 H 
ATOM    125  H34 UNL A   1      40.953  30.434  29.603  1.00  0.00    +0.000 H 
ATOM    126  H35 UNL A   1      38.429  34.579  30.896  1.00  0.00    +0.000 H 
ATOM    127  H36 UNL A   1      40.688  35.579  31.568  1.00  0.00    +0.000 H 
ATOM    128  H37 UNL A   1      45.315  26.938  29.300  1.00  0.00    +0.000 H 
ENDROOT
BRANCH   33   32
ATOM    130  H39 UNL A   1      39.460  25.794  29.799  1.00  0.00    +0.000 H 
ATOM    131  H40 UNL A   1      38.664  23.749  28.757  1.00  0.00    +0.000 H 
ATOM    118  H27 UNL A   1      40.340  24.968  25.094  1.00  0.00    +0.000 H 
ATOM    119  H28 UNL A   1      41.340  26.883  26.188  1.00  0.00    +0.000 H 
ATOM     90  C65 UNL A   1      39.683  25.598  28.810  1.00  0.00    +0.000 C 
ATOM     91  C66 UNL A   1      39.213  24.428  28.208  1.00  0.00    +0.000 C 
ATOM     29  C23 UNL A   1      39.487  24.181  26.860  1.00  0.00    +0.000 C 
ATOM     30  C24 UNL A   1      40.205  25.114  26.106  1.00  0.00    +0.000 C 
ATOM     31  C25 UNL A   1      40.738  26.240  26.725  1.00  0.00    +0.000 C 
ATOM     32  C26 UNL A   1      40.461  26.506  28.075  1.00  0.00    +0.000 C 
BRANCH   29    2
ATOM      1  O1  UNL A   1      39.735  21.978  26.095  1.00  0.00    +0.000 O 
ATOM      2  C1  UNL A   1      38.985  22.938  26.237  1.00  0.00    +0.000 C 
BRANCH    2    3
ATOM      3  N1  UNL A   1      37.680  22.871  25.811  1.00  0.00    +0.000 N 
ATOM     92  H1  UNL A   1      37.158  22.109  26.152  1.00  0.00    +0.000 H 
BRANCH    3    4
ATOM      4  C2  UNL A   1      36.969  23.776  24.924  1.00  0.00    +0.000 C 
ATOM     93  H2  UNL A   1      37.635  24.561  24.629  1.00  0.00    +0.000 H 
ATOM     94  H3  UNL A   1      36.124  24.160  25.456  1.00  0.00    +0.000 H 
BRANCH    4    5
ATOM      5  C3  UNL A   1      36.456  23.073  23.675  1.00  0.00    +0.000 C 
ATOM     95  H4  UNL A   1      36.391  22.027  23.883  1.00  0.00    +0.000 H 
ATOM     96  H5  UNL A   1      37.148  23.303  22.891  1.00  0.00    +0.000 H 
BRANCH    5    6
ATOM     97  H6  UNL A   1      34.411  22.722  23.239  1.00  0.00    +0.000 H 
ATOM     98  H7  UNL A   1      35.231  23.934  22.209  1.00  0.00    +0.000 H 
ATOM      6  C4  UNL A   1      35.084  23.552  23.197  1.00  0.00    +0.000 C 
BRANCH    6    7
ATOM     99  H8  UNL A   1      35.273  25.326  24.348  1.00  0.00    +0.000 H 
ATOM    100  H9  UNL A   1      33.925  24.237  24.805  1.00  0.00    +0.000 H 
ATOM      7  C5  UNL A   1      34.474  24.699  24.011  1.00  0.00    +0.000 C 
BRANCH    7    8
ATOM    101  H10 UNL A   1      32.694  24.948  22.870  1.00  0.00    +0.000 H 
ATOM    102  H11 UNL A   1      34.015  26.084  22.488  1.00  0.00    +0.000 H 
ATOM      8  C6  UNL A   1      33.467  25.579  23.257  1.00  0.00    +0.000 C 
BRANCH    8    9
ATOM      9  C7  UNL A   1      32.815  26.664  24.114  1.00  0.00    +0.000 C 
ATOM    103  H12 UNL A   1      32.383  27.404  23.472  1.00  0.00    +0.000 H 
ATOM    104  H13 UNL A   1      33.564  27.100  24.740  1.00  0.00    +0.000 H 
BRANCH    9   10
ATOM    105  H14 UNL A   1      31.749  26.464  25.875  1.00  0.00    +0.000 H 
ATOM     10  N2  UNL A   1      31.778  26.108  24.958  1.00  0.00    +0.000 N 
BRANCH   10   11
ATOM     11  C8  UNL A   1      30.832  25.164  24.671  1.00  0.00    +0.000 C 
ATOM     12  O2  UNL A   1      29.964  25.473  23.856  1.00  0.00    +0.000 O 
BRANCH   11   13
ATOM    106  H15 UNL A   1      29.884  23.636  25.649  1.00  0.00    +0.000 H 
ATOM    107  H16 UNL A   1      31.339  24.000  27.502  1.00  0.00    +0.000 H 
ATOM    108  H17 UNL A   1      32.599  24.620  26.503  1.00  0.00    +0.000 H 
ATOM     13  C9  UNL A   1      30.906  23.815  25.386  1.00  0.00    +0.000 C 
ATOM     14  C10 UNL A   1      31.878  23.833  26.592  1.00  0.00    +0.000 C 
ATOM     15  C11 UNL A   1      32.551  22.453  26.617  1.00  0.00    +0.000 C 
ATOM     16  N3  UNL A   1      32.394  21.982  25.253  1.00  0.00    +0.000 N 
ATOM    109  H18 UNL A   1      32.060  21.800  27.307  1.00  0.00    +0.000 H 
ATOM    110  H19 UNL A   1      33.573  22.491  26.932  1.00  0.00    +0.000 H 
ATOM     17  C12 UNL A   1      32.961  21.015  24.479  1.00  0.00    +0.000 C 
ATOM    116  H25 UNL A   1      32.596  20.623  22.383  1.00  0.00    +0.000 H 
ATOM    117  H26 UNL A   1      30.867  22.614  22.492  1.00  0.00    +0.000 H 
ATOM     26  C20 UNL A   1      32.382  21.189  23.219  1.00  0.00    +0.000 C 
ATOM     27  C21 UNL A   1      31.453  22.263  23.265  1.00  0.00    +0.000 C 
ATOM     28  C22 UNL A   1      31.499  22.736  24.547  1.00  0.00    +0.000 C 
BRANCH   17   18
ATOM     18  C13 UNL A   1      33.987  20.039  24.808  1.00  0.00    +0.000 C 
ATOM     19  O3  UNL A   1      35.125  20.355  25.152  1.00  0.00    +0.000 O 
BRANCH   18   20
ATOM    111  H20 UNL A   1      32.257  18.692  26.300  1.00  0.00    +0.000 H 
ATOM    112  H21 UNL A   1      31.745  16.319  26.260  1.00  0.00    +0.000 H 
ATOM    113  H22 UNL A   1      32.898  14.856  24.706  1.00  0.00    +0.000 H 
ATOM    114  H23 UNL A   1      34.597  15.749  23.222  1.00  0.00    +0.000 H 
ATOM    115  H24 UNL A   1      35.134  18.120  23.275  1.00  0.00    +0.000 H 
ATOM     20  C14 UNL A   1      33.701  18.589  24.759  1.00  0.00    +0.000 C 
ATOM     21  C15 UNL A   1      32.745  18.069  25.639  1.00  0.00    +0.000 C 
ATOM     22  C16 UNL A   1      32.454  16.705  25.619  1.00  0.00    +0.000 C 
ATOM     23  C17 UNL A   1      33.123  15.863  24.730  1.00  0.00    +0.000 C 
ATOM     24  C18 UNL A   1      34.098  16.377  23.872  1.00  0.00    +0.000 C 
ATOM     25  C19 UNL A   1      34.400  17.740  23.894  1.00  0.00    +0.000 C 
ENDBRANCH   18   20
ENDBRANCH   17   18
ENDBRANCH   11   13
ENDBRANCH   10   11
ENDBRANCH    9   10
ENDBRANCH    8    9
ENDBRANCH    7    8
ENDBRANCH    6    7
ENDBRANCH    5    6
ENDBRANCH    4    5
ENDBRANCH    3    4
ENDBRANCH    2    3
ENDBRANCH   29    2
ENDBRANCH   33   32
BRANCH   37   38
ATOM     38  C31 UNL A   1      46.593  29.033  30.311  1.00  0.00    +0.000 C 
ATOM     39  C32 UNL A   1      47.025  28.364  31.464  1.00  0.00    +0.000 C 
ATOM     40  F1  UNL A   1      46.233  28.304  32.546  1.00  0.00    +0.000 F 
ATOM     41  C33 UNL A   1      48.280  27.763  31.516  1.00  0.00    +0.000 C 
ATOM     42  F2  UNL A   1      48.682  27.146  32.637  1.00  0.00    +0.000 F 
ATOM     43  C34 UNL A   1      49.117  27.801  30.410  1.00  0.00    +0.000 C 
ATOM     44  F3  UNL A   1      50.318  27.205  30.456  1.00  0.00    +0.000 F 
ATOM     45  C35 UNL A   1      48.710  28.455  29.258  1.00  0.00    +0.000 C 
ATOM     46  F4  UNL A   1      49.512  28.480  28.184  1.00  0.00    +0.000 F 
ATOM     47  C36 UNL A   1      47.464  29.074  29.210  1.00  0.00    +0.000 C 
ATOM     48  F5  UNL A   1      47.096  29.696  28.080  1.00  0.00    +0.000 F 
ENDBRANCH   37   38
BRANCH   54   55
ATOM     65  F10 UNL A   1      43.798  36.060  29.798  1.00  0.00    +0.000 F 
ATOM     55  C42 UNL A   1      43.236  35.188  31.940  1.00  0.00    +0.000 C 
ATOM     56  C43 UNL A   1      43.137  35.423  33.319  1.00  0.00    +0.000 C 
ATOM     57  F6  UNL A   1      42.695  34.456  34.138  1.00  0.00    +0.000 F 
ATOM     58  C44 UNL A   1      43.452  36.668  33.856  1.00  0.00    +0.000 C 
ATOM     59  F7  UNL A   1      43.303  36.885  35.170  1.00  0.00    +0.000 F 
ATOM     60  C45 UNL A   1      43.900  37.689  33.030  1.00  0.00    +0.000 C 
ATOM     61  F8  UNL A   1      44.204  38.886  33.550  1.00  0.00    +0.000 F 
ATOM     62  C46 UNL A   1      44.024  37.472  31.666  1.00  0.00    +0.000 C 
ATOM     63  F9  UNL A   1      44.466  38.454  30.869  1.00  0.00    +0.000 F 
ATOM     64  C47 UNL A   1      43.685  36.237  31.122  1.00  0.00    +0.000 C 
ENDBRANCH   54   55
BRANCH   69   70
ATOM     70  C51 UNL A   1      37.219  32.450  29.771  1.00  0.00    +0.000 C 
ATOM     71  C52 UNL A   1      36.341  32.217  30.838  1.00  0.00    +0.000 C 
ATOM     72  F11 UNL A   1      36.756  31.519  31.906  1.00  0.00    +0.000 F 
ATOM     73  C53 UNL A   1      35.024  32.667  30.794  1.00  0.00    +0.000 C 
ATOM     74  F12 UNL A   1      34.191  32.392  31.808  1.00  0.00    +0.000 F 
ATOM     75  C54 UNL A   1      34.568  33.385  29.700  1.00  0.00    +0.000 C 
ATOM     76  F13 UNL A   1      33.302  33.821  29.661  1.00  0.00    +0.000 F 
ATOM     77  C55 UNL A   1      35.425  33.645  28.641  1.00  0.00    +0.000 C 
ATOM     78  F14 UNL A   1      34.994  34.353  27.587  1.00  0.00    +0.000 F 
ATOM     79  C56 UNL A   1      36.733  33.169  28.668  1.00  0.00    +0.000 C 
ATOM     80  F15 UNL A   1      37.536  33.424  27.625  1.00  0.00    +0.000 F 
ENDBRANCH   69   70
TORSDOF 17
ENDMDL
MODEL 2
REMARK VINA RESULT:     -11.0      2.420      7.536
ROOT
ATOM    129  H38 UNL A   1      38.711  26.304  28.582  1.00  0.00    +0.000 H 
ATOM     33  C27 UNL A   1      41.397  26.303  27.610  1.00  0.00    +0.000 C 
ATOM     34  C28 UNL A   1      40.695  27.384  28.379  1.00  0.00    +0.000 C 
ATOM     35  N4  UNL A   1      41.158  28.543  28.774  1.00  0.00    +0.000 N 
ATOM     36  C29 UNL A   1      40.104  29.173  29.421  1.00  0.00    +0.000 C 
ATOM     37  C30 UNL A   1      40.094  30.388  30.021  1.00  0.00    +0.000 C 
ATOM     49  C37 UNL A   1      41.235  31.265  30.100  1.00  0.00    +0.000 C 
ATOM     50  C38 UNL A   1      41.339  32.489  30.739  1.00  0.00    +0.000 C 
ATOM     51  C39 UNL A   1      42.620  33.000  30.503  1.00  0.00    +0.000 C 
ATOM     52  C40 UNL A   1      43.329  32.075  29.756  1.00  0.00    +0.000 C 
ATOM     53  N5  UNL A   1      42.469  31.015  29.516  1.00  0.00    +0.000 N 
ATOM     54  C41 UNL A   1      44.688  32.155  29.288  1.00  0.00    +0.000 C 
ATOM     66  C48 UNL A   1      45.334  31.183  28.600  1.00  0.00    +0.000 C 
ATOM     67  N6  UNL A   1      44.861  29.947  28.186  1.00  0.00    +0.000 N 
ATOM     68  C49 UNL A   1      45.848  29.387  27.530  1.00  0.00    +0.000 C 
ATOM     69  C50 UNL A   1      45.899  28.042  26.868  1.00  0.00    +0.000 C 
ATOM     81  C57 UNL A   1      44.807  27.256  26.906  1.00  0.00    +0.000 C 
ATOM     82  C58 UNL A   1      44.704  25.933  26.301  1.00  0.00    +0.000 C 
ATOM     83  C59 UNL A   1      43.455  25.478  26.465  1.00  0.00    +0.000 C 
ATOM     84  C60 UNL A   1      42.683  26.455  27.237  1.00  0.00    +0.000 C 
ATOM     85  N7  UNL A   1      43.570  27.477  27.460  1.00  0.00    +0.000 N 
ATOM     86  C61 UNL A   1      47.059  30.212  27.443  1.00  0.00    +0.000 C 
ATOM     87  C62 UNL A   1      46.706  31.280  28.143  1.00  0.00    +0.000 C 
ATOM     88  C63 UNL A   1      38.971  28.276  29.355  1.00  0.00    +0.000 C 
ATOM     89  C64 UNL A   1      39.293  27.140  28.749  1.00  0.00    +0.000 C 
ATOM    120  H29 UNL A   1      40.599  32.947  31.295  1.00  0.00    +0.000 H 
ATOM    121  H30 UNL A   1      42.975  33.912  30.831  1.00  0.00    +0.000 H 
ATOM    122  H31 UNL A   1      42.699  30.205  29.007  1.00  0.00    +0.000 H 
ATOM    123  H32 UNL A   1      45.470  25.429  25.826  1.00  0.00    +0.000 H 
ATOM    124  H33 UNL A   1      43.093  24.581  26.103  1.00  0.00    +0.000 H 
ATOM    125  H34 UNL A   1      43.342  28.289  27.967  1.00  0.00    +0.000 H 
ATOM    126  H35 UNL A   1      47.951  30.012  26.964  1.00  0.00    +0.000 H 
ATOM    127  H36 UNL A   1      47.328  32.081  28.338  1.00  0.00    +0.000 H 
ATOM    128  H37 UNL A   1      38.033  28.492  29.729  1.00  0.00    +0.000 H 
ENDROOT
BRANCH   33   32
ATOM    130  H39 UNL A   1      39.386  25.882  25.835  1.00  0.00    +0.000 H 
ATOM    131  H40 UNL A   1      38.371  23.768  25.201  1.00  0.00    +0.000 H 
ATOM    118  H27 UNL A   1      41.022  21.733  27.760  1.00  0.00    +0.000 H 
ATOM    119  H28 UNL A   1      41.866  23.853  28.572  1.00  0.00    +0.000 H 
ATOM     90  C65 UNL A   1      39.704  25.004  26.276  1.00  0.00    +0.000 C 
ATOM     91  C66 UNL A   1      39.129  23.787  25.900  1.00  0.00    +0.000 C 
ATOM     29  C23 UNL A   1      39.586  22.596  26.472  1.00  0.00    +0.000 C 
ATOM     30  C24 UNL A   1      40.634  22.618  27.397  1.00  0.00    +0.000 C 
ATOM     31  C25 UNL A   1      41.153  23.834  27.826  1.00  0.00    +0.000 C 
ATOM     32  C26 UNL A   1      40.711  25.037  27.252  1.00  0.00    +0.000 C 
BRANCH   29    2
ATOM      1  O1  UNL A   1      39.520  20.256  26.341  1.00  0.00    +0.000 O 
ATOM      2  C1  UNL A   1      38.968  21.317  26.066  1.00  0.00    +0.000 C 
BRANCH    2    3
ATOM      3  N1  UNL A   1      37.781  21.325  25.374  1.00  0.00    +0.000 N 
ATOM     92  H1  UNL A   1      37.827  21.003  24.444  1.00  0.00    +0.000 H 
BRANCH    3    4
ATOM      4  C2  UNL A   1      36.468  21.745  25.831  1.00  0.00    +0.000 C 
ATOM     93  H2  UNL A   1      36.553  22.100  26.838  1.00  0.00    +0.000 H 
ATOM     94  H3  UNL A   1      35.813  20.902  25.768  1.00  0.00    +0.000 H 
BRANCH    4    5
ATOM      5  C3  UNL A   1      35.885  22.856  24.968  1.00  0.00    +0.000 C 
ATOM     95  H4  UNL A   1      35.193  22.418  24.282  1.00  0.00    +0.000 H 
ATOM     96  H5  UNL A   1      36.714  23.329  24.483  1.00  0.00    +0.000 H 
BRANCH    5    6
ATOM     97  H6  UNL A   1      35.865  24.422  26.397  1.00  0.00    +0.000 H 
ATOM     98  H7  UNL A   1      34.360  23.464  26.270  1.00  0.00    +0.000 H 
ATOM      6  C4  UNL A   1      35.157  23.951  25.749  1.00  0.00    +0.000 C 
BRANCH    6    7
ATOM     99  H8  UNL A   1      33.571  24.656  24.526  1.00  0.00    +0.000 H 
ATOM    100  H9  UNL A   1      35.205  25.266  24.116  1.00  0.00    +0.000 H 
ATOM      7  C5  UNL A   1      34.502  25.039  24.890  1.00  0.00    +0.000 C 
BRANCH    7    8
ATOM    101  H10 UNL A   1      34.904  27.101  25.236  1.00  0.00    +0.000 H 
ATOM    102  H11 UNL A   1      34.342  26.180  26.656  1.00  0.00    +0.000 H 
ATOM      8  C6  UNL A   1      34.221  26.365  25.609  1.00  0.00    +0.000 C 
BRANCH    8    9
ATOM      9  C7  UNL A   1      32.799  26.895  25.420  1.00  0.00    +0.000 C 
ATOM    103  H12 UNL A   1      32.811  27.963  25.495  1.00  0.00    +0.000 H 
ATOM    104  H13 UNL A   1      32.175  26.472  26.178  1.00  0.00    +0.000 H 
BRANCH    9   10
ATOM    105  H14 UNL A   1      32.925  26.520  23.390  1.00  0.00    +0.000 H 
ATOM     10  N2  UNL A   1      32.271  26.518  24.125  1.00  0.00    +0.000 N 
BRANCH   10   11
ATOM     11  C8  UNL A   1      31.000  26.159  23.773  1.00  0.00    +0.000 C 
ATOM     12  O2  UNL A   1      30.328  26.999  23.176  1.00  0.00    +0.000 O 
BRANCH   11   13
ATOM    106  H15 UNL A   1      29.544  24.724  23.681  1.00  0.00    +0.000 H 
ATOM    107  H16 UNL A   1      29.478  24.724  26.064  1.00  0.00    +0.000 H 
ATOM    108  H17 UNL A   1      31.124  25.219  26.196  1.00  0.00    +0.000 H 
ATOM     13  C9  UNL A   1      30.503  24.765  24.155  1.00  0.00    +0.000 C 
ATOM     14  C10 UNL A   1      30.465  24.546  25.688  1.00  0.00    +0.000 C 
ATOM     15  C11 UNL A   1      30.867  23.082  25.918  1.00  0.00    +0.000 C 
ATOM     16  N3  UNL A   1      31.596  22.743  24.710  1.00  0.00    +0.000 N 
ATOM    109  H18 UNL A   1      30.004  22.460  26.031  1.00  0.00    +0.000 H 
ATOM    110  H19 UNL A   1      31.443  22.941  26.809  1.00  0.00    +0.000 H 
ATOM     17  C12 UNL A   1      32.462  21.762  24.330  1.00  0.00    +0.000 C 
ATOM    116  H25 UNL A   1      33.511  21.587  22.447  1.00  0.00    +0.000 H 
ATOM    117  H26 UNL A   1      32.261  23.803  21.745  1.00  0.00    +0.000 H 
ATOM     26  C20 UNL A   1      32.847  22.114  23.034  1.00  0.00    +0.000 C 
ATOM     27  C21 UNL A   1      32.184  23.310  22.648  1.00  0.00    +0.000 C 
ATOM     28  C22 UNL A   1      31.423  23.674  23.725  1.00  0.00    +0.000 C 
BRANCH   17   18
ATOM     18  C13 UNL A   1      32.964  20.619  25.078  1.00  0.00    +0.000 C 
ATOM     19  O3  UNL A   1      33.112  20.632  26.298  1.00  0.00    +0.000 O 
BRANCH   18   20
ATOM    111  H20 UNL A   1      31.528  19.333  23.256  1.00  0.00    +0.000 H 
ATOM    112  H21 UNL A   1      32.048  17.263  22.098  1.00  0.00    +0.000 H 
ATOM    113  H22 UNL A   1      34.121  16.097  22.576  1.00  0.00    +0.000 H 
ATOM    114  H23 UNL A   1      35.655  16.966  24.242  1.00  0.00    +0.000 H 
ATOM    115  H24 UNL A   1      35.128  19.024  25.424  1.00  0.00    +0.000 H 
ATOM     20  C14 UNL A   1      33.311  19.356  24.392  1.00  0.00    +0.000 C 
ATOM     21  C15 UNL A   1      32.409  18.837  23.456  1.00  0.00    +0.000 C 
ATOM     22  C16 UNL A   1      32.707  17.645  22.795  1.00  0.00    +0.000 C 
ATOM     23  C17 UNL A   1      33.896  16.971  23.076  1.00  0.00    +0.000 C 
ATOM     24  C18 UNL A   1      34.781  17.473  24.031  1.00  0.00    +0.000 C 
ATOM     25  C19 UNL A   1      34.485  18.661  24.703  1.00  0.00    +0.000 C 
ENDBRANCH   18   20
ENDBRANCH   17   18
ENDBRANCH   11   13
ENDBRANCH   10   11
ENDBRANCH    9   10
ENDBRANCH    8    9
ENDBRANCH    7    8
ENDBRANCH    6    7
ENDBRANCH    5    6
ENDBRANCH    4    5
ENDBRANCH    3    4
ENDBRANCH    2    3
ENDBRANCH   29    2
ENDBRANCH   33   32
BRANCH   37   38
ATOM     38  C31 UNL A   1      38.811  30.862  30.637  1.00  0.00    +0.000 C 
ATOM     39  C32 UNL A   1      37.782  31.413  29.861  1.00  0.00    +0.000 C 
ATOM     40  F1  UNL A   1      37.963  31.620  28.548  1.00  0.00    +0.000 F 
ATOM     41  C33 UNL A   1      36.563  31.766  30.436  1.00  0.00    +0.000 C 
ATOM     42  F2  UNL A   1      35.599  32.311  29.679  1.00  0.00    +0.000 F 
ATOM     43  C34 UNL A   1      36.343  31.554  31.789  1.00  0.00    +0.000 C 
ATOM     44  F3  UNL A   1      35.162  31.877  32.336  1.00  0.00    +0.000 F 
ATOM     45  C35 UNL A   1      37.346  31.008  32.574  1.00  0.00    +0.000 C 
ATOM     46  F4  UNL A   1      37.130  30.792  33.880  1.00  0.00    +0.000 F 
ATOM     47  C36 UNL A   1      38.573  30.674  32.007  1.00  0.00    +0.000 C 
ATOM     48  F5  UNL A   1      39.523  30.144  32.793  1.00  0.00    +0.000 F 
ENDBRANCH   37   38
BRANCH   54   55
ATOM     65  F10 UNL A   1      44.726  34.431  27.585  1.00  0.00    +0.000 F 
ATOM     55  C42 UNL A   1      45.467  33.398  29.596  1.00  0.00    +0.000 C 
ATOM     56  C43 UNL A   1      46.243  33.505  30.760  1.00  0.00    +0.000 C 
ATOM     57  F6  UNL A   1      46.274  32.496  31.645  1.00  0.00    +0.000 F 
ATOM     58  C44 UNL A   1      46.954  34.668  31.039  1.00  0.00    +0.000 C 
ATOM     59  F7  UNL A   1      47.649  34.767  32.182  1.00  0.00    +0.000 F 
ATOM     60  C45 UNL A   1      46.929  35.730  30.148  1.00  0.00    +0.000 C 
ATOM     61  F8  UNL A   1      47.617  36.848  30.419  1.00  0.00    +0.000 F 
ATOM     62  C46 UNL A   1      46.185  35.638  28.982  1.00  0.00    +0.000 C 
ATOM     63  F9  UNL A   1      46.168  36.659  28.115  1.00  0.00    +0.000 F 
ATOM     64  C47 UNL A   1      45.451  34.487  28.712  1.00  0.00    +0.000 C 
ENDBRANCH   54   55
BRANCH   69   70
ATOM     70  C51 UNL A   1      47.122  27.576  26.166  1.00  0.00    +0.000 C 
ATOM     71  C52 UNL A   1      47.257  27.717  24.779  1.00  0.00    +0.000 C 
ATOM     72  F11 UNL A   1      46.263  28.262  24.061  1.00  0.00    +0.000 F 
ATOM     73  C53 UNL A   1      48.396  27.264  24.119  1.00  0.00    +0.000 C 
ATOM     74  F12 UNL A   1      48.482  27.369  22.785  1.00  0.00    +0.000 F 
ATOM     75  C54 UNL A   1      49.436  26.691  24.836  1.00  0.00    +0.000 C 
ATOM     76  F13 UNL A   1      50.533  26.260  24.201  1.00  0.00    +0.000 F 
ATOM     77  C55 UNL A   1      49.332  26.559  26.213  1.00  0.00    +0.000 C 
ATOM     78  F14 UNL A   1      50.341  26.021  26.913  1.00  0.00    +0.000 F 
ATOM     79  C56 UNL A   1      48.181  26.983  26.870  1.00  0.00    +0.000 C 
ATOM     80  F15 UNL A   1      48.102  26.833  28.200  1.00  0.00    +0.000 F 
ENDBRANCH   69   70
TORSDOF 17
ENDMDL
MODEL 3
REMARK VINA RESULT:     -10.9      2.103      2.966
ROOT
ATOM    129  H38 UNL A   1      43.305  24.784  26.178  1.00  0.00    +0.000 H 
ATOM     33  C27 UNL A   1      41.486  26.474  27.591  1.00  0.00    +0.000 C 
ATOM     34  C28 UNL A   1      42.931  26.732  27.276  1.00  0.00    +0.000 C 
ATOM     35  N4  UNL A   1      43.660  27.780  27.569  1.00  0.00    +0.000 N 
ATOM     36  C29 UNL A   1      44.929  27.511  27.076  1.00  0.00    +0.000 C 
ATOM     37  C30 UNL A   1      46.030  28.299  27.117  1.00  0.00    +0.000 C 
ATOM     49  C37 UNL A   1      46.064  29.618  27.697  1.00  0.00    +0.000 C 
ATOM     50  C38 UNL A   1      47.116  30.518  27.734  1.00  0.00    +0.000 C 
ATOM     51  C39 UNL A   1      46.704  31.648  28.447  1.00  0.00    +0.000 C 
ATOM     52  C40 UNL A   1      45.380  31.472  28.817  1.00  0.00    +0.000 C 
ATOM     53  N5  UNL A   1      45.000  30.224  28.350  1.00  0.00    +0.000 N 
ATOM     54  C41 UNL A   1      44.528  32.374  29.548  1.00  0.00    +0.000 C 
ATOM     66  C48 UNL A   1      43.222  32.153  29.832  1.00  0.00    +0.000 C 
ATOM     67  N6  UNL A   1      42.435  31.056  29.517  1.00  0.00    +0.000 N 
ATOM     68  C49 UNL A   1      41.256  31.300  30.036  1.00  0.00    +0.000 C 
ATOM     69  C50 UNL A   1      40.015  30.459  29.997  1.00  0.00    +0.000 C 
ATOM     81  C57 UNL A   1      40.053  29.270  29.369  1.00  0.00    +0.000 C 
ATOM     82  C58 UNL A   1      38.934  28.342  29.257  1.00  0.00    +0.000 C 
ATOM     83  C59 UNL A   1      39.352  27.230  28.638  1.00  0.00    +0.000 C 
ATOM     84  C60 UNL A   1      40.758  27.390  28.259  1.00  0.00    +0.000 C 
ATOM     85  N7  UNL A   1      41.089  28.635  28.728  1.00  0.00    +0.000 N 
ATOM     86  C61 UNL A   1      41.165  32.579  30.751  1.00  0.00    +0.000 C 
ATOM     87  C62 UNL A   1      42.379  33.076  30.564  1.00  0.00    +0.000 C 
ATOM     88  C63 UNL A   1      44.878  26.194  26.477  1.00  0.00    +0.000 C 
ATOM     89  C64 UNL A   1      43.656  25.683  26.544  1.00  0.00    +0.000 C 
ATOM    120  H29 UNL A   1      48.046  30.379  27.307  1.00  0.00    +0.000 H 
ATOM    121  H30 UNL A   1      47.287  32.472  28.661  1.00  0.00    +0.000 H 
ATOM    122  H31 UNL A   1      44.107  29.826  28.464  1.00  0.00    +0.000 H 
ATOM    123  H32 UNL A   1      37.975  28.516  29.599  1.00  0.00    +0.000 H 
ATOM    124  H33 UNL A   1      38.776  26.393  28.459  1.00  0.00    +0.000 H 
ATOM    125  H34 UNL A   1      41.982  29.034  28.616  1.00  0.00    +0.000 H 
ATOM    126  H35 UNL A   1      40.366  32.984  31.263  1.00  0.00    +0.000 H 
ATOM    127  H36 UNL A   1      42.686  34.004  30.899  1.00  0.00    +0.000 H 
ATOM    128  H37 UNL A   1      45.689  25.715  26.052  1.00  0.00    +0.000 H 
ENDROOT
BRANCH   33   32
ATOM    130  H39 UNL A   1      41.850  23.940  28.500  1.00  0.00    +0.000 H 
ATOM    131  H40 UNL A   1      40.642  21.934  27.854  1.00  0.00    +0.000 H 
ATOM    118  H27 UNL A   1      38.233  24.221  25.269  1.00  0.00    +0.000 H 
ATOM    119  H28 UNL A   1      39.592  26.173  25.729  1.00  0.00    +0.000 H 
ATOM     90  C65 UNL A   1      41.110  23.992  27.782  1.00  0.00    +0.000 C 
ATOM     91  C66 UNL A   1      40.406  22.840  27.421  1.00  0.00    +0.000 C 
ATOM     29  C23 UNL A   1      39.381  22.919  26.474  1.00  0.00    +0.000 C 
ATOM     30  C24 UNL A   1      39.040  24.151  25.909  1.00  0.00    +0.000 C 
ATOM     31  C25 UNL A   1      39.790  25.282  26.211  1.00  0.00    +0.000 C 
ATOM     32  C26 UNL A   1      40.815  25.220  27.169  1.00  0.00    +0.000 C 
BRANCH   29    2
ATOM      1  O1  UNL A   1      39.190  20.596  26.210  1.00  0.00    +0.000 O 
ATOM      2  C1  UNL A   1      38.647  21.692  26.101  1.00  0.00    +0.000 C 
BRANCH    2    3
ATOM      3  N1  UNL A   1      37.362  21.787  25.624  1.00  0.00    +0.000 N 
ATOM     92  H1  UNL A   1      36.652  21.790  26.307  1.00  0.00    +0.000 H 
BRANCH    3    4
ATOM      4  C2  UNL A   1      36.913  21.886  24.246  1.00  0.00    +0.000 C 
ATOM     93  H2  UNL A   1      36.654  20.907  23.899  1.00  0.00    +0.000 H 
ATOM     94  H3  UNL A   1      37.709  22.307  23.670  1.00  0.00    +0.000 H 
BRANCH    4    5
ATOM      5  C3  UNL A   1      35.699  22.794  24.100  1.00  0.00    +0.000 C 
ATOM     95  H4  UNL A   1      34.831  22.179  24.001  1.00  0.00    +0.000 H 
ATOM     96  H5  UNL A   1      35.880  23.405  23.240  1.00  0.00    +0.000 H 
BRANCH    5    6
ATOM     97  H6  UNL A   1      36.434  24.090  25.608  1.00  0.00    +0.000 H 
ATOM     98  H7  UNL A   1      34.937  23.195  26.010  1.00  0.00    +0.000 H 
ATOM      6  C4  UNL A   1      35.477  23.750  25.273  1.00  0.00    +0.000 C 
BRANCH    6    7
ATOM     99  H8  UNL A   1      35.190  25.853  25.207  1.00  0.00    +0.000 H 
ATOM    100  H9  UNL A   1      33.725  24.874  25.531  1.00  0.00    +0.000 H 
ATOM      7  C5  UNL A   1      34.621  24.982  24.956  1.00  0.00    +0.000 C 
BRANCH    7    8
ATOM    101  H10 UNL A   1      33.612  24.241  23.235  1.00  0.00    +0.000 H 
ATOM    102  H11 UNL A   1      35.061  25.227  22.909  1.00  0.00    +0.000 H 
ATOM      8  C6  UNL A   1      34.172  25.115  23.494  1.00  0.00    +0.000 C 
BRANCH    8    9
ATOM      9  C7  UNL A   1      33.304  26.340  23.211  1.00  0.00    +0.000 C 
ATOM    103  H12 UNL A   1      32.927  26.278  22.211  1.00  0.00    +0.000 H 
ATOM    104  H13 UNL A   1      33.904  27.218  23.333  1.00  0.00    +0.000 H 
BRANCH    9   10
ATOM    105  H14 UNL A   1      32.346  26.961  24.935  1.00  0.00    +0.000 H 
ATOM     10  N2  UNL A   1      32.190  26.414  24.133  1.00  0.00    +0.000 N 
BRANCH   10   11
ATOM     11  C8  UNL A   1      30.952  25.838  24.053  1.00  0.00    +0.000 C 
ATOM     12  O2  UNL A   1      30.142  26.359  23.287  1.00  0.00    +0.000 O 
BRANCH   11   13
ATOM    106  H15 UNL A   1      29.589  24.577  24.913  1.00  0.00    +0.000 H 
ATOM    107  H16 UNL A   1      30.547  25.086  27.036  1.00  0.00    +0.000 H 
ATOM    108  H17 UNL A   1      32.094  25.421  26.354  1.00  0.00    +0.000 H 
ATOM     13  C9  UNL A   1      30.659  24.616  24.923  1.00  0.00    +0.000 C 
ATOM     14  C10 UNL A   1      31.278  24.729  26.338  1.00  0.00    +0.000 C 
ATOM     15  C11 UNL A   1      31.731  23.312  26.718  1.00  0.00    +0.000 C 
ATOM     16  N3  UNL A   1      31.873  22.652  25.433  1.00  0.00    +0.000 N 
ATOM    109  H18 UNL A   1      30.996  22.823  27.321  1.00  0.00    +0.000 H 
ATOM    110  H19 UNL A   1      32.632  23.302  27.296  1.00  0.00    +0.000 H 
ATOM     17  C12 UNL A   1      32.488  21.528  24.972  1.00  0.00    +0.000 C 
ATOM    116  H25 UNL A   1      32.632  20.852  22.922  1.00  0.00    +0.000 H 
ATOM    117  H26 UNL A   1      31.213  22.990  22.302  1.00  0.00    +0.000 H 
ATOM     26  C20 UNL A   1      32.285  21.558  23.590  1.00  0.00    +0.000 C 
ATOM     27  C21 UNL A   1      31.527  22.709  23.244  1.00  0.00    +0.000 C 
ATOM     28  C22 UNL A   1      31.301  23.369  24.420  1.00  0.00    +0.000 C 
BRANCH   17   18
ATOM     18  C13 UNL A   1      33.255  20.522  25.690  1.00  0.00    +0.000 C 
ATOM     19  O3  UNL A   1      33.822  20.749  26.757  1.00  0.00    +0.000 O 
BRANCH   18   20
ATOM    111  H20 UNL A   1      31.478  18.563  25.894  1.00  0.00    +0.000 H 
ATOM    112  H21 UNL A   1      31.625  16.289  25.055  1.00  0.00    +0.000 H 
ATOM    113  H22 UNL A   1      33.607  15.565  23.858  1.00  0.00    +0.000 H 
ATOM    114  H23 UNL A   1      35.465  17.091  23.537  1.00  0.00    +0.000 H 
ATOM    115  H24 UNL A   1      35.336  19.362  24.397  1.00  0.00    +0.000 H 
ATOM     20  C14 UNL A   1      33.377  19.144  25.167  1.00  0.00    +0.000 C 
ATOM     21  C15 UNL A   1      32.320  18.254  25.383  1.00  0.00    +0.000 C 
ATOM     22  C16 UNL A   1      32.406  16.946  24.905  1.00  0.00    +0.000 C 
ATOM     23  C17 UNL A   1      33.550  16.528  24.223  1.00  0.00    +0.000 C 
ATOM     24  C18 UNL A   1      34.617  17.408  24.034  1.00  0.00    +0.000 C 
ATOM     25  C19 UNL A   1      34.541  18.715  24.518  1.00  0.00    +0.000 C 
ENDBRANCH   18   20
ENDBRANCH   17   18
ENDBRANCH   11   13
ENDBRANCH   10   11
ENDBRANCH    9   10
ENDBRANCH    8    9
ENDBRANCH    7    8
ENDBRANCH    6    7
ENDBRANCH    5    6
ENDBRANCH    4    5
ENDBRANCH    3    4
ENDBRANCH    2    3
ENDBRANCH   29    2
ENDBRANCH   33   32
BRANCH   37   38
ATOM     38  C31 UNL A   1      47.303  27.767  26.529  1.00  0.00    +0.000 C 
ATOM     39  C32 UNL A   1      47.593  27.895  25.164  1.00  0.00    +0.000 C 
ATOM     40  F1  UNL A   1      46.683  28.418  24.327  1.00  0.00    +0.000 F 
ATOM     41  C33 UNL A   1      48.817  27.475  24.649  1.00  0.00    +0.000 C 
ATOM     42  F2  UNL A   1      49.065  27.587  23.337  1.00  0.00    +0.000 F 
ATOM     43  C34 UNL A   1      49.780  26.939  25.492  1.00  0.00    +0.000 C 
ATOM     44  F3  UNL A   1      50.965  26.553  24.997  1.00  0.00    +0.000 F 
ATOM     45  C35 UNL A   1      49.516  26.806  26.846  1.00  0.00    +0.000 C 
ATOM     46  F4  UNL A   1      50.451  26.300  27.663  1.00  0.00    +0.000 F 
ATOM     47  C36 UNL A   1      48.285  27.206  27.360  1.00  0.00    +0.000 C 
ATOM     48  F5  UNL A   1      48.061  27.067  28.675  1.00  0.00    +0.000 F 
ENDBRANCH   37   38
BRANCH   54   55
ATOM     65  F10 UNL A   1      44.478  34.763  28.008  1.00  0.00    +0.000 F 
ATOM     55  C42 UNL A   1      45.116  33.668  30.022  1.00  0.00    +0.000 C 
ATOM     56  C43 UNL A   1      45.744  33.772  31.272  1.00  0.00    +0.000 C 
ATOM     57  F6  UNL A   1      45.799  32.708  32.089  1.00  0.00    +0.000 F 
ATOM     58  C44 UNL A   1      46.277  34.982  31.705  1.00  0.00    +0.000 C 
ATOM     59  F7  UNL A   1      46.828  35.070  32.924  1.00  0.00    +0.000 F 
ATOM     60  C45 UNL A   1      46.222  36.100  30.886  1.00  0.00    +0.000 C 
ATOM     61  F8  UNL A   1      46.739  37.263  31.305  1.00  0.00    +0.000 F 
ATOM     62  C46 UNL A   1      45.624  36.014  29.638  1.00  0.00    +0.000 C 
ATOM     63  F9  UNL A   1      45.579  37.091  28.842  1.00  0.00    +0.000 F 
ATOM     64  C47 UNL A   1      45.065  34.813  29.213  1.00  0.00    +0.000 C 
ENDBRANCH   54   55
BRANCH   69   70
ATOM     70  C51 UNL A   1      38.759  30.910  30.650  1.00  0.00    +0.000 C 
ATOM     71  C52 UNL A   1      38.559  30.741  32.026  1.00  0.00    +0.000 C 
ATOM     72  F11 UNL A   1      39.502  30.145  32.772  1.00  0.00    +0.000 F 
ATOM     73  C53 UNL A   1      37.374  31.148  32.634  1.00  0.00    +0.000 C 
ATOM     74  F12 UNL A   1      37.188  30.934  33.944  1.00  0.00    +0.000 F 
ATOM     75  C54 UNL A   1      36.381  31.761  31.885  1.00  0.00    +0.000 C 
ATOM     76  F13 UNL A   1      35.244  32.156  32.471  1.00  0.00    +0.000 F 
ATOM     77  C55 UNL A   1      36.566  31.957  30.524  1.00  0.00    +0.000 C 
ATOM     78  F14 UNL A   1      35.616  32.563  29.798  1.00  0.00    +0.000 F 
ATOM     79  C56 UNL A   1      37.736  31.522  29.910  1.00  0.00    +0.000 C 
ATOM     80  F15 UNL A   1      37.884  31.713  28.590  1.00  0.00    +0.000 F 
ENDBRANCH   69   70
TORSDOF 17
ENDMDL
MODEL 4
REMARK VINA RESULT:     -10.8     20.420     24.504
ROOT
ATOM    129  H38 UNL A   1      54.657  18.223   9.399  1.00  0.00    +0.000 H 
ATOM     33  C27 UNL A   1      53.606  19.663  11.631  1.00  0.00    +0.000 C 
ATOM     34  C28 UNL A   1      54.969  19.053  11.486  1.00  0.00    +0.000 C 
ATOM     35  N4  UNL A   1      55.964  19.056  12.337  1.00  0.00    +0.000 N 
ATOM     36  C29 UNL A   1      56.986  18.338  11.731  1.00  0.00    +0.000 C 
ATOM     37  C30 UNL A   1      58.227  18.079  12.210  1.00  0.00    +0.000 C 
ATOM     49  C37 UNL A   1      58.721  18.539  13.483  1.00  0.00    +0.000 C 
ATOM     50  C38 UNL A   1      59.983  18.379  14.028  1.00  0.00    +0.000 C 
ATOM     51  C39 UNL A   1      59.986  18.947  15.306  1.00  0.00    +0.000 C 
ATOM     52  C40 UNL A   1      58.738  19.501  15.541  1.00  0.00    +0.000 C 
ATOM     53  N5  UNL A   1      57.972  19.245  14.414  1.00  0.00    +0.000 N 
ATOM     54  C41 UNL A   1      58.276  20.205  16.709  1.00  0.00    +0.000 C 
ATOM     66  C48 UNL A   1      57.051  20.765  16.847  1.00  0.00    +0.000 C 
ATOM     67  N6  UNL A   1      55.993  20.780  15.951  1.00  0.00    +0.000 N 
ATOM     68  C49 UNL A   1      55.019  21.413  16.557  1.00  0.00    +0.000 C 
ATOM     69  C50 UNL A   1      53.641  21.730  16.054  1.00  0.00    +0.000 C 
ATOM     81  C57 UNL A   1      53.288  21.323  14.821  1.00  0.00    +0.000 C 
ATOM     82  C58 UNL A   1      51.987  21.547  14.203  1.00  0.00    +0.000 C 
ATOM     83  C59 UNL A   1      51.964  20.940  13.009  1.00  0.00    +0.000 C 
ATOM     84  C60 UNL A   1      53.271  20.329  12.754  1.00  0.00    +0.000 C 
ATOM     85  N7  UNL A   1      53.996  20.613  13.882  1.00  0.00    +0.000 N 
ATOM     86  C61 UNL A   1      55.345  21.863  17.916  1.00  0.00    +0.000 C 
ATOM     87  C62 UNL A   1      56.607  21.475  18.030  1.00  0.00    +0.000 C 
ATOM     88  C63 UNL A   1      56.488  17.899  10.446  1.00  0.00    +0.000 C 
ATOM     89  C64 UNL A   1      55.257  18.344  10.230  1.00  0.00    +0.000 C 
ATOM    120  H29 UNL A   1      60.787  17.920  13.569  1.00  0.00    +0.000 H 
ATOM    121  H30 UNL A   1      60.782  18.952  15.963  1.00  0.00    +0.000 H 
ATOM    122  H31 UNL A   1      57.036  19.523  14.293  1.00  0.00    +0.000 H 
ATOM    123  H32 UNL A   1      51.212  22.088  14.618  1.00  0.00    +0.000 H 
ATOM    124  H33 UNL A   1      51.153  20.905  12.371  1.00  0.00    +0.000 H 
ATOM    125  H34 UNL A   1      54.932  20.335  14.006  1.00  0.00    +0.000 H 
ATOM    126  H35 UNL A   1      54.749  22.353  18.601  1.00  0.00    +0.000 H 
ATOM    127  H36 UNL A   1      57.199  21.656  18.856  1.00  0.00    +0.000 H 
ATOM    128  H37 UNL A   1      57.022  17.315   9.781  1.00  0.00    +0.000 H 
ENDROOT
BRANCH   33   32
ATOM    130  H39 UNL A   1      51.746  17.735  11.182  1.00  0.00    +0.000 H 
ATOM    131  H40 UNL A   1      50.037  17.680   9.457  1.00  0.00    +0.000 H 
ATOM    118  H27 UNL A   1      51.323  21.441   8.071  1.00  0.00    +0.000 H 
ATOM    119  H28 UNL A   1      53.175  21.383   9.630  1.00  0.00    +0.000 H 
ATOM     90  C65 UNL A   1      51.683  18.502  10.494  1.00  0.00    +0.000 C 
ATOM     91  C66 UNL A   1      50.691  18.477   9.511  1.00  0.00    +0.000 C 
ATOM     29  C23 UNL A   1      50.586  19.533   8.602  1.00  0.00    +0.000 C 
ATOM     30  C24 UNL A   1      51.451  20.627   8.692  1.00  0.00    +0.000 C 
ATOM     31  C25 UNL A   1      52.485  20.616   9.622  1.00  0.00    +0.000 C 
ATOM     32  C26 UNL A   1      52.596  19.567  10.548  1.00  0.00    +0.000 C 
BRANCH   29    2
ATOM      1  O1  UNL A   1      48.429  19.977   7.794  1.00  0.00    +0.000 O 
ATOM      2  C1  UNL A   1      49.532  19.492   7.565  1.00  0.00    +0.000 C 
BRANCH    2    3
ATOM      3  N1  UNL A   1      49.795  18.900   6.354  1.00  0.00    +0.000 N 
ATOM     92  H1  UNL A   1      49.795  19.503   5.575  1.00  0.00    +0.000 H 
BRANCH    3    4
ATOM      4  C2  UNL A   1      50.072  17.502   6.070  1.00  0.00    +0.000 C 
ATOM     93  H2  UNL A   1      50.208  16.984   6.997  1.00  0.00    +0.000 H 
ATOM     94  H3  UNL A   1      50.953  17.459   5.465  1.00  0.00    +0.000 H 
BRANCH    4    5
ATOM      5  C3  UNL A   1      48.942  16.836   5.297  1.00  0.00    +0.000 C 
ATOM     95  H4  UNL A   1      49.264  15.858   5.010  1.00  0.00    +0.000 H 
ATOM     96  H5  UNL A   1      48.730  17.470   4.461  1.00  0.00    +0.000 H 
BRANCH    5    6
ATOM     97  H6  UNL A   1      47.861  16.791   7.120  1.00  0.00    +0.000 H 
ATOM     98  H7  UNL A   1      47.228  15.745   5.813  1.00  0.00    +0.000 H 
ATOM      6  C4  UNL A   1      47.635  16.698   6.079  1.00  0.00    +0.000 C 
BRANCH    6    7
ATOM     99  H8  UNL A   1      46.855  18.672   6.150  1.00  0.00    +0.000 H 
ATOM    100  H9  UNL A   1      45.643  17.352   6.142  1.00  0.00    +0.000 H 
ATOM      7  C5  UNL A   1      46.556  17.732   5.734  1.00  0.00    +0.000 C 
BRANCH    7    8
ATOM    101  H10 UNL A   1      47.094  17.476   3.690  1.00  0.00    +0.000 H 
ATOM    102  H11 UNL A   1      46.243  18.995   4.075  1.00  0.00    +0.000 H 
ATOM      8  C6  UNL A   1      46.297  17.938   4.235  1.00  0.00    +0.000 C 
BRANCH    8    9
ATOM      9  C7  UNL A   1      44.976  17.351   3.738  1.00  0.00    +0.000 C 
ATOM    103  H12 UNL A   1      44.284  17.307   4.554  1.00  0.00    +0.000 H 
ATOM    104  H13 UNL A   1      45.163  16.372   3.351  1.00  0.00    +0.000 H 
BRANCH    9   10
ATOM    105  H14 UNL A   1      44.663  17.898   1.769  1.00  0.00    +0.000 H 
ATOM     10  N2  UNL A   1      44.409  18.163   2.682  1.00  0.00    +0.000 N 
BRANCH   10   11
ATOM     11  C8  UNL A   1      43.573  19.241   2.764  1.00  0.00    +0.000 C 
ATOM     12  O2  UNL A   1      43.748  20.013   3.706  1.00  0.00    +0.000 O 
BRANCH   11   13
ATOM    106  H15 UNL A   1      42.721  18.624   1.008  1.00  0.00    +0.000 H 
ATOM    107  H16 UNL A   1      43.002  20.836   0.165  1.00  0.00    +0.000 H 
ATOM    108  H17 UNL A   1      42.916  21.540   1.736  1.00  0.00    +0.000 H 
ATOM     13  C9  UNL A   1      42.483  19.402   1.705  1.00  0.00    +0.000 C 
ATOM     14  C10 UNL A   1      42.457  20.822   1.087  1.00  0.00    +0.000 C 
ATOM     15  C11 UNL A   1      40.978  21.151   0.838  1.00  0.00    +0.000 C 
ATOM     16  N3  UNL A   1      40.282  20.265   1.753  1.00  0.00    +0.000 N 
ATOM    109  H18 UNL A   1      40.705  20.947  -0.176  1.00  0.00    +0.000 H 
ATOM    110  H19 UNL A   1      40.746  22.184   0.997  1.00  0.00    +0.000 H 
ATOM     17  C12 UNL A   1      39.029  20.191   2.283  1.00  0.00    +0.000 C 
ATOM    116  H25 UNL A   1      38.304  18.786   3.758  1.00  0.00    +0.000 H 
ATOM    117  H26 UNL A   1      40.724  17.734   3.691  1.00  0.00    +0.000 H 
ATOM     26  C20 UNL A   1      39.086  19.116   3.173  1.00  0.00    +0.000 C 
ATOM     27  C21 UNL A   1      40.388  18.546   3.149  1.00  0.00    +0.000 C 
ATOM     28  C22 UNL A   1      41.104  19.298   2.260  1.00  0.00    +0.000 C 
BRANCH   17   18
ATOM     18  C13 UNL A   1      37.872  21.045   2.066  1.00  0.00    +0.000 C 
ATOM     19  O3  UNL A   1      37.218  21.531   2.987  1.00  0.00    +0.000 O 
BRANCH   18   20
ATOM    111  H20 UNL A   1      35.751  20.107   0.779  1.00  0.00    +0.000 H 
ATOM    112  H21 UNL A   1      34.976  20.641  -1.459  1.00  0.00    +0.000 H 
ATOM    113  H22 UNL A   1      36.210  22.222  -2.823  1.00  0.00    +0.000 H 
ATOM    114  H23 UNL A   1      38.244  23.236  -1.977  1.00  0.00    +0.000 H 
ATOM    115  H24 UNL A   1      39.042  22.686   0.253  1.00  0.00    +0.000 H 
ATOM     20  C14 UNL A   1      37.428  21.392   0.699  1.00  0.00    +0.000 C 
ATOM     21  C15 UNL A   1      36.273  20.780   0.198  1.00  0.00    +0.000 C 
ATOM     22  C16 UNL A   1      35.831  21.084  -1.089  1.00  0.00    +0.000 C 
ATOM     23  C17 UNL A   1      36.546  21.987  -1.876  1.00  0.00    +0.000 C 
ATOM     24  C18 UNL A   1      37.714  22.575  -1.388  1.00  0.00    +0.000 C 
ATOM     25  C19 UNL A   1      38.168  22.268  -0.103  1.00  0.00    +0.000 C 
ENDBRANCH   18   20
ENDBRANCH   17   18
ENDBRANCH   11   13
ENDBRANCH   10   11
ENDBRANCH    9   10
ENDBRANCH    8    9
ENDBRANCH    7    8
ENDBRANCH    6    7
ENDBRANCH    5    6
ENDBRANCH    4    5
ENDBRANCH    3    4
ENDBRANCH    2    3
ENDBRANCH   29    2
ENDBRANCH   33   32
BRANCH   37   38
ATOM     38  C31 UNL A   1      59.151  17.252  11.366  1.00  0.00    +0.000 C 
ATOM     39  C32 UNL A   1      60.049  17.839  10.464  1.00  0.00    +0.000 C 
ATOM     40  F1  UNL A   1      60.034  19.167  10.265  1.00  0.00    +0.000 F 
ATOM     41  C33 UNL A   1      60.961  17.063   9.753  1.00  0.00    +0.000 C 
ATOM     42  F2  UNL A   1      61.797  17.644   8.880  1.00  0.00    +0.000 F 
ATOM     43  C34 UNL A   1      61.006  15.690   9.945  1.00  0.00    +0.000 C 
ATOM     44  F3  UNL A   1      61.897  14.947   9.273  1.00  0.00    +0.000 F 
ATOM     45  C35 UNL A   1      60.129  15.088  10.833  1.00  0.00    +0.000 C 
ATOM     46  F4  UNL A   1      60.181  13.763  11.030  1.00  0.00    +0.000 F 
ATOM     47  C36 UNL A   1      59.202  15.859  11.531  1.00  0.00    +0.000 C 
ATOM     48  F5  UNL A   1      58.369  15.247  12.386  1.00  0.00    +0.000 F 
ENDBRANCH   37   38
BRANCH   54   55
ATOM     65  F10 UNL A   1      58.676  18.180  18.665  1.00  0.00    +0.000 F 
ATOM     55  C42 UNL A   1      59.223  20.353  17.861  1.00  0.00    +0.000 C 
ATOM     56  C43 UNL A   1      59.971  21.525  18.048  1.00  0.00    +0.000 C 
ATOM     57  F6  UNL A   1      59.876  22.532  17.167  1.00  0.00    +0.000 F 
ATOM     58  C44 UNL A   1      60.853  21.646  19.117  1.00  0.00    +0.000 C 
ATOM     59  F7  UNL A   1      61.594  22.755  19.248  1.00  0.00    +0.000 F 
ATOM     60  C45 UNL A   1      60.980  20.615  20.035  1.00  0.00    +0.000 C 
ATOM     61  F8  UNL A   1      61.829  20.735  21.065  1.00  0.00    +0.000 F 
ATOM     62  C46 UNL A   1      60.235  19.455  19.881  1.00  0.00    +0.000 C 
ATOM     63  F9  UNL A   1      60.349  18.462  20.773  1.00  0.00    +0.000 F 
ATOM     64  C47 UNL A   1      59.372  19.319  18.798  1.00  0.00    +0.000 C 
ENDBRANCH   54   55
BRANCH   69   70
ATOM     70  C51 UNL A   1      52.665  22.465  16.897  1.00  0.00    +0.000 C 
ATOM     71  C52 UNL A   1      51.903  21.802  17.868  1.00  0.00    +0.000 C 
ATOM     72  F11 UNL A   1      52.036  20.478  18.033  1.00  0.00    +0.000 F 
ATOM     73  C53 UNL A   1      50.975  22.491  18.645  1.00  0.00    +0.000 C 
ATOM     74  F12 UNL A   1      50.226  21.825  19.536  1.00  0.00    +0.000 F 
ATOM     75  C54 UNL A   1      50.814  23.859  18.491  1.00  0.00    +0.000 C 
ATOM     76  F13 UNL A   1      49.925  24.521  19.242  1.00  0.00    +0.000 F 
ATOM     77  C55 UNL A   1      51.572  24.540  17.550  1.00  0.00    +0.000 C 
ATOM     78  F14 UNL A   1      51.432  25.865  17.407  1.00  0.00    +0.000 F 
ATOM     79  C56 UNL A   1      52.477  23.848  16.750  1.00  0.00    +0.000 C 
ATOM     80  F15 UNL A   1      53.188  24.529  15.839  1.00  0.00    +0.000 F 
ENDBRANCH   69   70
TORSDOF 17
ENDMDL
MODEL 5
REMARK VINA RESULT:     -10.7     20.089     24.119
ROOT
ATOM    129  H38 UNL A   1      54.571  18.215   9.463  1.00  0.00    +0.000 H 
ATOM     33  C27 UNL A   1      53.536  19.659  11.699  1.00  0.00    +0.000 C 
ATOM     34  C28 UNL A   1      54.898  19.049  11.546  1.00  0.00    +0.000 C 
ATOM     35  N4  UNL A   1      55.899  19.053  12.391  1.00  0.00    +0.000 N 
ATOM     36  C29 UNL A   1      56.917  18.334  11.779  1.00  0.00    +0.000 C 
ATOM     37  C30 UNL A   1      58.161  18.076  12.249  1.00  0.00    +0.000 C 
ATOM     49  C37 UNL A   1      58.663  18.538  13.518  1.00  0.00    +0.000 C 
ATOM     50  C38 UNL A   1      59.930  18.379  14.055  1.00  0.00    +0.000 C 
ATOM     51  C39 UNL A   1      59.941  18.949  15.332  1.00  0.00    +0.000 C 
ATOM     52  C40 UNL A   1      58.695  19.503  15.574  1.00  0.00    +0.000 C 
ATOM     53  N5  UNL A   1      57.921  19.246  14.453  1.00  0.00    +0.000 N 
ATOM     54  C41 UNL A   1      58.241  20.210  16.744  1.00  0.00    +0.000 C 
ATOM     66  C48 UNL A   1      57.016  20.770  16.890  1.00  0.00    +0.000 C 
ATOM     67  N6  UNL A   1      55.953  20.784  16.000  1.00  0.00    +0.000 N 
ATOM     68  C49 UNL A   1      54.982  21.418  16.613  1.00  0.00    +0.000 C 
ATOM     69  C50 UNL A   1      53.601  21.734  16.118  1.00  0.00    +0.000 C 
ATOM     81  C57 UNL A   1      53.240  21.325  14.888  1.00  0.00    +0.000 C 
ATOM     82  C58 UNL A   1      51.935  21.548  14.279  1.00  0.00    +0.000 C 
ATOM     83  C59 UNL A   1      51.903  20.938  13.086  1.00  0.00    +0.000 C 
ATOM     84  C60 UNL A   1      53.209  20.327  12.823  1.00  0.00    +0.000 C 
ATOM     85  N7  UNL A   1      53.941  20.613  13.946  1.00  0.00    +0.000 N 
ATOM     86  C61 UNL A   1      55.318  21.870  17.968  1.00  0.00    +0.000 C 
ATOM     87  C62 UNL A   1      56.581  21.482  18.074  1.00  0.00    +0.000 C 
ATOM     88  C63 UNL A   1      56.410  17.893  10.497  1.00  0.00    +0.000 C 
ATOM     89  C64 UNL A   1      55.177  18.337  10.289  1.00  0.00    +0.000 C 
ATOM    120  H29 UNL A   1      60.730  17.919  13.591  1.00  0.00    +0.000 H 
ATOM    121  H30 UNL A   1      60.741  18.955  15.983  1.00  0.00    +0.000 H 
ATOM    122  H31 UNL A   1      56.984  19.523  14.338  1.00  0.00    +0.000 H 
ATOM    123  H32 UNL A   1      51.162  22.089  14.698  1.00  0.00    +0.000 H 
ATOM    124  H33 UNL A   1      51.088  20.902  12.454  1.00  0.00    +0.000 H 
ATOM    125  H34 UNL A   1      54.878  20.335  14.064  1.00  0.00    +0.000 H 
ATOM    126  H35 UNL A   1      54.726  22.361  18.657  1.00  0.00    +0.000 H 
ATOM    127  H36 UNL A   1      57.179  21.665  18.896  1.00  0.00    +0.000 H 
ATOM    128  H37 UNL A   1      56.939  17.308   9.831  1.00  0.00    +0.000 H 
ENDROOT
BRANCH   33   32
ATOM    130  H39 UNL A   1      51.769  17.662  11.182  1.00  0.00    +0.000 H 
ATOM    131  H40 UNL A   1      50.044  17.599   9.473  1.00  0.00    +0.000 H 
ATOM    118  H27 UNL A   1      51.123  21.478   8.247  1.00  0.00    +0.000 H 
ATOM    119  H28 UNL A   1      52.995  21.444   9.784  1.00  0.00    +0.000 H 
ATOM     90  C65 UNL A   1      51.659  18.455  10.531  1.00  0.00    +0.000 C 
ATOM     91  C66 UNL A   1      50.657  18.424   9.557  1.00  0.00    +0.000 C 
ATOM     29  C23 UNL A   1      50.488  19.514   8.698  1.00  0.00    +0.000 C 
ATOM     30  C24 UNL A   1      51.299  20.645   8.830  1.00  0.00    +0.000 C 
ATOM     31  C25 UNL A   1      52.344  20.644   9.747  1.00  0.00    +0.000 C 
ATOM     32  C26 UNL A   1      52.518  19.561  10.624  1.00  0.00    +0.000 C 
BRANCH   29    2
ATOM      1  O1  UNL A   1      48.510  20.283   7.700  1.00  0.00    +0.000 O 
ATOM      2  C1  UNL A   1      49.425  19.466   7.672  1.00  0.00    +0.000 C 
BRANCH    2    3
ATOM      3  N1  UNL A   1      49.465  18.498   6.698  1.00  0.00    +0.000 N 
ATOM     92  H1  UNL A   1      49.965  18.733   5.883  1.00  0.00    +0.000 H 
BRANCH    3    4
ATOM      4  C2  UNL A   1      48.867  17.175   6.712  1.00  0.00    +0.000 C 
ATOM     93  H2  UNL A   1      48.333  17.049   7.631  1.00  0.00    +0.000 H 
ATOM     94  H3  UNL A   1      49.655  16.458   6.616  1.00  0.00    +0.000 H 
BRANCH    4    5
ATOM      5  C3  UNL A   1      47.902  16.966   5.552  1.00  0.00    +0.000 C 
ATOM     95  H4  UNL A   1      47.573  15.949   5.570  1.00  0.00    +0.000 H 
ATOM     96  H5  UNL A   1      48.439  17.218   4.661  1.00  0.00    +0.000 H 
BRANCH    5    6
ATOM     97  H6  UNL A   1      46.539  18.218   6.587  1.00  0.00    +0.000 H 
ATOM     98  H7  UNL A   1      45.854  17.272   5.231  1.00  0.00    +0.000 H 
ATOM      6  C4  UNL A   1      46.668  17.869   5.584  1.00  0.00    +0.000 C 
BRANCH    6    7
ATOM     99  H8  UNL A   1      47.761  19.330   4.498  1.00  0.00    +0.000 H 
ATOM    100  H9  UNL A   1      46.185  19.865   5.160  1.00  0.00    +0.000 H 
ATOM      7  C5  UNL A   1      46.731  19.092   4.661  1.00  0.00    +0.000 C 
BRANCH    7    8
ATOM    101  H10 UNL A   1      46.218  17.910   2.967  1.00  0.00    +0.000 H 
ATOM    102  H11 UNL A   1      46.509  19.638   2.637  1.00  0.00    +0.000 H 
ATOM      8  C6  UNL A   1      46.062  18.918   3.291  1.00  0.00    +0.000 C 
BRANCH    8    9
ATOM      9  C7  UNL A   1      44.559  19.195   3.285  1.00  0.00    +0.000 C 
ATOM    103  H12 UNL A   1      44.364  20.083   3.851  1.00  0.00    +0.000 H 
ATOM    104  H13 UNL A   1      44.056  18.356   3.718  1.00  0.00    +0.000 H 
BRANCH    9   10
ATOM    105  H14 UNL A   1      44.335  18.680   1.295  1.00  0.00    +0.000 H 
ATOM     10  N2  UNL A   1      44.068  19.378   1.935  1.00  0.00    +0.000 N 
BRANCH   10   11
ATOM     11  C8  UNL A   1      43.287  20.374   1.418  1.00  0.00    +0.000 C 
ATOM     12  O2  UNL A   1      43.701  21.527   1.537  1.00  0.00    +0.000 O 
BRANCH   11   13
ATOM    106  H15 UNL A   1      42.255  19.199   0.098  1.00  0.00    +0.000 H 
ATOM    107  H16 UNL A   1      41.529  21.183  -1.007  1.00  0.00    +0.000 H 
ATOM    108  H17 UNL A   1      41.637  22.127   0.431  1.00  0.00    +0.000 H 
ATOM     13  C9  UNL A   1      41.965  19.994   0.753  1.00  0.00    +0.000 C 
ATOM     14  C10 UNL A   1      41.292  21.193   0.037  1.00  0.00    +0.000 C 
ATOM     15  C11 UNL A   1      39.781  21.017   0.244  1.00  0.00    +0.000 C 
ATOM     16  N3  UNL A   1      39.702  20.166   1.416  1.00  0.00    +0.000 N 
ATOM    109  H18 UNL A   1      39.331  20.545  -0.604  1.00  0.00    +0.000 H 
ATOM    110  H19 UNL A   1      39.264  21.947   0.365  1.00  0.00    +0.000 H 
ATOM     17  C12 UNL A   1      38.741  19.835   2.324  1.00  0.00    +0.000 C 
ATOM    116  H25 UNL A   1      38.963  18.600   4.086  1.00  0.00    +0.000 H 
ATOM    117  H26 UNL A   1      41.483  18.313   3.353  1.00  0.00    +0.000 H 
ATOM     26  C20 UNL A   1      39.398  19.022   3.251  1.00  0.00    +0.000 C 
ATOM     27  C21 UNL A   1      40.758  18.866   2.869  1.00  0.00    +0.000 C 
ATOM     28  C22 UNL A   1      40.907  19.603   1.727  1.00  0.00    +0.000 C 
BRANCH   17   18
ATOM     18  C13 UNL A   1      37.350  20.251   2.405  1.00  0.00    +0.000 C 
ATOM     19  O3  UNL A   1      36.684  20.554   1.416  1.00  0.00    +0.000 O 
BRANCH   18   20
ATOM    111  H20 UNL A   1      36.217  18.245   3.719  1.00  0.00    +0.000 H 
ATOM    112  H21 UNL A   1      35.061  18.291   5.853  1.00  0.00    +0.000 H 
ATOM    113  H22 UNL A   1      34.823  20.384   7.057  1.00  0.00    +0.000 H 
ATOM    114  H23 UNL A   1      35.695  22.441   6.113  1.00  0.00    +0.000 H 
ATOM    115  H24 UNL A   1      36.831  22.407   3.964  1.00  0.00    +0.000 H 
ATOM     20  C14 UNL A   1      36.650  20.315   3.705  1.00  0.00    +0.000 C 
ATOM     21  C15 UNL A   1      36.117  19.133   4.233  1.00  0.00    +0.000 C 
ATOM     22  C16 UNL A   1      35.448  19.161   5.457  1.00  0.00    +0.000 C 
ATOM     23  C17 UNL A   1      35.305  20.366   6.145  1.00  0.00    +0.000 C 
ATOM     24  C18 UNL A   1      35.811  21.550   5.605  1.00  0.00    +0.000 C 
ATOM     25  C19 UNL A   1      36.473  21.530   4.375  1.00  0.00    +0.000 C 
ENDBRANCH   18   20
ENDBRANCH   17   18
ENDBRANCH   11   13
ENDBRANCH   10   11
ENDBRANCH    9   10
ENDBRANCH    8    9
ENDBRANCH    7    8
ENDBRANCH    6    7
ENDBRANCH    5    6
ENDBRANCH    4    5
ENDBRANCH    3    4
ENDBRANCH    2    3
ENDBRANCH   29    2
ENDBRANCH   33   32
BRANCH   37   38
ATOM     38  C31 UNL A   1      59.079  17.247  11.400  1.00  0.00    +0.000 C 
ATOM     39  C32 UNL A   1      59.099  15.848  11.487  1.00  0.00    +0.000 C 
ATOM     40  F1  UNL A   1      58.356  15.219  12.412  1.00  0.00    +0.000 F 
ATOM     41  C33 UNL A   1      59.892  15.088  10.631  1.00  0.00    +0.000 C 
ATOM     42  F2  UNL A   1      59.911  13.753  10.746  1.00  0.00    +0.000 F 
ATOM     43  C34 UNL A   1      60.662  15.710   9.659  1.00  0.00    +0.000 C 
ATOM     44  F3  UNL A   1      61.410  14.976   8.824  1.00  0.00    +0.000 F 
ATOM     45  C35 UNL A   1      60.656  17.092   9.553  1.00  0.00    +0.000 C 
ATOM     46  F4  UNL A   1      61.389  17.694   8.606  1.00  0.00    +0.000 F 
ATOM     47  C36 UNL A   1      59.879  17.856  10.421  1.00  0.00    +0.000 C 
ATOM     48  F5  UNL A   1      59.892  19.191  10.292  1.00  0.00    +0.000 F 
ENDBRANCH   37   38
BRANCH   54   55
ATOM     65  F10 UNL A   1      59.750  22.574  17.216  1.00  0.00    +0.000 F 
ATOM     55  C42 UNL A   1      59.196  20.359  17.890  1.00  0.00    +0.000 C 
ATOM     56  C43 UNL A   1      59.409  19.317  18.804  1.00  0.00    +0.000 C 
ATOM     57  F6  UNL A   1      58.728  18.167  18.687  1.00  0.00    +0.000 F 
ATOM     58  C44 UNL A   1      60.291  19.471  19.869  1.00  0.00    +0.000 C 
ATOM     59  F7  UNL A   1      60.442  18.481  20.759  1.00  0.00    +0.000 F 
ATOM     60  C45 UNL A   1      60.999  20.655  20.021  1.00  0.00    +0.000 C 
ATOM     61  F8  UNL A   1      61.849  20.800  21.047  1.00  0.00    +0.000 F 
ATOM     62  C46 UNL A   1      60.818  21.690  19.117  1.00  0.00    +0.000 C 
ATOM     63  F9  UNL A   1      61.508  22.830  19.257  1.00  0.00    +0.000 F 
ATOM     64  C47 UNL A   1      59.917  21.550  18.066  1.00  0.00    +0.000 C 
ENDBRANCH   54   55
BRANCH   69   70
ATOM     70  C51 UNL A   1      52.631  22.471  16.967  1.00  0.00    +0.000 C 
ATOM     71  C52 UNL A   1      51.870  21.808  17.938  1.00  0.00    +0.000 C 
ATOM     72  F11 UNL A   1      51.998  20.482  18.099  1.00  0.00    +0.000 F 
ATOM     73  C53 UNL A   1      50.948  22.498  18.721  1.00  0.00    +0.000 C 
ATOM     74  F12 UNL A   1      50.199  21.833  19.612  1.00  0.00    +0.000 F 
ATOM     75  C54 UNL A   1      50.791  23.868  18.571  1.00  0.00    +0.000 C 
ATOM     76  F13 UNL A   1      49.907  24.531  19.327  1.00  0.00    +0.000 F 
ATOM     77  C55 UNL A   1      51.549  24.548  17.629  1.00  0.00    +0.000 C 
ATOM     78  F14 UNL A   1      51.414  25.874  17.490  1.00  0.00    +0.000 F 
ATOM     79  C56 UNL A   1      52.448  23.855  16.824  1.00  0.00    +0.000 C 
ATOM     80  F15 UNL A   1      53.159  24.536  15.913  1.00  0.00    +0.000 F 
ENDBRANCH   69   70
TORSDOF 17
ENDMDL
MODEL 6
REMARK VINA RESULT:     -10.5      1.674      4.218
ROOT
ATOM    129  H38 UNL A   1      42.867  26.289  29.365  1.00  0.00    +0.000 H 
ATOM     33  C27 UNL A   1      40.717  28.159  29.556  1.00  0.00    +0.000 C 
ATOM     34  C28 UNL A   1      42.097  28.278  30.135  1.00  0.00    +0.000 C 
ATOM     35  N4  UNL A   1      42.611  29.257  30.836  1.00  0.00    +0.000 N 
ATOM     36  C29 UNL A   1      43.907  28.864  31.145  1.00  0.00    +0.000 C 
ATOM     37  C30 UNL A   1      44.846  29.547  31.842  1.00  0.00    +0.000 C 
ATOM     49  C37 UNL A   1      44.653  30.864  32.393  1.00  0.00    +0.000 C 
ATOM     50  C38 UNL A   1      45.565  31.663  33.062  1.00  0.00    +0.000 C 
ATOM     51  C39 UNL A   1      44.915  32.835  33.459  1.00  0.00    +0.000 C 
ATOM     52  C40 UNL A   1      43.610  32.789  32.999  1.00  0.00    +0.000 C 
ATOM     53  N5  UNL A   1      43.462  31.575  32.346  1.00  0.00    +0.000 N 
ATOM     54  C41 UNL A   1      42.572  33.775  33.149  1.00  0.00    +0.000 C 
ATOM     66  C48 UNL A   1      41.326  33.682  32.626  1.00  0.00    +0.000 C 
ATOM     67  N6  UNL A   1      40.772  32.658  31.872  1.00  0.00    +0.000 N 
ATOM     68  C49 UNL A   1      39.534  33.018  31.635  1.00  0.00    +0.000 C 
ATOM     69  C50 UNL A   1      38.473  32.296  30.858  1.00  0.00    +0.000 C 
ATOM     81  C57 UNL A   1      38.765  31.100  30.314  1.00  0.00    +0.000 C 
ATOM     82  C58 UNL A   1      37.838  30.279  29.544  1.00  0.00    +0.000 C 
ATOM     83  C59 UNL A   1      38.440  29.125  29.228  1.00  0.00    +0.000 C 
ATOM     84  C60 UNL A   1      39.818  29.148  29.727  1.00  0.00    +0.000 C 
ATOM     85  N7  UNL A   1      39.923  30.363  30.353  1.00  0.00    +0.000 N 
ATOM     86  C61 UNL A   1      39.158  34.309  32.223  1.00  0.00    +0.000 C 
ATOM     87  C62 UNL A   1      40.296  34.689  32.785  1.00  0.00    +0.000 C 
ATOM     88  C63 UNL A   1      44.098  27.550  30.569  1.00  0.00    +0.000 C 
ATOM     89  C64 UNL A   1      43.020  27.156  29.904  1.00  0.00    +0.000 C 
ATOM    120  H29 UNL A   1      46.557  31.432  33.237  1.00  0.00    +0.000 H 
ATOM    121  H30 UNL A   1      45.337  33.604  34.003  1.00  0.00    +0.000 H 
ATOM    122  H31 UNL A   1      42.635  31.264  31.912  1.00  0.00    +0.000 H 
ATOM    123  H32 UNL A   1      36.875  30.546  29.284  1.00  0.00    +0.000 H 
ATOM    124  H33 UNL A   1      38.003  28.342  28.717  1.00  0.00    +0.000 H 
ATOM    125  H34 UNL A   1      40.749  30.676  30.789  1.00  0.00    +0.000 H 
ATOM    126  H35 UNL A   1      38.247  34.794  32.203  1.00  0.00    +0.000 H 
ATOM    127  H36 UNL A   1      40.433  35.588  33.274  1.00  0.00    +0.000 H 
ATOM    128  H37 UNL A   1      44.962  26.992  30.663  1.00  0.00    +0.000 H 
ENDROOT
BRANCH   33   32
ATOM    130  H39 UNL A   1      39.135  26.079  30.296  1.00  0.00    +0.000 H 
ATOM    131  H40 UNL A   1      38.398  24.205  28.938  1.00  0.00    +0.000 H 
ATOM    118  H27 UNL A   1      40.432  25.815  25.623  1.00  0.00    +0.000 H 
ATOM    119  H28 UNL A   1      41.364  27.548  27.036  1.00  0.00    +0.000 H 
ATOM     90  C65 UNL A   1      39.445  26.000  29.315  1.00  0.00    +0.000 C 
ATOM     91  C66 UNL A   1      39.009  24.930  28.530  1.00  0.00    +0.000 C 
ATOM     29  C23 UNL A   1      39.403  24.843  27.192  1.00  0.00    +0.000 C 
ATOM     30  C24 UNL A   1      40.207  25.839  26.630  1.00  0.00    +0.000 C 
ATOM     31  C25 UNL A   1      40.702  26.862  27.431  1.00  0.00    +0.000 C 
ATOM     32  C26 UNL A   1      40.306  26.968  28.773  1.00  0.00    +0.000 C 
BRANCH   29    2
ATOM      1  O1  UNL A   1      39.650  22.715  26.238  1.00  0.00    +0.000 O 
ATOM      2  C1  UNL A   1      38.936  23.704  26.374  1.00  0.00    +0.000 C 
BRANCH    2    3
ATOM      3  N1  UNL A   1      37.708  23.765  25.763  1.00  0.00    +0.000 N 
ATOM     92  H1  UNL A   1      37.034  24.325  26.213  1.00  0.00    +0.000 H 
BRANCH    3    4
ATOM      4  C2  UNL A   1      37.271  23.114  24.539  1.00  0.00    +0.000 C 
ATOM     93  H2  UNL A   1      37.462  22.064  24.623  1.00  0.00    +0.000 H 
ATOM     94  H3  UNL A   1      37.814  23.546  23.726  1.00  0.00    +0.000 H 
BRANCH    4    5
ATOM      5  C3  UNL A   1      35.786  23.323  24.274  1.00  0.00    +0.000 C 
ATOM     95  H4  UNL A   1      35.280  22.401  24.467  1.00  0.00    +0.000 H 
ATOM     96  H5  UNL A   1      35.702  23.643  23.256  1.00  0.00    +0.000 H 
BRANCH    5    6
ATOM     97  H6  UNL A   1      34.593  25.063  24.475  1.00  0.00    +0.000 H 
ATOM     98  H7  UNL A   1      35.935  24.899  25.647  1.00  0.00    +0.000 H 
ATOM      6  C4  UNL A   1      35.137  24.413  25.127  1.00  0.00    +0.000 C 
BRANCH    6    7
ATOM     99  H8  UNL A   1      33.334  23.457  25.715  1.00  0.00    +0.000 H 
ATOM    100  H9  UNL A   1      33.915  24.764  26.795  1.00  0.00    +0.000 H 
ATOM      7  C5  UNL A   1      34.171  23.908  26.206  1.00  0.00    +0.000 C 
BRANCH    7    8
ATOM    101  H10 UNL A   1      34.705  23.290  28.172  1.00  0.00    +0.000 H 
ATOM    102  H11 UNL A   1      35.760  22.689  26.866  1.00  0.00    +0.000 H 
ATOM      8  C6  UNL A   1      34.757  22.880  27.184  1.00  0.00    +0.000 C 
BRANCH    8    9
ATOM      9  C7  UNL A   1      34.034  21.533  27.189  1.00  0.00    +0.000 C 
ATOM    103  H12 UNL A   1      33.083  21.648  27.665  1.00  0.00    +0.000 H 
ATOM    104  H13 UNL A   1      34.637  20.826  27.719  1.00  0.00    +0.000 H 
BRANCH    9   10
ATOM    105  H14 UNL A   1      34.596  21.166  25.233  1.00  0.00    +0.000 H 
ATOM     10  N2  UNL A   1      33.832  21.046  25.840  1.00  0.00    +0.000 N 
BRANCH   10   11
ATOM     11  C8  UNL A   1      32.737  20.444  25.285  1.00  0.00    +0.000 C 
ATOM     12  O2  UNL A   1      32.593  19.241  25.501  1.00  0.00    +0.000 O 
BRANCH   11   13
ATOM    106  H15 UNL A   1      31.072  20.569  24.103  1.00  0.00    +0.000 H 
ATOM    107  H16 UNL A   1      32.442  21.471  22.373  1.00  0.00    +0.000 H 
ATOM    108  H17 UNL A   1      33.569  22.138  23.494  1.00  0.00    +0.000 H 
ATOM     13  C9  UNL A   1      31.792  21.289  24.433  1.00  0.00    +0.000 C 
ATOM     14  C10 UNL A   1      32.525  22.027  23.284  1.00  0.00    +0.000 C 
ATOM     15  C11 UNL A   1      31.831  23.389  23.143  1.00  0.00    +0.000 C 
ATOM     16  N3  UNL A   1      31.205  23.580  24.439  1.00  0.00    +0.000 N 
ATOM    109  H18 UNL A   1      31.099  23.367  22.363  1.00  0.00    +0.000 H 
ATOM    110  H19 UNL A   1      32.506  24.178  22.883  1.00  0.00    +0.000 H 
ATOM     17  C12 UNL A   1      30.684  24.631  25.130  1.00  0.00    +0.000 C 
ATOM    116  H25 UNL A   1      29.912  24.627  27.150  1.00  0.00    +0.000 H 
ATOM    117  H26 UNL A   1      30.478  22.049  27.175  1.00  0.00    +0.000 H 
ATOM     26  C20 UNL A   1      30.331  24.096  26.372  1.00  0.00    +0.000 C 
ATOM     27  C21 UNL A   1      30.638  22.709  26.397  1.00  0.00    +0.000 C 
ATOM     28  C22 UNL A   1      31.190  22.430  25.178  1.00  0.00    +0.000 C 
BRANCH   17   18
ATOM     18  C13 UNL A   1      30.556  26.029  24.747  1.00  0.00    +0.000 C 
ATOM     19  O3  UNL A   1      29.580  26.470  24.144  1.00  0.00    +0.000 O 
BRANCH   18   20
ATOM    111  H20 UNL A   1      32.259  25.917  26.778  1.00  0.00    +0.000 H 
ATOM    112  H21 UNL A   1      34.005  27.492  27.382  1.00  0.00    +0.000 H 
ATOM    113  H22 UNL A   1      34.350  29.488  26.048  1.00  0.00    +0.000 H 
ATOM    114  H23 UNL A   1      32.925  29.941  24.138  1.00  0.00    +0.000 H 
ATOM    115  H24 UNL A   1      31.157  28.381  23.542  1.00  0.00    +0.000 H 
ATOM     20  C14 UNL A   1      31.609  27.010  25.088  1.00  0.00    +0.000 C 
ATOM     21  C15 UNL A   1      32.409  26.765  26.211  1.00  0.00    +0.000 C 
ATOM     22  C16 UNL A   1      33.408  27.673  26.560  1.00  0.00    +0.000 C 
ATOM     23  C17 UNL A   1      33.601  28.825  25.797  1.00  0.00    +0.000 C 
ATOM     24  C18 UNL A   1      32.784  29.083  24.695  1.00  0.00    +0.000 C 
ATOM     25  C19 UNL A   1      31.775  28.183  24.345  1.00  0.00    +0.000 C 
ENDBRANCH   18   20
ENDBRANCH   17   18
ENDBRANCH   11   13
ENDBRANCH   10   11
ENDBRANCH    9   10
ENDBRANCH    8    9
ENDBRANCH    7    8
ENDBRANCH    6    7
ENDBRANCH    5    6
ENDBRANCH    4    5
ENDBRANCH    3    4
ENDBRANCH    2    3
ENDBRANCH   29    2
ENDBRANCH   33   32
BRANCH   37   38
ATOM     38  C31 UNL A   1      46.177  28.891  32.064  1.00  0.00    +0.000 C 
ATOM     39  C32 UNL A   1      47.236  29.049  31.160  1.00  0.00    +0.000 C 
ATOM     40  F1  UNL A   1      47.050  29.721  30.013  1.00  0.00    +0.000 F 
ATOM     41  C33 UNL A   1      48.491  28.506  31.425  1.00  0.00    +0.000 C 
ATOM     42  F2  UNL A   1      49.484  28.652  30.537  1.00  0.00    +0.000 F 
ATOM     43  C34 UNL A   1      48.716  27.815  32.607  1.00  0.00    +0.000 C 
ATOM     44  F3  UNL A   1      49.930  27.309  32.868  1.00  0.00    +0.000 F 
ATOM     45  C35 UNL A   1      47.683  27.648  33.516  1.00  0.00    +0.000 C 
ATOM     46  F4  UNL A   1      47.903  26.991  34.664  1.00  0.00    +0.000 F 
ATOM     47  C36 UNL A   1      46.422  28.172  33.245  1.00  0.00    +0.000 C 
ATOM     48  F5  UNL A   1      45.444  27.997  34.146  1.00  0.00    +0.000 F 
ENDBRANCH   37   38
BRANCH   54   55
ATOM     65  F10 UNL A   1      42.379  33.926  35.982  1.00  0.00    +0.000 F 
ATOM     55  C42 UNL A   1      42.888  35.016  33.929  1.00  0.00    +0.000 C 
ATOM     56  C43 UNL A   1      43.294  36.197  33.290  1.00  0.00    +0.000 C 
ATOM     57  F6  UNL A   1      43.442  36.226  31.957  1.00  0.00    +0.000 F 
ATOM     58  C44 UNL A   1      43.593  37.340  34.026  1.00  0.00    +0.000 C 
ATOM     59  F7  UNL A   1      44.028  38.442  33.399  1.00  0.00    +0.000 F 
ATOM     60  C45 UNL A   1      43.461  37.333  35.406  1.00  0.00    +0.000 C 
ATOM     61  F8  UNL A   1      43.748  38.436  36.112  1.00  0.00    +0.000 F 
ATOM     62  C46 UNL A   1      43.041  36.183  36.056  1.00  0.00    +0.000 C 
ATOM     63  F9  UNL A   1      42.903  36.178  37.389  1.00  0.00    +0.000 F 
ATOM     64  C47 UNL A   1      42.767  35.030  35.327  1.00  0.00    +0.000 C 
ENDBRANCH   54   55
BRANCH   69   70
ATOM     70  C51 UNL A   1      37.114  32.870  30.695  1.00  0.00    +0.000 C 
ATOM     71  C52 UNL A   1      36.772  33.607  29.554  1.00  0.00    +0.000 C 
ATOM     72  F11 UNL A   1      37.686  33.820  28.596  1.00  0.00    +0.000 F 
ATOM     73  C53 UNL A   1      35.501  34.160  29.412  1.00  0.00    +0.000 C 
ATOM     74  F12 UNL A   1      35.213  34.900  28.332  1.00  0.00    +0.000 F 
ATOM     75  C54 UNL A   1      34.539  33.960  30.390  1.00  0.00    +0.000 C 
ATOM     76  F13 UNL A   1      33.317  34.488  30.250  1.00  0.00    +0.000 F 
ATOM     77  C55 UNL A   1      34.850  33.217  31.519  1.00  0.00    +0.000 C 
ATOM     78  F14 UNL A   1      33.919  33.006  32.461  1.00  0.00    +0.000 F 
ATOM     79  C56 UNL A   1      36.128  32.690  31.678  1.00  0.00    +0.000 C 
ATOM     80  F15 UNL A   1      36.405  31.985  32.785  1.00  0.00    +0.000 F 
ENDBRANCH   69   70
TORSDOF 17
ENDMDL
MODEL 7
REMARK VINA RESULT:     -10.4      1.362      2.212
ROOT
ATOM    129  H38 UNL A   1      42.764  26.299  29.438  1.00  0.00    +0.000 H 
ATOM     33  C27 UNL A   1      40.629  28.184  29.656  1.00  0.00    +0.000 C 
ATOM     34  C28 UNL A   1      42.012  28.287  30.228  1.00  0.00    +0.000 C 
ATOM     35  N4  UNL A   1      42.538  29.255  30.936  1.00  0.00    +0.000 N 
ATOM     36  C29 UNL A   1      43.832  28.850  31.235  1.00  0.00    +0.000 C 
ATOM     37  C30 UNL A   1      44.780  29.520  31.933  1.00  0.00    +0.000 C 
ATOM     49  C37 UNL A   1      44.600  30.833  32.496  1.00  0.00    +0.000 C 
ATOM     50  C38 UNL A   1      45.522  31.619  33.168  1.00  0.00    +0.000 C 
ATOM     51  C39 UNL A   1      44.883  32.793  33.578  1.00  0.00    +0.000 C 
ATOM     52  C40 UNL A   1      43.574  32.761  33.124  1.00  0.00    +0.000 C 
ATOM     53  N5  UNL A   1      43.414  31.554  32.461  1.00  0.00    +0.000 N 
ATOM     54  C41 UNL A   1      42.545  33.754  33.289  1.00  0.00    +0.000 C 
ATOM     66  C48 UNL A   1      41.296  33.674  32.771  1.00  0.00    +0.000 C 
ATOM     67  N6  UNL A   1      40.730  32.662  32.011  1.00  0.00    +0.000 N 
ATOM     68  C49 UNL A   1      39.494  33.033  31.783  1.00  0.00    +0.000 C 
ATOM     69  C50 UNL A   1      38.424  32.326  31.004  1.00  0.00    +0.000 C 
ATOM     81  C57 UNL A   1      38.703  31.133  30.449  1.00  0.00    +0.000 C 
ATOM     82  C58 UNL A   1      37.767  30.326  29.676  1.00  0.00    +0.000 C 
ATOM     83  C59 UNL A   1      38.358  29.170  29.347  1.00  0.00    +0.000 C 
ATOM     84  C60 UNL A   1      39.738  29.178  29.839  1.00  0.00    +0.000 C 
ATOM     85  N7  UNL A   1      39.856  30.387  30.476  1.00  0.00    +0.000 N 
ATOM     86  C61 UNL A   1      39.131  34.322  32.384  1.00  0.00    +0.000 C 
ATOM     87  C62 UNL A   1      40.275  34.688  32.943  1.00  0.00    +0.000 C 
ATOM     88  C63 UNL A   1      44.010  27.540  30.646  1.00  0.00    +0.000 C 
ATOM     89  C64 UNL A   1      42.925  27.160  29.983  1.00  0.00    +0.000 C 
ATOM    120  H29 UNL A   1      46.512  31.379  33.336  1.00  0.00    +0.000 H 
ATOM    121  H30 UNL A   1      45.313  33.554  34.127  1.00  0.00    +0.000 H 
ATOM    122  H31 UNL A   1      42.583  31.253  32.029  1.00  0.00    +0.000 H 
ATOM    123  H32 UNL A   1      36.804  30.602  29.423  1.00  0.00    +0.000 H 
ATOM    124  H33 UNL A   1      37.912  28.395  28.831  1.00  0.00    +0.000 H 
ATOM    125  H34 UNL A   1      40.686  30.689  30.910  1.00  0.00    +0.000 H 
ATOM    126  H35 UNL A   1      38.223  34.814  32.373  1.00  0.00    +0.000 H 
ATOM    127  H36 UNL A   1      40.421  35.582  33.439  1.00  0.00    +0.000 H 
ATOM    128  H37 UNL A   1      44.870  26.974  30.731  1.00  0.00    +0.000 H 
ENDROOT
BRANCH   33   32
ATOM    130  H39 UNL A   1      39.059  26.095  30.395  1.00  0.00    +0.000 H 
ATOM    131  H40 UNL A   1      38.299  24.239  29.025  1.00  0.00    +0.000 H 
ATOM    118  H27 UNL A   1      40.280  25.890  25.698  1.00  0.00    +0.000 H 
ATOM    119  H28 UNL A   1      41.235  27.605  27.117  1.00  0.00    +0.000 H 
ATOM     90  C65 UNL A   1      39.353  26.029  29.408  1.00  0.00    +0.000 C 
ATOM     91  C66 UNL A   1      38.904  24.968  28.616  1.00  0.00    +0.000 C 
ATOM     29  C23 UNL A   1      39.276  24.899  27.271  1.00  0.00    +0.000 C 
ATOM     30  C24 UNL A   1      40.071  25.902  26.709  1.00  0.00    +0.000 C 
ATOM     31  C25 UNL A   1      40.579  26.914  27.514  1.00  0.00    +0.000 C 
ATOM     32  C26 UNL A   1      40.205  27.003  28.865  1.00  0.00    +0.000 C 
BRANCH   29    2
ATOM      1  O1  UNL A   1      39.533  22.814  26.226  1.00  0.00    +0.000 O 
ATOM      2  C1  UNL A   1      38.795  23.770  26.446  1.00  0.00    +0.000 C 
BRANCH    2    3
ATOM      3  N1  UNL A   1      37.526  23.803  25.923  1.00  0.00    +0.000 N 
ATOM     92  H1  UNL A   1      36.878  24.365  26.408  1.00  0.00    +0.000 H 
BRANCH    3    4
ATOM      4  C2  UNL A   1      37.012  23.121  24.747  1.00  0.00    +0.000 C 
ATOM     93  H2  UNL A   1      37.133  22.066  24.883  1.00  0.00    +0.000 H 
ATOM     94  H3  UNL A   1      37.561  23.470  23.899  1.00  0.00    +0.000 H 
BRANCH    4    5
ATOM      5  C3  UNL A   1      35.539  23.418  24.506  1.00  0.00    +0.000 C 
ATOM     95  H4  UNL A   1      35.350  24.429  24.798  1.00  0.00    +0.000 H 
ATOM     96  H5  UNL A   1      34.987  22.705  25.082  1.00  0.00    +0.000 H 
BRANCH    5    6
ATOM     97  H6  UNL A   1      34.841  22.217  22.904  1.00  0.00    +0.000 H 
ATOM     98  H7  UNL A   1      35.899  23.587  22.449  1.00  0.00    +0.000 H 
ATOM      6  C4  UNL A   1      35.086  23.247  23.055  1.00  0.00    +0.000 C 
BRANCH    6    7
ATOM     99  H8  UNL A   1      32.989  23.529  22.883  1.00  0.00    +0.000 H 
ATOM    100  H9  UNL A   1      33.987  24.287  21.603  1.00  0.00    +0.000 H 
ATOM      7  C5  UNL A   1      33.871  24.088  22.648  1.00  0.00    +0.000 C 
BRANCH    7    8
ATOM    101  H10 UNL A   1      33.967  26.214  22.600  1.00  0.00    +0.000 H 
ATOM    102  H11 UNL A   1      34.461  25.458  24.138  1.00  0.00    +0.000 H 
ATOM      8  C6  UNL A   1      33.759  25.459  23.330  1.00  0.00    +0.000 C 
BRANCH    8    9
ATOM      9  C7  UNL A   1      32.388  25.749  23.940  1.00  0.00    +0.000 C 
ATOM    103  H12 UNL A   1      31.635  25.263  23.355  1.00  0.00    +0.000 H 
ATOM    104  H13 UNL A   1      32.235  26.807  23.945  1.00  0.00    +0.000 H 
BRANCH    9   10
ATOM    105  H14 UNL A   1      33.126  25.399  25.839  1.00  0.00    +0.000 H 
ATOM     10  N2  UNL A   1      32.312  25.267  25.303  1.00  0.00    +0.000 N 
BRANCH   10   11
ATOM     11  C8  UNL A   1      31.277  24.657  25.956  1.00  0.00    +0.000 C 
ATOM     12  O2  UNL A   1      30.241  25.307  26.090  1.00  0.00    +0.000 O 
BRANCH   11   13
ATOM    106  H15 UNL A   1      30.537  23.021  26.937  1.00  0.00    +0.000 H 
ATOM    107  H16 UNL A   1      32.361  23.187  28.464  1.00  0.00    +0.000 H 
ATOM    108  H17 UNL A   1      33.387  23.926  27.292  1.00  0.00    +0.000 H 
ATOM     13  C9  UNL A   1      31.482  23.237  26.483  1.00  0.00    +0.000 C 
ATOM     14  C10 UNL A   1      32.691  23.128  27.446  1.00  0.00    +0.000 C 
ATOM     15  C11 UNL A   1      33.331  21.760  27.171  1.00  0.00    +0.000 C 
ATOM     16  N3  UNL A   1      32.878  21.444  25.829  1.00  0.00    +0.000 N 
ATOM    109  H18 UNL A   1      32.990  21.028  27.873  1.00  0.00    +0.000 H 
ATOM    110  H19 UNL A   1      34.398  21.771  27.262  1.00  0.00    +0.000 H 
ATOM     17  C12 UNL A   1      33.251  20.576  24.848  1.00  0.00    +0.000 C 
ATOM    116  H25 UNL A   1      32.439  20.419  22.849  1.00  0.00    +0.000 H 
ATOM    117  H26 UNL A   1      30.804  22.370  23.549  1.00  0.00    +0.000 H 
ATOM     26  C20 UNL A   1      32.418  20.885  23.769  1.00  0.00    +0.000 C 
ATOM     27  C21 UNL A   1      31.537  21.939  24.133  1.00  0.00    +0.000 C 
ATOM     28  C22 UNL A   1      31.864  22.265  25.421  1.00  0.00    +0.000 C 
BRANCH   17   18
ATOM     18  C13 UNL A   1      34.308  19.577  24.837  1.00  0.00    +0.000 C 
ATOM     19  O3  UNL A   1      35.500  19.867  24.742  1.00  0.00    +0.000 O 
BRANCH   18   20
ATOM    111  H20 UNL A   1      32.089  18.491  25.802  1.00  0.00    +0.000 H 
ATOM    112  H21 UNL A   1      31.522  16.141  26.022  1.00  0.00    +0.000 H 
ATOM    113  H22 UNL A   1      33.103  14.442  25.315  1.00  0.00    +0.000 H 
ATOM    114  H23 UNL A   1      35.270  15.083  24.433  1.00  0.00    +0.000 H 
ATOM    115  H24 UNL A   1      35.855  17.434  24.234  1.00  0.00    +0.000 H 
ATOM     20  C14 UNL A   1      33.996  18.137  24.959  1.00  0.00    +0.000 C 
ATOM     21  C15 UNL A   1      32.759  17.767  25.500  1.00  0.00    +0.000 C 
ATOM     22  C16 UNL A   1      32.436  16.417  25.631  1.00  0.00    +0.000 C 
ATOM     23  C17 UNL A   1      33.349  15.440  25.231  1.00  0.00    +0.000 C 
ATOM     24  C18 UNL A   1      34.594  15.809  24.719  1.00  0.00    +0.000 C 
ATOM     25  C19 UNL A   1      34.928  17.159  24.594  1.00  0.00    +0.000 C 
ENDBRANCH   18   20
ENDBRANCH   17   18
ENDBRANCH   11   13
ENDBRANCH   10   11
ENDBRANCH    9   10
ENDBRANCH    8    9
ENDBRANCH    7    8
ENDBRANCH    6    7
ENDBRANCH    5    6
ENDBRANCH    4    5
ENDBRANCH    3    4
ENDBRANCH    2    3
ENDBRANCH   29    2
ENDBRANCH   33   32
BRANCH   37   38
ATOM     38  C31 UNL A   1      46.107  28.851  32.143  1.00  0.00    +0.000 C 
ATOM     39  C32 UNL A   1      46.346  28.022  33.247  1.00  0.00    +0.000 C 
ATOM     40  F1  UNL A   1      45.413  27.884  34.202  1.00  0.00    +0.000 F 
ATOM     41  C33 UNL A   1      47.552  27.338  33.381  1.00  0.00    +0.000 C 
ATOM     42  F2  UNL A   1      47.768  26.566  34.456  1.00  0.00    +0.000 F 
ATOM     43  C34 UNL A   1      48.531  27.454  32.406  1.00  0.00    +0.000 C 
ATOM     44  F3  UNL A   1      49.684  26.781  32.528  1.00  0.00    +0.000 F 
ATOM     45  C35 UNL A   1      48.315  28.267  31.304  1.00  0.00    +0.000 C 
ATOM     46  F4  UNL A   1      49.255  28.369  30.354  1.00  0.00    +0.000 F 
ATOM     47  C36 UNL A   1      47.118  28.967  31.177  1.00  0.00    +0.000 C 
ATOM     48  F5  UNL A   1      46.937  29.744  30.098  1.00  0.00    +0.000 F 
ENDBRANCH   37   38
BRANCH   54   55
ATOM     65  F10 UNL A   1      42.362  33.883  36.123  1.00  0.00    +0.000 F 
ATOM     55  C42 UNL A   1      42.874  34.985  34.077  1.00  0.00    +0.000 C 
ATOM     56  C43 UNL A   1      43.289  36.168  33.447  1.00  0.00    +0.000 C 
ATOM     57  F6  UNL A   1      43.433  36.206  32.113  1.00  0.00    +0.000 F 
ATOM     58  C44 UNL A   1      43.601  37.302  34.191  1.00  0.00    +0.000 C 
ATOM     59  F7  UNL A   1      44.043  38.405  33.572  1.00  0.00    +0.000 F 
ATOM     60  C45 UNL A   1      43.472  37.285  35.572  1.00  0.00    +0.000 C 
ATOM     61  F8  UNL A   1      43.771  38.379  36.286  1.00  0.00    +0.000 F 
ATOM     62  C46 UNL A   1      43.044  36.133  36.214  1.00  0.00    +0.000 C 
ATOM     63  F9  UNL A   1      42.911  36.119  37.546  1.00  0.00    +0.000 F 
ATOM     64  C47 UNL A   1      42.758  34.989  35.475  1.00  0.00    +0.000 C 
ENDBRANCH   54   55
BRANCH   69   70
ATOM     70  C51 UNL A   1      37.068  32.912  30.854  1.00  0.00    +0.000 C 
ATOM     71  C52 UNL A   1      36.725  33.660  29.720  1.00  0.00    +0.000 C 
ATOM     72  F11 UNL A   1      37.636  33.874  28.759  1.00  0.00    +0.000 F 
ATOM     73  C53 UNL A   1      35.459  34.224  29.589  1.00  0.00    +0.000 C 
ATOM     74  F12 UNL A   1      35.170  34.974  28.516  1.00  0.00    +0.000 F 
ATOM     75  C54 UNL A   1      34.501  34.024  30.571  1.00  0.00    +0.000 C 
ATOM     76  F13 UNL A   1      33.282  34.564  30.442  1.00  0.00    +0.000 F 
ATOM     77  C55 UNL A   1      34.812  33.270  31.693  1.00  0.00    +0.000 C 
ATOM     78  F14 UNL A   1      33.885  33.060  32.639  1.00  0.00    +0.000 F 
ATOM     79  C56 UNL A   1      36.086  32.732  31.841  1.00  0.00    +0.000 C 
ATOM     80  F15 UNL A   1      36.364  32.018  32.941  1.00  0.00    +0.000 F 
ENDBRANCH   69   70
TORSDOF 17
ENDMDL
MODEL 8
REMARK VINA RESULT:     -10.3     38.520     44.736
ROOT
ATOM    129  H38 UNL A   1      14.919  57.679   3.594  1.00  0.00    +0.000 H 
ATOM     33  C27 UNL A   1      14.711  55.143   4.892  1.00  0.00    +0.000 C 
ATOM     34  C28 UNL A   1      15.115  55.423   3.474  1.00  0.00    +0.000 C 
ATOM     35  N4  UNL A   1      15.464  54.576   2.538  1.00  0.00    +0.000 N 
ATOM     36  C29 UNL A   1      15.717  55.342   1.408  1.00  0.00    +0.000 C 
ATOM     37  C30 UNL A   1      16.127  54.923   0.186  1.00  0.00    +0.000 C 
ATOM     49  C37 UNL A   1      16.393  53.549  -0.156  1.00  0.00    +0.000 C 
ATOM     50  C38 UNL A   1      16.870  53.034  -1.349  1.00  0.00    +0.000 C 
ATOM     51  C39 UNL A   1      16.921  51.641  -1.238  1.00  0.00    +0.000 C 
ATOM     52  C40 UNL A   1      16.518  51.290   0.041  1.00  0.00    +0.000 C 
ATOM     53  N5  UNL A   1      16.199  52.470   0.694  1.00  0.00    +0.000 N 
ATOM     54  C41 UNL A   1      16.426  49.975   0.621  1.00  0.00    +0.000 C 
ATOM     66  C48 UNL A   1      16.069  49.712   1.901  1.00  0.00    +0.000 C 
ATOM     67  N6  UNL A   1      15.710  50.598   2.905  1.00  0.00    +0.000 N 
ATOM     68  C49 UNL A   1      15.421  49.858   3.948  1.00  0.00    +0.000 C 
ATOM     69  C50 UNL A   1      14.980  50.287   5.317  1.00  0.00    +0.000 C 
ATOM     81  C57 UNL A   1      14.826  51.599   5.570  1.00  0.00    +0.000 C 
ATOM     82  C58 UNL A   1      14.396  52.164   6.844  1.00  0.00    +0.000 C 
ATOM     83  C59 UNL A   1      14.277  53.491   6.711  1.00  0.00    +0.000 C 
ATOM     84  C60 UNL A   1      14.679  53.878   5.356  1.00  0.00    +0.000 C 
ATOM     85  N7  UNL A   1      14.995  52.689   4.752  1.00  0.00    +0.000 N 
ATOM     86  C61 UNL A   1      15.554  48.414   3.719  1.00  0.00    +0.000 C 
ATOM     87  C62 UNL A   1      15.987  48.381   2.467  1.00  0.00    +0.000 C 
ATOM     88  C63 UNL A   1      15.468  56.721   1.768  1.00  0.00    +0.000 C 
ATOM     89  C64 UNL A   1      15.125  56.830   3.045  1.00  0.00    +0.000 C 
ATOM    120  H29 UNL A   1      17.142  53.584  -2.180  1.00  0.00    +0.000 H 
ATOM    121  H30 UNL A   1      17.209  50.986  -1.981  1.00  0.00    +0.000 H 
ATOM    122  H31 UNL A   1      15.881  52.532   1.623  1.00  0.00    +0.000 H 
ATOM    123  H32 UNL A   1      14.213  51.627   7.706  1.00  0.00    +0.000 H 
ATOM    124  H33 UNL A   1      13.953  54.139   7.447  1.00  0.00    +0.000 H 
ATOM    125  H34 UNL A   1      15.311  52.624   3.822  1.00  0.00    +0.000 H 
ATOM    126  H35 UNL A   1      15.362  47.631   4.364  1.00  0.00    +0.000 H 
ATOM    127  H36 UNL A   1      16.235  47.517   1.960  1.00  0.00    +0.000 H 
ATOM    128  H37 UNL A   1      15.546  57.518   1.115  1.00  0.00    +0.000 H 
ENDROOT
BRANCH   33   32
ATOM    130  H39 UNL A   1      16.335  56.763   6.347  1.00  0.00    +0.000 H 
ATOM    131  H40 UNL A   1      15.699  58.621   7.777  1.00  0.00    +0.000 H 
ATOM    118  H27 UNL A   1      11.659  58.007   6.770  1.00  0.00    +0.000 H 
ATOM    119  H28 UNL A   1      12.268  56.010   5.542  1.00  0.00    +0.000 H 
ATOM     90  C65 UNL A   1      15.338  57.001   6.471  1.00  0.00    +0.000 C 
ATOM     91  C66 UNL A   1      14.974  58.079   7.282  1.00  0.00    +0.000 C 
ATOM     29  C23 UNL A   1      13.626  58.420   7.421  1.00  0.00    +0.000 C 
ATOM     30  C24 UNL A   1      12.645  57.705   6.728  1.00  0.00    +0.000 C 
ATOM     31  C25 UNL A   1      13.001  56.587   5.982  1.00  0.00    +0.000 C 
ATOM     32  C26 UNL A   1      14.352  56.239   5.825  1.00  0.00    +0.000 C 
BRANCH   29    2
ATOM      1  O1  UNL A   1      12.850  59.360   9.425  1.00  0.00    +0.000 O 
ATOM      2  C1  UNL A   1      13.256  59.562   8.285  1.00  0.00    +0.000 C 
BRANCH    2    3
ATOM      3  N1  UNL A   1      13.360  60.842   7.799  1.00  0.00    +0.000 N 
ATOM     92  H1  UNL A   1      14.257  61.245   7.845  1.00  0.00    +0.000 H 
BRANCH    3    4
ATOM      4  C2  UNL A   1      12.321  61.681   7.226  1.00  0.00    +0.000 C 
ATOM     93  H2  UNL A   1      12.505  62.697   7.507  1.00  0.00    +0.000 H 
ATOM     94  H3  UNL A   1      11.379  61.337   7.599  1.00  0.00    +0.000 H 
BRANCH    4    5
ATOM      5  C3  UNL A   1      12.282  61.592   5.706  1.00  0.00    +0.000 C 
ATOM     95  H4  UNL A   1      12.050  62.562   5.320  1.00  0.00    +0.000 H 
ATOM     96  H5  UNL A   1      11.544  60.856   5.464  1.00  0.00    +0.000 H 
BRANCH    5    6
ATOM     97  H6  UNL A   1      14.252  60.823   5.848  1.00  0.00    +0.000 H 
ATOM     98  H7  UNL A   1      13.951  61.949   4.490  1.00  0.00    +0.000 H 
ATOM      6  C4  UNL A   1      13.589  61.123   5.065  1.00  0.00    +0.000 C 
BRANCH    6    7
ATOM     99  H8  UNL A   1      13.861  59.080   4.552  1.00  0.00    +0.000 H 
ATOM    100  H9  UNL A   1      13.969  60.248   3.197  1.00  0.00    +0.000 H 
ATOM      7  C5  UNL A   1      13.451  59.952   4.085  1.00  0.00    +0.000 C 
BRANCH    7    8
ATOM    101  H10 UNL A   1      11.631  60.462   3.106  1.00  0.00    +0.000 H 
ATOM    102  H11 UNL A   1      11.463  59.417   4.541  1.00  0.00    +0.000 H 
ATOM      8  C6  UNL A   1      12.016  59.624   3.649  1.00  0.00    +0.000 C 
BRANCH    8    9
ATOM      9  C7  UNL A   1      11.896  58.384   2.762  1.00  0.00    +0.000 C 
ATOM    103  H12 UNL A   1      12.841  57.883   2.731  1.00  0.00    +0.000 H 
ATOM    104  H13 UNL A   1      11.603  58.695   1.781  1.00  0.00    +0.000 H 
BRANCH    9   10
ATOM    105  H14 UNL A   1      10.299  57.849   3.962  1.00  0.00    +0.000 H 
ATOM     10  N2  UNL A   1      10.894  57.473   3.274  1.00  0.00    +0.000 N 
BRANCH   10   11
ATOM     11  C8  UNL A   1      10.651  56.169   2.944  1.00  0.00    +0.000 C 
ATOM     12  O2  UNL A   1       9.481  55.789   2.995  1.00  0.00    +0.000 O 
BRANCH   11   13
ATOM    106  H15 UNL A   1      12.666  55.815   2.965  1.00  0.00    +0.000 H 
ATOM    107  H16 UNL A   1      12.613  55.718   0.584  1.00  0.00    +0.000 H 
ATOM    108  H17 UNL A   1      10.973  55.188   0.555  1.00  0.00    +0.000 H 
ATOM     13  C9  UNL A   1      11.833  55.280   2.558  1.00  0.00    +0.000 C 
ATOM     14  C10 UNL A   1      11.920  55.035   1.031  1.00  0.00    +0.000 C 
ATOM     15  C11 UNL A   1      12.409  53.590   0.860  1.00  0.00    +0.000 C 
ATOM     16  N3  UNL A   1      12.055  52.967   2.122  1.00  0.00    +0.000 N 
ATOM    109  H18 UNL A   1      13.466  53.559   0.700  1.00  0.00    +0.000 H 
ATOM    110  H19 UNL A   1      11.975  53.098   0.014  1.00  0.00    +0.000 H 
ATOM     17  C12 UNL A   1      11.917  51.692   2.581  1.00  0.00    +0.000 C 
ATOM    116  H25 UNL A   1      11.238  51.061   4.535  1.00  0.00    +0.000 H 
ATOM    117  H26 UNL A   1      11.041  53.631   5.103  1.00  0.00    +0.000 H 
ATOM     26  C20 UNL A   1      11.459  51.837   3.893  1.00  0.00    +0.000 C 
ATOM     27  C21 UNL A   1      11.343  53.218   4.207  1.00  0.00    +0.000 C 
ATOM     28  C22 UNL A   1      11.714  53.887   3.073  1.00  0.00    +0.000 C 
BRANCH   17   18
ATOM     18  C13 UNL A   1      12.119  50.425   1.894  1.00  0.00    +0.000 C 
ATOM     19  O3  UNL A   1      12.846  50.308   0.909  1.00  0.00    +0.000 O 
BRANCH   18   20
ATOM    111  H20 UNL A   1      13.267  48.334   3.054  1.00  0.00    +0.000 H 
ATOM    112  H21 UNL A   1      12.235  46.287   3.853  1.00  0.00    +0.000 H 
ATOM    113  H22 UNL A   1       9.841  45.966   3.619  1.00  0.00    +0.000 H 
ATOM    114  H23 UNL A   1       8.481  47.663   2.545  1.00  0.00    +0.000 H 
ATOM    115  H24 UNL A   1       9.512  49.704   1.718  1.00  0.00    +0.000 H 
ATOM     20  C14 UNL A   1      11.459  49.190   2.368  1.00  0.00    +0.000 C 
ATOM     21  C15 UNL A   1      12.249  48.197   2.957  1.00  0.00    +0.000 C 
ATOM     22  C16 UNL A   1      11.656  47.019   3.412  1.00  0.00    +0.000 C 
ATOM     23  C17 UNL A   1      10.281  46.831   3.269  1.00  0.00    +0.000 C 
ATOM     24  C18 UNL A   1       9.497  47.810   2.655  1.00  0.00    +0.000 C 
ATOM     25  C19 UNL A   1      10.086  48.987   2.190  1.00  0.00    +0.000 C 
ENDBRANCH   18   20
ENDBRANCH   17   18
ENDBRANCH   11   13
ENDBRANCH   10   11
ENDBRANCH    9   10
ENDBRANCH    8    9
ENDBRANCH    7    8
ENDBRANCH    6    7
ENDBRANCH    5    6
ENDBRANCH    4    5
ENDBRANCH    3    4
ENDBRANCH    2    3
ENDBRANCH   29    2
ENDBRANCH   33   32
BRANCH   37   38
ATOM     38  C31 UNL A   1      16.309  55.954  -0.889  1.00  0.00    +0.000 C 
ATOM     39  C32 UNL A   1      17.550  56.563  -1.121  1.00  0.00    +0.000 C 
ATOM     40  F1  UNL A   1      18.591  56.304  -0.314  1.00  0.00    +0.000 F 
ATOM     41  C33 UNL A   1      17.724  57.451  -2.179  1.00  0.00    +0.000 C 
ATOM     42  F2  UNL A   1      18.914  58.039  -2.371  1.00  0.00    +0.000 F 
ATOM     43  C34 UNL A   1      16.670  57.731  -3.036  1.00  0.00    +0.000 C 
ATOM     44  F3  UNL A   1      16.845  58.572  -4.065  1.00  0.00    +0.000 F 
ATOM     45  C35 UNL A   1      15.434  57.138  -2.826  1.00  0.00    +0.000 C 
ATOM     46  F4  UNL A   1      14.418  57.397  -3.661  1.00  0.00    +0.000 F 
ATOM     47  C36 UNL A   1      15.252  56.265  -1.757  1.00  0.00    +0.000 C 
ATOM     48  F5  UNL A   1      14.045  55.704  -1.582  1.00  0.00    +0.000 F 
ENDBRANCH   37   38
BRANCH   54   55
ATOM     65  F10 UNL A   1      14.525  48.659  -1.034  1.00  0.00    +0.000 F 
ATOM     55  C42 UNL A   1      16.765  48.799  -0.244  1.00  0.00    +0.000 C 
ATOM     56  C43 UNL A   1      18.062  48.266  -0.277  1.00  0.00    +0.000 C 
ATOM     57  F6  UNL A   1      19.041  48.829   0.448  1.00  0.00    +0.000 F 
ATOM     58  C44 UNL A   1      18.367  47.179  -1.091  1.00  0.00    +0.000 C 
ATOM     59  F7  UNL A   1      19.624  46.718  -1.145  1.00  0.00    +0.000 F 
ATOM     60  C45 UNL A   1      17.376  46.586  -1.859  1.00  0.00    +0.000 C 
ATOM     61  F8  UNL A   1      17.672  45.538  -2.641  1.00  0.00    +0.000 F 
ATOM     62  C46 UNL A   1      16.083  47.084  -1.826  1.00  0.00    +0.000 C 
ATOM     63  F9  UNL A   1      15.123  46.506  -2.561  1.00  0.00    +0.000 F 
ATOM     64  C47 UNL A   1      15.780  48.187  -1.035  1.00  0.00    +0.000 C 
ENDBRANCH   54   55
BRANCH   69   70
ATOM     70  C51 UNL A   1      14.697  49.290   6.381  1.00  0.00    +0.000 C 
ATOM     71  C52 UNL A   1      15.714  48.825   7.224  1.00  0.00    +0.000 C 
ATOM     72  F11 UNL A   1      16.971  49.266   7.064  1.00  0.00    +0.000 F 
ATOM     73  C53 UNL A   1      15.451  47.877   8.210  1.00  0.00    +0.000 C 
ATOM     74  F12 UNL A   1      16.450  47.414   8.974  1.00  0.00    +0.000 F 
ATOM     75  C54 UNL A   1      14.162  47.401   8.393  1.00  0.00    +0.000 C 
ATOM     76  F13 UNL A   1      13.909  46.492   9.345  1.00  0.00    +0.000 F 
ATOM     77  C55 UNL A   1      13.135  47.862   7.583  1.00  0.00    +0.000 C 
ATOM     78  F14 UNL A   1      11.884  47.417   7.765  1.00  0.00    +0.000 F 
ATOM     79  C56 UNL A   1      13.402  48.785   6.576  1.00  0.00    +0.000 C 
ATOM     80  F15 UNL A   1      12.393  49.205   5.799  1.00  0.00    +0.000 F 
ENDBRANCH   69   70
TORSDOF 17
ENDMDL
MODEL 9
REMARK VINA RESULT:     -10.3     31.269     34.958
ROOT
ATOM    129  H38 UNL A   1      21.225  20.316   3.525  1.00  0.00    +0.000 H 
ATOM     33  C27 UNL A   1      18.775  21.533   4.345  1.00  0.00    +0.000 C 
ATOM     34  C28 UNL A   1      19.345  20.217   4.789  1.00  0.00    +0.000 C 
ATOM     35  N4  UNL A   1      18.853  19.356   5.644  1.00  0.00    +0.000 N 
ATOM     36  C29 UNL A   1      19.753  18.299   5.680  1.00  0.00    +0.000 C 
ATOM     37  C30 UNL A   1      19.693  17.172   6.430  1.00  0.00    +0.000 C 
ATOM     49  C37 UNL A   1      18.643  16.875   7.370  1.00  0.00    +0.000 C 
ATOM     50  C38 UNL A   1      18.526  15.788   8.220  1.00  0.00    +0.000 C 
ATOM     51  C39 UNL A   1      17.315  15.897   8.910  1.00  0.00    +0.000 C 
ATOM     52  C40 UNL A   1      16.696  17.075   8.524  1.00  0.00    +0.000 C 
ATOM     53  N5  UNL A   1      17.521  17.666   7.580  1.00  0.00    +0.000 N 
ATOM     54  C41 UNL A   1      15.442  17.617   8.977  1.00  0.00    +0.000 C 
ATOM     66  C48 UNL A   1      14.921  18.806   8.589  1.00  0.00    +0.000 C 
ATOM     67  N6  UNL A   1      15.435  19.732   7.695  1.00  0.00    +0.000 N 
ATOM     68  C49 UNL A   1      14.551  20.697   7.630  1.00  0.00    +0.000 C 
ATOM     69  C50 UNL A   1      14.590  21.962   6.825  1.00  0.00    +0.000 C 
ATOM     81  C57 UNL A   1      15.648  22.193   6.025  1.00  0.00    +0.000 C 
ATOM     82  C58 UNL A   1      15.821  23.367   5.180  1.00  0.00    +0.000 C 
ATOM     83  C59 UNL A   1      16.946  23.226   4.466  1.00  0.00    +0.000 C 
ATOM     84  C60 UNL A   1      17.603  21.973   4.846  1.00  0.00    +0.000 C 
ATOM     85  N7  UNL A   1      16.763  21.429   5.783  1.00  0.00    +0.000 N 
ATOM     86  C61 UNL A   1      13.366  20.486   8.471  1.00  0.00    +0.000 C 
ATOM     87  C62 UNL A   1      13.659  19.337   9.062  1.00  0.00    +0.000 C 
ATOM     88  C63 UNL A   1      20.814  18.617   4.749  1.00  0.00    +0.000 C 
ATOM     89  C64 UNL A   1      20.627  19.808   4.196  1.00  0.00    +0.000 C 
ATOM    120  H29 UNL A   1      19.217  15.028   8.326  1.00  0.00    +0.000 H 
ATOM    121  H30 UNL A   1      16.945  15.215   9.590  1.00  0.00    +0.000 H 
ATOM    122  H31 UNL A   1      17.339  18.520   7.126  1.00  0.00    +0.000 H 
ATOM    123  H32 UNL A   1      15.181  24.177   5.139  1.00  0.00    +0.000 H 
ATOM    124  H33 UNL A   1      17.293  23.892   3.758  1.00  0.00    +0.000 H 
ATOM    125  H34 UNL A   1      16.943  20.574   6.237  1.00  0.00    +0.000 H 
ATOM    126  H35 UNL A   1      12.526  21.078   8.574  1.00  0.00    +0.000 H 
ATOM    127  H36 UNL A   1      13.063  18.878   9.769  1.00  0.00    +0.000 H 
ATOM    128  H37 UNL A   1      21.614  17.996   4.541  1.00  0.00    +0.000 H 
ENDROOT
BRANCH   33   32
ATOM    130  H39 UNL A   1      20.599  23.497   4.778  1.00  0.00    +0.000 H 
ATOM    131  H40 UNL A   1      21.813  24.799   3.124  1.00  0.00    +0.000 H 
ATOM    118  H27 UNL A   1      19.938  22.627   0.045  1.00  0.00    +0.000 H 
ATOM    119  H28 UNL A   1      18.552  21.501   1.682  1.00  0.00    +0.000 H 
ATOM     90  C65 UNL A   1      20.428  23.342   3.771  1.00  0.00    +0.000 C 
ATOM     91  C66 UNL A   1      21.137  24.081   2.821  1.00  0.00    +0.000 C 
ATOM     29  C23 UNL A   1      20.928  23.845   1.459  1.00  0.00    +0.000 C 
ATOM     30  C24 UNL A   1      20.033  22.853   1.047  1.00  0.00    +0.000 C 
ATOM     31  C25 UNL A   1      19.273  22.172   1.991  1.00  0.00    +0.000 C 
ATOM     32  C26 UNL A   1      19.481  22.391   3.362  1.00  0.00    +0.000 C 
BRANCH   29    2
ATOM      1  O1  UNL A   1      22.515  25.458   0.841  1.00  0.00    +0.000 O 
ATOM      2  C1  UNL A   1      21.683  24.637   0.465  1.00  0.00    +0.000 C 
BRANCH    2    3
ATOM      3  N1  UNL A   1      21.441  24.454  -0.874  1.00  0.00    +0.000 N 
ATOM     92  H1  UNL A   1      22.036  23.817  -1.333  1.00  0.00    +0.000 H 
BRANCH    3    4
ATOM      4  C2  UNL A   1      20.423  25.074  -1.704  1.00  0.00    +0.000 C 
ATOM     93  H2  UNL A   1      19.459  24.767  -1.352  1.00  0.00    +0.000 H 
ATOM     94  H3  UNL A   1      20.588  24.764  -2.713  1.00  0.00    +0.000 H 
BRANCH    4    5
ATOM      5  C3  UNL A   1      20.496  26.595  -1.665  1.00  0.00    +0.000 C 
ATOM     95  H4  UNL A   1      21.254  26.875  -0.964  1.00  0.00    +0.000 H 
ATOM     96  H5  UNL A   1      19.521  26.939  -1.388  1.00  0.00    +0.000 H 
BRANCH    5    6
ATOM     97  H6  UNL A   1      19.899  27.491  -3.491  1.00  0.00    +0.000 H 
ATOM     98  H7  UNL A   1      21.414  26.540  -3.548  1.00  0.00    +0.000 H 
ATOM      6  C4  UNL A   1      20.822  27.249  -3.009  1.00  0.00    +0.000 C 
BRANCH    6    7
ATOM     99  H8  UNL A   1      21.627  28.881  -1.914  1.00  0.00    +0.000 H 
ATOM    100  H9  UNL A   1      21.237  29.208  -3.631  1.00  0.00    +0.000 H 
ATOM      7  C5  UNL A   1      21.663  28.528  -2.924  1.00  0.00    +0.000 C 
BRANCH    7    8
ATOM    101  H10 UNL A   1      23.273  28.813  -4.287  1.00  0.00    +0.000 H 
ATOM    102  H11 UNL A   1      23.353  27.327  -3.304  1.00  0.00    +0.000 H 
ATOM      8  C6  UNL A   1      23.138  28.375  -3.320  1.00  0.00    +0.000 C 
BRANCH    8    9
ATOM      9  C7  UNL A   1      24.121  29.039  -2.355  1.00  0.00    +0.000 C 
ATOM    103  H12 UNL A   1      24.166  30.087  -2.568  1.00  0.00    +0.000 H 
ATOM    104  H13 UNL A   1      25.082  28.587  -2.484  1.00  0.00    +0.000 H 
BRANCH    9   10
ATOM    105  H14 UNL A   1      23.320  27.972  -0.775  1.00  0.00    +0.000 H 
ATOM     10  N2  UNL A   1      23.707  28.853  -0.980  1.00  0.00    +0.000 N 
BRANCH   10   11
ATOM     11  C8  UNL A   1      23.775  29.718   0.076  1.00  0.00    +0.000 C 
ATOM     12  O2  UNL A   1      24.887  30.158   0.367  1.00  0.00    +0.000 O 
BRANCH   11   13
ATOM    106  H15 UNL A   1      22.830  30.741   1.576  1.00  0.00    +0.000 H 
ATOM    107  H16 UNL A   1      22.030  28.656   2.411  1.00  0.00    +0.000 H 
ATOM    108  H17 UNL A   1      22.061  27.921   0.853  1.00  0.00    +0.000 H 
ATOM     13  C9  UNL A   1      22.487  30.060   0.824  1.00  0.00    +0.000 C 
ATOM     14  C10 UNL A   1      21.772  28.805   1.383  1.00  0.00    +0.000 C 
ATOM     15  C11 UNL A   1      20.267  29.077   1.245  1.00  0.00    +0.000 C 
ATOM     16  N3  UNL A   1      20.205  30.089   0.206  1.00  0.00    +0.000 N 
ATOM    109  H18 UNL A   1      19.858  29.445   2.163  1.00  0.00    +0.000 H 
ATOM    110  H19 UNL A   1      19.702  28.199   1.010  1.00  0.00    +0.000 H 
ATOM     17  C12 UNL A   1      19.243  30.589  -0.619  1.00  0.00    +0.000 C 
ATOM    116  H25 UNL A   1      19.489  32.049  -2.196  1.00  0.00    +0.000 H 
ATOM    117  H26 UNL A   1      22.035  32.113  -1.500  1.00  0.00    +0.000 H 
ATOM     26  C20 UNL A   1      19.921  31.493  -1.441  1.00  0.00    +0.000 C 
ATOM     27  C21 UNL A   1      21.294  31.531  -1.079  1.00  0.00    +0.000 C 
ATOM     28  C22 UNL A   1      21.431  30.634  -0.056  1.00  0.00    +0.000 C 
BRANCH   17   18
ATOM     18  C13 UNL A   1      17.832  30.253  -0.719  1.00  0.00    +0.000 C 
ATOM     19  O3  UNL A   1      17.410  29.346  -1.434  1.00  0.00    +0.000 O 
BRANCH   18   20
ATOM    111  H20 UNL A   1      15.221  30.370  -1.175  1.00  0.00    +0.000 H 
ATOM    112  H21 UNL A   1      13.514  31.558   0.077  1.00  0.00    +0.000 H 
ATOM    113  H22 UNL A   1      14.131  32.864   2.027  1.00  0.00    +0.000 H 
ATOM    114  H23 UNL A   1      16.455  33.025   2.702  1.00  0.00    +0.000 H 
ATOM    115  H24 UNL A   1      18.173  31.860   1.437  1.00  0.00    +0.000 H 
ATOM     20  C14 UNL A   1      16.818  30.990   0.065  1.00  0.00    +0.000 C 
ATOM     21  C15 UNL A   1      15.481  30.924  -0.345  1.00  0.00    +0.000 C 
ATOM     22  C16 UNL A   1      14.502  31.610   0.372  1.00  0.00    +0.000 C 
ATOM     23  C17 UNL A   1      14.858  32.367   1.489  1.00  0.00    +0.000 C 
ATOM     24  C18 UNL A   1      16.195  32.457   1.881  1.00  0.00    +0.000 C 
ATOM     25  C19 UNL A   1      17.182  31.780   1.161  1.00  0.00    +0.000 C 
ENDBRANCH   18   20
ENDBRANCH   17   18
ENDBRANCH   11   13
ENDBRANCH   10   11
ENDBRANCH    9   10
ENDBRANCH    8    9
ENDBRANCH    7    8
ENDBRANCH    6    7
ENDBRANCH    5    6
ENDBRANCH    4    5
ENDBRANCH    3    4
ENDBRANCH    2    3
ENDBRANCH   29    2
ENDBRANCH   33   32
BRANCH   37   38
ATOM     38  C31 UNL A   1      20.787  16.159   6.269  1.00  0.00    +0.000 C 
ATOM     39  C32 UNL A   1      21.920  16.161   7.094  1.00  0.00    +0.000 C 
ATOM     40  F1  UNL A   1      22.098  17.142   7.993  1.00  0.00    +0.000 F 
ATOM     41  C33 UNL A   1      22.884  15.161   6.990  1.00  0.00    +0.000 C 
ATOM     42  F2  UNL A   1      23.970  15.195   7.775  1.00  0.00    +0.000 F 
ATOM     43  C34 UNL A   1      22.723  14.130   6.077  1.00  0.00    +0.000 C 
ATOM     44  F3  UNL A   1      23.642  13.158   5.992  1.00  0.00    +0.000 F 
ATOM     45  C35 UNL A   1      21.608  14.106   5.253  1.00  0.00    +0.000 C 
ATOM     46  F4  UNL A   1      21.445  13.102   4.379  1.00  0.00    +0.000 F 
ATOM     47  C36 UNL A   1      20.653  15.115   5.340  1.00  0.00    +0.000 C 
ATOM     48  F5  UNL A   1      19.584  15.062   4.531  1.00  0.00    +0.000 F 
ENDBRANCH   37   38
BRANCH   54   55
ATOM     65  F10 UNL A   1      13.422  15.761   8.229  1.00  0.00    +0.000 F 
ATOM     55  C42 UNL A   1      14.649  16.822   9.970  1.00  0.00    +0.000 C 
ATOM     56  C43 UNL A   1      14.857  16.960  11.351  1.00  0.00    +0.000 C 
ATOM     57  F6  UNL A   1      15.806  17.792  11.809  1.00  0.00    +0.000 F 
ATOM     58  C44 UNL A   1      14.121  16.210  12.262  1.00  0.00    +0.000 C 
ATOM     59  F7  UNL A   1      14.371  16.321  13.574  1.00  0.00    +0.000 F 
ATOM     60  C45 UNL A   1      13.143  15.334  11.814  1.00  0.00    +0.000 C 
ATOM     61  F8  UNL A   1      12.435  14.614  12.695  1.00  0.00    +0.000 F 
ATOM     62  C46 UNL A   1      12.907  15.197  10.455  1.00  0.00    +0.000 C 
ATOM     63  F9  UNL A   1      11.956  14.359  10.022  1.00  0.00    +0.000 F 
ATOM     64  C47 UNL A   1      13.660  15.925   9.539  1.00  0.00    +0.000 C 
ENDBRANCH   54   55
BRANCH   69   70
ATOM     70  C51 UNL A   1      13.481  22.947   6.885  1.00  0.00    +0.000 C 
ATOM     71  C52 UNL A   1      13.391  23.872   7.933  1.00  0.00    +0.000 C 
ATOM     72  F11 UNL A   1      14.305  23.863   8.914  1.00  0.00    +0.000 F 
ATOM     73  C53 UNL A   1      12.339  24.783   7.997  1.00  0.00    +0.000 C 
ATOM     74  F12 UNL A   1      12.251  25.628   9.034  1.00  0.00    +0.000 F 
ATOM     75  C54 UNL A   1      11.377  24.809   6.999  1.00  0.00    +0.000 C 
ATOM     76  F13 UNL A   1      10.369  25.689   7.059  1.00  0.00    +0.000 F 
ATOM     77  C55 UNL A   1      11.457  23.916   5.941  1.00  0.00    +0.000 C 
ATOM     78  F14 UNL A   1      10.538  23.947   4.965  1.00  0.00    +0.000 F 
ATOM     79  C56 UNL A   1      12.489  22.984   5.892  1.00  0.00    +0.000 C 
ATOM     80  F15 UNL A   1      12.536  22.124   4.864  1.00  0.00    +0.000 F 
ENDBRANCH   69   70
TORSDOF 17
ENDMDL
MODEL 10
REMARK VINA RESULT:     -10.2     20.750     24.970
ROOT
ATOM    129  H38 UNL A   1      54.284  18.605   9.370  1.00  0.00    +0.000 H 
ATOM     33  C27 UNL A   1      53.301  19.985  11.670  1.00  0.00    +0.000 C 
ATOM     34  C28 UNL A   1      54.654  19.365  11.475  1.00  0.00    +0.000 C 
ATOM     35  N4  UNL A   1      55.668  19.329  12.302  1.00  0.00    +0.000 N 
ATOM     36  C29 UNL A   1      56.667  18.619  11.650  1.00  0.00    +0.000 C 
ATOM     37  C30 UNL A   1      57.915  18.331  12.091  1.00  0.00    +0.000 C 
ATOM     49  C37 UNL A   1      58.443  18.744  13.366  1.00  0.00    +0.000 C 
ATOM     50  C38 UNL A   1      59.716  18.552  13.877  1.00  0.00    +0.000 C 
ATOM     51  C39 UNL A   1      59.754  19.079  15.172  1.00  0.00    +0.000 C 
ATOM     52  C40 UNL A   1      58.519  19.639  15.453  1.00  0.00    +0.000 C 
ATOM     53  N5  UNL A   1      57.725  19.428  14.337  1.00  0.00    +0.000 N 
ATOM     54  C41 UNL A   1      58.093  20.311  16.653  1.00  0.00    +0.000 C 
ATOM     66  C48 UNL A   1      56.878  20.880  16.838  1.00  0.00    +0.000 C 
ATOM     67  N6  UNL A   1      55.800  20.936  15.967  1.00  0.00    +0.000 N 
ATOM     68  C49 UNL A   1      54.848  21.560  16.615  1.00  0.00    +0.000 C 
ATOM     69  C50 UNL A   1      53.463  21.909  16.155  1.00  0.00    +0.000 C 
ATOM     81  C57 UNL A   1      53.077  21.546  14.918  1.00  0.00    +0.000 C 
ATOM     82  C58 UNL A   1      51.765  21.804  14.337  1.00  0.00    +0.000 C 
ATOM     83  C59 UNL A   1      51.707  21.236  13.126  1.00  0.00    +0.000 C 
ATOM     84  C60 UNL A   1      53.001  20.619  12.821  1.00  0.00    +0.000 C 
ATOM     85  N7  UNL A   1      53.755  20.858  13.941  1.00  0.00    +0.000 N 
ATOM     86  C61 UNL A   1      55.211  21.962  17.980  1.00  0.00    +0.000 C 
ATOM     87  C62 UNL A   1      56.470  21.557  18.052  1.00  0.00    +0.000 C 
ATOM     88  C63 UNL A   1      56.135  18.227  10.363  1.00  0.00    +0.000 C 
ATOM     89  C64 UNL A   1      54.904  18.692  10.190  1.00  0.00    +0.000 C 
ATOM    120  H29 UNL A   1      60.503  18.099  13.385  1.00  0.00    +0.000 H 
ATOM    121  H30 UNL A   1      60.565  19.053  15.810  1.00  0.00    +0.000 H 
ATOM    122  H31 UNL A   1      56.789  19.721  14.246  1.00  0.00    +0.000 H 
ATOM    123  H32 UNL A   1      51.006  22.340  14.787  1.00  0.00    +0.000 H 
ATOM    124  H33 UNL A   1      50.881  21.230  12.507  1.00  0.00    +0.000 H 
ATOM    125  H34 UNL A   1      54.690  20.565  14.034  1.00  0.00    +0.000 H 
ATOM    126  H35 UNL A   1      54.636  22.437  18.694  1.00  0.00    +0.000 H 
ATOM    127  H36 UNL A   1      57.083  21.704  18.869  1.00  0.00    +0.000 H 
ATOM    128  H37 UNL A   1      56.646  17.658   9.669  1.00  0.00    +0.000 H 
ENDROOT
BRANCH   33   32
ATOM    130  H39 UNL A   1      51.574  17.984  11.048  1.00  0.00    +0.000 H 
ATOM    131  H40 UNL A   1      49.818  17.994   9.370  1.00  0.00    +0.000 H 
ATOM    118  H27 UNL A   1      50.778  21.974   8.396  1.00  0.00    +0.000 H 
ATOM    119  H28 UNL A   1      52.680  21.883   9.893  1.00  0.00    +0.000 H 
ATOM     90  C65 UNL A   1      51.432  18.817  10.455  1.00  0.00    +0.000 C 
ATOM     91  C66 UNL A   1      50.413  18.827   9.499  1.00  0.00    +0.000 C 
ATOM     29  C23 UNL A   1      50.200  19.968   8.721  1.00  0.00    +0.000 C 
ATOM     30  C24 UNL A   1      50.986  21.108   8.916  1.00  0.00    +0.000 C 
ATOM     31  C25 UNL A   1      52.048  21.071   9.813  1.00  0.00    +0.000 C 
ATOM     32  C26 UNL A   1      52.266  19.935  10.609  1.00  0.00    +0.000 C 
BRANCH   29    2
ATOM      1  O1  UNL A   1      47.960  20.173   8.058  1.00  0.00    +0.000 O 
ATOM      2  C1  UNL A   1      49.119  19.964   7.713  1.00  0.00    +0.000 C 
BRANCH    2    3
ATOM      3  N1  UNL A   1      49.420  19.716   6.396  1.00  0.00    +0.000 N 
ATOM     92  H1  UNL A   1      48.930  18.970   5.980  1.00  0.00    +0.000 H 
BRANCH    3    4
ATOM      4  C2  UNL A   1      50.364  20.408   5.537  1.00  0.00    +0.000 C 
ATOM     93  H2  UNL A   1      50.908  21.118   6.125  1.00  0.00    +0.000 H 
ATOM     94  H3  UNL A   1      49.810  20.888   4.759  1.00  0.00    +0.000 H 
BRANCH    4    5
ATOM      5  C3  UNL A   1      51.355  19.454   4.883  1.00  0.00    +0.000 C 
ATOM     95  H4  UNL A   1      51.299  19.587   3.824  1.00  0.00    +0.000 H 
ATOM     96  H5  UNL A   1      51.079  18.468   5.197  1.00  0.00    +0.000 H 
BRANCH    5    6
ATOM     97  H6  UNL A   1      52.990  20.707   5.383  1.00  0.00    +0.000 H 
ATOM     98  H7  UNL A   1      53.408  19.165   4.577  1.00  0.00    +0.000 H 
ATOM      6  C4  UNL A   1      52.809  19.656   5.314  1.00  0.00    +0.000 C 
BRANCH    6    7
ATOM     99  H8  UNL A   1      52.516  18.203   6.835  1.00  0.00    +0.000 H 
ATOM    100  H9  UNL A   1      53.109  19.802   7.385  1.00  0.00    +0.000 H 
ATOM      7  C5  UNL A   1      53.184  19.020   6.658  1.00  0.00    +0.000 C 
BRANCH    7    8
ATOM    101  H10 UNL A   1      54.739  18.018   7.711  1.00  0.00    +0.000 H 
ATOM    102  H11 UNL A   1      55.270  19.328   6.625  1.00  0.00    +0.000 H 
ATOM      8  C6  UNL A   1      54.620  18.488   6.757  1.00  0.00    +0.000 C 
BRANCH    8    9
ATOM      9  C7  UNL A   1      54.991  17.473   5.675  1.00  0.00    +0.000 C 
ATOM    103  H12 UNL A   1      55.954  17.062   5.897  1.00  0.00    +0.000 H 
ATOM    104  H13 UNL A   1      55.005  17.973   4.730  1.00  0.00    +0.000 H 
BRANCH    9   10
ATOM    105  H14 UNL A   1      53.447  16.309   6.407  1.00  0.00    +0.000 H 
ATOM     10  N2  UNL A   1      54.022  16.399   5.614  1.00  0.00    +0.000 N 
BRANCH   10   11
ATOM     11  C8  UNL A   1      53.784  15.494   4.617  1.00  0.00    +0.000 C 
ATOM     12  O2  UNL A   1      54.683  15.321   3.794  1.00  0.00    +0.000 O 
BRANCH   11   13
ATOM    106  H15 UNL A   1      52.664  13.826   5.002  1.00  0.00    +0.000 H 
ATOM    107  H16 UNL A   1      52.048  13.782   2.699  1.00  0.00    +0.000 H 
ATOM    108  H17 UNL A   1      52.233  15.487   2.528  1.00  0.00    +0.000 H 
ATOM     13  C9  UNL A   1      52.432  14.783   4.583  1.00  0.00    +0.000 C 
ATOM     14  C10 UNL A   1      51.826  14.724   3.159  1.00  0.00    +0.000 C 
ATOM     15  C11 UNL A   1      50.309  14.888   3.335  1.00  0.00    +0.000 C 
ATOM     16  N3  UNL A   1      50.193  15.543   4.625  1.00  0.00    +0.000 N 
ATOM    109  H18 UNL A   1      49.819  13.937   3.342  1.00  0.00    +0.000 H 
ATOM    110  H19 UNL A   1      49.853  15.442   2.541  1.00  0.00    +0.000 H 
ATOM     17  C12 UNL A   1      49.226  16.236   5.289  1.00  0.00    +0.000 C 
ATOM    116  H25 UNL A   1      49.395  17.226   7.204  1.00  0.00    +0.000 H 
ATOM    117  H26 UNL A   1      51.881  16.342   7.246  1.00  0.00    +0.000 H 
ATOM     26  C20 UNL A   1      49.844  16.661   6.468  1.00  0.00    +0.000 C 
ATOM     27  C21 UNL A   1      51.186  16.195   6.497  1.00  0.00    +0.000 C 
ATOM     28  C22 UNL A   1      51.366  15.512   5.326  1.00  0.00    +0.000 C 
BRANCH   17   18
ATOM     18  C13 UNL A   1      47.864  16.554   4.888  1.00  0.00    +0.000 C 
ATOM     19  O3  UNL A   1      47.565  17.598   4.310  1.00  0.00    +0.000 O 
BRANCH   18   20
ATOM    111  H20 UNL A   1      45.400  17.147   5.670  1.00  0.00    +0.000 H 
ATOM    112  H21 UNL A   1      43.544  15.644   6.106  1.00  0.00    +0.000 H 
ATOM    113  H22 UNL A   1      43.836  13.250   5.841  1.00  0.00    +0.000 H 
ATOM    114  H23 UNL A   1      45.992  12.349   5.188  1.00  0.00    +0.000 H 
ATOM    115  H24 UNL A   1      47.862  13.846   4.776  1.00  0.00    +0.000 H 
ATOM     20  C14 UNL A   1      46.756  15.611   5.147  1.00  0.00    +0.000 C 
ATOM     21  C15 UNL A   1      45.522  16.129   5.556  1.00  0.00    +0.000 C 
ATOM     22  C16 UNL A   1      44.457  15.265   5.811  1.00  0.00    +0.000 C 
ATOM     23  C17 UNL A   1      44.628  13.888   5.666  1.00  0.00    +0.000 C 
ATOM     24  C18 UNL A   1      45.868  13.369   5.286  1.00  0.00    +0.000 C 
ATOM     25  C19 UNL A   1      46.940  14.228   5.039  1.00  0.00    +0.000 C 
ENDBRANCH   18   20
ENDBRANCH   17   18
ENDBRANCH   11   13
ENDBRANCH   10   11
ENDBRANCH    9   10
ENDBRANCH    8    9
ENDBRANCH    7    8
ENDBRANCH    6    7
ENDBRANCH    5    6
ENDBRANCH    4    5
ENDBRANCH    3    4
ENDBRANCH    2    3
ENDBRANCH   29    2
ENDBRANCH   33   32
BRANCH   37   38
ATOM     38  C31 UNL A   1      58.809  17.520  11.200  1.00  0.00    +0.000 C 
ATOM     39  C32 UNL A   1      58.816  16.119  11.243  1.00  0.00    +0.000 C 
ATOM     40  F1  UNL A   1      58.084  15.468  12.160  1.00  0.00    +0.000 F 
ATOM     41  C33 UNL A   1      59.586  15.379  10.348  1.00  0.00    +0.000 C 
ATOM     42  F2  UNL A   1      59.594  14.040  10.420  1.00  0.00    +0.000 F 
ATOM     43  C34 UNL A   1      60.345  16.024   9.383  1.00  0.00    +0.000 C 
ATOM     44  F3  UNL A   1      61.071  15.309   8.512  1.00  0.00    +0.000 F 
ATOM     45  C35 UNL A   1      60.352  17.409   9.321  1.00  0.00    +0.000 C 
ATOM     46  F4  UNL A   1      61.075  18.033   8.380  1.00  0.00    +0.000 F 
ATOM     47  C36 UNL A   1      59.599  18.152  10.227  1.00  0.00    +0.000 C 
ATOM     48  F5  UNL A   1      59.623  19.490  10.139  1.00  0.00    +0.000 F 
ENDBRANCH   37   38
BRANCH   54   55
ATOM     65  F10 UNL A   1      58.636  18.161  18.433  1.00  0.00    +0.000 F 
ATOM     55  C42 UNL A   1      59.067  20.411  17.787  1.00  0.00    +0.000 C 
ATOM     56  C43 UNL A   1      59.771  21.596  18.045  1.00  0.00    +0.000 C 
ATOM     57  F6  UNL A   1      59.608  22.664  17.248  1.00  0.00    +0.000 F 
ATOM     58  C44 UNL A   1      60.680  21.674  19.096  1.00  0.00    +0.000 C 
ATOM     59  F7  UNL A   1      61.378  22.801  19.292  1.00  0.00    +0.000 F 
ATOM     60  C45 UNL A   1      60.877  20.581  19.927  1.00  0.00    +0.000 C 
ATOM     61  F8  UNL A   1      61.752  20.659  20.939  1.00  0.00    +0.000 F 
ATOM     62  C46 UNL A   1      60.177  19.406  19.703  1.00  0.00    +0.000 C 
ATOM     63  F9  UNL A   1      60.359  18.353  20.511  1.00  0.00    +0.000 F 
ATOM     64  C47 UNL A   1      59.288  19.316  18.637  1.00  0.00    +0.000 C 
ENDBRANCH   54   55
BRANCH   69   70
ATOM     70  C51 UNL A   1      52.515  22.628  17.043  1.00  0.00    +0.000 C 
ATOM     71  C52 UNL A   1      51.721  21.935  17.966  1.00  0.00    +0.000 C 
ATOM     72  F11 UNL A   1      51.796  20.598  18.043  1.00  0.00    +0.000 F 
ATOM     73  C53 UNL A   1      50.820  22.610  18.786  1.00  0.00    +0.000 C 
ATOM     74  F12 UNL A   1      50.039  21.920  19.629  1.00  0.00    +0.000 F 
ATOM     75  C54 UNL A   1      50.719  23.991  18.723  1.00  0.00    +0.000 C 
ATOM     76  F13 UNL A   1      49.855  24.639  19.515  1.00  0.00    +0.000 F 
ATOM     77  C55 UNL A   1      51.509  24.700  17.830  1.00  0.00    +0.000 C 
ATOM     78  F14 UNL A   1      51.427  26.037  17.776  1.00  0.00    +0.000 F 
ATOM     79  C56 UNL A   1      52.388  24.025  16.988  1.00  0.00    +0.000 C 
ATOM     80  F15 UNL A   1      53.132  24.733  16.126  1.00  0.00    +0.000 F 
ENDBRANCH   69   70
TORSDOF 17
ENDMDL
