MODEL 1
REMARK VINA RESULT:     -11.8      0.000      0.000
ROOT
ATOM     30  C24 UNL A   1      25.331  33.167  46.387  1.00  0.00    +0.000 C 
ATOM     31  C25 UNL A   1      26.236  32.092  46.997  1.00  0.00    +0.000 C 
ATOM     32  N4  UNL A   1      27.251  32.207  47.801  1.00  0.00    +0.000 N 
ATOM     33  C26 UNL A   1      27.798  30.919  47.971  1.00  0.00    +0.000 C 
ATOM     34  C27 UNL A   1      29.037  30.680  48.490  1.00  0.00    +0.000 C 
ATOM     46  C34 UNL A   1      29.669  31.887  48.897  1.00  0.00    +0.000 C 
ATOM     47  C35 UNL A   1      29.546  32.699  49.993  1.00  0.00    +0.000 C 
ATOM     48  C36 UNL A   1      29.966  33.974  49.548  1.00  0.00    +0.000 C 
ATOM     49  C37 UNL A   1      30.361  33.880  48.211  1.00  0.00    +0.000 C 
ATOM     50  N5  UNL A   1      30.445  32.530  47.966  1.00  0.00    +0.000 N 
ATOM     51  C38 UNL A   1      30.476  34.773  47.078  1.00  0.00    +0.000 C 
ATOM     63  C45 UNL A   1      30.098  36.064  47.256  1.00  0.00    +0.000 C 
ATOM     64  N6  UNL A   1      29.345  36.695  46.290  1.00  0.00    +0.000 N 
ATOM     65  C46 UNL A   1      28.422  37.290  46.988  1.00  0.00    +0.000 C 
ATOM     66  C47 UNL A   1      27.152  37.809  46.443  1.00  0.00    +0.000 C 
ATOM     78  C54 UNL A   1      26.379  36.710  46.173  1.00  0.00    +0.000 C 
ATOM     79  C55 UNL A   1      25.058  36.671  45.578  1.00  0.00    +0.000 C 
ATOM     80  C56 UNL A   1      24.592  35.409  45.573  1.00  0.00    +0.000 C 
ATOM     81  C57 UNL A   1      25.567  34.493  46.184  1.00  0.00    +0.000 C 
ATOM     82  N7  UNL A   1      26.629  35.340  46.444  1.00  0.00    +0.000 N 
ATOM     83  C58 UNL A   1      28.657  37.369  48.435  1.00  0.00    +0.000 C 
ATOM     84  C59 UNL A   1      29.827  36.739  48.500  1.00  0.00    +0.000 C 
ATOM     85  C60 UNL A   1      26.879  30.001  47.366  1.00  0.00    +0.000 C 
ATOM     86  C61 UNL A   1      25.928  30.666  46.709  1.00  0.00    +0.000 C 
ATOM    114  H26 UNL A   1      29.218  32.439  50.936  1.00  0.00    +0.000 H 
ATOM    115  H27 UNL A   1      29.980  34.834  50.118  1.00  0.00    +0.000 H 
ATOM    116  H28 UNL A   1      30.969  32.102  47.251  1.00  0.00    +0.000 H 
ATOM    117  H29 UNL A   1      24.549  37.491  45.211  1.00  0.00    +0.000 H 
ATOM    118  H30 UNL A   1      23.677  35.122  45.192  1.00  0.00    +0.000 H 
ATOM    119  H31 UNL A   1      27.492  35.018  46.792  1.00  0.00    +0.000 H 
ATOM    120  H32 UNL A   1      28.084  37.789  49.183  1.00  0.00    +0.000 H 
ATOM    121  H33 UNL A   1      30.451  36.735  49.323  1.00  0.00    +0.000 H 
ATOM    122  H34 UNL A   1      26.944  28.973  47.429  1.00  0.00    +0.000 H 
ATOM    123  H35 UNL A   1      25.161  30.282  46.136  1.00  0.00    +0.000 H 
ENDROOT
BRANCH   30   29
ATOM    124  H36 UNL A   1      24.408  32.525  43.915  1.00  0.00    +0.000 H 
ATOM     29  C23 UNL A   1      23.997  32.650  45.989  1.00  0.00    +0.000 C 
ATOM    112  H24 UNL A   1      21.161  31.572  47.405  1.00  0.00    +0.000 H 
ATOM    113  H25 UNL A   1      23.235  32.697  47.962  1.00  0.00    +0.000 H 
ATOM     87  C62 UNL A   1      23.723  32.310  44.656  1.00  0.00    +0.000 C 
ATOM     88  C63 UNL A   1      22.520  31.680  44.336  1.00  0.00    +0.000 C 
ATOM     26  C20 UNL A   1      21.610  31.363  45.349  1.00  0.00    +0.000 C 
ATOM     27  C21 UNL A   1      21.860  31.759  46.669  1.00  0.00    +0.000 C 
ATOM     28  C22 UNL A   1      23.051  32.403  46.990  1.00  0.00    +0.000 C 
ATOM    125  H37 UNL A   1      22.303  31.449  43.354  1.00  0.00    +0.000 H 
BRANCH   26   24
ATOM     25  O2  UNL A   1      20.303  29.463  44.959  1.00  0.00    +0.000 O 
ATOM     24  C19 UNL A   1      20.326  30.679  45.076  1.00  0.00    +0.000 C 
BRANCH   24   23
ATOM    111  H23 UNL A   1      18.327  30.862  44.926  1.00  0.00    +0.000 H 
ATOM     23  N3  UNL A   1      19.158  31.390  44.922  1.00  0.00    +0.000 N 
BRANCH   23   22
ATOM    110  H22 UNL A   1      19.963  33.253  44.567  1.00  0.00    +0.000 H 
ATOM    109  H21 UNL A   1      18.573  33.236  45.646  1.00  0.00    +0.000 H 
ATOM     22  C18 UNL A   1      19.001  32.826  44.754  1.00  0.00    +0.000 C 
BRANCH   22   21
ATOM    107  H19 UNL A   1      17.092  33.275  43.939  1.00  0.00    +0.000 H 
ATOM    108  H20 UNL A   1      18.479  34.030  43.111  1.00  0.00    +0.000 H 
ATOM     21  C17 UNL A   1      18.088  33.146  43.570  1.00  0.00    +0.000 C 
BRANCH   21   20
ATOM    105  H17 UNL A   1      18.776  32.329  41.732  1.00  0.00    +0.000 H 
ATOM    106  H18 UNL A   1      18.284  31.140  42.977  1.00  0.00    +0.000 H 
ATOM     20  C16 UNL A   1      18.061  32.063  42.483  1.00  0.00    +0.000 C 
BRANCH   20   19
ATOM     19  C15 UNL A   1      16.706  31.862  41.798  1.00  0.00    +0.000 C 
ATOM    103  H15 UNL A   1      15.999  32.511  42.269  1.00  0.00    +0.000 H 
ATOM    104  H16 UNL A   1      16.863  32.078  40.762  1.00  0.00    +0.000 H 
BRANCH   19   18
ATOM     18  C14 UNL A   1      16.149  30.432  41.854  1.00  0.00    +0.000 C 
ATOM    101  H13 UNL A   1      15.107  30.473  41.617  1.00  0.00    +0.000 H 
ATOM    102  H14 UNL A   1      16.721  29.861  41.153  1.00  0.00    +0.000 H 
BRANCH   18   17
ATOM     17  C13 UNL A   1      16.302  29.731  43.204  1.00  0.00    +0.000 C 
ATOM     99  H11 UNL A   1      17.239  30.012  43.637  1.00  0.00    +0.000 H 
ATOM    100  H12 UNL A   1      15.489  30.030  43.832  1.00  0.00    +0.000 H 
BRANCH   17   16
ATOM     98  H10 UNL A   1      16.448  27.899  42.175  1.00  0.00    +0.000 H 
ATOM     16  N2  UNL A   1      16.260  28.293  43.058  1.00  0.00    +0.000 N 
BRANCH   16    2
ATOM      1  O1  UNL A   1      15.579  27.851  45.208  1.00  0.00    +0.000 O 
ATOM      2  C1  UNL A   1      15.967  27.453  44.114  1.00  0.00    +0.000 C 
BRANCH    2    3
ATOM     89  H1  UNL A   1      16.548  25.506  44.712  1.00  0.00    +0.000 H 
ATOM     90  H2  UNL A   1      16.974  25.948  43.047  1.00  0.00    +0.000 H 
ATOM      3  C2  UNL A   1      16.227  25.987  43.812  1.00  0.00    +0.000 C 
BRANCH    3    4
ATOM     97  H9  UNL A   1      15.865  23.507  42.392  1.00  0.00    +0.000 H 
ATOM      4  C3  UNL A   1      15.022  25.267  43.292  1.00  0.00    +0.000 C 
ATOM      5  C4  UNL A   1      13.663  25.674  43.360  1.00  0.00    +0.000 C 
ATOM      6  C5  UNL A   1      12.913  24.749  42.673  1.00  0.00    +0.000 C 
ATOM      7  N1  UNL A   1      13.745  23.763  42.182  1.00  0.00    +0.000 N 
ATOM     15  C12 UNL A   1      15.026  24.076  42.586  1.00  0.00    +0.000 C 
ATOM     91  H3  UNL A   1      13.304  26.515  43.839  1.00  0.00    +0.000 H 
ATOM     92  H4  UNL A   1      11.889  24.785  42.544  1.00  0.00    +0.000 H 
BRANCH    7    8
ATOM      8  C6  UNL A   1      13.349  22.663  41.376  1.00  0.00    +0.000 C 
ATOM      9  C7  UNL A   1      12.809  21.515  41.977  1.00  0.00    +0.000 C 
ATOM     10  C8  UNL A   1      12.394  20.437  41.189  1.00  0.00    +0.000 C 
ATOM     11  C9  UNL A   1      12.536  20.486  39.803  1.00  0.00    +0.000 C 
ATOM     12  C10 UNL A   1      13.083  21.618  39.203  1.00  0.00    +0.000 C 
ATOM     13  C11 UNL A   1      13.474  22.703  39.984  1.00  0.00    +0.000 C 
ATOM     14  F1  UNL A   1      14.032  23.748  39.355  1.00  0.00    +0.000 F 
ATOM     93  H5  UNL A   1      12.718  21.466  43.004  1.00  0.00    +0.000 H 
ATOM     94  H6  UNL A   1      11.981  19.603  41.634  1.00  0.00    +0.000 H 
ATOM     95  H7  UNL A   1      12.238  19.685  39.224  1.00  0.00    +0.000 H 
ATOM     96  H8  UNL A   1      13.197  21.653  38.177  1.00  0.00    +0.000 H 
ENDBRANCH    7    8
ENDBRANCH    3    4
ENDBRANCH    2    3
ENDBRANCH   16    2
ENDBRANCH   17   16
ENDBRANCH   18   17
ENDBRANCH   19   18
ENDBRANCH   20   19
ENDBRANCH   21   20
ENDBRANCH   22   21
ENDBRANCH   23   22
ENDBRANCH   24   23
ENDBRANCH   26   24
ENDBRANCH   30   29
BRANCH   34   35
ATOM     35  C28 UNL A   1      29.872  29.428  48.495  1.00  0.00    +0.000 C 
ATOM     36  C29 UNL A   1      31.047  29.283  47.743  1.00  0.00    +0.000 C 
ATOM     37  F2  UNL A   1      31.360  30.153  46.775  1.00  0.00    +0.000 F 
ATOM     38  C30 UNL A   1      31.983  28.285  48.039  1.00  0.00    +0.000 C 
ATOM     39  F3  UNL A   1      33.111  28.202  47.320  1.00  0.00    +0.000 F 
ATOM     40  C31 UNL A   1      31.790  27.428  49.110  1.00  0.00    +0.000 C 
ATOM     41  F4  UNL A   1      32.737  26.544  49.449  1.00  0.00    +0.000 F 
ATOM     42  C32 UNL A   1      30.627  27.517  49.847  1.00  0.00    +0.000 C 
ATOM     43  F5  UNL A   1      30.441  26.718  50.908  1.00  0.00    +0.000 F 
ATOM     44  C33 UNL A   1      29.670  28.480  49.527  1.00  0.00    +0.000 C 
ATOM     45  F6  UNL A   1      28.563  28.518  50.285  1.00  0.00    +0.000 F 
ENDBRANCH   34   35
BRANCH   51   52
ATOM     52  C39 UNL A   1      30.504  34.357  45.624  1.00  0.00    +0.000 C 
ATOM     53  C40 UNL A   1      29.354  33.985  44.908  1.00  0.00    +0.000 C 
ATOM     54  F7  UNL A   1      28.184  33.863  45.530  1.00  0.00    +0.000 F 
ATOM     55  C41 UNL A   1      29.374  33.724  43.540  1.00  0.00    +0.000 C 
ATOM     56  F8  UNL A   1      28.248  33.351  42.912  1.00  0.00    +0.000 F 
ATOM     57  C42 UNL A   1      30.554  33.849  42.835  1.00  0.00    +0.000 C 
ATOM     58  F9  UNL A   1      30.579  33.601  41.519  1.00  0.00    +0.000 F 
ATOM     59  C43 UNL A   1      31.710  34.218  43.505  1.00  0.00    +0.000 C 
ATOM     60  F10 UNL A   1      32.859  34.336  42.825  1.00  0.00    +0.000 F 
ATOM     61  C44 UNL A   1      31.688  34.465  44.881  1.00  0.00    +0.000 C 
ATOM     62  F11 UNL A   1      32.831  34.815  45.490  1.00  0.00    +0.000 F 
ENDBRANCH   51   52
BRANCH   66   67
ATOM     67  C48 UNL A   1      26.975  39.317  46.404  1.00  0.00    +0.000 C 
ATOM     68  C49 UNL A   1      27.852  40.123  45.622  1.00  0.00    +0.000 C 
ATOM     69  F12 UNL A   1      28.705  39.586  44.741  1.00  0.00    +0.000 F 
ATOM     70  C50 UNL A   1      27.898  41.518  45.700  1.00  0.00    +0.000 C 
ATOM     71  F13 UNL A   1      28.818  42.194  44.995  1.00  0.00    +0.000 F 
ATOM     72  C51 UNL A   1      27.016  42.192  46.508  1.00  0.00    +0.000 C 
ATOM     73  F14 UNL A   1      27.070  43.525  46.609  1.00  0.00    +0.000 F 
ATOM     74  C52 UNL A   1      26.062  41.465  47.193  1.00  0.00    +0.000 C 
ATOM     75  F15 UNL A   1      25.152  42.112  47.935  1.00  0.00    +0.000 F 
ATOM     76  C53 UNL A   1      26.035  40.060  47.133  1.00  0.00    +0.000 C 
ATOM     77  F16 UNL A   1      25.029  39.470  47.781  1.00  0.00    +0.000 F 
ENDBRANCH   66   67
TORSDOF 17
ENDMDL
MODEL 2
REMARK VINA RESULT:     -11.8     21.687     25.256
ROOT
ATOM     30  C24 UNL A   1      40.846  27.726  29.010  1.00  0.00    +0.000 C 
ATOM     31  C25 UNL A   1      41.020  26.301  28.477  1.00  0.00    +0.000 C 
ATOM     32  N4  UNL A   1      41.800  25.343  28.882  1.00  0.00    +0.000 N 
ATOM     33  C26 UNL A   1      41.648  24.271  27.979  1.00  0.00    +0.000 C 
ATOM     34  C27 UNL A   1      42.514  23.219  27.892  1.00  0.00    +0.000 C 
ATOM     46  C34 UNL A   1      43.541  23.312  28.872  1.00  0.00    +0.000 C 
ATOM     47  C35 UNL A   1      43.600  23.039  30.213  1.00  0.00    +0.000 C 
ATOM     48  C36 UNL A   1      44.635  23.866  30.705  1.00  0.00    +0.000 C 
ATOM     49  C37 UNL A   1      45.189  24.582  29.641  1.00  0.00    +0.000 C 
ATOM     50  N5  UNL A   1      44.687  23.976  28.514  1.00  0.00    +0.000 N 
ATOM     51  C38 UNL A   1      45.916  25.822  29.466  1.00  0.00    +0.000 C 
ATOM     63  C45 UNL A   1      46.148  26.574  30.570  1.00  0.00    +0.000 C 
ATOM     64  N6  UNL A   1      45.970  27.939  30.518  1.00  0.00    +0.000 N 
ATOM     65  C46 UNL A   1      45.311  28.185  31.613  1.00  0.00    +0.000 C 
ATOM     66  C47 UNL A   1      44.553  29.422  31.883  1.00  0.00    +0.000 C 
ATOM     78  C54 UNL A   1      43.428  29.355  31.104  1.00  0.00    +0.000 C 
ATOM     79  C55 UNL A   1      42.378  30.344  30.963  1.00  0.00    +0.000 C 
ATOM     80  C56 UNL A   1      41.394  29.862  30.182  1.00  0.00    +0.000 C 
ATOM     81  C57 UNL A   1      41.701  28.492  29.745  1.00  0.00    +0.000 C 
ATOM     82  N7  UNL A   1      42.962  28.299  30.279  1.00  0.00    +0.000 N 
ATOM     83  C58 UNL A   1      45.276  27.100  32.603  1.00  0.00    +0.000 C 
ATOM     84  C59 UNL A   1      45.988  26.187  31.950  1.00  0.00    +0.000 C 
ATOM     85  C60 UNL A   1      40.544  24.605  27.129  1.00  0.00    +0.000 C 
ATOM     86  C61 UNL A   1      40.152  25.858  27.354  1.00  0.00    +0.000 C 
ATOM    114  H26 UNL A   1      43.016  22.377  30.746  1.00  0.00    +0.000 H 
ATOM    115  H27 UNL A   1      44.935  23.929  31.691  1.00  0.00    +0.000 H 
ATOM    116  H28 UNL A   1      45.079  24.012  27.612  1.00  0.00    +0.000 H 
ATOM    117  H29 UNL A   1      42.384  31.280  31.397  1.00  0.00    +0.000 H 
ATOM    118  H30 UNL A   1      40.541  30.383  29.924  1.00  0.00    +0.000 H 
ATOM    119  H31 UNL A   1      43.496  27.491  30.100  1.00  0.00    +0.000 H 
ATOM    120  H32 UNL A   1      44.831  27.060  33.533  1.00  0.00    +0.000 H 
ATOM    121  H33 UNL A   1      46.370  25.324  32.370  1.00  0.00    +0.000 H 
ATOM    122  H34 UNL A   1      40.115  23.966  26.441  1.00  0.00    +0.000 H 
ATOM    123  H35 UNL A   1      39.418  26.395  26.865  1.00  0.00    +0.000 H 
ENDROOT
BRANCH   30   29
ATOM    124  H36 UNL A   1      38.538  27.697  30.440  1.00  0.00    +0.000 H 
ATOM     29  C23 UNL A   1      39.528  28.319  28.674  1.00  0.00    +0.000 C 
ATOM    112  H24 UNL A   1      38.143  30.284  26.344  1.00  0.00    +0.000 H 
ATOM    113  H25 UNL A   1      40.176  29.043  26.795  1.00  0.00    +0.000 H 
ATOM     87  C62 UNL A   1      38.456  28.257  29.577  1.00  0.00    +0.000 C 
ATOM     88  C63 UNL A   1      37.281  28.957  29.305  1.00  0.00    +0.000 C 
ATOM     26  C20 UNL A   1      37.188  29.740  28.150  1.00  0.00    +0.000 C 
ATOM     27  C21 UNL A   1      38.236  29.749  27.221  1.00  0.00    +0.000 C 
ATOM     28  C22 UNL A   1      39.404  29.039  27.480  1.00  0.00    +0.000 C 
ATOM    125  H37 UNL A   1      36.481  28.897  29.955  1.00  0.00    +0.000 H 
BRANCH   26   24
ATOM     25  O2  UNL A   1      36.028  31.740  27.802  1.00  0.00    +0.000 O 
ATOM     24  C19 UNL A   1      35.975  30.519  27.816  1.00  0.00    +0.000 C 
BRANCH   24   23
ATOM    111  H23 UNL A   1      34.740  28.932  27.746  1.00  0.00    +0.000 H 
ATOM     23  N3  UNL A   1      34.779  29.896  27.547  1.00  0.00    +0.000 N 
BRANCH   23   22
ATOM    110  H22 UNL A   1      33.775  31.494  26.721  1.00  0.00    +0.000 H 
ATOM    109  H21 UNL A   1      32.799  30.456  27.755  1.00  0.00    +0.000 H 
ATOM     22  C18 UNL A   1      33.564  30.485  27.006  1.00  0.00    +0.000 C 
BRANCH   22   21
ATOM    107  H19 UNL A   1      33.686  30.017  24.939  1.00  0.00    +0.000 H 
ATOM    108  H20 UNL A   1      33.174  28.679  26.001  1.00  0.00    +0.000 H 
ATOM     21  C17 UNL A   1      33.084  29.721  25.772  1.00  0.00    +0.000 C 
BRANCH   21   20
ATOM    105  H17 UNL A   1      31.087  30.211  26.310  1.00  0.00    +0.000 H 
ATOM    106  H18 UNL A   1      31.611  30.752  24.686  1.00  0.00    +0.000 H 
ATOM     20  C16 UNL A   1      31.612  29.965  25.411  1.00  0.00    +0.000 C 
BRANCH   20   19
ATOM     19  C15 UNL A   1      30.898  28.780  24.754  1.00  0.00    +0.000 C 
ATOM    103  H15 UNL A   1      31.476  27.900  24.943  1.00  0.00    +0.000 H 
ATOM    104  H16 UNL A   1      29.919  28.750  25.183  1.00  0.00    +0.000 H 
BRANCH   19   18
ATOM     18  C14 UNL A   1      30.693  28.897  23.237  1.00  0.00    +0.000 C 
ATOM    101  H13 UNL A   1      29.641  28.903  23.044  1.00  0.00    +0.000 H 
ATOM    102  H14 UNL A   1      31.186  29.799  22.938  1.00  0.00    +0.000 H 
BRANCH   18   17
ATOM     17  C13 UNL A   1      31.320  27.773  22.412  1.00  0.00    +0.000 C 
ATOM     99  H11 UNL A   1      31.019  27.882  21.391  1.00  0.00    +0.000 H 
ATOM    100  H12 UNL A   1      32.384  27.842  22.502  1.00  0.00    +0.000 H 
BRANCH   17   16
ATOM     98  H10 UNL A   1      29.945  26.295  23.010  1.00  0.00    +0.000 H 
ATOM     16  N2  UNL A   1      30.906  26.474  22.891  1.00  0.00    +0.000 N 
BRANCH   16    2
ATOM      1  O1  UNL A   1      31.543  24.278  23.126  1.00  0.00    +0.000 O 
ATOM      2  C1  UNL A   1      31.811  25.474  23.187  1.00  0.00    +0.000 C 
BRANCH    2    3
ATOM     89  H1  UNL A   1      33.003  26.913  24.185  1.00  0.00    +0.000 H 
ATOM     90  H2  UNL A   1      33.767  26.131  22.786  1.00  0.00    +0.000 H 
ATOM      3  C2  UNL A   1      33.158  25.996  23.656  1.00  0.00    +0.000 C 
BRANCH    3    4
ATOM     97  H9  UNL A   1      35.453  24.291  23.304  1.00  0.00    +0.000 H 
ATOM      4  C3  UNL A   1      33.880  25.044  24.559  1.00  0.00    +0.000 C 
ATOM      5  C4  UNL A   1      33.572  24.711  25.904  1.00  0.00    +0.000 C 
ATOM      6  C5  UNL A   1      34.447  23.729  26.305  1.00  0.00    +0.000 C 
ATOM      7  N1  UNL A   1      35.307  23.435  25.266  1.00  0.00    +0.000 N 
ATOM     15  C12 UNL A   1      34.968  24.261  24.214  1.00  0.00    +0.000 C 
ATOM     91  H3  UNL A   1      32.824  25.132  26.479  1.00  0.00    +0.000 H 
ATOM     92  H4  UNL A   1      34.459  23.281  27.235  1.00  0.00    +0.000 H 
BRANCH    7    8
ATOM      8  C6  UNL A   1      36.317  22.437  25.276  1.00  0.00    +0.000 C 
ATOM      9  C7  UNL A   1      37.619  22.765  25.685  1.00  0.00    +0.000 C 
ATOM     10  C8  UNL A   1      38.614  21.783  25.722  1.00  0.00    +0.000 C 
ATOM     11  C9  UNL A   1      38.324  20.478  25.330  1.00  0.00    +0.000 C 
ATOM     12  C10 UNL A   1      37.037  20.149  24.912  1.00  0.00    +0.000 C 
ATOM     13  C11 UNL A   1      36.038  21.121  24.898  1.00  0.00    +0.000 C 
ATOM     14  F1  UNL A   1      34.829  20.757  24.447  1.00  0.00    +0.000 F 
ATOM     93  H5  UNL A   1      37.844  23.735  25.959  1.00  0.00    +0.000 H 
ATOM     94  H6  UNL A   1      39.565  22.026  26.041  1.00  0.00    +0.000 H 
ATOM     95  H7  UNL A   1      39.063  19.756  25.348  1.00  0.00    +0.000 H 
ATOM     96  H8  UNL A   1      36.822  19.185  24.613  1.00  0.00    +0.000 H 
ENDBRANCH    7    8
ENDBRANCH    3    4
ENDBRANCH    2    3
ENDBRANCH   16    2
ENDBRANCH   17   16
ENDBRANCH   18   17
ENDBRANCH   19   18
ENDBRANCH   20   19
ENDBRANCH   21   20
ENDBRANCH   22   21
ENDBRANCH   23   22
ENDBRANCH   24   23
ENDBRANCH   26   24
ENDBRANCH   30   29
BRANCH   34   35
ATOM     35  C28 UNL A   1      42.661  22.155  26.839  1.00  0.00    +0.000 C 
ATOM     36  C29 UNL A   1      43.651  22.184  25.847  1.00  0.00    +0.000 C 
ATOM     37  F2  UNL A   1      44.369  23.291  25.619  1.00  0.00    +0.000 F 
ATOM     38  C30 UNL A   1      43.998  21.034  25.128  1.00  0.00    +0.000 C 
ATOM     39  F3  UNL A   1      44.976  21.093  24.214  1.00  0.00    +0.000 F 
ATOM     40  C31 UNL A   1      43.389  19.819  25.400  1.00  0.00    +0.000 C 
ATOM     41  F4  UNL A   1      43.797  18.704  24.780  1.00  0.00    +0.000 F 
ATOM     42  C32 UNL A   1      42.382  19.762  26.342  1.00  0.00    +0.000 C 
ATOM     43  F5  UNL A   1      41.808  18.588  26.640  1.00  0.00    +0.000 F 
ATOM     44  C33 UNL A   1      42.003  20.915  27.028  1.00  0.00    +0.000 C 
ATOM     45  F6  UNL A   1      41.020  20.793  27.934  1.00  0.00    +0.000 F 
ENDBRANCH   34   35
BRANCH   51   52
ATOM     52  C39 UNL A   1      46.025  26.607  28.178  1.00  0.00    +0.000 C 
ATOM     53  C40 UNL A   1      44.912  27.132  27.501  1.00  0.00    +0.000 C 
ATOM     54  F7  UNL A   1      43.679  26.848  27.911  1.00  0.00    +0.000 F 
ATOM     55  C41 UNL A   1      45.034  27.959  26.386  1.00  0.00    +0.000 C 
ATOM     56  F8  UNL A   1      43.935  28.414  25.766  1.00  0.00    +0.000 F 
ATOM     57  C42 UNL A   1      46.287  28.303  25.921  1.00  0.00    +0.000 C 
ATOM     58  F9  UNL A   1      46.411  29.099  24.850  1.00  0.00    +0.000 F 
ATOM     59  C43 UNL A   1      47.410  27.808  26.565  1.00  0.00    +0.000 C 
ATOM     60  F10 UNL A   1      48.629  28.137  26.114  1.00  0.00    +0.000 F 
ATOM     61  C44 UNL A   1      47.283  26.968  27.675  1.00  0.00    +0.000 C 
ATOM     62  F11 UNL A   1      48.396  26.507  28.265  1.00  0.00    +0.000 F 
ENDBRANCH   51   52
BRANCH   66   67
ATOM     67  C48 UNL A   1      45.102  30.357  32.948  1.00  0.00    +0.000 C 
ATOM     68  C49 UNL A   1      46.220  31.192  32.663  1.00  0.00    +0.000 C 
ATOM     69  F12 UNL A   1      46.685  31.346  31.417  1.00  0.00    +0.000 F 
ATOM     70  C50 UNL A   1      46.918  31.912  33.637  1.00  0.00    +0.000 C 
ATOM     71  F13 UNL A   1      48.016  32.601  33.295  1.00  0.00    +0.000 F 
ATOM     72  C51 UNL A   1      46.488  31.900  34.941  1.00  0.00    +0.000 C 
ATOM     73  F14 UNL A   1      47.164  32.565  35.885  1.00  0.00    +0.000 F 
ATOM     74  C52 UNL A   1      45.335  31.206  35.249  1.00  0.00    +0.000 C 
ATOM     75  F15 UNL A   1      44.865  31.237  36.504  1.00  0.00    +0.000 F 
ATOM     76  C53 UNL A   1      44.650  30.461  34.272  1.00  0.00    +0.000 C 
ATOM     77  F16 UNL A   1      43.513  29.888  34.669  1.00  0.00    +0.000 F 
ENDBRANCH   66   67
TORSDOF 17
ENDMDL
MODEL 3
REMARK VINA RESULT:     -11.5     51.176     57.260
ROOT
ATOM     30  C24 UNL A   1      26.340  23.131 -10.201  1.00  0.00    +0.000 C 
ATOM     31  C25 UNL A   1      26.142  24.578  -9.739  1.00  0.00    +0.000 C 
ATOM     32  N4  UNL A   1      25.064  25.301  -9.685  1.00  0.00    +0.000 N 
ATOM     33  C26 UNL A   1      25.450  26.598  -9.289  1.00  0.00    +0.000 C 
ATOM     34  C27 UNL A   1      24.656  27.701  -9.414  1.00  0.00    +0.000 C 
ATOM     46  C34 UNL A   1      23.374  27.360  -9.927  1.00  0.00    +0.000 C 
ATOM     47  C35 UNL A   1      22.247  26.813  -9.376  1.00  0.00    +0.000 C 
ATOM     48  C36 UNL A   1      21.578  26.195 -10.457  1.00  0.00    +0.000 C 
ATOM     49  C37 UNL A   1      22.305  26.420 -11.628  1.00  0.00    +0.000 C 
ATOM     50  N5  UNL A   1      23.219  27.389 -11.290  1.00  0.00    +0.000 N 
ATOM     51  C38 UNL A   1      22.453  25.783 -12.920  1.00  0.00    +0.000 C 
ATOM     63  C45 UNL A   1      21.759  24.638 -13.137  1.00  0.00    +0.000 C 
ATOM     64  N6  UNL A   1      22.375  23.572 -13.758  1.00  0.00    +0.000 N 
ATOM     65  C46 UNL A   1      22.019  22.564 -13.017  1.00  0.00    +0.000 C 
ATOM     66  C47 UNL A   1      22.680  21.243 -13.014  1.00  0.00    +0.000 C 
ATOM     78  C54 UNL A   1      23.877  21.421 -12.372  1.00  0.00    +0.000 C 
ATOM     79  C55 UNL A   1      24.924  20.444 -12.147  1.00  0.00    +0.000 C 
ATOM     80  C56 UNL A   1      25.898  20.979 -11.389  1.00  0.00    +0.000 C 
ATOM     81  C57 UNL A   1      25.573  22.367 -11.029  1.00  0.00    +0.000 C 
ATOM     82  N7  UNL A   1      24.390  22.570 -11.717  1.00  0.00    +0.000 N 
ATOM     83  C58 UNL A   1      20.925  22.812 -12.070  1.00  0.00    +0.000 C 
ATOM     84  C59 UNL A   1      20.688  24.092 -12.342  1.00  0.00    +0.000 C 
ATOM     85  C60 UNL A   1      26.828  26.515  -8.904  1.00  0.00    +0.000 C 
ATOM     86  C61 UNL A   1      27.319  25.314  -9.207  1.00  0.00    +0.000 C 
ATOM    114  H26 UNL A   1      21.951  26.844  -8.388  1.00  0.00    +0.000 H 
ATOM    115  H27 UNL A   1      20.695  25.664 -10.392  1.00  0.00    +0.000 H 
ATOM    116  H28 UNL A   1      23.681  27.995 -11.914  1.00  0.00    +0.000 H 
ATOM    117  H29 UNL A   1      24.923  19.479 -12.515  1.00  0.00    +0.000 H 
ATOM    118  H30 UNL A   1      26.757  20.484 -11.101  1.00  0.00    +0.000 H 
ATOM    119  H31 UNL A   1      23.938  23.444 -11.749  1.00  0.00    +0.000 H 
ATOM    120  H32 UNL A   1      20.471  22.178 -11.394  1.00  0.00    +0.000 H 
ATOM    121  H33 UNL A   1      19.857  24.618 -12.027  1.00  0.00    +0.000 H 
ATOM    122  H34 UNL A   1      27.362  27.277  -8.458  1.00  0.00    +0.000 H 
ATOM    123  H35 UNL A   1      28.288  24.975  -9.097  1.00  0.00    +0.000 H 
ENDROOT
BRANCH   30   29
ATOM    124  H36 UNL A   1      26.526  21.374  -8.138  1.00  0.00    +0.000 H 
ATOM     29  C23 UNL A   1      27.547  22.492  -9.620  1.00  0.00    +0.000 C 
ATOM    112  H24 UNL A   1      30.833  22.250 -10.215  1.00  0.00    +0.000 H 
ATOM    113  H25 UNL A   1      28.877  23.494 -10.924  1.00  0.00    +0.000 H 
ATOM     87  C62 UNL A   1      27.439  21.549  -8.586  1.00  0.00    +0.000 C 
ATOM     88  C63 UNL A   1      28.570  20.849  -8.167  1.00  0.00    +0.000 C 
ATOM     26  C20 UNL A   1      29.798  21.067  -8.800  1.00  0.00    +0.000 C 
ATOM     27  C21 UNL A   1      29.914  22.053  -9.788  1.00  0.00    +0.000 C 
ATOM     28  C22 UNL A   1      28.792  22.766 -10.198  1.00  0.00    +0.000 C 
ATOM    125  H37 UNL A   1      28.501  20.171  -7.392  1.00  0.00    +0.000 H 
BRANCH   26   24
ATOM     25  O2  UNL A   1      31.292  19.274  -8.944  1.00  0.00    +0.000 O 
ATOM     24  C19 UNL A   1      31.029  20.343  -8.414  1.00  0.00    +0.000 C 
BRANCH   24   23
ATOM    111  H23 UNL A   1      32.343  20.165  -6.899  1.00  0.00    +0.000 H 
ATOM     23  N3  UNL A   1      31.872  20.836  -7.445  1.00  0.00    +0.000 N 
BRANCH   23   22
ATOM    110  H22 UNL A   1      31.818  22.835  -7.941  1.00  0.00    +0.000 H 
ATOM    109  H21 UNL A   1      33.206  22.345  -6.977  1.00  0.00    +0.000 H 
ATOM     22  C18 UNL A   1      32.153  22.227  -7.128  1.00  0.00    +0.000 C 
BRANCH   22   21
ATOM    107  H19 UNL A   1      30.671  21.929  -5.636  1.00  0.00    +0.000 H 
ATOM    108  H20 UNL A   1      32.156  22.753  -5.091  1.00  0.00    +0.000 H 
ATOM     21  C17 UNL A   1      31.417  22.663  -5.861  1.00  0.00    +0.000 C 
BRANCH   21   20
ATOM    105  H17 UNL A   1      30.767  24.498  -5.008  1.00  0.00    +0.000 H 
ATOM    106  H18 UNL A   1      31.255  24.569  -6.728  1.00  0.00    +0.000 H 
ATOM     20  C16 UNL A   1      30.727  24.030  -5.969  1.00  0.00    +0.000 C 
BRANCH   20   19
ATOM     19  C15 UNL A   1      29.263  23.987  -6.416  1.00  0.00    +0.000 C 
ATOM    103  H15 UNL A   1      29.055  24.890  -6.950  1.00  0.00    +0.000 H 
ATOM    104  H16 UNL A   1      29.162  23.104  -7.011  1.00  0.00    +0.000 H 
BRANCH   19   18
ATOM     18  C14 UNL A   1      28.235  23.857  -5.284  1.00  0.00    +0.000 C 
ATOM    101  H13 UNL A   1      28.613  23.155  -4.572  1.00  0.00    +0.000 H 
ATOM    102  H14 UNL A   1      28.105  24.841  -4.883  1.00  0.00    +0.000 H 
BRANCH   18   17
ATOM     17  C13 UNL A   1      26.848  23.388  -5.722  1.00  0.00    +0.000 C 
ATOM     99  H11 UNL A   1      26.939  22.833  -6.632  1.00  0.00    +0.000 H 
ATOM    100  H12 UNL A   1      26.437  22.777  -4.945  1.00  0.00    +0.000 H 
BRANCH   17   16
ATOM     98  H10 UNL A   1      26.310  25.318  -6.371  1.00  0.00    +0.000 H 
ATOM     16  N2  UNL A   1      25.958  24.507  -5.939  1.00  0.00    +0.000 N 
BRANCH   16    2
ATOM      1  O1  UNL A   1      24.175  23.679  -4.747  1.00  0.00    +0.000 O 
ATOM      2  C1  UNL A   1      24.629  24.476  -5.562  1.00  0.00    +0.000 C 
BRANCH    2    3
ATOM     89  H1  UNL A   1      22.878  24.998  -6.633  1.00  0.00    +0.000 H 
ATOM     90  H2  UNL A   1      24.349  25.868  -7.112  1.00  0.00    +0.000 H 
ATOM      3  C2  UNL A   1      23.768  25.488  -6.298  1.00  0.00    +0.000 C 
BRANCH    3    4
ATOM     97  H9  UNL A   1      24.601  26.418  -3.702  1.00  0.00    +0.000 H 
ATOM      4  C3  UNL A   1      23.375  26.658  -5.450  1.00  0.00    +0.000 C 
ATOM      5  C4  UNL A   1      22.406  27.657  -5.733  1.00  0.00    +0.000 C 
ATOM      6  C5  UNL A   1      22.315  28.478  -4.633  1.00  0.00    +0.000 C 
ATOM      7  N1  UNL A   1      23.199  28.042  -3.667  1.00  0.00    +0.000 N 
ATOM     15  C12 UNL A   1      23.858  26.946  -4.185  1.00  0.00    +0.000 C 
ATOM     91  H3  UNL A   1      21.868  27.751  -6.609  1.00  0.00    +0.000 H 
ATOM     92  H4  UNL A   1      21.684  29.291  -4.544  1.00  0.00    +0.000 H 
BRANCH    7    8
ATOM      8  C6  UNL A   1      23.358  28.599  -2.370  1.00  0.00    +0.000 C 
ATOM      9  C7  UNL A   1      24.481  29.391  -2.083  1.00  0.00    +0.000 C 
ATOM     10  C8  UNL A   1      24.633  29.964  -0.817  1.00  0.00    +0.000 C 
ATOM     11  C9  UNL A   1      23.683  29.732   0.175  1.00  0.00    +0.000 C 
ATOM     12  C10 UNL A   1      22.573  28.937  -0.100  1.00  0.00    +0.000 C 
ATOM     13  C11 UNL A   1      22.407  28.385  -1.369  1.00  0.00    +0.000 C 
ATOM     14  F1  UNL A   1      21.341  27.595  -1.564  1.00  0.00    +0.000 F 
ATOM     93  H5  UNL A   1      25.198  29.551  -2.810  1.00  0.00    +0.000 H 
ATOM     94  H6  UNL A   1      25.452  30.560  -0.617  1.00  0.00    +0.000 H 
ATOM     95  H7  UNL A   1      23.803  30.148   1.113  1.00  0.00    +0.000 H 
ATOM     96  H8  UNL A   1      21.872  28.757   0.636  1.00  0.00    +0.000 H 
ENDBRANCH    7    8
ENDBRANCH    3    4
ENDBRANCH    2    3
ENDBRANCH   16    2
ENDBRANCH   17   16
ENDBRANCH   18   17
ENDBRANCH   19   18
ENDBRANCH   20   19
ENDBRANCH   21   20
ENDBRANCH   22   21
ENDBRANCH   23   22
ENDBRANCH   24   23
ENDBRANCH   26   24
ENDBRANCH   30   29
BRANCH   34   35
ATOM     35  C28 UNL A   1      24.987  29.164  -9.302  1.00  0.00    +0.000 C 
ATOM     36  C29 UNL A   1      25.406  29.771  -8.109  1.00  0.00    +0.000 C 
ATOM     37  F2  UNL A   1      25.291  29.139  -6.935  1.00  0.00    +0.000 F 
ATOM     38  C30 UNL A   1      26.050  31.014  -8.110  1.00  0.00    +0.000 C 
ATOM     39  F3  UNL A   1      26.469  31.544  -6.953  1.00  0.00    +0.000 F 
ATOM     40  C31 UNL A   1      26.321  31.670  -9.300  1.00  0.00    +0.000 C 
ATOM     41  F4  UNL A   1      27.027  32.808  -9.299  1.00  0.00    +0.000 F 
ATOM     42  C32 UNL A   1      25.888  31.121 -10.490  1.00  0.00    +0.000 C 
ATOM     43  F5  UNL A   1      26.174  31.727 -11.651  1.00  0.00    +0.000 F 
ATOM     44  C33 UNL A   1      25.206  29.905 -10.489  1.00  0.00    +0.000 C 
ATOM     45  F6  UNL A   1      24.815  29.422 -11.679  1.00  0.00    +0.000 F 
ENDBRANCH   34   35
BRANCH   51   52
ATOM     52  C39 UNL A   1      23.624  25.956 -13.862  1.00  0.00    +0.000 C 
ATOM     53  C40 UNL A   1      24.943  25.619 -13.518  1.00  0.00    +0.000 C 
ATOM     54  F7  UNL A   1      25.241  25.239 -12.278  1.00  0.00    +0.000 F 
ATOM     55  C41 UNL A   1      25.992  25.666 -14.434  1.00  0.00    +0.000 C 
ATOM     56  F8  UNL A   1      27.237  25.353 -14.044  1.00  0.00    +0.000 F 
ATOM     57  C42 UNL A   1      25.746  26.038 -15.740  1.00  0.00    +0.000 C 
ATOM     58  F9  UNL A   1      26.749  26.083 -16.627  1.00  0.00    +0.000 F 
ATOM     59  C43 UNL A   1      24.455  26.374 -16.119  1.00  0.00    +0.000 C 
ATOM     60  F10 UNL A   1      24.213  26.740 -17.386  1.00  0.00    +0.000 F 
ATOM     61  C44 UNL A   1      23.409  26.339 -15.193  1.00  0.00    +0.000 C 
ATOM     62  F11 UNL A   1      22.176  26.678 -15.601  1.00  0.00    +0.000 F 
ENDBRANCH   51   52
BRANCH   66   67
ATOM     67  C48 UNL A   1      21.900  20.073 -13.587  1.00  0.00    +0.000 C 
ATOM     68  C49 UNL A   1      21.644  19.996 -14.987  1.00  0.00    +0.000 C 
ATOM     69  F12 UNL A   1      22.250  20.812 -15.859  1.00  0.00    +0.000 F 
ATOM     70  C50 UNL A   1      20.760  19.081 -15.565  1.00  0.00    +0.000 C 
ATOM     71  F13 UNL A   1      20.509  19.139 -16.881  1.00  0.00    +0.000 F 
ATOM     72  C51 UNL A   1      20.138  18.139 -14.784  1.00  0.00    +0.000 C 
ATOM     73  F14 UNL A   1      19.270  17.275 -15.324  1.00  0.00    +0.000 F 
ATOM     74  C52 UNL A   1      20.446  18.089 -13.439  1.00  0.00    +0.000 C 
ATOM     75  F15 UNL A   1      19.898  17.134 -12.674  1.00  0.00    +0.000 F 
ATOM     76  C53 UNL A   1      21.318  19.027 -12.856  1.00  0.00    +0.000 C 
ATOM     77  F16 UNL A   1      21.593  18.840 -11.564  1.00  0.00    +0.000 F 
ENDBRANCH   66   67
TORSDOF 17
ENDMDL
MODEL 4
REMARK VINA RESULT:     -11.4     18.538     23.247
ROOT
ATOM     30  C24 UNL A   1      40.083  29.213  29.220  1.00  0.00    +0.000 C 
ATOM     31  C25 UNL A   1      38.881  30.160  29.149  1.00  0.00    +0.000 C 
ATOM     32  N4  UNL A   1      38.830  31.457  29.219  1.00  0.00    +0.000 N 
ATOM     33  C26 UNL A   1      37.468  31.823  29.209  1.00  0.00    +0.000 C 
ATOM     34  C27 UNL A   1      37.007  33.054  29.571  1.00  0.00    +0.000 C 
ATOM     46  C34 UNL A   1      38.078  33.935  29.891  1.00  0.00    +0.000 C 
ATOM     47  C35 UNL A   1      38.960  34.665  29.142  1.00  0.00    +0.000 C 
ATOM     48  C36 UNL A   1      40.091  34.831  29.974  1.00  0.00    +0.000 C 
ATOM     49  C37 UNL A   1      39.839  34.226  31.208  1.00  0.00    +0.000 C 
ATOM     50  N5  UNL A   1      38.489  33.967  31.199  1.00  0.00    +0.000 N 
ATOM     51  C38 UNL A   1      40.621  33.665  32.289  1.00  0.00    +0.000 C 
ATOM     63  C45 UNL A   1      41.970  33.656  32.149  1.00  0.00    +0.000 C 
ATOM     64  N6  UNL A   1      42.687  32.533  32.502  1.00  0.00    +0.000 N 
ATOM     65  C46 UNL A   1      43.501  32.384  31.498  1.00  0.00    +0.000 C 
ATOM     66  C47 UNL A   1      44.240  31.144  31.186  1.00  0.00    +0.000 C 
ATOM     78  C54 UNL A   1      43.312  30.265  30.693  1.00  0.00    +0.000 C 
ATOM     79  C55 UNL A   1      43.514  28.889  30.284  1.00  0.00    +0.000 C 
ATOM     80  C56 UNL A   1      42.379  28.392  29.761  1.00  0.00    +0.000 C 
ATOM     81  C57 UNL A   1      41.317  29.410  29.763  1.00  0.00    +0.000 C 
ATOM     82  N7  UNL A   1      41.938  30.468  30.402  1.00  0.00    +0.000 N 
ATOM     83  C58 UNL A   1      43.613  33.527  30.583  1.00  0.00    +0.000 C 
ATOM     84  C59 UNL A   1      42.759  34.360  31.169  1.00  0.00    +0.000 C 
ATOM     85  C60 UNL A   1      36.728  30.634  28.906  1.00  0.00    +0.000 C 
ATOM     86  C61 UNL A   1      37.536  29.574  28.908  1.00  0.00    +0.000 C 
ATOM    114  H26 UNL A   1      38.829  35.017  28.181  1.00  0.00    +0.000 H 
ATOM    115  H27 UNL A   1      40.962  35.321  29.713  1.00  0.00    +0.000 H 
ATOM    116  H28 UNL A   1      37.920  33.829  31.991  1.00  0.00    +0.000 H 
ATOM    117  H29 UNL A   1      44.399  28.366  30.381  1.00  0.00    +0.000 H 
ATOM    118  H30 UNL A   1      42.267  27.429  29.407  1.00  0.00    +0.000 H 
ATOM    119  H31 UNL A   1      41.464  31.298  30.637  1.00  0.00    +0.000 H 
ATOM    120  H32 UNL A   1      44.187  33.648  29.734  1.00  0.00    +0.000 H 
ATOM    121  H33 UNL A   1      42.673  35.366  30.953  1.00  0.00    +0.000 H 
ATOM    122  H34 UNL A   1      35.714  30.603  28.714  1.00  0.00    +0.000 H 
ATOM    123  H35 UNL A   1      37.287  28.581  28.775  1.00  0.00    +0.000 H 
ENDROOT
BRANCH   30   29
ATOM    124  H36 UNL A   1      40.567  28.451  26.659  1.00  0.00    +0.000 H 
ATOM     29  C23 UNL A   1      39.833  27.903  28.569  1.00  0.00    +0.000 C 
ATOM    112  H24 UNL A   1      38.845  24.808  29.378  1.00  0.00    +0.000 H 
ATOM    113  H25 UNL A   1      38.986  27.043  30.306  1.00  0.00    +0.000 H 
ATOM     87  C62 UNL A   1      40.214  27.674  27.238  1.00  0.00    +0.000 C 
ATOM     88  C63 UNL A   1      40.113  26.390  26.701  1.00  0.00    +0.000 C 
ATOM     26  C20 UNL A   1      39.664  25.334  27.500  1.00  0.00    +0.000 C 
ATOM     27  C21 UNL A   1      39.227  25.580  28.809  1.00  0.00    +0.000 C 
ATOM     28  C22 UNL A   1      39.310  26.861  29.343  1.00  0.00    +0.000 C 
ATOM    125  H37 UNL A   1      40.370  26.220  25.716  1.00  0.00    +0.000 H 
BRANCH   26   24
ATOM     25  O2  UNL A   1      40.564  23.285  26.824  1.00  0.00    +0.000 O 
ATOM     24  C19 UNL A   1      39.552  23.948  26.994  1.00  0.00    +0.000 C 
BRANCH   24   23
ATOM    111  H23 UNL A   1      38.060  22.617  27.217  1.00  0.00    +0.000 H 
ATOM     23  N3  UNL A   1      38.330  23.399  26.684  1.00  0.00    +0.000 N 
BRANCH   23   22
ATOM    110  H22 UNL A   1      37.775  24.712  25.196  1.00  0.00    +0.000 H 
ATOM    109  H21 UNL A   1      36.443  24.034  26.125  1.00  0.00    +0.000 H 
ATOM     22  C18 UNL A   1      37.388  23.832  25.664  1.00  0.00    +0.000 C 
BRANCH   22   21
ATOM    107  H19 UNL A   1      36.263  22.926  24.107  1.00  0.00    +0.000 H 
ATOM    108  H20 UNL A   1      38.035  22.835  23.929  1.00  0.00    +0.000 H 
ATOM     21  C17 UNL A   1      37.201  22.755  24.594  1.00  0.00    +0.000 C 
BRANCH   21   20
ATOM    105  H17 UNL A   1      37.855  20.735  24.518  1.00  0.00    +0.000 H 
ATOM    106  H18 UNL A   1      37.531  21.387  26.153  1.00  0.00    +0.000 H 
ATOM     20  C16 UNL A   1      37.206  21.319  25.135  1.00  0.00    +0.000 C 
BRANCH   20   19
ATOM     19  C15 UNL A   1      35.838  20.632  25.171  1.00  0.00    +0.000 C 
ATOM    103  H15 UNL A   1      35.959  19.636  24.800  1.00  0.00    +0.000 H 
ATOM    104  H16 UNL A   1      35.513  20.673  26.189  1.00  0.00    +0.000 H 
BRANCH   19   18
ATOM     18  C14 UNL A   1      34.739  21.316  24.346  1.00  0.00    +0.000 C 
ATOM    101  H13 UNL A   1      35.152  22.203  23.914  1.00  0.00    +0.000 H 
ATOM    102  H14 UNL A   1      34.420  20.598  23.619  1.00  0.00    +0.000 H 
BRANCH   18   17
ATOM     17  C13 UNL A   1      33.490  21.709  25.134  1.00  0.00    +0.000 C 
ATOM     99  H11 UNL A   1      32.841  20.861  25.205  1.00  0.00    +0.000 H 
ATOM    100  H12 UNL A   1      33.794  22.035  26.107  1.00  0.00    +0.000 H 
BRANCH   17   16
ATOM     98  H10 UNL A   1      33.278  23.398  23.894  1.00  0.00    +0.000 H 
ATOM     16  N2  UNL A   1      32.781  22.794  24.492  1.00  0.00    +0.000 N 
BRANCH   16    2
ATOM      1  O1  UNL A   1      30.782  22.477  25.581  1.00  0.00    +0.000 O 
ATOM      2  C1  UNL A   1      31.431  23.010  24.686  1.00  0.00    +0.000 C 
BRANCH    2    3
ATOM     89  H1  UNL A   1      29.758  23.991  23.835  1.00  0.00    +0.000 H 
ATOM     90  H2  UNL A   1      31.024  23.512  22.686  1.00  0.00    +0.000 H 
ATOM      3  C2  UNL A   1      30.810  23.929  23.648  1.00  0.00    +0.000 C 
BRANCH    3    4
ATOM     97  H9  UNL A   1      31.831  25.618  25.746  1.00  0.00    +0.000 H 
ATOM      4  C3  UNL A   1      31.378  25.314  23.667  1.00  0.00    +0.000 C 
ATOM      5  C4  UNL A   1      31.544  26.206  22.576  1.00  0.00    +0.000 C 
ATOM      6  C5  UNL A   1      32.018  27.397  23.075  1.00  0.00    +0.000 C 
ATOM      7  N1  UNL A   1      32.169  27.289  24.443  1.00  0.00    +0.000 N 
ATOM     15  C12 UNL A   1      31.799  26.005  24.791  1.00  0.00    +0.000 C 
ATOM     91  H3  UNL A   1      31.345  25.998  21.584  1.00  0.00    +0.000 H 
ATOM     92  H4  UNL A   1      32.226  28.240  22.515  1.00  0.00    +0.000 H 
BRANCH    7    8
ATOM      8  C6  UNL A   1      32.585  28.324  25.320  1.00  0.00    +0.000 C 
ATOM      9  C7  UNL A   1      33.746  28.161  26.093  1.00  0.00    +0.000 C 
ATOM     10  C8  UNL A   1      34.177  29.185  26.941  1.00  0.00    +0.000 C 
ATOM     11  C9  UNL A   1      33.442  30.365  27.044  1.00  0.00    +0.000 C 
ATOM     12  C10 UNL A   1      32.283  30.528  26.288  1.00  0.00    +0.000 C 
ATOM     13  C11 UNL A   1      31.866  29.518  25.423  1.00  0.00    +0.000 C 
ATOM     14  F1  UNL A   1      30.721  29.713  24.753  1.00  0.00    +0.000 F 
ATOM     93  H5  UNL A   1      34.283  27.281  26.035  1.00  0.00    +0.000 H 
ATOM     94  H6  UNL A   1      35.040  29.067  27.494  1.00  0.00    +0.000 H 
ATOM     95  H7  UNL A   1      33.757  31.117  27.678  1.00  0.00    +0.000 H 
ATOM     96  H8  UNL A   1      31.734  31.398  26.368  1.00  0.00    +0.000 H 
ENDBRANCH    7    8
ENDBRANCH    3    4
ENDBRANCH    2    3
ENDBRANCH   16    2
ENDBRANCH   17   16
ENDBRANCH   18   17
ENDBRANCH   19   18
ENDBRANCH   20   19
ENDBRANCH   21   20
ENDBRANCH   22   21
ENDBRANCH   23   22
ENDBRANCH   24   23
ENDBRANCH   26   24
ENDBRANCH   30   29
BRANCH   34   35
ATOM     35  C28 UNL A   1      35.611  33.528  29.875  1.00  0.00    +0.000 C 
ATOM     36  C29 UNL A   1      35.103  33.643  31.177  1.00  0.00    +0.000 C 
ATOM     37  F2  UNL A   1      35.740  33.094  32.219  1.00  0.00    +0.000 F 
ATOM     38  C30 UNL A   1      33.969  34.416  31.452  1.00  0.00    +0.000 C 
ATOM     39  F3  UNL A   1      33.535  34.531  32.714  1.00  0.00    +0.000 F 
ATOM     40  C31 UNL A   1      33.331  35.120  30.443  1.00  0.00    +0.000 C 
ATOM     41  F4  UNL A   1      32.310  35.938  30.730  1.00  0.00    +0.000 F 
ATOM     42  C32 UNL A   1      33.781  35.000  29.144  1.00  0.00    +0.000 C 
ATOM     43  F5  UNL A   1      33.196  35.702  28.164  1.00  0.00    +0.000 F 
ATOM     44  C33 UNL A   1      34.882  34.193  28.860  1.00  0.00    +0.000 C 
ATOM     45  F6  UNL A   1      35.273  34.121  27.577  1.00  0.00    +0.000 F 
ENDBRANCH   34   35
BRANCH   51   52
ATOM     52  C39 UNL A   1      40.124  32.673  33.318  1.00  0.00    +0.000 C 
ATOM     53  C40 UNL A   1      40.050  32.961  34.690  1.00  0.00    +0.000 C 
ATOM     54  F7  UNL A   1      40.542  34.102  35.167  1.00  0.00    +0.000 F 
ATOM     55  C41 UNL A   1      39.475  32.087  35.610  1.00  0.00    +0.000 C 
ATOM     56  F8  UNL A   1      39.452  32.405  36.913  1.00  0.00    +0.000 F 
ATOM     57  C42 UNL A   1      38.933  30.894  35.176  1.00  0.00    +0.000 C 
ATOM     58  F9  UNL A   1      38.377  30.050  36.055  1.00  0.00    +0.000 F 
ATOM     59  C43 UNL A   1      38.983  30.576  33.828  1.00  0.00    +0.000 C 
ATOM     60  F10 UNL A   1      38.461  29.416  33.403  1.00  0.00    +0.000 F 
ATOM     61  C44 UNL A   1      39.574  31.450  32.911  1.00  0.00    +0.000 C 
ATOM     62  F11 UNL A   1      39.604  31.100  31.616  1.00  0.00    +0.000 F 
ENDBRANCH   51   52
BRANCH   66   67
ATOM     67  C48 UNL A   1      45.747  31.166  31.375  1.00  0.00    +0.000 C 
ATOM     68  C49 UNL A   1      46.610  31.275  30.247  1.00  0.00    +0.000 C 
ATOM     69  F12 UNL A   1      46.142  31.576  29.029  1.00  0.00    +0.000 F 
ATOM     70  C50 UNL A   1      47.994  31.086  30.308  1.00  0.00    +0.000 C 
ATOM     71  F13 UNL A   1      48.720  31.117  29.182  1.00  0.00    +0.000 F 
ATOM     72  C51 UNL A   1      48.602  30.851  31.517  1.00  0.00    +0.000 C 
ATOM     73  F14 UNL A   1      49.923  30.642  31.582  1.00  0.00    +0.000 F 
ATOM     74  C52 UNL A   1      47.827  30.859  32.659  1.00  0.00    +0.000 C 
ATOM     75  F15 UNL A   1      48.415  30.697  33.853  1.00  0.00    +0.000 F 
ATOM     76  C53 UNL A   1      46.432  31.025  32.591  1.00  0.00    +0.000 C 
ATOM     77  F16 UNL A   1      45.796  31.082  33.762  1.00  0.00    +0.000 F 
ENDBRANCH   66   67
TORSDOF 17
ENDMDL
MODEL 5
REMARK VINA RESULT:     -11.4     18.701     23.398
ROOT
ATOM     30  C24 UNL A   1      40.128  29.108  29.140  1.00  0.00    +0.000 C 
ATOM     31  C25 UNL A   1      38.914  30.042  29.113  1.00  0.00    +0.000 C 
ATOM     32  N4  UNL A   1      38.853  31.340  29.155  1.00  0.00    +0.000 N 
ATOM     33  C26 UNL A   1      37.489  31.693  29.210  1.00  0.00    +0.000 C 
ATOM     34  C27 UNL A   1      37.036  32.929  29.568  1.00  0.00    +0.000 C 
ATOM     46  C34 UNL A   1      38.114  33.826  29.808  1.00  0.00    +0.000 C 
ATOM     47  C35 UNL A   1      38.947  34.546  28.995  1.00  0.00    +0.000 C 
ATOM     48  C36 UNL A   1      40.120  34.742  29.760  1.00  0.00    +0.000 C 
ATOM     49  C37 UNL A   1      39.941  34.165  31.020  1.00  0.00    +0.000 C 
ATOM     50  N5  UNL A   1      38.595  33.894  31.091  1.00  0.00    +0.000 N 
ATOM     51  C38 UNL A   1      40.786  33.637  32.070  1.00  0.00    +0.000 C 
ATOM     63  C45 UNL A   1      42.125  33.636  31.857  1.00  0.00    +0.000 C 
ATOM     64  N6  UNL A   1      42.871  32.528  32.197  1.00  0.00    +0.000 N 
ATOM     65  C46 UNL A   1      43.631  32.363  31.154  1.00  0.00    +0.000 C 
ATOM     66  C47 UNL A   1      44.365  31.123  30.832  1.00  0.00    +0.000 C 
ATOM     78  C54 UNL A   1      43.421  30.223  30.411  1.00  0.00    +0.000 C 
ATOM     79  C55 UNL A   1      43.614  28.840  30.025  1.00  0.00    +0.000 C 
ATOM     80  C56 UNL A   1      42.457  28.320  29.576  1.00  0.00    +0.000 C 
ATOM     81  C57 UNL A   1      41.387  29.329  29.611  1.00  0.00    +0.000 C 
ATOM     82  N7  UNL A   1      42.031  30.407  30.191  1.00  0.00    +0.000 N 
ATOM     83  C58 UNL A   1      43.682  33.484  30.207  1.00  0.00    +0.000 C 
ATOM     84  C59 UNL A   1      42.853  34.324  30.820  1.00  0.00    +0.000 C 
ATOM     85  C60 UNL A   1      36.746  30.491  28.976  1.00  0.00    +0.000 C 
ATOM     86  C61 UNL A   1      37.564  29.438  28.960  1.00  0.00    +0.000 C 
ATOM    114  H26 UNL A   1      38.761  34.874  28.035  1.00  0.00    +0.000 H 
ATOM    115  H27 UNL A   1      40.970  35.233  29.441  1.00  0.00    +0.000 H 
ATOM    116  H28 UNL A   1      38.071  33.770  31.915  1.00  0.00    +0.000 H 
ATOM    117  H29 UNL A   1      44.508  28.327  30.085  1.00  0.00    +0.000 H 
ATOM    118  H30 UNL A   1      42.336  27.348  29.251  1.00  0.00    +0.000 H 
ATOM    119  H31 UNL A   1      41.562  31.239  30.431  1.00  0.00    +0.000 H 
ATOM    120  H32 UNL A   1      44.208  33.590  29.326  1.00  0.00    +0.000 H 
ATOM    121  H33 UNL A   1      42.745  35.323  30.585  1.00  0.00    +0.000 H 
ATOM    122  H34 UNL A   1      35.724  30.446  28.840  1.00  0.00    +0.000 H 
ATOM    123  H35 UNL A   1      37.318  28.441  28.864  1.00  0.00    +0.000 H 
ENDROOT
BRANCH   30   29
ATOM    124  H36 UNL A   1      40.575  28.257  26.601  1.00  0.00    +0.000 H 
ATOM     29  C23 UNL A   1      39.856  27.780  28.535  1.00  0.00    +0.000 C 
ATOM    112  H24 UNL A   1      38.843  24.724  29.455  1.00  0.00    +0.000 H 
ATOM    113  H25 UNL A   1      39.019  26.987  30.308  1.00  0.00    +0.000 H 
ATOM     87  C62 UNL A   1      40.219  27.503  27.209  1.00  0.00    +0.000 C 
ATOM     88  C63 UNL A   1      40.099  26.204  26.715  1.00  0.00    +0.000 C 
ATOM     26  C20 UNL A   1      39.647  25.180  27.553  1.00  0.00    +0.000 C 
ATOM     27  C21 UNL A   1      39.227  25.473  28.857  1.00  0.00    +0.000 C 
ATOM     28  C22 UNL A   1      39.330  26.770  29.349  1.00  0.00    +0.000 C 
ATOM    125  H37 UNL A   1      40.343  25.999  25.734  1.00  0.00    +0.000 H 
BRANCH   26   24
ATOM     25  O2  UNL A   1      40.362  22.959  27.411  1.00  0.00    +0.000 O 
ATOM     24  C19 UNL A   1      39.514  23.779  27.094  1.00  0.00    +0.000 C 
BRANCH   24   23
ATOM    111  H23 UNL A   1      37.795  24.079  26.091  1.00  0.00    +0.000 H 
ATOM     23  N3  UNL A   1      38.468  23.389  26.291  1.00  0.00    +0.000 N 
BRANCH   23   22
ATOM    110  H22 UNL A   1      38.241  21.349  26.480  1.00  0.00    +0.000 H 
ATOM    109  H21 UNL A   1      39.005  21.877  24.986  1.00  0.00    +0.000 H 
ATOM     22  C18 UNL A   1      38.234  22.081  25.700  1.00  0.00    +0.000 C 
BRANCH   22   21
ATOM    107  H19 UNL A   1      36.729  21.035  24.627  1.00  0.00    +0.000 H 
ATOM    108  H20 UNL A   1      36.144  22.315  25.722  1.00  0.00    +0.000 H 
ATOM     21  C17 UNL A   1      36.877  22.028  24.997  1.00  0.00    +0.000 C 
BRANCH   21   20
ATOM    105  H17 UNL A   1      37.306  23.881  24.048  1.00  0.00    +0.000 H 
ATOM    106  H18 UNL A   1      37.086  22.479  22.956  1.00  0.00    +0.000 H 
ATOM     20  C16 UNL A   1      36.736  23.004  23.821  1.00  0.00    +0.000 C 
BRANCH   20   19
ATOM     19  C15 UNL A   1      35.302  23.439  23.504  1.00  0.00    +0.000 C 
ATOM    103  H15 UNL A   1      35.345  24.393  23.022  1.00  0.00    +0.000 H 
ATOM    104  H16 UNL A   1      34.888  22.666  22.891  1.00  0.00    +0.000 H 
BRANCH   19   18
ATOM     18  C14 UNL A   1      34.371  23.562  24.718  1.00  0.00    +0.000 C 
ATOM    101  H13 UNL A   1      33.530  22.921  24.557  1.00  0.00    +0.000 H 
ATOM    102  H14 UNL A   1      34.956  23.291  25.572  1.00  0.00    +0.000 H 
BRANCH   18   17
ATOM     17  C13 UNL A   1      33.847  24.973  24.990  1.00  0.00    +0.000 C 
ATOM     99  H11 UNL A   1      34.108  25.255  25.988  1.00  0.00    +0.000 H 
ATOM    100  H12 UNL A   1      34.289  25.640  24.279  1.00  0.00    +0.000 H 
BRANCH   17   16
ATOM     98  H10 UNL A   1      31.877  25.466  25.549  1.00  0.00    +0.000 H 
ATOM     16  N2  UNL A   1      32.410  25.038  24.841  1.00  0.00    +0.000 N 
BRANCH   16    2
ATOM      1  O1  UNL A   1      31.040  23.526  23.782  1.00  0.00    +0.000 O 
ATOM      2  C1  UNL A   1      31.758  24.520  23.739  1.00  0.00    +0.000 C 
BRANCH    2    3
ATOM     89  H1  UNL A   1      31.414  24.897  21.683  1.00  0.00    +0.000 H 
ATOM     90  H2  UNL A   1      33.095  25.090  22.220  1.00  0.00    +0.000 H 
ATOM      3  C2  UNL A   1      32.064  25.263  22.450  1.00  0.00    +0.000 C 
BRANCH    3    4
ATOM     97  H9  UNL A   1      29.744  26.950  22.713  1.00  0.00    +0.000 H 
ATOM      4  C3  UNL A   1      31.878  26.745  22.563  1.00  0.00    +0.000 C 
ATOM      5  C4  UNL A   1      32.875  27.755  22.546  1.00  0.00    +0.000 C 
ATOM      6  C5  UNL A   1      32.239  28.974  22.586  1.00  0.00    +0.000 C 
ATOM      7  N1  UNL A   1      30.874  28.773  22.640  1.00  0.00    +0.000 N 
ATOM     15  C12 UNL A   1      30.666  27.408  22.650  1.00  0.00    +0.000 C 
ATOM     91  H3  UNL A   1      33.896  27.602  22.511  1.00  0.00    +0.000 H 
ATOM     92  H4  UNL A   1      32.708  29.894  22.577  1.00  0.00    +0.000 H 
BRANCH    7    8
ATOM      8  C6  UNL A   1      29.881  29.787  22.639  1.00  0.00    +0.000 C 
ATOM      9  C7  UNL A   1      29.082  29.981  21.501  1.00  0.00    +0.000 C 
ATOM     10  C8  UNL A   1      28.085  30.961  21.500  1.00  0.00    +0.000 C 
ATOM     11  C9  UNL A   1      27.895  31.768  22.620  1.00  0.00    +0.000 C 
ATOM     12  C10 UNL A   1      28.693  31.588  23.748  1.00  0.00    +0.000 C 
ATOM     13  C11 UNL A   1      29.670  30.595  23.760  1.00  0.00    +0.000 C 
ATOM     14  F1  UNL A   1      30.435  30.494  24.857  1.00  0.00    +0.000 F 
ATOM     93  H5  UNL A   1      29.232  29.399  20.662  1.00  0.00    +0.000 H 
ATOM     94  H6  UNL A   1      27.489  31.088  20.667  1.00  0.00    +0.000 H 
ATOM     95  H7  UNL A   1      27.165  32.498  22.614  1.00  0.00    +0.000 H 
ATOM     96  H8  UNL A   1      28.558  32.189  24.576  1.00  0.00    +0.000 H 
ENDBRANCH    7    8
ENDBRANCH    3    4
ENDBRANCH    2    3
ENDBRANCH   16    2
ENDBRANCH   17   16
ENDBRANCH   18   17
ENDBRANCH   19   18
ENDBRANCH   20   19
ENDBRANCH   21   20
ENDBRANCH   22   21
ENDBRANCH   23   22
ENDBRANCH   24   23
ENDBRANCH   26   24
ENDBRANCH   30   29
BRANCH   34   35
ATOM     35  C28 UNL A   1      35.655  33.398  29.936  1.00  0.00    +0.000 C 
ATOM     36  C29 UNL A   1      35.187  33.456  31.257  1.00  0.00    +0.000 C 
ATOM     37  F2  UNL A   1      35.850  32.855  32.253  1.00  0.00    +0.000 F 
ATOM     38  C30 UNL A   1      34.068  34.223  31.601  1.00  0.00    +0.000 C 
ATOM     39  F3  UNL A   1      33.674  34.283  32.881  1.00  0.00    +0.000 F 
ATOM     40  C31 UNL A   1      33.406  34.977  30.646  1.00  0.00    +0.000 C 
ATOM     41  F4  UNL A   1      32.400  35.788  31.002  1.00  0.00    +0.000 F 
ATOM     42  C32 UNL A   1      33.815  34.913  29.330  1.00  0.00    +0.000 C 
ATOM     43  F5  UNL A   1      33.205  35.664  28.401  1.00  0.00    +0.000 F 
ATOM     44  C33 UNL A   1      34.900  34.114  28.975  1.00  0.00    +0.000 C 
ATOM     45  F6  UNL A   1      35.251  34.098  27.679  1.00  0.00    +0.000 F 
ENDBRANCH   34   35
BRANCH   51   52
ATOM     52  C39 UNL A   1      40.355  32.666  33.147  1.00  0.00    +0.000 C 
ATOM     53  C40 UNL A   1      40.385  32.975  34.517  1.00  0.00    +0.000 C 
ATOM     54  F7  UNL A   1      40.921  34.117  34.939  1.00  0.00    +0.000 F 
ATOM     55  C41 UNL A   1      39.870  32.121  35.490  1.00  0.00    +0.000 C 
ATOM     56  F8  UNL A   1      39.944  32.458  36.786  1.00  0.00    +0.000 F 
ATOM     57  C42 UNL A   1      39.286  30.927  35.115  1.00  0.00    +0.000 C 
ATOM     58  F9  UNL A   1      38.787  30.102  36.045  1.00  0.00    +0.000 F 
ATOM     59  C43 UNL A   1      39.233  30.589  33.772  1.00  0.00    +0.000 C 
ATOM     60  F10 UNL A   1      38.671  29.429  33.404  1.00  0.00    +0.000 F 
ATOM     61  C44 UNL A   1      39.765  31.443  32.801  1.00  0.00    +0.000 C 
ATOM     62  F11 UNL A   1      39.697  31.074  31.513  1.00  0.00    +0.000 F 
ENDBRANCH   51   52
BRANCH   66   67
ATOM     67  C48 UNL A   1      45.879  31.162  30.938  1.00  0.00    +0.000 C 
ATOM     68  C49 UNL A   1      46.508  31.244  32.214  1.00  0.00    +0.000 C 
ATOM     69  F12 UNL A   1      45.820  31.072  33.350  1.00  0.00    +0.000 F 
ATOM     70  C50 UNL A   1      47.870  31.501  32.392  1.00  0.00    +0.000 C 
ATOM     71  F13 UNL A   1      48.362  31.653  33.631  1.00  0.00    +0.000 F 
ATOM     72  C51 UNL A   1      48.697  31.616  31.302  1.00  0.00    +0.000 C 
ATOM     73  F14 UNL A   1      49.997  31.888  31.461  1.00  0.00    +0.000 F 
ATOM     74  C52 UNL A   1      48.161  31.421  30.044  1.00  0.00    +0.000 C 
ATOM     75  F15 UNL A   1      48.966  31.464  28.974  1.00  0.00    +0.000 F 
ATOM     76  C53 UNL A   1      46.785  31.187  29.867  1.00  0.00    +0.000 C 
ATOM     77  F16 UNL A   1      46.393  30.947  28.615  1.00  0.00    +0.000 F 
ENDBRANCH   66   67
TORSDOF 17
ENDMDL
MODEL 6
REMARK VINA RESULT:     -11.3      3.841      6.913
ROOT
ATOM     30  C24 UNL A   1      25.271  33.290  46.184  1.00  0.00    +0.000 C 
ATOM     31  C25 UNL A   1      26.110  32.199  46.856  1.00  0.00    +0.000 C 
ATOM     32  N4  UNL A   1      27.070  32.295  47.727  1.00  0.00    +0.000 N 
ATOM     33  C26 UNL A   1      27.577  30.996  47.936  1.00  0.00    +0.000 C 
ATOM     34  C27 UNL A   1      28.772  30.733  48.538  1.00  0.00    +0.000 C 
ATOM     46  C34 UNL A   1      29.402  31.928  48.984  1.00  0.00    +0.000 C 
ATOM     47  C35 UNL A   1      29.223  32.746  50.067  1.00  0.00    +0.000 C 
ATOM     48  C36 UNL A   1      29.700  34.010  49.648  1.00  0.00    +0.000 C 
ATOM     49  C37 UNL A   1      30.181  33.903  48.341  1.00  0.00    +0.000 C 
ATOM     50  N5  UNL A   1      30.253  32.550  48.106  1.00  0.00    +0.000 N 
ATOM     51  C38 UNL A   1      30.392  34.789  47.216  1.00  0.00    +0.000 C 
ATOM     63  C45 UNL A   1      30.031  36.088  47.365  1.00  0.00    +0.000 C 
ATOM     64  N6  UNL A   1      29.358  36.732  46.349  1.00  0.00    +0.000 N 
ATOM     65  C46 UNL A   1      28.403  37.349  46.983  1.00  0.00    +0.000 C 
ATOM     66  C47 UNL A   1      27.185  37.893  46.352  1.00  0.00    +0.000 C 
ATOM     78  C54 UNL A   1      26.408  36.810  46.034  1.00  0.00    +0.000 C 
ATOM     79  C55 UNL A   1      25.129  36.797  45.351  1.00  0.00    +0.000 C 
ATOM     80  C56 UNL A   1      24.637  35.545  45.317  1.00  0.00    +0.000 C 
ATOM     81  C57 UNL A   1      25.549  34.611  45.995  1.00  0.00    +0.000 C 
ATOM     82  N7  UNL A   1      26.609  35.436  46.324  1.00  0.00    +0.000 N 
ATOM     83  C58 UNL A   1      28.543  37.428  48.443  1.00  0.00    +0.000 C 
ATOM     84  C59 UNL A   1      29.691  36.774  48.587  1.00  0.00    +0.000 C 
ATOM     85  C60 UNL A   1      26.681  30.096  47.272  1.00  0.00    +0.000 C 
ATOM     86  C61 UNL A   1      25.791  30.779  46.551  1.00  0.00    +0.000 C 
ATOM    114  H26 UNL A   1      28.827  32.496  50.986  1.00  0.00    +0.000 H 
ATOM    115  H27 UNL A   1      29.694  34.872  50.216  1.00  0.00    +0.000 H 
ATOM    116  H28 UNL A   1      30.814  32.108  47.429  1.00  0.00    +0.000 H 
ATOM    117  H29 UNL A   1      24.664  37.626  44.949  1.00  0.00    +0.000 H 
ATOM    118  H30 UNL A   1      23.744  35.277  44.876  1.00  0.00    +0.000 H 
ATOM    119  H31 UNL A   1      27.440  35.096  46.729  1.00  0.00    +0.000 H 
ATOM    120  H32 UNL A   1      27.929  37.863  49.149  1.00  0.00    +0.000 H 
ATOM    121  H33 UNL A   1      30.258  36.759  49.450  1.00  0.00    +0.000 H 
ATOM    122  H34 UNL A   1      26.719  29.067  47.342  1.00  0.00    +0.000 H 
ATOM    123  H35 UNL A   1      25.056  30.409  45.929  1.00  0.00    +0.000 H 
ENDROOT
BRANCH   30   29
ATOM    124  H36 UNL A   1      23.010  32.767  47.594  1.00  0.00    +0.000 H 
ATOM     29  C23 UNL A   1      23.957  32.801  45.699  1.00  0.00    +0.000 C 
ATOM    112  H24 UNL A   1      22.388  32.160  42.811  1.00  0.00    +0.000 H 
ATOM    113  H25 UNL A   1      24.593  32.662  43.687  1.00  0.00    +0.000 H 
ATOM     87  C62 UNL A   1      22.873  32.650  46.578  1.00  0.00    +0.000 C 
ATOM     88  C63 UNL A   1      21.610  32.342  46.072  1.00  0.00    +0.000 C 
ATOM     26  C20 UNL A   1      21.424  32.217  44.692  1.00  0.00    +0.000 C 
ATOM     27  C21 UNL A   1      22.520  32.308  43.824  1.00  0.00    +0.000 C 
ATOM     28  C22 UNL A   1      23.784  32.598  44.325  1.00  0.00    +0.000 C 
ATOM    125  H37 UNL A   1      20.814  32.207  46.716  1.00  0.00    +0.000 H 
BRANCH   26   24
ATOM     25  O2  UNL A   1      19.558  32.739  43.383  1.00  0.00    +0.000 O 
ATOM     24  C19 UNL A   1      20.105  31.910  44.094  1.00  0.00    +0.000 C 
BRANCH   24   23
ATOM    111  H23 UNL A   1      20.040  29.915  44.354  1.00  0.00    +0.000 H 
ATOM     23  N3  UNL A   1      19.469  30.717  44.347  1.00  0.00    +0.000 N 
BRANCH   23   22
ATOM    110  H22 UNL A   1      17.647  31.378  45.046  1.00  0.00    +0.000 H 
ATOM    109  H21 UNL A   1      17.947  29.658  45.263  1.00  0.00    +0.000 H 
ATOM     22  C18 UNL A   1      18.055  30.494  44.603  1.00  0.00    +0.000 C 
BRANCH   22   21
ATOM    107  H19 UNL A   1      17.877  30.583  42.489  1.00  0.00    +0.000 H 
ATOM    108  H20 UNL A   1      17.157  29.146  43.262  1.00  0.00    +0.000 H 
ATOM     21  C17 UNL A   1      17.298  30.206  43.307  1.00  0.00    +0.000 C 
BRANCH   21   20
ATOM    105  H17 UNL A   1      15.211  30.085  42.922  1.00  0.00    +0.000 H 
ATOM    106  H18 UNL A   1      15.699  31.221  44.215  1.00  0.00    +0.000 H 
ATOM     20  C16 UNL A   1      15.901  30.839  43.236  1.00  0.00    +0.000 C 
BRANCH   20   19
ATOM     19  C15 UNL A   1      15.773  32.029  42.281  1.00  0.00    +0.000 C 
ATOM    103  H15 UNL A   1      16.727  32.192  41.827  1.00  0.00    +0.000 H 
ATOM    104  H16 UNL A   1      15.005  31.766  41.583  1.00  0.00    +0.000 H 
BRANCH   19   18
ATOM     18  C14 UNL A   1      15.324  33.345  42.929  1.00  0.00    +0.000 C 
ATOM    101  H13 UNL A   1      15.504  34.136  42.232  1.00  0.00    +0.000 H 
ATOM    102  H14 UNL A   1      14.289  33.221  43.173  1.00  0.00    +0.000 H 
BRANCH   18   17
ATOM     17  C13 UNL A   1      16.032  33.696  44.238  1.00  0.00    +0.000 C 
ATOM     99  H11 UNL A   1      15.411  33.406  45.059  1.00  0.00    +0.000 H 
ATOM    100  H12 UNL A   1      16.966  33.173  44.266  1.00  0.00    +0.000 H 
BRANCH   17   16
ATOM     98  H10 UNL A   1      15.895  35.718  43.664  1.00  0.00    +0.000 H 
ATOM     16  N2  UNL A   1      16.302  35.114  44.327  1.00  0.00    +0.000 N 
BRANCH   16    2
ATOM      1  O1  UNL A   1      17.014  36.807  45.708  1.00  0.00    +0.000 O 
ATOM      2  C1  UNL A   1      17.109  35.650  45.310  1.00  0.00    +0.000 C 
BRANCH    2    3
ATOM     89  H1  UNL A   1      18.274  33.893  45.105  1.00  0.00    +0.000 H 
ATOM     90  H2  UNL A   1      17.852  34.334  46.771  1.00  0.00    +0.000 H 
ATOM      3  C2  UNL A   1      18.172  34.688  45.813  1.00  0.00    +0.000 C 
BRANCH    3    4
ATOM     97  H9  UNL A   1      19.751  35.323  48.138  1.00  0.00    +0.000 H 
ATOM      4  C3  UNL A   1      19.511  35.331  46.002  1.00  0.00    +0.000 C 
ATOM      5  C4  UNL A   1      20.384  35.841  45.005  1.00  0.00    +0.000 C 
ATOM      6  C5  UNL A   1      21.456  36.420  45.643  1.00  0.00    +0.000 C 
ATOM      7  N1  UNL A   1      21.301  36.286  47.008  1.00  0.00    +0.000 N 
ATOM     15  C12 UNL A   1      20.122  35.598  47.215  1.00  0.00    +0.000 C 
ATOM     91  H3  UNL A   1      20.239  35.786  43.985  1.00  0.00    +0.000 H 
ATOM     92  H4  UNL A   1      22.252  36.884  45.175  1.00  0.00    +0.000 H 
BRANCH    7    8
ATOM      8  C6  UNL A   1      22.173  36.802  48.002  1.00  0.00    +0.000 C 
ATOM      9  C7  UNL A   1      23.241  36.020  48.468  1.00  0.00    +0.000 C 
ATOM     10  C8  UNL A   1      24.120  36.530  49.428  1.00  0.00    +0.000 C 
ATOM     11  C9  UNL A   1      23.927  37.809  49.946  1.00  0.00    +0.000 C 
ATOM     12  C10 UNL A   1      22.862  38.585  49.496  1.00  0.00    +0.000 C 
ATOM     13  C11 UNL A   1      21.999  38.088  48.520  1.00  0.00    +0.000 C 
ATOM     14  F1  UNL A   1      20.967  38.863  48.155  1.00  0.00    +0.000 F 
ATOM     93  H5  UNL A   1      23.378  35.064  48.101  1.00  0.00    +0.000 H 
ATOM     94  H6  UNL A   1      24.914  35.957  49.755  1.00  0.00    +0.000 H 
ATOM     95  H7  UNL A   1      24.571  38.180  50.663  1.00  0.00    +0.000 H 
ATOM     96  H8  UNL A   1      22.712  39.530  49.884  1.00  0.00    +0.000 H 
ENDBRANCH    7    8
ENDBRANCH    3    4
ENDBRANCH    2    3
ENDBRANCH   16    2
ENDBRANCH   17   16
ENDBRANCH   18   17
ENDBRANCH   19   18
ENDBRANCH   20   19
ENDBRANCH   21   20
ENDBRANCH   22   21
ENDBRANCH   23   22
ENDBRANCH   24   23
ENDBRANCH   26   24
ENDBRANCH   30   29
BRANCH   34   35
ATOM     35  C28 UNL A   1      29.578  29.464  48.602  1.00  0.00    +0.000 C 
ATOM     36  C29 UNL A   1      30.772  29.272  47.891  1.00  0.00    +0.000 C 
ATOM     37  F2  UNL A   1      31.136  30.109  46.911  1.00  0.00    +0.000 F 
ATOM     38  C30 UNL A   1      31.676  28.262  48.243  1.00  0.00    +0.000 C 
ATOM     39  F3  UNL A   1      32.823  28.134  47.563  1.00  0.00    +0.000 F 
ATOM     40  C31 UNL A   1      31.429  27.438  49.329  1.00  0.00    +0.000 C 
ATOM     41  F4  UNL A   1      32.345  26.543  49.720  1.00  0.00    +0.000 F 
ATOM     42  C32 UNL A   1      30.247  27.573  50.027  1.00  0.00    +0.000 C 
ATOM     43  F5  UNL A   1      30.010  26.807  51.101  1.00  0.00    +0.000 F 
ATOM     44  C33 UNL A   1      29.323  28.548  49.651  1.00  0.00    +0.000 C 
ATOM     45  F6  UNL A   1      28.194  28.631  50.373  1.00  0.00    +0.000 F 
ENDBRANCH   34   35
BRANCH   51   52
ATOM     52  C39 UNL A   1      30.509  34.367  45.768  1.00  0.00    +0.000 C 
ATOM     53  C40 UNL A   1      29.406  33.980  44.989  1.00  0.00    +0.000 C 
ATOM     54  F7  UNL A   1      28.203  33.848  45.542  1.00  0.00    +0.000 F 
ATOM     55  C41 UNL A   1      29.508  33.714  43.626  1.00  0.00    +0.000 C 
ATOM     56  F8  UNL A   1      28.424  33.327  42.935  1.00  0.00    +0.000 F 
ATOM     57  C42 UNL A   1      30.726  33.847  42.990  1.00  0.00    +0.000 C 
ATOM     58  F9  UNL A   1      30.830  33.595  41.678  1.00  0.00    +0.000 F 
ATOM     59  C43 UNL A   1      31.837  34.231  43.724  1.00  0.00    +0.000 C 
ATOM     60  F10 UNL A   1      33.022  34.358  43.111  1.00  0.00    +0.000 F 
ATOM     61  C44 UNL A   1      31.732  34.483  45.095  1.00  0.00    +0.000 C 
ATOM     62  F11 UNL A   1      32.834  34.848  45.768  1.00  0.00    +0.000 F 
ENDBRANCH   51   52
BRANCH   66   67
ATOM     67  C48 UNL A   1      27.043  39.404  46.298  1.00  0.00    +0.000 C 
ATOM     68  C49 UNL A   1      28.088  40.204  45.753  1.00  0.00    +0.000 C 
ATOM     69  F12 UNL A   1      29.113  39.662  45.084  1.00  0.00    +0.000 F 
ATOM     70  C50 UNL A   1      28.136  41.597  45.861  1.00  0.00    +0.000 C 
ATOM     71  F13 UNL A   1      29.203  42.264  45.399  1.00  0.00    +0.000 F 
ATOM     72  C51 UNL A   1      27.101  42.276  46.456  1.00  0.00    +0.000 C 
ATOM     73  F14 UNL A   1      27.149  43.607  46.588  1.00  0.00    +0.000 F 
ATOM     74  C52 UNL A   1      26.004  41.558  46.891  1.00  0.00    +0.000 C 
ATOM     75  F15 UNL A   1      24.957  42.212  47.414  1.00  0.00    +0.000 F 
ATOM     76  C53 UNL A   1      25.971  40.155  46.803  1.00  0.00    +0.000 C 
ATOM     77  F16 UNL A   1      24.834  39.575  47.192  1.00  0.00    +0.000 F 
ENDBRANCH   66   67
TORSDOF 17
ENDMDL
MODEL 7
REMARK VINA RESULT:     -11.0     51.507     57.561
ROOT
ATOM     30  C24 UNL A   1      26.411  22.968 -10.513  1.00  0.00    +0.000 C 
ATOM     31  C25 UNL A   1      26.342  24.439 -10.093  1.00  0.00    +0.000 C 
ATOM     32  N4  UNL A   1      25.329  25.251 -10.044  1.00  0.00    +0.000 N 
ATOM     33  C26 UNL A   1      25.829  26.522  -9.693  1.00  0.00    +0.000 C 
ATOM     34  C27 UNL A   1      25.127  27.683  -9.839  1.00  0.00    +0.000 C 
ATOM     46  C34 UNL A   1      23.812  27.437 -10.323  1.00  0.00    +0.000 C 
ATOM     47  C35 UNL A   1      22.653  27.002  -9.739  1.00  0.00    +0.000 C 
ATOM     48  C36 UNL A   1      21.917  26.411 -10.791  1.00  0.00    +0.000 C 
ATOM     49  C37 UNL A   1      22.640  26.541 -11.979  1.00  0.00    +0.000 C 
ATOM     50  N5  UNL A   1      23.638  27.439 -11.683  1.00  0.00    +0.000 N 
ATOM     51  C38 UNL A   1      22.713  25.857 -13.253  1.00  0.00    +0.000 C 
ATOM     63  C45 UNL A   1      21.922  24.769 -13.426  1.00  0.00    +0.000 C 
ATOM     64  N6  UNL A   1      22.436  23.638 -14.024  1.00  0.00    +0.000 N 
ATOM     65  C46 UNL A   1      22.010  22.684 -13.248  1.00  0.00    +0.000 C 
ATOM     66  C47 UNL A   1      22.559  21.314 -13.215  1.00  0.00    +0.000 C 
ATOM     78  C54 UNL A   1      23.777  21.409 -12.596  1.00  0.00    +0.000 C 
ATOM     79  C55 UNL A   1      24.743  20.355 -12.357  1.00  0.00    +0.000 C 
ATOM     80  C56 UNL A   1      25.772  20.827 -11.630  1.00  0.00    +0.000 C 
ATOM     81  C57 UNL A   1      25.569  22.248 -11.306  1.00  0.00    +0.000 C 
ATOM     82  N7  UNL A   1      24.396  22.529 -11.983  1.00  0.00    +0.000 N 
ATOM     83  C58 UNL A   1      20.957  23.050 -12.293  1.00  0.00    +0.000 C 
ATOM     84  C59 UNL A   1      20.823  24.337 -12.599  1.00  0.00    +0.000 C 
ATOM     85  C60 UNL A   1      27.201  26.335  -9.326  1.00  0.00    +0.000 C 
ATOM     86  C61 UNL A   1      27.586  25.088  -9.599  1.00  0.00    +0.000 C 
ATOM    114  H26 UNL A   1      22.378  27.086  -8.748  1.00  0.00    +0.000 H 
ATOM    115  H27 UNL A   1      20.994  25.958 -10.698  1.00  0.00    +0.000 H 
ATOM    116  H28 UNL A   1      24.137  27.987 -12.332  1.00  0.00    +0.000 H 
ATOM    117  H29 UNL A   1      24.655  19.383 -12.696  1.00  0.00    +0.000 H 
ATOM    118  H30 UNL A   1      26.591  20.271 -11.340  1.00  0.00    +0.000 H 
ATOM    119  H31 UNL A   1      24.018  23.437 -12.035  1.00  0.00    +0.000 H 
ATOM    120  H32 UNL A   1      20.464  22.477 -11.591  1.00  0.00    +0.000 H 
ATOM    121  H33 UNL A   1      20.045  24.940 -12.288  1.00  0.00    +0.000 H 
ATOM    122  H34 UNL A   1      27.805  27.062  -8.910  1.00  0.00    +0.000 H 
ATOM    123  H35 UNL A   1      28.524  24.673  -9.494  1.00  0.00    +0.000 H 
ENDROOT
BRANCH   30   29
ATOM    124  H36 UNL A   1      26.586  21.616  -8.165  1.00  0.00    +0.000 H 
ATOM     29  C23 UNL A   1      27.570  22.247  -9.931  1.00  0.00    +0.000 C 
ATOM    112  H24 UNL A   1      30.680  21.332 -10.771  1.00  0.00    +0.000 H 
ATOM    113  H25 UNL A   1      28.862  22.745 -11.530  1.00  0.00    +0.000 H 
ATOM     87  C62 UNL A   1      27.451  21.544  -8.722  1.00  0.00    +0.000 C 
ATOM     88  C63 UNL A   1      28.507  20.747  -8.279  1.00  0.00    +0.000 C 
ATOM     26  C20 UNL A   1      29.664  20.628  -9.055  1.00  0.00    +0.000 C 
ATOM     27  C21 UNL A   1      29.802  21.380 -10.229  1.00  0.00    +0.000 C 
ATOM     28  C22 UNL A   1      28.760  22.189 -10.667  1.00  0.00    +0.000 C 
ATOM    125  H37 UNL A   1      28.434  20.246  -7.380  1.00  0.00    +0.000 H 
BRANCH   26   24
ATOM     25  O2  UNL A   1      30.758  18.576  -8.817  1.00  0.00    +0.000 O 
ATOM     24  C19 UNL A   1      30.809  19.784  -8.648  1.00  0.00    +0.000 C 
BRANCH   24   23
ATOM    111  H23 UNL A   1      32.574  19.694  -7.685  1.00  0.00    +0.000 H 
ATOM     23  N3  UNL A   1      31.922  20.333  -8.053  1.00  0.00    +0.000 N 
BRANCH   23   22
ATOM    110  H22 UNL A   1      31.701  22.299  -8.628  1.00  0.00    +0.000 H 
ATOM    109  H21 UNL A   1      33.306  21.869  -8.050  1.00  0.00    +0.000 H 
ATOM     22  C18 UNL A   1      32.254  21.741  -7.903  1.00  0.00    +0.000 C 
BRANCH   22   21
ATOM    107  H19 UNL A   1      31.131  21.599  -6.106  1.00  0.00    +0.000 H 
ATOM    108  H20 UNL A   1      32.780  22.254  -5.932  1.00  0.00    +0.000 H 
ATOM     21  C17 UNL A   1      31.879  22.249  -6.510  1.00  0.00    +0.000 C 
BRANCH   21   20
ATOM    105  H17 UNL A   1      31.493  24.082  -5.507  1.00  0.00    +0.000 H 
ATOM    106  H18 UNL A   1      31.859  24.213  -7.254  1.00  0.00    +0.000 H 
ATOM     20  C16 UNL A   1      31.334  23.683  -6.486  1.00  0.00    +0.000 C 
BRANCH   20   19
ATOM     19  C15 UNL A   1      29.845  23.819  -6.818  1.00  0.00    +0.000 C 
ATOM    103  H15 UNL A   1      29.761  24.300  -7.769  1.00  0.00    +0.000 H 
ATOM    104  H16 UNL A   1      29.447  22.826  -6.803  1.00  0.00    +0.000 H 
BRANCH   19   18
ATOM     18  C14 UNL A   1      29.017  24.623  -5.805  1.00  0.00    +0.000 C 
ATOM    101  H13 UNL A   1      29.516  24.578  -4.860  1.00  0.00    +0.000 H 
ATOM    102  H14 UNL A   1      28.943  25.614  -6.200  1.00  0.00    +0.000 H 
BRANCH   18   17
ATOM     17  C13 UNL A   1      27.583  24.132  -5.608  1.00  0.00    +0.000 C 
ATOM     99  H11 UNL A   1      27.461  23.200  -6.119  1.00  0.00    +0.000 H 
ATOM    100  H12 UNL A   1      27.408  24.014  -4.559  1.00  0.00    +0.000 H 
BRANCH   17   16
ATOM     98  H10 UNL A   1      26.923  25.744  -6.792  1.00  0.00    +0.000 H 
ATOM     16  N2  UNL A   1      26.625  25.084  -6.125  1.00  0.00    +0.000 N 
BRANCH   16    2
ATOM      1  O1  UNL A   1      24.899  24.508  -4.721  1.00  0.00    +0.000 O 
ATOM      2  C1  UNL A   1      25.306  25.099  -5.717  1.00  0.00    +0.000 C 
BRANCH    2    3
ATOM     89  H1  UNL A   1      23.893  25.171  -7.293  1.00  0.00    +0.000 H 
ATOM     90  H2  UNL A   1      25.002  26.554  -7.202  1.00  0.00    +0.000 H 
ATOM      3  C2  UNL A   1      24.391  25.869  -6.653  1.00  0.00    +0.000 C 
BRANCH    3    4
ATOM     97  H9  UNL A   1      24.531  27.925  -4.640  1.00  0.00    +0.000 H 
ATOM      4  C3  UNL A   1      23.355  26.677  -5.935  1.00  0.00    +0.000 C 
ATOM      5  C4  UNL A   1      21.943  26.605  -6.069  1.00  0.00    +0.000 C 
ATOM      6  C5  UNL A   1      21.390  27.466  -5.149  1.00  0.00    +0.000 C 
ATOM      7  N1  UNL A   1      22.400  28.091  -4.446  1.00  0.00    +0.000 N 
ATOM     15  C12 UNL A   1      23.596  27.620  -4.950  1.00  0.00    +0.000 C 
ATOM     91  H3  UNL A   1      21.425  26.013  -6.736  1.00  0.00    +0.000 H 
ATOM     92  H4  UNL A   1      20.379  27.621  -5.007  1.00  0.00    +0.000 H 
BRANCH    7    8
ATOM      8  C6  UNL A   1      22.228  29.008  -3.377  1.00  0.00    +0.000 C 
ATOM      9  C7  UNL A   1      21.066  29.793  -3.309  1.00  0.00    +0.000 C 
ATOM     10  C8  UNL A   1      20.876  30.681  -2.246  1.00  0.00    +0.000 C 
ATOM     11  C9  UNL A   1      21.852  30.811  -1.260  1.00  0.00    +0.000 C 
ATOM     12  C10 UNL A   1      23.013  30.044  -1.328  1.00  0.00    +0.000 C 
ATOM     13  C11 UNL A   1      23.192  29.140  -2.373  1.00  0.00    +0.000 C 
ATOM     14  F1  UNL A   1      24.347  28.459  -2.410  1.00  0.00    +0.000 F 
ATOM     93  H5  UNL A   1      20.348  29.714  -4.048  1.00  0.00    +0.000 H 
ATOM     94  H6  UNL A   1      20.012  31.242  -2.193  1.00  0.00    +0.000 H 
ATOM     95  H7  UNL A   1      21.715  31.475  -0.481  1.00  0.00    +0.000 H 
ATOM     96  H8  UNL A   1      23.740  30.145  -0.603  1.00  0.00    +0.000 H 
ENDBRANCH    7    8
ENDBRANCH    3    4
ENDBRANCH    2    3
ENDBRANCH   16    2
ENDBRANCH   17   16
ENDBRANCH   18   17
ENDBRANCH   19   18
ENDBRANCH   20   19
ENDBRANCH   21   20
ENDBRANCH   22   21
ENDBRANCH   23   22
ENDBRANCH   24   23
ENDBRANCH   26   24
ENDBRANCH   30   29
BRANCH   34   35
ATOM     35  C28 UNL A   1      25.581  29.117  -9.776  1.00  0.00    +0.000 C 
ATOM     36  C29 UNL A   1      25.524  29.992 -10.870  1.00  0.00    +0.000 C 
ATOM     37  F2  UNL A   1      25.301  29.536 -12.109  1.00  0.00    +0.000 F 
ATOM     38  C30 UNL A   1      25.597  31.379 -10.699  1.00  0.00    +0.000 C 
ATOM     39  F3  UNL A   1      25.501  32.184 -11.766  1.00  0.00    +0.000 F 
ATOM     40  C31 UNL A   1      25.696  31.932  -9.432  1.00  0.00    +0.000 C 
ATOM     41  F4  UNL A   1      25.662  33.261  -9.270  1.00  0.00    +0.000 F 
ATOM     42  C32 UNL A   1      25.794  31.100  -8.336  1.00  0.00    +0.000 C 
ATOM     43  F5  UNL A   1      25.856  31.620  -7.102  1.00  0.00    +0.000 F 
ATOM     44  C33 UNL A   1      25.769  29.716  -8.507  1.00  0.00    +0.000 C 
ATOM     45  F6  UNL A   1      25.864  28.961  -7.401  1.00  0.00    +0.000 F 
ENDBRANCH   34   35
BRANCH   51   52
ATOM     52  C39 UNL A   1      23.877  25.905 -14.217  1.00  0.00    +0.000 C 
ATOM     53  C40 UNL A   1      23.778  26.429 -15.516  1.00  0.00    +0.000 C 
ATOM     54  F7  UNL A   1      22.598  26.802 -16.005  1.00  0.00    +0.000 F 
ATOM     55  C41 UNL A   1      24.884  26.583 -16.349  1.00  0.00    +0.000 C 
ATOM     56  F8  UNL A   1      24.727  27.070 -17.590  1.00  0.00    +0.000 F 
ATOM     57  C42 UNL A   1      26.139  26.229 -15.895  1.00  0.00    +0.000 C 
ATOM     58  F9  UNL A   1      27.207  26.376 -16.691  1.00  0.00    +0.000 F 
ATOM     59  C43 UNL A   1      26.278  25.712 -14.617  1.00  0.00    +0.000 C 
ATOM     60  F10 UNL A   1      27.494  25.364 -14.174  1.00  0.00    +0.000 F 
ATOM     61  C44 UNL A   1      25.163  25.547 -13.790  1.00  0.00    +0.000 C 
ATOM     62  F11 UNL A   1      25.343  25.038 -12.562  1.00  0.00    +0.000 F 
ENDBRANCH   51   52
BRANCH   66   67
ATOM     67  C48 UNL A   1      21.674  20.197 -13.741  1.00  0.00    +0.000 C 
ATOM     68  C49 UNL A   1      21.198  19.183 -12.861  1.00  0.00    +0.000 C 
ATOM     69  F12 UNL A   1      21.323  19.289 -11.532  1.00  0.00    +0.000 F 
ATOM     70  C50 UNL A   1      20.567  18.013 -13.294  1.00  0.00    +0.000 C 
ATOM     71  F13 UNL A   1      20.233  17.069 -12.404  1.00  0.00    +0.000 F 
ATOM     72  C51 UNL A   1      20.309  17.826 -14.630  1.00  0.00    +0.000 C 
ATOM     73  F14 UNL A   1      19.729  16.698 -15.058  1.00  0.00    +0.000 F 
ATOM     74  C52 UNL A   1      20.638  18.835 -15.514  1.00  0.00    +0.000 C 
ATOM     75  F15 UNL A   1      20.333  18.696 -16.812  1.00  0.00    +0.000 F 
ATOM     76  C53 UNL A   1      21.295  20.000 -15.077  1.00  0.00    +0.000 C 
ATOM     77  F16 UNL A   1      21.503  20.933 -16.008  1.00  0.00    +0.000 F 
ENDBRANCH   66   67
TORSDOF 17
ENDMDL
MODEL 8
REMARK VINA RESULT:     -10.7     22.987     28.354
ROOT
ATOM     30  C24 UNL A   1      42.702  16.843  49.383  1.00  0.00    +0.000 C 
ATOM     31  C25 UNL A   1      43.360  18.226  49.389  1.00  0.00    +0.000 C 
ATOM     32  N4  UNL A   1      43.949  18.879  48.432  1.00  0.00    +0.000 N 
ATOM     33  C26 UNL A   1      44.475  20.060  48.994  1.00  0.00    +0.000 C 
ATOM     34  C27 UNL A   1      45.411  20.843  48.383  1.00  0.00    +0.000 C 
ATOM     46  C34 UNL A   1      45.732  20.352  47.087  1.00  0.00    +0.000 C 
ATOM     47  C35 UNL A   1      45.114  20.422  45.867  1.00  0.00    +0.000 C 
ATOM     48  C36 UNL A   1      45.581  19.291  45.159  1.00  0.00    +0.000 C 
ATOM     49  C37 UNL A   1      46.490  18.597  45.962  1.00  0.00    +0.000 C 
ATOM     50  N5  UNL A   1      46.768  19.457  46.997  1.00  0.00    +0.000 N 
ATOM     51  C38 UNL A   1      46.988  17.242  46.066  1.00  0.00    +0.000 C 
ATOM     63  C45 UNL A   1      46.474  16.318  45.216  1.00  0.00    +0.000 C 
ATOM     64  N6  UNL A   1      46.132  15.069  45.688  1.00  0.00    +0.000 N 
ATOM     65  C46 UNL A   1      44.964  14.869  45.152  1.00  0.00    +0.000 C 
ATOM     66  C47 UNL A   1      43.990  13.856  45.603  1.00  0.00    +0.000 C 
ATOM     78  C54 UNL A   1      43.477  14.324  46.784  1.00  0.00    +0.000 C 
ATOM     79  C55 UNL A   1      42.518  13.680  47.660  1.00  0.00    +0.000 C 
ATOM     80  C56 UNL A   1      42.191  14.505  48.671  1.00  0.00    +0.000 C 
ATOM     81  C57 UNL A   1      42.900  15.787  48.545  1.00  0.00    +0.000 C 
ATOM     82  N7  UNL A   1      43.698  15.563  47.438  1.00  0.00    +0.000 N 
ATOM     83  C58 UNL A   1      44.586  15.785  44.068  1.00  0.00    +0.000 C 
ATOM     84  C59 UNL A   1      45.672  16.551  44.041  1.00  0.00    +0.000 C 
ATOM     85  C60 UNL A   1      43.953  20.148  50.325  1.00  0.00    +0.000 C 
ATOM     86  C61 UNL A   1      43.304  19.027  50.640  1.00  0.00    +0.000 C 
ATOM    114  H26 UNL A   1      44.453  21.142  45.537  1.00  0.00    +0.000 H 
ATOM    115  H27 UNL A   1      45.298  19.022  44.203  1.00  0.00    +0.000 H 
ATOM    116  H28 UNL A   1      47.567  19.434  47.572  1.00  0.00    +0.000 H 
ATOM    117  H29 UNL A   1      42.142  12.728  47.528  1.00  0.00    +0.000 H 
ATOM    118  H30 UNL A   1      41.533  14.270  49.431  1.00  0.00    +0.000 H 
ATOM    119  H31 UNL A   1      44.368  16.215  47.127  1.00  0.00    +0.000 H 
ATOM    120  H32 UNL A   1      43.728  15.822  43.495  1.00  0.00    +0.000 H 
ATOM    121  H33 UNL A   1      45.907  17.217  43.288  1.00  0.00    +0.000 H 
ATOM    122  H34 UNL A   1      44.064  20.962  50.949  1.00  0.00    +0.000 H 
ATOM    123  H35 UNL A   1      42.866  18.776  51.540  1.00  0.00    +0.000 H 
ENDROOT
BRANCH   30   29
ATOM    124  H36 UNL A   1      43.012  15.886  51.905  1.00  0.00    +0.000 H 
ATOM     29  C23 UNL A   1      41.687  16.675  50.453  1.00  0.00    +0.000 C 
ATOM    112  H24 UNL A   1      38.475  17.405  51.051  1.00  0.00    +0.000 H 
ATOM    113  H25 UNL A   1      40.096  17.373  49.248  1.00  0.00    +0.000 H 
ATOM     87  C62 UNL A   1      42.052  16.220  51.730  1.00  0.00    +0.000 C 
ATOM     88  C63 UNL A   1      41.112  16.222  52.760  1.00  0.00    +0.000 C 
ATOM     26  C20 UNL A   1      39.821  16.705  52.524  1.00  0.00    +0.000 C 
ATOM     27  C21 UNL A   1      39.444  17.100  51.234  1.00  0.00    +0.000 C 
ATOM     28  C22 UNL A   1      40.373  17.085  50.199  1.00  0.00    +0.000 C 
ATOM    125  H37 UNL A   1      41.368  15.867  53.694  1.00  0.00    +0.000 H 
BRANCH   26   24
ATOM     25  O2  UNL A   1      37.672  17.177  53.314  1.00  0.00    +0.000 O 
ATOM     24  C19 UNL A   1      38.785  16.750  53.580  1.00  0.00    +0.000 C 
BRANCH   24   23
ATOM    111  H23 UNL A   1      39.309  17.058  55.498  1.00  0.00    +0.000 H 
ATOM     23  N3  UNL A   1      39.060  16.346  54.866  1.00  0.00    +0.000 N 
BRANCH   23   22
ATOM    110  H22 UNL A   1      38.391  14.988  56.263  1.00  0.00    +0.000 H 
ATOM    109  H21 UNL A   1      40.024  14.703  55.671  1.00  0.00    +0.000 H 
ATOM     22  C18 UNL A   1      39.029  14.996  55.405  1.00  0.00    +0.000 C 
BRANCH   22   21
ATOM    107  H19 UNL A   1      37.661  13.477  54.829  1.00  0.00    +0.000 H 
ATOM    108  H20 UNL A   1      38.178  14.580  53.527  1.00  0.00    +0.000 H 
ATOM     21  C17 UNL A   1      38.476  14.005  54.380  1.00  0.00    +0.000 C 
BRANCH   21   20
ATOM    105  H17 UNL A   1      40.478  13.376  54.042  1.00  0.00    +0.000 H 
ATOM    106  H18 UNL A   1      39.307  12.077  54.428  1.00  0.00    +0.000 H 
ATOM     20  C16 UNL A   1      39.499  12.976  53.879  1.00  0.00    +0.000 C 
BRANCH   20   19
ATOM     19  C15 UNL A   1      39.378  12.605  52.399  1.00  0.00    +0.000 C 
ATOM    103  H15 UNL A   1      39.068  11.583  52.339  1.00  0.00    +0.000 H 
ATOM    104  H16 UNL A   1      38.674  13.292  51.978  1.00  0.00    +0.000 H 
BRANCH   19   18
ATOM     18  C14 UNL A   1      40.664  12.759  51.576  1.00  0.00    +0.000 C 
ATOM    101  H13 UNL A   1      40.392  12.828  50.544  1.00  0.00    +0.000 H 
ATOM    102  H14 UNL A   1      41.152  13.637  51.946  1.00  0.00    +0.000 H 
BRANCH   18   17
ATOM     17  C13 UNL A   1      41.668  11.616  51.726  1.00  0.00    +0.000 C 
ATOM     99  H11 UNL A   1      41.847  11.445  52.767  1.00  0.00    +0.000 H 
ATOM    100  H12 UNL A   1      41.257  10.743  51.263  1.00  0.00    +0.000 H 
BRANCH   17   16
ATOM     98  H10 UNL A   1      43.064  11.631  50.149  1.00  0.00    +0.000 H 
ATOM     16  N2  UNL A   1      42.922  11.928  51.076  1.00  0.00    +0.000 N 
BRANCH   16    2
ATOM      1  O1  UNL A   1      44.125  12.581  52.923  1.00  0.00    +0.000 O 
ATOM      2  C1  UNL A   1      43.928  12.629  51.713  1.00  0.00    +0.000 C 
BRANCH    2    3
ATOM     89  H1  UNL A   1      45.172  14.304  51.351  1.00  0.00    +0.000 H 
ATOM     90  H2  UNL A   1      44.061  13.884  50.032  1.00  0.00    +0.000 H 
ATOM      3  C2  UNL A   1      44.733  13.515  50.778  1.00  0.00    +0.000 C 
BRANCH    3    4
ATOM     97  H9  UNL A   1      46.980  11.953  51.678  1.00  0.00    +0.000 H 
ATOM      4  C3  UNL A   1      45.827  12.782  50.065  1.00  0.00    +0.000 C 
ATOM      5  C4  UNL A   1      46.051  12.689  48.666  1.00  0.00    +0.000 C 
ATOM      6  C5  UNL A   1      47.221  11.993  48.472  1.00  0.00    +0.000 C 
ATOM      7  N1  UNL A   1      47.742  11.630  49.698  1.00  0.00    +0.000 N 
ATOM     15  C12 UNL A   1      46.871  12.095  50.662  1.00  0.00    +0.000 C 
ATOM     91  H3  UNL A   1      45.443  13.076  47.926  1.00  0.00    +0.000 H 
ATOM     92  H4  UNL A   1      47.644  11.777  47.555  1.00  0.00    +0.000 H 
BRANCH    7    8
ATOM      8  C6  UNL A   1      48.967  10.946  49.914  1.00  0.00    +0.000 C 
ATOM      9  C7  UNL A   1      50.168  11.499  49.440  1.00  0.00    +0.000 C 
ATOM     10  C8  UNL A   1      51.382  10.845  49.670  1.00  0.00    +0.000 C 
ATOM     11  C9  UNL A   1      51.405   9.628  50.349  1.00  0.00    +0.000 C 
ATOM     12  C10 UNL A   1      50.215   9.069  50.811  1.00  0.00    +0.000 C 
ATOM     13  C11 UNL A   1      49.007   9.732  50.605  1.00  0.00    +0.000 C 
ATOM     14  F1  UNL A   1      47.890   9.127  51.034  1.00  0.00    +0.000 F 
ATOM     93  H5  UNL A   1      50.155  12.390  48.920  1.00  0.00    +0.000 H 
ATOM     94  H6  UNL A   1      52.264  11.264  49.336  1.00  0.00    +0.000 H 
ATOM     95  H7  UNL A   1      52.302   9.141  50.509  1.00  0.00    +0.000 H 
ATOM     96  H8  UNL A   1      50.229   8.164  51.307  1.00  0.00    +0.000 H 
ENDBRANCH    7    8
ENDBRANCH    3    4
ENDBRANCH    2    3
ENDBRANCH   16    2
ENDBRANCH   17   16
ENDBRANCH   18   17
ENDBRANCH   19   18
ENDBRANCH   20   19
ENDBRANCH   21   20
ENDBRANCH   22   21
ENDBRANCH   23   22
ENDBRANCH   24   23
ENDBRANCH   26   24
ENDBRANCH   30   29
BRANCH   34   35
ATOM     35  C28 UNL A   1      46.264  21.956  48.928  1.00  0.00    +0.000 C 
ATOM     36  C29 UNL A   1      47.534  21.752  49.487  1.00  0.00    +0.000 C 
ATOM     37  F2  UNL A   1      47.960  20.523  49.804  1.00  0.00    +0.000 F 
ATOM     38  C30 UNL A   1      48.442  22.806  49.641  1.00  0.00    +0.000 C 
ATOM     39  F3  UNL A   1      49.660  22.563  50.144  1.00  0.00    +0.000 F 
ATOM     40  C31 UNL A   1      48.120  24.085  49.214  1.00  0.00    +0.000 C 
ATOM     41  F4  UNL A   1      49.031  25.066  49.272  1.00  0.00    +0.000 F 
ATOM     42  C32 UNL A   1      46.865  24.330  48.696  1.00  0.00    +0.000 C 
ATOM     43  F5  UNL A   1      46.552  25.554  48.248  1.00  0.00    +0.000 F 
ATOM     44  C33 UNL A   1      45.942  23.291  48.584  1.00  0.00    +0.000 C 
ATOM     45  F6  UNL A   1      44.740  23.594  48.068  1.00  0.00    +0.000 F 
ENDBRANCH   34   35
BRANCH   51   52
ATOM     52  C39 UNL A   1      47.635  16.629  47.289  1.00  0.00    +0.000 C 
ATOM     53  C40 UNL A   1      47.008  16.576  48.545  1.00  0.00    +0.000 C 
ATOM     54  F7  UNL A   1      45.842  17.186  48.742  1.00  0.00    +0.000 F 
ATOM     55  C41 UNL A   1      47.560  15.901  49.631  1.00  0.00    +0.000 C 
ATOM     56  F8  UNL A   1      46.926  15.901  50.813  1.00  0.00    +0.000 F 
ATOM     57  C42 UNL A   1      48.761  15.235  49.486  1.00  0.00    +0.000 C 
ATOM     58  F9  UNL A   1      49.296  14.582  50.526  1.00  0.00    +0.000 F 
ATOM     59  C43 UNL A   1      49.408  15.261  48.261  1.00  0.00    +0.000 C 
ATOM     60  F10 UNL A   1      50.576  14.619  48.117  1.00  0.00    +0.000 F 
ATOM     61  C44 UNL A   1      48.857  15.952  47.178  1.00  0.00    +0.000 C 
ATOM     62  F11 UNL A   1      49.520  15.956  46.011  1.00  0.00    +0.000 F 
ENDBRANCH   51   52
BRANCH   66   67
ATOM     67  C48 UNL A   1      43.731  12.679  44.679  1.00  0.00    +0.000 C 
ATOM     68  C49 UNL A   1      42.435  12.473  44.124  1.00  0.00    +0.000 C 
ATOM     69  F12 UNL A   1      41.475  13.402  44.213  1.00  0.00    +0.000 F 
ATOM     70  C50 UNL A   1      42.056  11.309  43.448  1.00  0.00    +0.000 C 
ATOM     71  F13 UNL A   1      40.788  11.161  43.038  1.00  0.00    +0.000 F 
ATOM     72  C51 UNL A   1      42.976  10.316  43.222  1.00  0.00    +0.000 C 
ATOM     73  F14 UNL A   1      42.617   9.187  42.599  1.00  0.00    +0.000 F 
ATOM     74  C52 UNL A   1      44.280  10.518  43.630  1.00  0.00    +0.000 C 
ATOM     75  F15 UNL A   1      45.205   9.586  43.359  1.00  0.00    +0.000 F 
ATOM     76  C53 UNL A   1      44.651  11.679  44.332  1.00  0.00    +0.000 C 
ATOM     77  F16 UNL A   1      45.950  11.796  44.616  1.00  0.00    +0.000 F 
ENDBRANCH   66   67
TORSDOF 17
ENDMDL
MODEL 9
REMARK VINA RESULT:     -10.6     24.312     27.586
ROOT
ATOM     30  C24 UNL A   1      45.167  25.707  31.029  1.00  0.00    +0.000 C 
ATOM     31  C25 UNL A   1      44.722  24.619  30.046  1.00  0.00    +0.000 C 
ATOM     32  N4  UNL A   1      44.878  24.538  28.758  1.00  0.00    +0.000 N 
ATOM     33  C26 UNL A   1      44.186  23.388  28.325  1.00  0.00    +0.000 C 
ATOM     34  C27 UNL A   1      43.865  23.138  27.023  1.00  0.00    +0.000 C 
ATOM     46  C34 UNL A   1      44.376  24.147  26.160  1.00  0.00    +0.000 C 
ATOM     47  C35 UNL A   1      45.613  24.407  25.634  1.00  0.00    +0.000 C 
ATOM     48  C36 UNL A   1      45.613  25.797  25.379  1.00  0.00    +0.000 C 
ATOM     49  C37 UNL A   1      44.366  26.322  25.726  1.00  0.00    +0.000 C 
ATOM     50  N5  UNL A   1      43.562  25.222  25.905  1.00  0.00    +0.000 N 
ATOM     51  C38 UNL A   1      43.833  27.610  26.117  1.00  0.00    +0.000 C 
ATOM     63  C45 UNL A   1      44.705  28.642  26.228  1.00  0.00    +0.000 C 
ATOM     64  N6  UNL A   1      44.616  29.500  27.304  1.00  0.00    +0.000 N 
ATOM     65  C46 UNL A   1      45.855  29.613  27.684  1.00  0.00    +0.000 C 
ATOM     66  C47 UNL A   1      46.292  30.121  29.000  1.00  0.00    +0.000 C 
ATOM     78  C54 UNL A   1      46.001  29.133  29.903  1.00  0.00    +0.000 C 
ATOM     79  C55 UNL A   1      46.187  29.152  31.340  1.00  0.00    +0.000 C 
ATOM     80  C56 UNL A   1      45.874  27.952  31.862  1.00  0.00    +0.000 C 
ATOM     81  C57 UNL A   1      45.463  27.017  30.803  1.00  0.00    +0.000 C 
ATOM     82  N7  UNL A   1      45.497  27.825  29.681  1.00  0.00    +0.000 N 
ATOM     83  C58 UNL A   1      46.868  29.120  26.742  1.00  0.00    +0.000 C 
ATOM     84  C59 UNL A   1      46.070  28.697  25.767  1.00  0.00    +0.000 C 
ATOM     85  C60 UNL A   1      43.790  22.680  29.506  1.00  0.00    +0.000 C 
ATOM     86  C61 UNL A   1      44.047  23.412  30.590  1.00  0.00    +0.000 C 
ATOM    114  H26 UNL A   1      46.377  23.736  25.462  1.00  0.00    +0.000 H 
ATOM    115  H27 UNL A   1      46.406  26.338  24.996  1.00  0.00    +0.000 H 
ATOM    116  H28 UNL A   1      42.579  25.208  25.859  1.00  0.00    +0.000 H 
ATOM    117  H29 UNL A   1      46.511  29.967  31.884  1.00  0.00    +0.000 H 
ATOM    118  H30 UNL A   1      45.915  27.719  32.866  1.00  0.00    +0.000 H 
ATOM    119  H31 UNL A   1      45.195  27.517  28.796  1.00  0.00    +0.000 H 
ATOM    120  H32 UNL A   1      47.897  29.107  26.815  1.00  0.00    +0.000 H 
ATOM    121  H33 UNL A   1      46.383  28.443  24.816  1.00  0.00    +0.000 H 
ATOM    122  H34 UNL A   1      43.367  21.739  29.515  1.00  0.00    +0.000 H 
ATOM    123  H35 UNL A   1      43.828  23.192  31.574  1.00  0.00    +0.000 H 
ENDROOT
BRANCH   30   29
ATOM    124  H36 UNL A   1      47.398  24.903  32.350  1.00  0.00    +0.000 H 
ATOM     29  C23 UNL A   1      45.304  25.213  32.422  1.00  0.00    +0.000 C 
ATOM    112  H24 UNL A   1      43.451  24.847  35.186  1.00  0.00    +0.000 H 
ATOM    113  H25 UNL A   1      43.233  25.351  32.824  1.00  0.00    +0.000 H 
ATOM     87  C62 UNL A   1      46.564  24.902  32.957  1.00  0.00    +0.000 C 
ATOM     88  C63 UNL A   1      46.683  24.594  34.311  1.00  0.00    +0.000 C 
ATOM     26  C20 UNL A   1      45.553  24.627  35.135  1.00  0.00    +0.000 C 
ATOM     27  C21 UNL A   1      44.289  24.877  34.585  1.00  0.00    +0.000 C 
ATOM     28  C22 UNL A   1      44.163  25.169  33.231  1.00  0.00    +0.000 C 
ATOM    125  H37 UNL A   1      47.603  24.342  34.706  1.00  0.00    +0.000 H 
BRANCH   26   24
ATOM     25  O2  UNL A   1      45.645  25.246  37.388  1.00  0.00    +0.000 O 
ATOM     24  C19 UNL A   1      45.618  24.328  36.583  1.00  0.00    +0.000 C 
BRANCH   24   23
ATOM    111  H23 UNL A   1      45.628  22.916  38.017  1.00  0.00    +0.000 H 
ATOM     23  N3  UNL A   1      45.678  23.032  37.041  1.00  0.00    +0.000 N 
BRANCH   23   22
ATOM    110  H22 UNL A   1      46.696  21.879  35.670  1.00  0.00    +0.000 H 
ATOM    109  H21 UNL A   1      44.945  21.708  35.632  1.00  0.00    +0.000 H 
ATOM     22  C18 UNL A   1      45.806  21.812  36.260  1.00  0.00    +0.000 C 
BRANCH   22   21
ATOM    107  H19 UNL A   1      45.492  20.834  38.118  1.00  0.00    +0.000 H 
ATOM    108  H20 UNL A   1      45.392  19.792  36.673  1.00  0.00    +0.000 H 
ATOM     21  C17 UNL A   1      45.915  20.586  37.166  1.00  0.00    +0.000 C 
BRANCH   21   20
ATOM    105  H17 UNL A   1      47.399  19.067  37.090  1.00  0.00    +0.000 H 
ATOM    106  H18 UNL A   1      47.980  20.738  36.816  1.00  0.00    +0.000 H 
ATOM     20  C16 UNL A   1      47.350  20.092  37.392  1.00  0.00    +0.000 C 
BRANCH   20   19
ATOM     19  C15 UNL A   1      47.851  20.186  38.836  1.00  0.00    +0.000 C 
ATOM    103  H15 UNL A   1      48.905  20.367  38.809  1.00  0.00    +0.000 H 
ATOM    104  H16 UNL A   1      47.291  20.975  39.292  1.00  0.00    +0.000 H 
BRANCH   19   18
ATOM     18  C14 UNL A   1      47.606  18.939  39.698  1.00  0.00    +0.000 C 
ATOM    101  H13 UNL A   1      47.760  18.077  39.084  1.00  0.00    +0.000 H 
ATOM    102  H14 UNL A   1      48.289  19.004  40.519  1.00  0.00    +0.000 H 
BRANCH   18   17
ATOM     17  C13 UNL A   1      46.209  18.842  40.310  1.00  0.00    +0.000 C 
ATOM     99  H11 UNL A   1      46.163  19.470  41.175  1.00  0.00    +0.000 H 
ATOM    100  H12 UNL A   1      45.496  19.155  39.576  1.00  0.00    +0.000 H 
BRANCH   17   16
ATOM     98  H10 UNL A   1      46.473  17.032  41.354  1.00  0.00    +0.000 H 
ATOM     16  N2  UNL A   1      45.897  17.484  40.697  1.00  0.00    +0.000 N 
BRANCH   16    2
ATOM      1  O1  UNL A   1      44.880  16.106  39.163  1.00  0.00    +0.000 O 
ATOM      2  C1  UNL A   1      44.817  16.798  40.175  1.00  0.00    +0.000 C 
BRANCH    2    3
ATOM     89  H1  UNL A   1      42.809  17.464  40.275  1.00  0.00    +0.000 H 
ATOM     90  H2  UNL A   1      43.755  17.673  41.762  1.00  0.00    +0.000 H 
ATOM      3  C2  UNL A   1      43.526  17.029  40.940  1.00  0.00    +0.000 C 
BRANCH    3    4
ATOM     97  H9  UNL A   1      44.399  15.193  42.981  1.00  0.00    +0.000 H 
ATOM      4  C3  UNL A   1      42.943  15.773  41.510  1.00  0.00    +0.000 C 
ATOM      5  C4  UNL A   1      41.737  15.122  41.140  1.00  0.00    +0.000 C 
ATOM      6  C5  UNL A   1      41.649  13.956  41.864  1.00  0.00    +0.000 C 
ATOM      7  N1  UNL A   1      42.750  13.850  42.690  1.00  0.00    +0.000 N 
ATOM     15  C12 UNL A   1      43.521  14.976  42.484  1.00  0.00    +0.000 C 
ATOM     91  H3  UNL A   1      41.049  15.463  40.450  1.00  0.00    +0.000 H 
ATOM     92  H4  UNL A   1      40.881  13.269  41.801  1.00  0.00    +0.000 H 
BRANCH    7    8
ATOM      8  C6  UNL A   1      43.045  12.761  43.552  1.00  0.00    +0.000 C 
ATOM      9  C7  UNL A   1      43.610  13.001  44.814  1.00  0.00    +0.000 C 
ATOM     10  C8  UNL A   1      43.879  11.936  45.679  1.00  0.00    +0.000 C 
ATOM     11  C9  UNL A   1      43.612  10.627  45.283  1.00  0.00    +0.000 C 
ATOM     12  C10 UNL A   1      43.062  10.382  44.027  1.00  0.00    +0.000 C 
ATOM     13  C11 UNL A   1      42.769  11.444  43.173  1.00  0.00    +0.000 C 
ATOM     14  F1  UNL A   1      42.280  11.145  41.961  1.00  0.00    +0.000 F 
ATOM     93  H5  UNL A   1      43.827  13.968  45.105  1.00  0.00    +0.000 H 
ATOM     94  H6  UNL A   1      44.279  12.120  46.613  1.00  0.00    +0.000 H 
ATOM     95  H7  UNL A   1      43.822   9.841  45.919  1.00  0.00    +0.000 H 
ATOM     96  H8  UNL A   1      42.871   9.412  43.728  1.00  0.00    +0.000 H 
ENDBRANCH    7    8
ENDBRANCH    3    4
ENDBRANCH    2    3
ENDBRANCH   16    2
ENDBRANCH   17   16
ENDBRANCH   18   17
ENDBRANCH   19   18
ENDBRANCH   20   19
ENDBRANCH   21   20
ENDBRANCH   22   21
ENDBRANCH   23   22
ENDBRANCH   24   23
ENDBRANCH   26   24
ENDBRANCH   30   29
BRANCH   34   35
ATOM     35  C28 UNL A   1      42.921  22.132  26.422  1.00  0.00    +0.000 C 
ATOM     36  C29 UNL A   1      43.329  20.871  25.962  1.00  0.00    +0.000 C 
ATOM     37  F2  UNL A   1      44.626  20.584  25.793  1.00  0.00    +0.000 F 
ATOM     38  C30 UNL A   1      42.409  19.836  25.759  1.00  0.00    +0.000 C 
ATOM     39  F3  UNL A   1      42.843  18.634  25.355  1.00  0.00    +0.000 F 
ATOM     40  C31 UNL A   1      41.064  20.019  26.038  1.00  0.00    +0.000 C 
ATOM     41  F4  UNL A   1      40.207  18.995  25.939  1.00  0.00    +0.000 F 
ATOM     42  C32 UNL A   1      40.622  21.258  26.455  1.00  0.00    +0.000 C 
ATOM     43  F5  UNL A   1      39.330  21.440  26.762  1.00  0.00    +0.000 F 
ATOM     44  C33 UNL A   1      41.529  22.305  26.614  1.00  0.00    +0.000 C 
ATOM     45  F6  UNL A   1      41.036  23.484  27.026  1.00  0.00    +0.000 F 
ENDBRANCH   34   35
BRANCH   51   52
ATOM     52  C39 UNL A   1      42.540  27.841  26.868  1.00  0.00    +0.000 C 
ATOM     53  C40 UNL A   1      42.364  27.497  28.218  1.00  0.00    +0.000 C 
ATOM     54  F7  UNL A   1      43.310  26.827  28.872  1.00  0.00    +0.000 F 
ATOM     55  C41 UNL A   1      41.215  27.826  28.932  1.00  0.00    +0.000 C 
ATOM     56  F8  UNL A   1      41.093  27.453  30.216  1.00  0.00    +0.000 F 
ATOM     57  C42 UNL A   1      40.203  28.535  28.315  1.00  0.00    +0.000 C 
ATOM     58  F9  UNL A   1      39.096  28.857  28.997  1.00  0.00    +0.000 F 
ATOM     59  C43 UNL A   1      40.341  28.896  26.984  1.00  0.00    +0.000 C 
ATOM     60  F10 UNL A   1      39.360  29.580  26.381  1.00  0.00    +0.000 F 
ATOM     61  C44 UNL A   1      41.491  28.550  26.268  1.00  0.00    +0.000 C 
ATOM     62  F11 UNL A   1      41.581  28.916  24.980  1.00  0.00    +0.000 F 
ENDBRANCH   51   52
BRANCH   66   67
ATOM     67  C48 UNL A   1      46.995  31.468  29.028  1.00  0.00    +0.000 C 
ATOM     68  C49 UNL A   1      48.357  31.558  29.435  1.00  0.00    +0.000 C 
ATOM     69  F12 UNL A   1      49.118  30.468  29.593  1.00  0.00    +0.000 F 
ATOM     70  C50 UNL A   1      49.010  32.766  29.697  1.00  0.00    +0.000 C 
ATOM     71  F13 UNL A   1      50.267  32.756  30.164  1.00  0.00    +0.000 F 
ATOM     72  C51 UNL A   1      48.359  33.957  29.493  1.00  0.00    +0.000 C 
ATOM     73  F14 UNL A   1      48.966  35.118  29.765  1.00  0.00    +0.000 F 
ATOM     74  C52 UNL A   1      47.077  33.930  28.980  1.00  0.00    +0.000 C 
ATOM     75  F15 UNL A   1      46.451  35.085  28.713  1.00  0.00    +0.000 F 
ATOM     76  C53 UNL A   1      46.414  32.712  28.741  1.00  0.00    +0.000 C 
ATOM     77  F16 UNL A   1      45.206  32.807  28.183  1.00  0.00    +0.000 F 
ENDBRANCH   66   67
TORSDOF 17
ENDMDL
MODEL 10
REMARK VINA RESULT:     -10.6      6.715     10.558
ROOT
ATOM     30  C24 UNL A   1      20.708  37.671  48.045  1.00  0.00    +0.000 C 
ATOM     31  C25 UNL A   1      19.356  37.568  48.758  1.00  0.00    +0.000 C 
ATOM     32  N4  UNL A   1      18.614  38.494  49.288  1.00  0.00    +0.000 N 
ATOM     33  C26 UNL A   1      17.525  37.851  49.911  1.00  0.00    +0.000 C 
ATOM     34  C27 UNL A   1      16.705  38.452  50.822  1.00  0.00    +0.000 C 
ATOM     46  C34 UNL A   1      17.050  39.820  51.006  1.00  0.00    +0.000 C 
ATOM     47  C35 UNL A   1      16.817  40.961  50.287  1.00  0.00    +0.000 C 
ATOM     48  C36 UNL A   1      17.870  41.835  50.642  1.00  0.00    +0.000 C 
ATOM     49  C37 UNL A   1      18.682  41.204  51.588  1.00  0.00    +0.000 C 
ATOM     50  N5  UNL A   1      17.960  40.107  51.992  1.00  0.00    +0.000 N 
ATOM     51  C38 UNL A   1      20.056  41.303  52.035  1.00  0.00    +0.000 C 
ATOM     63  C45 UNL A   1      20.856  42.202  51.410  1.00  0.00    +0.000 C 
ATOM     64  N6  UNL A   1      22.140  41.847  51.059  1.00  0.00    +0.000 N 
ATOM     65  C46 UNL A   1      22.238  42.293  49.840  1.00  0.00    +0.000 C 
ATOM     66  C47 UNL A   1      23.266  41.873  48.868  1.00  0.00    +0.000 C 
ATOM     78  C54 UNL A   1      22.925  40.603  48.481  1.00  0.00    +0.000 C 
ATOM     79  C55 UNL A   1      23.638  39.722  47.577  1.00  0.00    +0.000 C 
ATOM     80  C56 UNL A   1      22.928  38.597  47.375  1.00  0.00    +0.000 C 
ATOM     81  C57 UNL A   1      21.663  38.640  48.124  1.00  0.00    +0.000 C 
ATOM     82  N7  UNL A   1      21.779  39.835  48.811  1.00  0.00    +0.000 N 
ATOM     83  C58 UNL A   1      21.189  43.224  49.407  1.00  0.00    +0.000 C 
ATOM     84  C59 UNL A   1      20.460  43.263  50.518  1.00  0.00    +0.000 C 
ATOM     85  C60 UNL A   1      17.578  36.476  49.512  1.00  0.00    +0.000 C 
ATOM     86  C61 UNL A   1      18.707  36.233  48.847  1.00  0.00    +0.000 C 
ATOM    114  H26 UNL A   1      16.042  41.144  49.630  1.00  0.00    +0.000 H 
ATOM    115  H27 UNL A   1      18.015  42.785  50.264  1.00  0.00    +0.000 H 
ATOM    116  H28 UNL A   1      18.075  39.615  52.836  1.00  0.00    +0.000 H 
ATOM    117  H29 UNL A   1      24.555  39.928  47.150  1.00  0.00    +0.000 H 
ATOM    118  H30 UNL A   1      23.230  37.812  46.777  1.00  0.00    +0.000 H 
ATOM    119  H31 UNL A   1      21.117  40.130  49.477  1.00  0.00    +0.000 H 
ATOM    120  H32 UNL A   1      21.057  43.708  48.505  1.00  0.00    +0.000 H 
ATOM    121  H33 UNL A   1      19.718  43.954  50.713  1.00  0.00    +0.000 H 
ATOM    122  H34 UNL A   1      16.848  35.775  49.712  1.00  0.00    +0.000 H 
ATOM    123  H35 UNL A   1      19.050  35.331  48.480  1.00  0.00    +0.000 H 
ENDROOT
BRANCH   30   29
ATOM    124  H36 UNL A   1      20.103  37.433  45.409  1.00  0.00    +0.000 H 
ATOM     29  C23 UNL A   1      20.969  36.539  47.122  1.00  0.00    +0.000 C 
ATOM    112  H24 UNL A   1      22.574  33.600  47.092  1.00  0.00    +0.000 H 
ATOM    113  H25 UNL A   1      21.855  35.338  48.622  1.00  0.00    +0.000 H 
ATOM     87  C62 UNL A   1      20.638  36.624  45.761  1.00  0.00    +0.000 C 
ATOM     88  C63 UNL A   1      21.037  35.613  44.887  1.00  0.00    +0.000 C 
ATOM     26  C20 UNL A   1      21.790  34.537  45.365  1.00  0.00    +0.000 C 
ATOM     27  C21 UNL A   1      22.065  34.424  46.734  1.00  0.00    +0.000 C 
ATOM     28  C22 UNL A   1      21.655  35.421  47.613  1.00  0.00    +0.000 C 
ATOM    125  H37 UNL A   1      20.777  35.660  43.890  1.00  0.00    +0.000 H 
BRANCH   26   24
ATOM     25  O2  UNL A   1      23.450  33.333  44.241  1.00  0.00    +0.000 O 
ATOM     24  C19 UNL A   1      22.258  33.443  44.485  1.00  0.00    +0.000 C 
BRANCH   24   23
ATOM    111  H23 UNL A   1      21.195  32.691  42.951  1.00  0.00    +0.000 H 
ATOM     23  N3  UNL A   1      21.372  32.562  43.911  1.00  0.00    +0.000 N 
BRANCH   23   22
ATOM    110  H22 UNL A   1      21.356  30.920  45.156  1.00  0.00    +0.000 H 
ATOM    109  H21 UNL A   1      20.250  30.829  43.791  1.00  0.00    +0.000 H 
ATOM     22  C18 UNL A   1      20.663  31.463  44.548  1.00  0.00    +0.000 C 
BRANCH   22   21
ATOM    107  H19 UNL A   1      18.920  31.147  45.717  1.00  0.00    +0.000 H 
ATOM    108  H20 UNL A   1      19.997  32.453  46.279  1.00  0.00    +0.000 H 
ATOM     21  C17 UNL A   1      19.533  31.978  45.439  1.00  0.00    +0.000 C 
BRANCH   21   20
ATOM    105  H17 UNL A   1      18.461  33.812  45.489  1.00  0.00    +0.000 H 
ATOM    106  H18 UNL A   1      19.165  33.366  43.906  1.00  0.00    +0.000 H 
ATOM     20  C16 UNL A   1      18.638  33.035  44.777  1.00  0.00    +0.000 C 
BRANCH   20   19
ATOM     19  C15 UNL A   1      17.281  32.523  44.285  1.00  0.00    +0.000 C 
ATOM    103  H15 UNL A   1      16.518  33.022  44.843  1.00  0.00    +0.000 H 
ATOM    104  H16 UNL A   1      17.251  32.730  43.235  1.00  0.00    +0.000 H 
BRANCH   19   18
ATOM     18  C14 UNL A   1      17.061  31.010  44.426  1.00  0.00    +0.000 C 
ATOM    101  H13 UNL A   1      17.722  30.648  45.185  1.00  0.00    +0.000 H 
ATOM    102  H14 UNL A   1      16.026  30.880  44.665  1.00  0.00    +0.000 H 
BRANCH   18   17
ATOM     17  C13 UNL A   1      17.310  30.200  43.154  1.00  0.00    +0.000 C 
ATOM     99  H11 UNL A   1      17.589  30.867  42.365  1.00  0.00    +0.000 H 
ATOM    100  H12 UNL A   1      18.093  29.497  43.350  1.00  0.00    +0.000 H 
BRANCH   17   16
ATOM     98  H10 UNL A   1      15.373  29.960  42.364  1.00  0.00    +0.000 H 
ATOM     16  N2  UNL A   1      16.129  29.467  42.756  1.00  0.00    +0.000 N 
BRANCH   16    2
ATOM      1  O1  UNL A   1      16.942  27.390  43.313  1.00  0.00    +0.000 O 
ATOM      2  C1  UNL A   1      16.025  28.098  42.909  1.00  0.00    +0.000 C 
BRANCH    2    3
ATOM     89  H1  UNL A   1      14.400  28.014  41.553  1.00  0.00    +0.000 H 
ATOM     90  H2  UNL A   1      13.983  27.738  43.256  1.00  0.00    +0.000 H 
ATOM      3  C2  UNL A   1      14.682  27.540  42.470  1.00  0.00    +0.000 C 
BRANCH    3    4
ATOM     97  H9  UNL A   1      14.482  25.882  40.123  1.00  0.00    +0.000 H 
ATOM      4  C3  UNL A   1      14.698  26.059  42.254  1.00  0.00    +0.000 C 
ATOM      5  C4  UNL A   1      14.804  25.034  43.230  1.00  0.00    +0.000 C 
ATOM      6  C5  UNL A   1      14.685  23.825  42.585  1.00  0.00    +0.000 C 
ATOM      7  N1  UNL A   1      14.519  24.046  41.232  1.00  0.00    +0.000 N 
ATOM     15  C12 UNL A   1      14.553  25.412  41.038  1.00  0.00    +0.000 C 
ATOM     91  H3  UNL A   1      14.945  25.171  44.244  1.00  0.00    +0.000 H 
ATOM     92  H4  UNL A   1      14.714  22.898  43.040  1.00  0.00    +0.000 H 
BRANCH    7    8
ATOM      8  C6  UNL A   1      14.309  23.049  40.244  1.00  0.00    +0.000 C 
ATOM      9  C7  UNL A   1      15.056  23.074  39.056  1.00  0.00    +0.000 C 
ATOM     10  C8  UNL A   1      14.874  22.081  38.088  1.00  0.00    +0.000 C 
ATOM     11  C9  UNL A   1      13.931  21.075  38.287  1.00  0.00    +0.000 C 
ATOM     12  C10 UNL A   1      13.178  21.051  39.459  1.00  0.00    +0.000 C 
ATOM     13  C11 UNL A   1      13.376  22.025  40.435  1.00  0.00    +0.000 C 
ATOM     14  F1  UNL A   1      12.595  21.976  41.524  1.00  0.00    +0.000 F 
ATOM     93  H5  UNL A   1      15.743  23.828  38.896  1.00  0.00    +0.000 H 
ATOM     94  H6  UNL A   1      15.438  22.095  37.225  1.00  0.00    +0.000 H 
ATOM     95  H7  UNL A   1      13.790  20.349  37.566  1.00  0.00    +0.000 H 
ATOM     96  H8  UNL A   1      12.473  20.311  39.604  1.00  0.00    +0.000 H 
ENDBRANCH    7    8
ENDBRANCH    3    4
ENDBRANCH    2    3
ENDBRANCH   16    2
ENDBRANCH   17   16
ENDBRANCH   18   17
ENDBRANCH   19   18
ENDBRANCH   20   19
ENDBRANCH   21   20
ENDBRANCH   22   21
ENDBRANCH   23   22
ENDBRANCH   24   23
ENDBRANCH   26   24
ENDBRANCH   30   29
BRANCH   34   35
ATOM     35  C28 UNL A   1      15.692  37.864  51.766  1.00  0.00    +0.000 C 
ATOM     36  C29 UNL A   1      16.003  37.441  53.066  1.00  0.00    +0.000 C 
ATOM     37  F2  UNL A   1      17.275  37.297  53.460  1.00  0.00    +0.000 F 
ATOM     38  C30 UNL A   1      15.006  37.251  54.030  1.00  0.00    +0.000 C 
ATOM     39  F3  UNL A   1      15.348  36.883  55.272  1.00  0.00    +0.000 F 
ATOM     40  C31 UNL A   1      13.677  37.507  53.734  1.00  0.00    +0.000 C 
ATOM     41  F4  UNL A   1      12.742  37.421  54.689  1.00  0.00    +0.000 F 
ATOM     42  C32 UNL A   1      13.330  37.886  52.453  1.00  0.00    +0.000 C 
ATOM     43  F5  UNL A   1      12.053  38.171  52.161  1.00  0.00    +0.000 F 
ATOM     44  C33 UNL A   1      14.315  38.032  51.478  1.00  0.00    +0.000 C 
ATOM     45  F6  UNL A   1      13.913  38.407  50.253  1.00  0.00    +0.000 F 
ENDBRANCH   34   35
BRANCH   51   52
ATOM     52  C39 UNL A   1      20.828  40.223  52.761  1.00  0.00    +0.000 C 
ATOM     53  C40 UNL A   1      21.078  38.955  52.211  1.00  0.00    +0.000 C 
ATOM     54  F7  UNL A   1      20.528  38.603  51.051  1.00  0.00    +0.000 F 
ATOM     55  C41 UNL A   1      21.895  38.015  52.834  1.00  0.00    +0.000 C 
ATOM     56  F8  UNL A   1      22.082  36.811  52.272  1.00  0.00    +0.000 F 
ATOM     57  C42 UNL A   1      22.508  38.326  54.032  1.00  0.00    +0.000 C 
ATOM     58  F9  UNL A   1      23.296  37.427  54.636  1.00  0.00    +0.000 F 
ATOM     59  C43 UNL A   1      22.289  39.569  54.605  1.00  0.00    +0.000 C 
ATOM     60  F10 UNL A   1      22.879  39.873  55.769  1.00  0.00    +0.000 F 
ATOM     61  C44 UNL A   1      21.457  40.504  53.981  1.00  0.00    +0.000 C 
ATOM     62  F11 UNL A   1      21.268  41.693  54.573  1.00  0.00    +0.000 F 
ENDBRANCH   51   52
BRANCH   66   67
ATOM     67  C48 UNL A   1      24.317  42.898  48.479  1.00  0.00    +0.000 C 
ATOM     68  C49 UNL A   1      25.635  42.812  49.012  1.00  0.00    +0.000 C 
ATOM     69  F12 UNL A   1      26.054  41.733  49.685  1.00  0.00    +0.000 F 
ATOM     70  C50 UNL A   1      26.592  43.823  48.882  1.00  0.00    +0.000 C 
ATOM     71  F13 UNL A   1      27.779  43.699  49.494  1.00  0.00    +0.000 F 
ATOM     72  C51 UNL A   1      26.309  44.946  48.144  1.00  0.00    +0.000 C 
ATOM     73  F14 UNL A   1      27.208  45.932  48.036  1.00  0.00    +0.000 F 
ATOM     74  C52 UNL A   1      25.089  45.024  47.502  1.00  0.00    +0.000 C 
ATOM     75  F15 UNL A   1      24.823  46.083  46.725  1.00  0.00    +0.000 F 
ATOM     76  C53 UNL A   1      24.120  44.016  47.656  1.00  0.00    +0.000 C 
ATOM     77  F16 UNL A   1      23.007  44.166  46.935  1.00  0.00    +0.000 F 
ENDBRANCH   66   67
TORSDOF 17
ENDMDL
