MODEL 1
REMARK VINA RESULT:      -7.7      0.000      0.000
ROOT
ATOM     30  C25 UNL A   1      26.061  39.285  46.485  1.00  0.00    +0.000 C 
ATOM     31  C26 UNL A   1      25.199  40.337  47.125  1.00  0.00    +0.000 C 
ATOM     32  N4  UNL A   1      23.973  40.242  47.577  1.00  0.00    +0.000 N 
ATOM     33  C27 UNL A   1      23.670  41.489  48.108  1.00  0.00    +0.000 C 
ATOM     34  C28 UNL A   1      22.503  41.916  48.648  1.00  0.00    +0.000 C 
ATOM     46  C35 UNL A   1      21.318  41.106  48.764  1.00  0.00    +0.000 C 
ATOM     47  C36 UNL A   1      20.070  41.465  49.242  1.00  0.00    +0.000 C 
ATOM     48  C37 UNL A   1      19.243  40.337  49.197  1.00  0.00    +0.000 C 
ATOM     49  C38 UNL A   1      19.964  39.287  48.654  1.00  0.00    +0.000 C 
ATOM     50  N5  UNL A   1      21.237  39.772  48.396  1.00  0.00    +0.000 N 
ATOM     51  C39 UNL A   1      19.527  37.940  48.388  1.00  0.00    +0.000 C 
ATOM     63  C46 UNL A   1      20.294  36.966  47.839  1.00  0.00    +0.000 C 
ATOM     64  N6  UNL A   1      21.615  37.031  47.417  1.00  0.00    +0.000 N 
ATOM     65  C47 UNL A   1      21.910  35.834  46.971  1.00  0.00    +0.000 C 
ATOM     66  C48 UNL A   1      23.195  35.334  46.370  1.00  0.00    +0.000 C 
ATOM     78  C55 UNL A   1      24.227  36.187  46.220  1.00  0.00    +0.000 C 
ATOM     79  C56 UNL A   1      25.529  35.847  45.652  1.00  0.00    +0.000 C 
ATOM     80  C57 UNL A   1      26.323  36.928  45.705  1.00  0.00    +0.000 C 
ATOM     81  C58 UNL A   1      25.574  38.046  46.280  1.00  0.00    +0.000 C 
ATOM     82  N7  UNL A   1      24.337  37.516  46.547  1.00  0.00    +0.000 N 
ATOM     83  C59 UNL A   1      20.812  34.864  47.086  1.00  0.00    +0.000 C 
ATOM     84  C60 UNL A   1      19.840  35.615  47.586  1.00  0.00    +0.000 C 
ATOM     85  C61 UNL A   1      24.853  42.310  47.964  1.00  0.00    +0.000 C 
ATOM     86  C62 UNL A   1      25.804  41.665  47.304  1.00  0.00    +0.000 C 
ATOM    119  H28 UNL A   1      19.796  42.403  49.574  1.00  0.00    +0.000 H 
ATOM    120  H29 UNL A   1      18.262  40.295  49.516  1.00  0.00    +0.000 H 
ATOM    121  H30 UNL A   1      21.974  39.246  48.010  1.00  0.00    +0.000 H 
ATOM    122  H31 UNL A   1      25.794  34.926  45.271  1.00  0.00    +0.000 H 
ATOM    123  H32 UNL A   1      27.305  36.965  45.390  1.00  0.00    +0.000 H 
ATOM    124  H33 UNL A   1      23.598  38.038  46.934  1.00  0.00    +0.000 H 
ATOM    125  H34 UNL A   1      20.800  33.861  46.843  1.00  0.00    +0.000 H 
ATOM    126  H35 UNL A   1      18.882  35.279  47.771  1.00  0.00    +0.000 H 
ATOM    127  H36 UNL A   1      24.943  43.271  48.326  1.00  0.00    +0.000 H 
ATOM    128  H37 UNL A   1      26.728  42.006  46.997  1.00  0.00    +0.000 H 
ENDROOT
BRANCH   30   29
ATOM    129  H38 UNL A   1      28.263  38.711  47.897  1.00  0.00    +0.000 H 
ATOM    130  H39 UNL A   1      30.568  39.282  47.410  1.00  0.00    +0.000 H 
ATOM    117  H26 UNL A   1      29.385  40.956  43.737  1.00  0.00    +0.000 H 
ATOM    118  H27 UNL A   1      27.058  40.566  44.312  1.00  0.00    +0.000 H 
ATOM     87  C63 UNL A   1      28.497  39.207  47.023  1.00  0.00    +0.000 C 
ATOM     88  C64 UNL A   1      29.826  39.500  46.726  1.00  0.00    +0.000 C 
ATOM     26  C21 UNL A   1      30.157  40.087  45.502  1.00  0.00    +0.000 C 
ATOM     27  C22 UNL A   1      29.144  40.487  44.624  1.00  0.00    +0.000 C 
ATOM     28  C23 UNL A   1      27.806  40.251  44.950  1.00  0.00    +0.000 C 
ATOM     29  C24 UNL A   1      27.473  39.586  46.140  1.00  0.00    +0.000 C 
BRANCH   26   24
ATOM     25  O2  UNL A   1      32.009  39.906  44.079  1.00  0.00    +0.000 O 
ATOM     24  C20 UNL A   1      31.566  40.348  45.131  1.00  0.00    +0.000 C 
BRANCH   24   23
ATOM    116  H25 UNL A   1      32.378  40.810  46.904  1.00  0.00    +0.000 H 
ATOM     23  N3  UNL A   1      32.378  41.086  45.959  1.00  0.00    +0.000 N 
BRANCH   23   22
ATOM    114  H23 UNL A   1      34.235  41.990  45.953  1.00  0.00    +0.000 H 
ATOM    115  H24 UNL A   1      33.189  42.380  44.584  1.00  0.00    +0.000 H 
ATOM     22  C19 UNL A   1      33.237  42.216  45.641  1.00  0.00    +0.000 C 
BRANCH   22   21
ATOM    113  H22 UNL A   1      32.447  44.156  45.564  1.00  0.00    +0.000 H 
ATOM     21  C18 UNL A   1      32.780  43.496  46.337  1.00  0.00    +0.000 C 
ATOM    112  H21 UNL A   1      33.606  43.883  46.898  1.00  0.00    +0.000 H 
BRANCH   21   20
ATOM     20  C17 UNL A   1      31.596  43.323  47.295  1.00  0.00    +0.000 C 
ATOM    110  H19 UNL A   1      31.375  42.278  47.360  1.00  0.00    +0.000 H 
ATOM    111  H20 UNL A   1      31.906  43.759  48.222  1.00  0.00    +0.000 H 
BRANCH   20   19
ATOM     19  C16 UNL A   1      30.306  44.055  46.899  1.00  0.00    +0.000 C 
ATOM    108  H17 UNL A   1      30.368  45.056  47.269  1.00  0.00    +0.000 H 
ATOM    109  H18 UNL A   1      30.247  43.993  45.833  1.00  0.00    +0.000 H 
BRANCH   19   18
ATOM     18  C15 UNL A   1      29.010  43.433  47.431  1.00  0.00    +0.000 C 
ATOM    107  H16 UNL A   1      29.258  42.933  48.344  1.00  0.00    +0.000 H 
ATOM    106  H15 UNL A   1      28.626  42.767  46.687  1.00  0.00    +0.000 H 
BRANCH   18   17
ATOM     17  C14 UNL A   1      27.923  44.455  47.769  1.00  0.00    +0.000 C 
ATOM    105  H14 UNL A   1      26.972  43.990  47.614  1.00  0.00    +0.000 H 
ATOM    104  H13 UNL A   1      28.043  45.310  47.136  1.00  0.00    +0.000 H 
BRANCH   17   16
ATOM    103  H12 UNL A   1      28.768  45.449  49.366  1.00  0.00    +0.000 H 
ATOM     16  N2  UNL A   1      27.992  44.882  49.151  1.00  0.00    +0.000 N 
BRANCH   16   14
ATOM     14  C13 UNL A   1      27.166  44.631  50.204  1.00  0.00    +0.000 C 
ATOM     15  O1  UNL A   1      26.116  45.283  50.248  1.00  0.00    +0.000 O 
BRANCH   14   12
ATOM     99  H8  UNL A   1      26.817  43.844  52.118  1.00  0.00    +0.000 H 
ATOM     12  C11 UNL A   1      27.486  43.618  51.313  1.00  0.00    +0.000 C 
BRANCH   12   11
ATOM     97  H6  UNL A   1      24.709  39.867  51.247  1.00  0.00    +0.000 H 
ATOM     98  H7  UNL A   1      25.144  42.198  51.682  1.00  0.00    +0.000 H 
ATOM    131  H40 UNL A   1      28.984  41.779  50.054  1.00  0.00    +0.000 H 
ATOM    132  H41 UNL A   1      28.498  39.483  49.493  1.00  0.00    +0.000 H 
ATOM      8  C7  UNL A   1      26.567  39.448  50.341  1.00  0.00    +0.000 C 
ATOM      9  C8  UNL A   1      25.620  40.268  50.976  1.00  0.00    +0.000 C 
ATOM     10  C9  UNL A   1      25.879  41.617  51.250  1.00  0.00    +0.000 C 
ATOM     11  C10 UNL A   1      27.117  42.188  50.950  1.00  0.00    +0.000 C 
ATOM     89  C65 UNL A   1      28.065  41.380  50.304  1.00  0.00    +0.000 C 
ATOM     90  C66 UNL A   1      27.788  40.042  49.991  1.00  0.00    +0.000 C 
BRANCH    8    7
ATOM      3  C3  UNL A   1      24.752  36.122  49.920  1.00  0.00    +0.000 C 
ATOM      4  C4  UNL A   1      25.834  35.355  49.501  1.00  0.00    +0.000 C 
ATOM      5  N1  UNL A   1      27.090  35.830  49.349  1.00  0.00    +0.000 N 
ATOM    133  H42 UNL A   1      24.221  38.070  50.531  1.00  0.00    +0.000 H 
ATOM      7  C6  UNL A   1      26.284  38.022  50.070  1.00  0.00    +0.000 C 
ATOM      6  C5  UNL A   1      27.278  37.139  49.642  1.00  0.00    +0.000 C 
ATOM     91  C67 UNL A   1      24.998  37.471  50.209  1.00  0.00    +0.000 C 
ATOM     95  H4  UNL A   1      25.666  34.359  49.293  1.00  0.00    +0.000 H 
ATOM     96  H5  UNL A   1      28.234  37.514  49.541  1.00  0.00    +0.000 H 
BRANCH    3    2
ATOM      2  C2  UNL A   1      23.438  35.494  50.097  1.00  0.00    +0.000 C 
ATOM     94  H3  UNL A   1      23.263  34.600  49.615  1.00  0.00    +0.000 H 
BRANCH    2    1
ATOM      1  C1  UNL A   1      22.452  36.009  50.843  1.00  0.00    +0.000 C 
ATOM     92  H1  UNL A   1      22.393  35.779  51.848  1.00  0.00    +0.000 H 
ATOM     93  H2  UNL A   1      21.752  36.634  50.414  1.00  0.00    +0.000 H 
ENDBRANCH    2    1
ENDBRANCH    3    2
ENDBRANCH    8    7
ENDBRANCH   12   11
BRANCH   12   13
ATOM    101  H10 UNL A   1      28.727  43.928  53.029  1.00  0.00    +0.000 H 
ATOM    100  H9  UNL A   1      29.472  42.970  51.772  1.00  0.00    +0.000 H 
ATOM     13  C12 UNL A   1      28.853  43.818  51.972  1.00  0.00    +0.000 C 
ATOM    102  H11 UNL A   1      29.314  44.699  51.574  1.00  0.00    +0.000 H 
ENDBRANCH   12   13
ENDBRANCH   14   12
ENDBRANCH   16   14
ENDBRANCH   17   16
ENDBRANCH   18   17
ENDBRANCH   19   18
ENDBRANCH   20   19
ENDBRANCH   21   20
ENDBRANCH   22   21
ENDBRANCH   23   22
ENDBRANCH   24   23
ENDBRANCH   26   24
ENDBRANCH   30   29
BRANCH   34   35
ATOM     35  C29 UNL A   1      22.450  43.328  49.153  1.00  0.00    +0.000 C 
ATOM     36  C30 UNL A   1      22.153  44.401  48.300  1.00  0.00    +0.000 C 
ATOM     37  F1  UNL A   1      21.950  44.187  46.991  1.00  0.00    +0.000 F 
ATOM     38  C31 UNL A   1      22.104  45.707  48.780  1.00  0.00    +0.000 C 
ATOM     39  F2  UNL A   1      21.868  46.721  47.938  1.00  0.00    +0.000 F 
ATOM     40  C32 UNL A   1      22.317  45.961  50.128  1.00  0.00    +0.000 C 
ATOM     41  F3  UNL A   1      22.265  47.218  50.590  1.00  0.00    +0.000 F 
ATOM     42  C33 UNL A   1      22.589  44.913  50.993  1.00  0.00    +0.000 C 
ATOM     43  F4  UNL A   1      22.782  45.156  52.297  1.00  0.00    +0.000 F 
ATOM     44  C34 UNL A   1      22.667  43.609  50.510  1.00  0.00    +0.000 C 
ATOM     45  F5  UNL A   1      22.947  42.618  51.370  1.00  0.00    +0.000 F 
ENDBRANCH   34   35
BRANCH   51   52
ATOM     52  C40 UNL A   1      18.109  37.588  48.722  1.00  0.00    +0.000 C 
ATOM     53  C41 UNL A   1      17.173  37.282  47.722  1.00  0.00    +0.000 C 
ATOM     54  F6  UNL A   1      17.522  37.350  46.429  1.00  0.00    +0.000 F 
ATOM     55  C42 UNL A   1      15.864  36.940  48.050  1.00  0.00    +0.000 C 
ATOM     56  F7  UNL A   1      14.975  36.693  47.078  1.00  0.00    +0.000 F 
ATOM     57  C43 UNL A   1      15.474  36.869  49.379  1.00  0.00    +0.000 C 
ATOM     58  F8  UNL A   1      14.214  36.535  49.692  1.00  0.00    +0.000 F 
ATOM     59  C44 UNL A   1      16.387  37.152  50.384  1.00  0.00    +0.000 C 
ATOM     60  F9  UNL A   1      16.015  37.074  51.669  1.00  0.00    +0.000 F 
ATOM     61  C45 UNL A   1      17.689  37.519  50.059  1.00  0.00    +0.000 C 
ATOM     62  F10 UNL A   1      18.549  37.799  51.052  1.00  0.00    +0.000 F 
ENDBRANCH   51   52
BRANCH   66   67
ATOM     67  C49 UNL A   1      23.324  33.928  45.913  1.00  0.00    +0.000 C 
ATOM     68  C50 UNL A   1      22.736  33.508  44.712  1.00  0.00    +0.000 C 
ATOM     69  F11 UNL A   1      22.028  34.376  43.975  1.00  0.00    +0.000 F 
ATOM     70  C51 UNL A   1      22.841  32.187  44.283  1.00  0.00    +0.000 C 
ATOM     71  F12 UNL A   1      22.236  31.803  43.151  1.00  0.00    +0.000 F 
ATOM     72  C52 UNL A   1      23.559  31.268  45.033  1.00  0.00    +0.000 C 
ATOM     73  F13 UNL A   1      23.664  29.998  44.617  1.00  0.00    +0.000 F 
ATOM     74  C53 UNL A   1      24.162  31.664  46.217  1.00  0.00    +0.000 C 
ATOM     75  F14 UNL A   1      24.867  30.780  46.938  1.00  0.00    +0.000 F 
ATOM     76  C54 UNL A   1      24.037  32.979  46.660  1.00  0.00    +0.000 C 
ATOM     77  F15 UNL A   1      24.622  33.333  47.813  1.00  0.00    +0.000 F 
ENDBRANCH   66   67
TORSDOF 20
ENDMDL
MODEL 2
REMARK VINA RESULT:      -7.4     33.096     40.274
ROOT
ATOM     30  C25 UNL A   1      49.477  49.679  21.358  1.00  0.00    +0.000 C 
ATOM     31  C26 UNL A   1      48.284  49.422  20.481  1.00  0.00    +0.000 C 
ATOM     32  N4  UNL A   1      47.859  50.095  19.440  1.00  0.00    +0.000 N 
ATOM     33  C27 UNL A   1      46.748  49.406  18.973  1.00  0.00    +0.000 C 
ATOM     34  C28 UNL A   1      45.923  49.729  17.948  1.00  0.00    +0.000 C 
ATOM     46  C35 UNL A   1      46.066  50.906  17.131  1.00  0.00    +0.000 C 
ATOM     47  C36 UNL A   1      45.247  51.352  16.109  1.00  0.00    +0.000 C 
ATOM     48  C37 UNL A   1      45.804  52.522  15.581  1.00  0.00    +0.000 C 
ATOM     49  C38 UNL A   1      46.947  52.827  16.302  1.00  0.00    +0.000 C 
ATOM     50  N5  UNL A   1      47.097  51.825  17.248  1.00  0.00    +0.000 N 
ATOM     51  C39 UNL A   1      47.837  53.948  16.142  1.00  0.00    +0.000 C 
ATOM     63  C46 UNL A   1      48.935  54.185  16.901  1.00  0.00    +0.000 C 
ATOM     64  N6  UNL A   1      49.436  53.446  17.963  1.00  0.00    +0.000 N 
ATOM     65  C47 UNL A   1      50.518  54.073  18.360  1.00  0.00    +0.000 C 
ATOM     66  C48 UNL A   1      51.450  53.735  19.490  1.00  0.00    +0.000 C 
ATOM     78  C55 UNL A   1      51.191  52.660  20.259  1.00  0.00    +0.000 C 
ATOM     79  C56 UNL A   1      52.001  52.213  21.389  1.00  0.00    +0.000 C 
ATOM     80  C57 UNL A   1      51.470  51.085  21.888  1.00  0.00    +0.000 C 
ATOM     81  C58 UNL A   1      50.263  50.749  21.132  1.00  0.00    +0.000 C 
ATOM     82  N7  UNL A   1      50.170  51.745  20.192  1.00  0.00    +0.000 N 
ATOM     83  C59 UNL A   1      50.839  55.271  17.572  1.00  0.00    +0.000 C 
ATOM     84  C60 UNL A   1      49.823  55.314  16.720  1.00  0.00    +0.000 C 
ATOM     85  C61 UNL A   1      46.589  48.239  19.814  1.00  0.00    +0.000 C 
ATOM     86  C62 UNL A   1      47.474  48.237  20.801  1.00  0.00    +0.000 C 
ATOM    119  H28 UNL A   1      44.376  50.899  15.790  1.00  0.00    +0.000 H 
ATOM    120  H29 UNL A   1      45.427  53.065  14.788  1.00  0.00    +0.000 H 
ATOM    121  H30 UNL A   1      47.829  51.773  17.904  1.00  0.00    +0.000 H 
ATOM    122  H31 UNL A   1      52.844  52.688  21.747  1.00  0.00    +0.000 H 
ATOM    123  H32 UNL A   1      51.853  50.542  22.677  1.00  0.00    +0.000 H 
ATOM    124  H33 UNL A   1      49.441  51.799  19.534  1.00  0.00    +0.000 H 
ATOM    125  H34 UNL A   1      51.645  55.911  17.658  1.00  0.00    +0.000 H 
ATOM    126  H35 UNL A   1      49.684  56.058  16.019  1.00  0.00    +0.000 H 
ATOM    127  H36 UNL A   1      45.880  47.506  19.666  1.00  0.00    +0.000 H 
ATOM    128  H37 UNL A   1      47.570  47.576  21.587  1.00  0.00    +0.000 H 
ENDROOT
BRANCH   30   29
ATOM    129  H38 UNL A   1      50.674  47.296  21.106  1.00  0.00    +0.000 H 
ATOM    130  H39 UNL A   1      51.176  45.663  22.825  1.00  0.00    +0.000 H 
ATOM    117  H26 UNL A   1      49.752  48.311  25.768  1.00  0.00    +0.000 H 
ATOM    118  H27 UNL A   1      49.065  49.864  24.033  1.00  0.00    +0.000 H 
ATOM     87  C63 UNL A   1      50.457  47.505  22.093  1.00  0.00    +0.000 C 
ATOM     88  C64 UNL A   1      50.782  46.581  23.085  1.00  0.00    +0.000 C 
ATOM     26  C21 UNL A   1      50.577  46.897  24.430  1.00  0.00    +0.000 C 
ATOM     27  C22 UNL A   1      49.940  48.093  24.776  1.00  0.00    +0.000 C 
ATOM     28  C23 UNL A   1      49.556  48.992  23.778  1.00  0.00    +0.000 C 
ATOM     29  C24 UNL A   1      49.836  48.717  22.431  1.00  0.00    +0.000 C 
BRANCH   26   24
ATOM     25  O2  UNL A   1      51.988  46.182  26.158  1.00  0.00    +0.000 O 
ATOM     24  C20 UNL A   1      50.974  45.963  25.508  1.00  0.00    +0.000 C 
BRANCH   24   23
ATOM    116  H25 UNL A   1      50.713  44.045  26.025  1.00  0.00    +0.000 H 
ATOM     23  N3  UNL A   1      50.209  44.855  25.785  1.00  0.00    +0.000 N 
BRANCH   23   22
ATOM    114  H23 UNL A   1      48.479  44.020  26.543  1.00  0.00    +0.000 H 
ATOM    115  H24 UNL A   1      48.331  45.673  25.939  1.00  0.00    +0.000 H 
ATOM     22  C19 UNL A   1      48.762  44.708  25.774  1.00  0.00    +0.000 C 
BRANCH   22   21
ATOM    113  H22 UNL A   1      47.668  43.315  24.654  1.00  0.00    +0.000 H 
ATOM     21  C18 UNL A   1      48.250  44.185  24.434  1.00  0.00    +0.000 C 
ATOM    112  H21 UNL A   1      49.097  43.981  23.811  1.00  0.00    +0.000 H 
BRANCH   21   20
ATOM     20  C17 UNL A   1      47.324  45.143  23.677  1.00  0.00    +0.000 C 
ATOM    110  H19 UNL A   1      47.568  46.141  23.976  1.00  0.00    +0.000 H 
ATOM    111  H20 UNL A   1      47.490  44.949  22.638  1.00  0.00    +0.000 H 
BRANCH   20   19
ATOM     19  C16 UNL A   1      45.820  44.936  23.906  1.00  0.00    +0.000 C 
ATOM    108  H17 UNL A   1      45.473  45.717  24.548  1.00  0.00    +0.000 H 
ATOM    109  H18 UNL A   1      45.370  44.945  22.936  1.00  0.00    +0.000 H 
BRANCH   19   18
ATOM     18  C15 UNL A   1      45.432  43.595  24.540  1.00  0.00    +0.000 C 
ATOM    107  H16 UNL A   1      45.873  43.573  25.514  1.00  0.00    +0.000 H 
ATOM    106  H15 UNL A   1      45.789  42.808  23.908  1.00  0.00    +0.000 H 
BRANCH   18   17
ATOM     17  C14 UNL A   1      43.925  43.411  24.732  1.00  0.00    +0.000 C 
ATOM    105  H14 UNL A   1      43.647  43.891  25.647  1.00  0.00    +0.000 H 
ATOM    104  H13 UNL A   1      43.705  42.364  24.762  1.00  0.00    +0.000 H 
BRANCH   17   16
ATOM    103  H12 UNL A   1      43.196  45.003  23.643  1.00  0.00    +0.000 H 
ATOM     16  N2  UNL A   1      43.165  44.019  23.660  1.00  0.00    +0.000 N 
BRANCH   16   14
ATOM     14  C13 UNL A   1      42.415  43.460  22.670  1.00  0.00    +0.000 C 
ATOM     15  O1  UNL A   1      41.497  42.712  23.030  1.00  0.00    +0.000 O 
BRANCH   14   12
ATOM     99  H8  UNL A   1      42.360  44.708  20.984  1.00  0.00    +0.000 H 
ATOM     12  C11 UNL A   1      42.667  43.700  21.174  1.00  0.00    +0.000 C 
BRANCH   12   11
ATOM     97  H6  UNL A   1      47.002  41.972  21.073  1.00  0.00    +0.000 H 
ATOM     98  H7  UNL A   1      44.639  41.794  21.515  1.00  0.00    +0.000 H 
ATOM    131  H40 UNL A   1      44.058  45.630  19.929  1.00  0.00    +0.000 H 
ATOM    132  H41 UNL A   1      46.399  45.752  19.360  1.00  0.00    +0.000 H 
ATOM      8  C7  UNL A   1      46.929  43.885  20.187  1.00  0.00    +0.000 C 
ATOM      9  C8  UNL A   1      46.380  42.754  20.812  1.00  0.00    +0.000 C 
ATOM     10  C9  UNL A   1      45.011  42.657  21.091  1.00  0.00    +0.000 C 
ATOM     11  C10 UNL A   1      44.141  43.712  20.805  1.00  0.00    +0.000 C 
ATOM     89  C65 UNL A   1      44.678  44.840  20.168  1.00  0.00    +0.000 C 
ATOM     90  C66 UNL A   1      46.041  44.918  19.850  1.00  0.00    +0.000 C 
BRANCH    8    7
ATOM      3  C3  UNL A   1      50.357  45.217  19.182  1.00  0.00    +0.000 C 
ATOM      4  C4  UNL A   1      51.104  44.077  19.460  1.00  0.00    +0.000 C 
ATOM      5  N1  UNL A   1      50.586  42.925  19.941  1.00  0.00    +0.000 N 
ATOM    133  H42 UNL A   1      48.387  45.971  19.208  1.00  0.00    +0.000 H 
ATOM      7  C6  UNL A   1      48.379  43.977  19.910  1.00  0.00    +0.000 C 
ATOM      6  C5  UNL A   1      49.246  42.907  20.144  1.00  0.00    +0.000 C 
ATOM     91  C67 UNL A   1      48.976  45.147  19.411  1.00  0.00    +0.000 C 
ATOM     95  H4  UNL A   1      52.120  44.114  19.288  1.00  0.00    +0.000 H 
ATOM     96  H5  UNL A   1      48.833  42.031  20.501  1.00  0.00    +0.000 H 
BRANCH    3    2
ATOM      2  C2  UNL A   1      51.014  46.400  18.618  1.00  0.00    +0.000 C 
ATOM     94  H3  UNL A   1      52.045  46.419  18.606  1.00  0.00    +0.000 H 
BRANCH    2    1
ATOM      1  C1  UNL A   1      50.362  47.457  18.117  1.00  0.00    +0.000 C 
ATOM     92  H1  UNL A   1      50.831  48.079  17.439  1.00  0.00    +0.000 H 
ATOM     93  H2  UNL A   1      49.392  47.651  18.410  1.00  0.00    +0.000 H 
ENDBRANCH    2    1
ENDBRANCH    3    2
ENDBRANCH    8    7
ENDBRANCH   12   11
BRANCH   12   13
ATOM    101  H10 UNL A   1      42.157  42.888  19.261  1.00  0.00    +0.000 H 
ATOM    100  H9  UNL A   1      41.644  41.907  20.612  1.00  0.00    +0.000 H 
ATOM     13  C12 UNL A   1      41.742  42.907  20.247  1.00  0.00    +0.000 C 
ATOM    102  H11 UNL A   1      40.780  43.373  20.220  1.00  0.00    +0.000 H 
ENDBRANCH   12   13
ENDBRANCH   14   12
ENDBRANCH   16   14
ENDBRANCH   17   16
ENDBRANCH   18   17
ENDBRANCH   19   18
ENDBRANCH   20   19
ENDBRANCH   21   20
ENDBRANCH   22   21
ENDBRANCH   23   22
ENDBRANCH   24   23
ENDBRANCH   26   24
ENDBRANCH   30   29
BRANCH   34   35
ATOM     35  C29 UNL A   1      44.786  48.794  17.654  1.00  0.00    +0.000 C 
ATOM     36  C30 UNL A   1      45.009  47.501  17.158  1.00  0.00    +0.000 C 
ATOM     37  F1  UNL A   1      46.257  47.085  16.895  1.00  0.00    +0.000 F 
ATOM     38  C31 UNL A   1      43.946  46.642  16.892  1.00  0.00    +0.000 C 
ATOM     39  F2  UNL A   1      44.180  45.429  16.373  1.00  0.00    +0.000 F 
ATOM     40  C32 UNL A   1      42.644  47.046  17.149  1.00  0.00    +0.000 C 
ATOM     41  F3  UNL A   1      41.622  46.216  16.897  1.00  0.00    +0.000 F 
ATOM     42  C33 UNL A   1      42.402  48.312  17.660  1.00  0.00    +0.000 C 
ATOM     43  F4  UNL A   1      41.145  48.698  17.920  1.00  0.00    +0.000 F 
ATOM     44  C34 UNL A   1      43.461  49.184  17.900  1.00  0.00    +0.000 C 
ATOM     45  F5  UNL A   1      43.193  50.407  18.382  1.00  0.00    +0.000 F 
ENDBRANCH   34   35
BRANCH   51   52
ATOM     52  C40 UNL A   1      47.517  54.946  15.069  1.00  0.00    +0.000 C 
ATOM     53  C41 UNL A   1      46.913  56.176  15.368  1.00  0.00    +0.000 C 
ATOM     54  F6  UNL A   1      46.558  56.465  16.628  1.00  0.00    +0.000 F 
ATOM     55  C42 UNL A   1      46.638  57.099  14.362  1.00  0.00    +0.000 C 
ATOM     56  F7  UNL A   1      46.021  58.250  14.662  1.00  0.00    +0.000 F 
ATOM     57  C43 UNL A   1      46.988  56.823  13.049  1.00  0.00    +0.000 C 
ATOM     58  F8  UNL A   1      46.726  57.715  12.083  1.00  0.00    +0.000 F 
ATOM     59  C44 UNL A   1      47.600  55.619  12.734  1.00  0.00    +0.000 C 
ATOM     60  F9  UNL A   1      47.948  55.356  11.467  1.00  0.00    +0.000 F 
ATOM     61  C45 UNL A   1      47.853  54.684  13.733  1.00  0.00    +0.000 C 
ATOM     62  F10 UNL A   1      48.437  53.522  13.398  1.00  0.00    +0.000 F 
ENDBRANCH   51   52
BRANCH   66   67
ATOM     67  C49 UNL A   1      52.628  54.589  19.785  1.00  0.00    +0.000 C 
ATOM     68  C50 UNL A   1      53.873  54.318  19.202  1.00  0.00    +0.000 C 
ATOM     69  F11 UNL A   1      54.014  53.262  18.386  1.00  0.00    +0.000 F 
ATOM     70  C51 UNL A   1      54.987  55.105  19.484  1.00  0.00    +0.000 C 
ATOM     71  F12 UNL A   1      56.174  54.799  18.943  1.00  0.00    +0.000 F 
ATOM     72  C52 UNL A   1      54.871  56.195  20.332  1.00  0.00    +0.000 C 
ATOM     73  F13 UNL A   1      55.941  56.956  20.600  1.00  0.00    +0.000 F 
ATOM     74  C53 UNL A   1      53.645  56.492  20.910  1.00  0.00    +0.000 C 
ATOM     75  F14 UNL A   1      53.527  57.552  21.721  1.00  0.00    +0.000 F 
ATOM     76  C54 UNL A   1      52.536  55.690  20.648  1.00  0.00    +0.000 C 
ATOM     77  F15 UNL A   1      51.365  55.995  21.227  1.00  0.00    +0.000 F 
ENDBRANCH   66   67
TORSDOF 20
ENDMDL
MODEL 3
REMARK VINA RESULT:      -7.4      1.290      2.277
ROOT
ATOM     30  C25 UNL A   1      24.828  38.704  46.487  1.00  0.00    +0.000 C 
ATOM     31  C26 UNL A   1      24.160  39.801  47.267  1.00  0.00    +0.000 C 
ATOM     32  N4  UNL A   1      22.999  39.799  47.874  1.00  0.00    +0.000 N 
ATOM     33  C27 UNL A   1      22.887  41.043  48.479  1.00  0.00    +0.000 C 
ATOM     34  C28 UNL A   1      21.845  41.551  49.181  1.00  0.00    +0.000 C 
ATOM     46  C35 UNL A   1      20.613  40.848  49.426  1.00  0.00    +0.000 C 
ATOM     47  C36 UNL A   1      19.476  41.298  50.074  1.00  0.00    +0.000 C 
ATOM     48  C37 UNL A   1      18.546  40.254  50.103  1.00  0.00    +0.000 C 
ATOM     49  C38 UNL A   1      19.087  39.167  49.437  1.00  0.00    +0.000 C 
ATOM     50  N5  UNL A   1      20.357  39.544  49.030  1.00  0.00    +0.000 N 
ATOM     51  C39 UNL A   1      18.492  37.878  49.188  1.00  0.00    +0.000 C 
ATOM     63  C46 UNL A   1      19.085  36.864  48.513  1.00  0.00    +0.000 C 
ATOM     64  N6  UNL A   1      20.341  36.826  47.924  1.00  0.00    +0.000 N 
ATOM     65  C47 UNL A   1      20.460  35.628  47.405  1.00  0.00    +0.000 C 
ATOM     66  C48 UNL A   1      21.604  35.040  46.625  1.00  0.00    +0.000 C 
ATOM     78  C55 UNL A   1      22.686  35.800  46.368  1.00  0.00    +0.000 C 
ATOM     79  C56 UNL A   1      23.866  35.368  45.623  1.00  0.00    +0.000 C 
ATOM     80  C57 UNL A   1      24.760  36.369  45.605  1.00  0.00    +0.000 C 
ATOM     81  C58 UNL A   1      24.202  37.524  46.309  1.00  0.00    +0.000 C 
ATOM     82  N7  UNL A   1      22.964  37.098  46.719  1.00  0.00    +0.000 N 
ATOM     83  C59 UNL A   1      19.298  34.758  47.633  1.00  0.00    +0.000 C 
ATOM     84  C60 UNL A   1      18.474  35.572  48.280  1.00  0.00    +0.000 C 
ATOM     85  C61 UNL A   1      24.115  41.758  48.206  1.00  0.00    +0.000 C 
ATOM     86  C62 UNL A   1      24.908  41.059  47.407  1.00  0.00    +0.000 C 
ATOM    119  H28 UNL A   1      19.338  42.242  50.469  1.00  0.00    +0.000 H 
ATOM    120  H29 UNL A   1      17.614  40.288  50.546  1.00  0.00    +0.000 H 
ATOM    121  H30 UNL A   1      20.985  38.971  48.534  1.00  0.00    +0.000 H 
ATOM    122  H31 UNL A   1      23.990  34.445  45.181  1.00  0.00    +0.000 H 
ATOM    123  H32 UNL A   1      25.693  36.330  45.165  1.00  0.00    +0.000 H 
ATOM    124  H33 UNL A   1      22.334  37.668  47.216  1.00  0.00    +0.000 H 
ATOM    125  H34 UNL A   1      19.158  33.772  47.361  1.00  0.00    +0.000 H 
ATOM    126  H35 UNL A   1      17.520  35.317  48.578  1.00  0.00    +0.000 H 
ATOM    127  H36 UNL A   1      24.343  42.691  48.584  1.00  0.00    +0.000 H 
ATOM    128  H37 UNL A   1      25.814  41.327  46.993  1.00  0.00    +0.000 H 
ENDROOT
BRANCH   30   29
ATOM    129  H38 UNL A   1      25.925  40.926  45.473  1.00  0.00    +0.000 H 
ATOM    130  H39 UNL A   1      28.135  41.229  44.524  1.00  0.00    +0.000 H 
ATOM    117  H26 UNL A   1      29.117  37.264  45.528  1.00  0.00    +0.000 H 
ATOM    118  H27 UNL A   1      26.843  36.898  46.295  1.00  0.00    +0.000 H 
ATOM     87  C63 UNL A   1      26.594  40.141  45.465  1.00  0.00    +0.000 C 
ATOM     88  C64 UNL A   1      27.877  40.328  44.956  1.00  0.00    +0.000 C 
ATOM     26  C21 UNL A   1      28.817  39.295  45.029  1.00  0.00    +0.000 C 
ATOM     27  C22 UNL A   1      28.436  38.039  45.509  1.00  0.00    +0.000 C 
ATOM     28  C23 UNL A   1      27.130  37.832  45.962  1.00  0.00    +0.000 C 
ATOM     29  C24 UNL A   1      26.207  38.889  45.969  1.00  0.00    +0.000 C 
BRANCH   26   24
ATOM     25  O2  UNL A   1      30.418  39.717  43.373  1.00  0.00    +0.000 O 
ATOM     24  C20 UNL A   1      30.207  39.487  44.556  1.00  0.00    +0.000 C 
BRANCH   24   23
ATOM    116  H25 UNL A   1      31.895  38.681  45.273  1.00  0.00    +0.000 H 
ATOM     23  N3  UNL A   1      31.258  39.413  45.439  1.00  0.00    +0.000 N 
BRANCH   23   22
ATOM    114  H23 UNL A   1      30.691  40.821  46.839  1.00  0.00    +0.000 H 
ATOM    115  H24 UNL A   1      31.869  39.626  47.388  1.00  0.00    +0.000 H 
ATOM     22  C19 UNL A   1      31.564  40.259  46.582  1.00  0.00    +0.000 C 
BRANCH   22   21
ATOM    113  H22 UNL A   1      33.060  40.984  45.306  1.00  0.00    +0.000 H 
ATOM     21  C18 UNL A   1      32.706  41.229  46.285  1.00  0.00    +0.000 C 
ATOM    112  H21 UNL A   1      33.449  41.110  47.046  1.00  0.00    +0.000 H 
BRANCH   21   20
ATOM     20  C17 UNL A   1      32.303  42.706  46.241  1.00  0.00    +0.000 C 
ATOM    110  H19 UNL A   1      33.004  43.256  46.832  1.00  0.00    +0.000 H 
ATOM    111  H20 UNL A   1      32.302  42.977  45.205  1.00  0.00    +0.000 H 
BRANCH   20   19
ATOM     19  C16 UNL A   1      30.894  43.029  46.757  1.00  0.00    +0.000 C 
ATOM    108  H17 UNL A   1      30.225  43.013  45.923  1.00  0.00    +0.000 H 
ATOM    109  H18 UNL A   1      30.675  42.290  47.498  1.00  0.00    +0.000 H 
BRANCH   19   18
ATOM     18  C15 UNL A   1      30.746  44.385  47.457  1.00  0.00    +0.000 C 
ATOM    107  H16 UNL A   1      31.216  45.111  46.827  1.00  0.00    +0.000 H 
ATOM    106  H15 UNL A   1      31.205  44.318  48.421  1.00  0.00    +0.000 H 
BRANCH   18   17
ATOM     17  C14 UNL A   1      29.295  44.833  47.644  1.00  0.00    +0.000 C 
ATOM    105  H14 UNL A   1      28.948  45.230  46.712  1.00  0.00    +0.000 H 
ATOM    104  H13 UNL A   1      29.259  45.573  48.417  1.00  0.00    +0.000 H 
BRANCH   17   16
ATOM    103  H12 UNL A   1      28.376  43.013  47.337  1.00  0.00    +0.000 H 
ATOM     16  N2  UNL A   1      28.431  43.730  48.010  1.00  0.00    +0.000 N 
BRANCH   16   14
ATOM     14  C13 UNL A   1      27.682  43.516  49.127  1.00  0.00    +0.000 C 
ATOM     15  O1  UNL A   1      26.612  44.131  49.199  1.00  0.00    +0.000 O 
BRANCH   14   12
ATOM     99  H8  UNL A   1      27.687  43.004  51.162  1.00  0.00    +0.000 H 
ATOM     12  C11 UNL A   1      28.111  42.586  50.272  1.00  0.00    +0.000 C 
BRANCH   12   11
ATOM     97  H6  UNL A   1      27.744  38.184  48.765  1.00  0.00    +0.000 H 
ATOM     98  H7  UNL A   1      28.918  40.277  48.985  1.00  0.00    +0.000 H 
ATOM    131  H40 UNL A   1      25.857  41.728  51.453  1.00  0.00    +0.000 H 
ATOM    132  H41 UNL A   1      24.752  39.587  51.345  1.00  0.00    +0.000 H 
ATOM      8  C7  UNL A   1      26.128  38.689  50.022  1.00  0.00    +0.000 C 
ATOM      9  C8  UNL A   1      27.339  38.929  49.352  1.00  0.00    +0.000 C 
ATOM     10  C9  UNL A   1      28.011  40.152  49.460  1.00  0.00    +0.000 C 
ATOM     11  C10 UNL A   1      27.473  41.207  50.201  1.00  0.00    +0.000 C 
ATOM     89  C65 UNL A   1      26.271  40.973  50.884  1.00  0.00    +0.000 C 
ATOM     90  C66 UNL A   1      25.621  39.734  50.810  1.00  0.00    +0.000 C 
BRANCH    8    7
ATOM      3  C3  UNL A   1      23.448  35.982  50.166  1.00  0.00    +0.000 C 
ATOM      4  C4  UNL A   1      24.167  34.956  49.562  1.00  0.00    +0.000 C 
ATOM      5  N1  UNL A   1      25.439  35.075  49.120  1.00  0.00    +0.000 N 
ATOM    133  H42 UNL A   1      23.603  37.994  50.781  1.00  0.00    +0.000 H 
ATOM      7  C6  UNL A   1      25.423  37.396  49.889  1.00  0.00    +0.000 C 
ATOM      6  C5  UNL A   1      26.028  36.281  49.301  1.00  0.00    +0.000 C 
ATOM     91  C67 UNL A   1      24.102  37.211  50.329  1.00  0.00    +0.000 C 
ATOM     95  H4  UNL A   1      23.699  34.045  49.445  1.00  0.00    +0.000 H 
ATOM     96  H5  UNL A   1      27.002  36.386  48.978  1.00  0.00    +0.000 H 
BRANCH    3    2
ATOM      2  C2  UNL A   1      22.087  35.731  50.652  1.00  0.00    +0.000 C 
ATOM     94  H3  UNL A   1      21.300  36.025  50.055  1.00  0.00    +0.000 H 
BRANCH    2    1
ATOM      1  C1  UNL A   1      21.802  35.146  51.822  1.00  0.00    +0.000 C 
ATOM     92  H1  UNL A   1      21.715  34.118  51.877  1.00  0.00    +0.000 H 
ATOM     93  H2  UNL A   1      21.668  35.721  52.668  1.00  0.00    +0.000 H 
ENDBRANCH    2    1
ENDBRANCH    3    2
ENDBRANCH    8    7
ENDBRANCH   12   11
BRANCH   12   13
ATOM    101  H10 UNL A   1      29.873  41.767  51.168  1.00  0.00    +0.000 H 
ATOM    100  H9  UNL A   1      30.163  42.621  49.671  1.00  0.00    +0.000 H 
ATOM     13  C12 UNL A   1      29.608  42.625  50.585  1.00  0.00    +0.000 C 
ATOM    102  H11 UNL A   1      29.833  43.514  51.136  1.00  0.00    +0.000 H 
ENDBRANCH   12   13
ENDBRANCH   14   12
ENDBRANCH   16   14
ENDBRANCH   17   16
ENDBRANCH   18   17
ENDBRANCH   19   18
ENDBRANCH   20   19
ENDBRANCH   21   20
ENDBRANCH   22   21
ENDBRANCH   23   22
ENDBRANCH   24   23
ENDBRANCH   26   24
ENDBRANCH   30   29
BRANCH   34   35
ATOM     35  C29 UNL A   1      21.993  42.939  49.733  1.00  0.00    +0.000 C 
ATOM     36  C30 UNL A   1      22.534  43.167  51.007  1.00  0.00    +0.000 C 
ATOM     37  F1  UNL A   1      22.895  42.134  51.782  1.00  0.00    +0.000 F 
ATOM     38  C31 UNL A   1      22.669  44.459  51.507  1.00  0.00    +0.000 C 
ATOM     39  F2  UNL A   1      23.143  44.651  52.745  1.00  0.00    +0.000 F 
ATOM     40  C32 UNL A   1      22.299  45.548  50.731  1.00  0.00    +0.000 C 
ATOM     41  F3  UNL A   1      22.434  46.792  51.212  1.00  0.00    +0.000 F 
ATOM     42  C33 UNL A   1      21.783  45.347  49.460  1.00  0.00    +0.000 C 
ATOM     43  F4  UNL A   1      21.436  46.398  48.705  1.00  0.00    +0.000 F 
ATOM     44  C34 UNL A   1      21.620  44.054  48.968  1.00  0.00    +0.000 C 
ATOM     45  F5  UNL A   1      21.104  43.891  47.740  1.00  0.00    +0.000 F 
ENDBRANCH   34   35
BRANCH   51   52
ATOM     52  C40 UNL A   1      17.100  37.643  49.695  1.00  0.00    +0.000 C 
ATOM     53  C41 UNL A   1      16.014  37.508  48.818  1.00  0.00    +0.000 C 
ATOM     54  F6  UNL A   1      16.193  37.638  47.495  1.00  0.00    +0.000 F 
ATOM     55  C42 UNL A   1      14.730  37.272  49.303  1.00  0.00    +0.000 C 
ATOM     56  F7  UNL A   1      13.699  37.188  48.451  1.00  0.00    +0.000 F 
ATOM     57  C43 UNL A   1      14.514  37.138  50.667  1.00  0.00    +0.000 C 
ATOM     58  F8  UNL A   1      13.278  36.907  51.131  1.00  0.00    +0.000 F 
ATOM     59  C44 UNL A   1      15.577  37.253  51.550  1.00  0.00    +0.000 C 
ATOM     60  F9  UNL A   1      15.372  37.114  52.867  1.00  0.00    +0.000 F 
ATOM     61  C45 UNL A   1      16.857  37.514  51.070  1.00  0.00    +0.000 C 
ATOM     62  F10 UNL A   1      17.865  37.632  51.949  1.00  0.00    +0.000 F 
ENDBRANCH   51   52
BRANCH   66   67
ATOM     67  C49 UNL A   1      21.538  33.649  46.111  1.00  0.00    +0.000 C 
ATOM     68  C50 UNL A   1      22.043  32.582  46.866  1.00  0.00    +0.000 C 
ATOM     69  F11 UNL A   1      22.615  32.816  48.056  1.00  0.00    +0.000 F 
ATOM     70  C51 UNL A   1      21.999  31.275  46.385  1.00  0.00    +0.000 C 
ATOM     71  F12 UNL A   1      22.525  30.279  47.110  1.00  0.00    +0.000 F 
ATOM     72  C52 UNL A   1      21.423  31.008  45.153  1.00  0.00    +0.000 C 
ATOM     73  F13 UNL A   1      21.375  29.750  44.692  1.00  0.00    +0.000 F 
ATOM     74  C53 UNL A   1      20.903  32.046  44.394  1.00  0.00    +0.000 C 
ATOM     75  F14 UNL A   1      20.334  31.789  43.208  1.00  0.00    +0.000 F 
ATOM     76  C54 UNL A   1      20.969  33.356  44.863  1.00  0.00    +0.000 C 
ATOM     77  F15 UNL A   1      20.467  34.342  44.105  1.00  0.00    +0.000 F 
ENDBRANCH   66   67
TORSDOF 20
ENDMDL
MODEL 4
REMARK VINA RESULT:      -7.4     30.637     36.375
ROOT
ATOM     30  C25 UNL A   1      46.399  11.814  47.211  1.00  0.00    +0.000 C 
ATOM     31  C26 UNL A   1      47.336  12.988  47.152  1.00  0.00    +0.000 C 
ATOM     32  N4  UNL A   1      48.336  13.291  47.941  1.00  0.00    +0.000 N 
ATOM     33  C27 UNL A   1      48.895  14.448  47.415  1.00  0.00    +0.000 C 
ATOM     34  C28 UNL A   1      49.922  15.188  47.900  1.00  0.00    +0.000 C 
ATOM     46  C35 UNL A   1      50.639  14.883  49.111  1.00  0.00    +0.000 C 
ATOM     47  C36 UNL A   1      51.653  15.603  49.718  1.00  0.00    +0.000 C 
ATOM     48  C37 UNL A   1      52.068  14.901  50.855  1.00  0.00    +0.000 C 
ATOM     49  C38 UNL A   1      51.285  13.766  50.979  1.00  0.00    +0.000 C 
ATOM     50  N5  UNL A   1      50.415  13.766  49.900  1.00  0.00    +0.000 N 
ATOM     51  C39 UNL A   1      51.325  12.755  52.004  1.00  0.00    +0.000 C 
ATOM     63  C46 UNL A   1      50.510  11.672  52.063  1.00  0.00    +0.000 C 
ATOM     64  N6  UNL A   1      49.492  11.301  51.197  1.00  0.00    +0.000 N 
ATOM     65  C47 UNL A   1      49.009  10.177  51.671  1.00  0.00    +0.000 C 
ATOM     66  C48 UNL A   1      47.875   9.337  51.151  1.00  0.00    +0.000 C 
ATOM     78  C55 UNL A   1      47.201   9.744  50.058  1.00  0.00    +0.000 C 
ATOM     79  C56 UNL A   1      46.081   9.037  49.443  1.00  0.00    +0.000 C 
ATOM     80  C57 UNL A   1      45.690   9.707  48.347  1.00  0.00    +0.000 C 
ATOM     81  C58 UNL A   1      46.513  10.909  48.202  1.00  0.00    +0.000 C 
ATOM     82  N7  UNL A   1      47.375  10.853  49.268  1.00  0.00    +0.000 N 
ATOM     83  C59 UNL A   1      49.689   9.695  52.881  1.00  0.00    +0.000 C 
ATOM     84  C60 UNL A   1      50.571  10.661  53.098  1.00  0.00    +0.000 C 
ATOM     85  C61 UNL A   1      48.154  14.768  46.214  1.00  0.00    +0.000 C 
ATOM     86  C62 UNL A   1      47.138  13.933  46.042  1.00  0.00    +0.000 C 
ATOM    119  H28 UNL A   1      52.037  16.503  49.388  1.00  0.00    +0.000 H 
ATOM    120  H29 UNL A   1      52.829  15.182  51.493  1.00  0.00    +0.000 H 
ATOM    121  H30 UNL A   1      49.738  13.073  49.720  1.00  0.00    +0.000 H 
ATOM    122  H31 UNL A   1      45.657   8.165  49.794  1.00  0.00    +0.000 H 
ATOM    123  H32 UNL A   1      44.932   9.421  47.709  1.00  0.00    +0.000 H 
ATOM    124  H33 UNL A   1      48.054  11.542  49.449  1.00  0.00    +0.000 H 
ATOM    125  H34 UNL A   1      49.525   8.830  53.420  1.00  0.00    +0.000 H 
ATOM    126  H35 UNL A   1      51.217  10.689  53.902  1.00  0.00    +0.000 H 
ATOM    127  H36 UNL A   1      48.384  15.544  45.576  1.00  0.00    +0.000 H 
ATOM    128  H37 UNL A   1      46.403  13.943  45.319  1.00  0.00    +0.000 H 
ENDROOT
BRANCH   30   29
ATOM    129  H38 UNL A   1      43.909  12.790  47.078  1.00  0.00    +0.000 H 
ATOM    130  H39 UNL A   1      42.209  12.386  45.398  1.00  0.00    +0.000 H 
ATOM    117  H26 UNL A   1      44.952  10.112  43.161  1.00  0.00    +0.000 H 
ATOM    118  H27 UNL A   1      46.591  10.348  44.937  1.00  0.00    +0.000 H 
ATOM     87  C63 UNL A   1      44.126  12.203  46.258  1.00  0.00    +0.000 C 
ATOM     88  C64 UNL A   1      43.160  12.004  45.274  1.00  0.00    +0.000 C 
ATOM     26  C21 UNL A   1      43.478  11.288  44.116  1.00  0.00    +0.000 C 
ATOM     27  C22 UNL A   1      44.729  10.674  43.998  1.00  0.00    +0.000 C 
ATOM     28  C23 UNL A   1      45.676  10.820  45.014  1.00  0.00    +0.000 C 
ATOM     29  C24 UNL A   1      45.392  11.608  46.140  1.00  0.00    +0.000 C 
BRANCH   26   24
ATOM     25  O2  UNL A   1      42.445  10.059  42.411  1.00  0.00    +0.000 O 
ATOM     24  C20 UNL A   1      42.493  11.117  43.024  1.00  0.00    +0.000 C 
BRANCH   24   23
ATOM    116  H25 UNL A   1      41.316  12.680  43.457  1.00  0.00    +0.000 H 
ATOM     23  N3  UNL A   1      41.632  12.137  42.699  1.00  0.00    +0.000 N 
BRANCH   23   22
ATOM    114  H23 UNL A   1      41.017  11.659  40.786  1.00  0.00    +0.000 H 
ATOM    115  H24 UNL A   1      40.177  13.015  41.544  1.00  0.00    +0.000 H 
ATOM     22  C19 UNL A   1      41.120  12.532  41.395  1.00  0.00    +0.000 C 
BRANCH   22   21
ATOM    113  H22 UNL A   1      41.850  13.423  39.644  1.00  0.00    +0.000 H 
ATOM     21  C18 UNL A   1      42.050  13.517  40.690  1.00  0.00    +0.000 C 
ATOM    112  H21 UNL A   1      43.058  13.270  40.953  1.00  0.00    +0.000 H 
BRANCH   21   20
ATOM     20  C17 UNL A   1      41.816  14.990  41.042  1.00  0.00    +0.000 C 
ATOM    110  H19 UNL A   1      41.040  15.361  40.406  1.00  0.00    +0.000 H 
ATOM    111  H20 UNL A   1      41.570  15.006  42.083  1.00  0.00    +0.000 H 
BRANCH   20   19
ATOM     19  C16 UNL A   1      43.033  15.913  40.887  1.00  0.00    +0.000 C 
ATOM    108  H17 UNL A   1      43.826  15.344  40.449  1.00  0.00    +0.000 H 
ATOM    109  H18 UNL A   1      42.708  16.733  40.282  1.00  0.00    +0.000 H 
BRANCH   19   18
ATOM     18  C15 UNL A   1      43.557  16.531  42.188  1.00  0.00    +0.000 C 
ATOM    107  H16 UNL A   1      42.701  16.795  42.773  1.00  0.00    +0.000 H 
ATOM    106  H15 UNL A   1      44.163  17.377  41.940  1.00  0.00    +0.000 H 
BRANCH   18   17
ATOM     17  C14 UNL A   1      44.395  15.573  43.038  1.00  0.00    +0.000 C 
ATOM    105  H14 UNL A   1      44.823  14.840  42.385  1.00  0.00    +0.000 H 
ATOM    104  H13 UNL A   1      43.763  15.116  43.771  1.00  0.00    +0.000 H 
BRANCH   17   16
ATOM    103  H12 UNL A   1      46.309  15.734  43.787  1.00  0.00    +0.000 H 
ATOM     16  N2  UNL A   1      45.478  16.256  43.714  1.00  0.00    +0.000 N 
BRANCH   16   14
ATOM     14  C13 UNL A   1      45.542  17.500  44.266  1.00  0.00    +0.000 C 
ATOM     15  O1  UNL A   1      46.359  18.283  43.768  1.00  0.00    +0.000 O 
BRANCH   14   12
ATOM     99  H8  UNL A   1      43.665  17.872  45.127  1.00  0.00    +0.000 H 
ATOM     12  C11 UNL A   1      44.681  17.945  45.457  1.00  0.00    +0.000 C 
BRANCH   12   11
ATOM     97  H6  UNL A   1      46.490  16.172  49.378  1.00  0.00    +0.000 H 
ATOM     98  H7  UNL A   1      46.355  17.852  47.654  1.00  0.00    +0.000 H 
ATOM    131  H40 UNL A   1      43.073  15.858  45.975  1.00  0.00    +0.000 H 
ATOM    132  H41 UNL A   1      43.122  14.255  47.777  1.00  0.00    +0.000 H 
ATOM      8  C7  UNL A   1      44.828  15.045  48.735  1.00  0.00    +0.000 C 
ATOM      9  C8  UNL A   1      45.748  16.103  48.664  1.00  0.00    +0.000 C 
ATOM     10  C9  UNL A   1      45.685  17.067  47.650  1.00  0.00    +0.000 C 
ATOM     11  C10 UNL A   1      44.732  16.983  46.633  1.00  0.00    +0.000 C 
ATOM     89  C65 UNL A   1      43.800  15.937  46.703  1.00  0.00    +0.000 C 
ATOM     90  C66 UNL A   1      43.837  14.997  47.742  1.00  0.00    +0.000 C 
BRANCH    8    7
ATOM      3  C3  UNL A   1      44.106  12.011  50.928  1.00  0.00    +0.000 C 
ATOM      4  C4  UNL A   1      45.174  12.143  51.809  1.00  0.00    +0.000 C 
ATOM      5  N1  UNL A   1      46.096  13.128  51.746  1.00  0.00    +0.000 N 
ATOM    133  H42 UNL A   1      43.200  12.919  49.253  1.00  0.00    +0.000 H 
ATOM      7  C6  UNL A   1      44.914  14.027  49.804  1.00  0.00    +0.000 C 
ATOM      6  C5  UNL A   1      45.936  14.039  50.756  1.00  0.00    +0.000 C 
ATOM     91  C67 UNL A   1      43.985  12.978  49.921  1.00  0.00    +0.000 C 
ATOM     95  H4  UNL A   1      45.267  11.442  52.560  1.00  0.00    +0.000 H 
ATOM     96  H5  UNL A   1      46.627  14.804  50.701  1.00  0.00    +0.000 H 
BRANCH    3    2
ATOM      2  C2  UNL A   1      43.134  10.929  51.116  1.00  0.00    +0.000 C 
ATOM     94  H3  UNL A   1      42.537  10.673  50.315  1.00  0.00    +0.000 H 
BRANCH    2    1
ATOM      1  C1  UNL A   1      42.972  10.252  52.259  1.00  0.00    +0.000 C 
ATOM     92  H1  UNL A   1      42.090   9.746  52.439  1.00  0.00    +0.000 H 
ATOM     93  H2  UNL A   1      43.728  10.235  52.961  1.00  0.00    +0.000 H 
ENDBRANCH    2    1
ENDBRANCH    3    2
ENDBRANCH    8    7
ENDBRANCH   12   11
BRANCH   12   13
ATOM    101  H10 UNL A   1      45.192  19.546  46.782  1.00  0.00    +0.000 H 
ATOM    100  H9  UNL A   1      45.452  19.907  45.093  1.00  0.00    +0.000 H 
ATOM     13  C12 UNL A   1      44.798  19.434  45.794  1.00  0.00    +0.000 C 
ATOM    102  H11 UNL A   1      43.830  19.887  45.743  1.00  0.00    +0.000 H 
ENDBRANCH   12   13
ENDBRANCH   14   12
ENDBRANCH   16   14
ENDBRANCH   17   16
ENDBRANCH   18   17
ENDBRANCH   19   18
ENDBRANCH   20   19
ENDBRANCH   21   20
ENDBRANCH   22   21
ENDBRANCH   23   22
ENDBRANCH   24   23
ENDBRANCH   26   24
ENDBRANCH   30   29
BRANCH   34   35
ATOM     35  C29 UNL A   1      50.328  16.404  47.121  1.00  0.00    +0.000 C 
ATOM     36  C30 UNL A   1      51.352  16.352  46.163  1.00  0.00    +0.000 C 
ATOM     37  F1  UNL A   1      52.023  15.211  45.954  1.00  0.00    +0.000 F 
ATOM     38  C31 UNL A   1      51.718  17.487  45.444  1.00  0.00    +0.000 C 
ATOM     39  F2  UNL A   1      52.731  17.427  44.570  1.00  0.00    +0.000 F 
ATOM     40  C32 UNL A   1      51.045  18.684  45.643  1.00  0.00    +0.000 C 
ATOM     41  F3  UNL A   1      51.396  19.775  44.946  1.00  0.00    +0.000 F 
ATOM     42  C33 UNL A   1      50.015  18.752  46.568  1.00  0.00    +0.000 C 
ATOM     43  F4  UNL A   1      49.357  19.905  46.752  1.00  0.00    +0.000 F 
ATOM     44  C34 UNL A   1      49.666  17.626  47.309  1.00  0.00    +0.000 C 
ATOM     45  F5  UNL A   1      48.674  17.727  48.207  1.00  0.00    +0.000 F 
ENDBRANCH   34   35
BRANCH   51   52
ATOM     52  C40 UNL A   1      52.328  12.918  53.106  1.00  0.00    +0.000 C 
ATOM     53  C41 UNL A   1      53.632  12.413  52.992  1.00  0.00    +0.000 C 
ATOM     54  F6  UNL A   1      53.995  11.722  51.902  1.00  0.00    +0.000 F 
ATOM     55  C42 UNL A   1      54.558  12.588  54.018  1.00  0.00    +0.000 C 
ATOM     56  F7  UNL A   1      55.785  12.061  53.907  1.00  0.00    +0.000 F 
ATOM     57  C43 UNL A   1      54.208  13.293  55.160  1.00  0.00    +0.000 C 
ATOM     58  F8  UNL A   1      55.101  13.464  56.144  1.00  0.00    +0.000 F 
ATOM     59  C44 UNL A   1      52.928  13.814  55.286  1.00  0.00    +0.000 C 
ATOM     60  F9  UNL A   1      52.591  14.504  56.385  1.00  0.00    +0.000 F 
ATOM     61  C45 UNL A   1      51.993  13.619  54.274  1.00  0.00    +0.000 C 
ATOM     62  F10 UNL A   1      50.759  14.124  54.429  1.00  0.00    +0.000 F 
ENDBRANCH   51   52
BRANCH   66   67
ATOM     67  C49 UNL A   1      47.472   8.089  51.846  1.00  0.00    +0.000 C 
ATOM     68  C50 UNL A   1      46.486   8.109  52.841  1.00  0.00    +0.000 C 
ATOM     69  F11 UNL A   1      45.912   9.270  53.190  1.00  0.00    +0.000 F 
ATOM     70  C51 UNL A   1      46.112   6.945  53.508  1.00  0.00    +0.000 C 
ATOM     71  F12 UNL A   1      45.195   7.000  54.483  1.00  0.00    +0.000 F 
ATOM     72  C52 UNL A   1      46.698   5.734  53.174  1.00  0.00    +0.000 C 
ATOM     73  F13 UNL A   1      46.335   4.613  53.812  1.00  0.00    +0.000 F 
ATOM     74  C53 UNL A   1      47.666   5.687  52.182  1.00  0.00    +0.000 C 
ATOM     75  F14 UNL A   1      48.226   4.515  51.847  1.00  0.00    +0.000 F 
ATOM     76  C54 UNL A   1      48.058   6.855  51.531  1.00  0.00    +0.000 C 
ATOM     77  F15 UNL A   1      49.003   6.782  50.582  1.00  0.00    +0.000 F 
ENDBRANCH   66   67
TORSDOF 20
ENDMDL
MODEL 5
REMARK VINA RESULT:      -7.3     38.634     43.965
ROOT
ATOM     30  C25 UNL A   1      49.523  54.588  18.407  1.00  0.00    +0.000 C 
ATOM     31  C26 UNL A   1      49.224  56.039  18.153  1.00  0.00    +0.000 C 
ATOM     32  N4  UNL A   1      48.973  56.649  17.021  1.00  0.00    +0.000 N 
ATOM     33  C27 UNL A   1      48.720  57.973  17.354  1.00  0.00    +0.000 C 
ATOM     34  C28 UNL A   1      48.463  59.018  16.530  1.00  0.00    +0.000 C 
ATOM     46  C35 UNL A   1      48.410  58.924  15.094  1.00  0.00    +0.000 C 
ATOM     47  C36 UNL A   1      48.216  59.935  14.169  1.00  0.00    +0.000 C 
ATOM     48  C37 UNL A   1      48.206  59.363  12.892  1.00  0.00    +0.000 C 
ATOM     49  C38 UNL A   1      48.434  58.003  13.019  1.00  0.00    +0.000 C 
ATOM     50  N5  UNL A   1      48.554  57.747  14.375  1.00  0.00    +0.000 N 
ATOM     51  C39 UNL A   1      48.536  57.010  11.981  1.00  0.00    +0.000 C 
ATOM     63  C46 UNL A   1      48.776  55.691  12.186  1.00  0.00    +0.000 C 
ATOM     64  N6  UNL A   1      48.976  55.018  13.383  1.00  0.00    +0.000 N 
ATOM     65  C47 UNL A   1      49.157  53.759  13.063  1.00  0.00    +0.000 C 
ATOM     66  C48 UNL A   1      49.441  52.583  13.956  1.00  0.00    +0.000 C 
ATOM     78  C55 UNL A   1      49.559  52.778  15.283  1.00  0.00    +0.000 C 
ATOM     79  C56 UNL A   1      49.836  51.737  16.270  1.00  0.00    +0.000 C 
ATOM     80  C57 UNL A   1      49.836  52.286  17.495  1.00  0.00    +0.000 C 
ATOM     81  C58 UNL A   1      49.592  53.723  17.376  1.00  0.00    +0.000 C 
ATOM     82  N7  UNL A   1      49.450  53.927  16.026  1.00  0.00    +0.000 N 
ATOM     83  C59 UNL A   1      49.064  53.489  11.621  1.00  0.00    +0.000 C 
ATOM     84  C60 UNL A   1      48.868  54.704  11.130  1.00  0.00    +0.000 C 
ATOM     85  C61 UNL A   1      48.802  58.071  18.795  1.00  0.00    +0.000 C 
ATOM     86  C62 UNL A   1      49.175  56.917  19.332  1.00  0.00    +0.000 C 
ATOM    119  H28 UNL A   1      48.099  60.938  14.385  1.00  0.00    +0.000 H 
ATOM    120  H29 UNL A   1      48.053  59.870  12.006  1.00  0.00    +0.000 H 
ATOM    121  H30 UNL A   1      48.717  56.860  14.770  1.00  0.00    +0.000 H 
ATOM    122  H31 UNL A   1      50.006  50.741  16.059  1.00  0.00    +0.000 H 
ATOM    123  H32 UNL A   1      49.984  51.775  18.379  1.00  0.00    +0.000 H 
ATOM    124  H33 UNL A   1      49.285  54.812  15.629  1.00  0.00    +0.000 H 
ATOM    125  H34 UNL A   1      49.132  52.588  11.121  1.00  0.00    +0.000 H 
ATOM    126  H35 UNL A   1      48.791  54.920  10.124  1.00  0.00    +0.000 H 
ATOM    127  H36 UNL A   1      48.599  58.926  19.335  1.00  0.00    +0.000 H 
ATOM    128  H37 UNL A   1      49.376  56.694  20.319  1.00  0.00    +0.000 H 
ENDROOT
BRANCH   30   29
ATOM    129  H38 UNL A   1      47.592  53.976  20.158  1.00  0.00    +0.000 H 
ATOM    130  H39 UNL A   1      47.808  53.260  22.464  1.00  0.00    +0.000 H 
ATOM    117  H26 UNL A   1      51.995  53.192  22.058  1.00  0.00    +0.000 H 
ATOM    118  H27 UNL A   1      51.789  54.100  19.815  1.00  0.00    +0.000 H 
ATOM     87  C63 UNL A   1      48.528  53.831  20.566  1.00  0.00    +0.000 C 
ATOM     88  C64 UNL A   1      48.650  53.382  21.880  1.00  0.00    +0.000 C 
ATOM     26  C21 UNL A   1      49.913  53.094  22.407  1.00  0.00    +0.000 C 
ATOM     27  C22 UNL A   1      51.060  53.367  21.656  1.00  0.00    +0.000 C 
ATOM     28  C23 UNL A   1      50.940  53.878  20.361  1.00  0.00    +0.000 C 
ATOM     29  C24 UNL A   1      49.674  54.089  19.796  1.00  0.00    +0.000 C 
BRANCH   26   24
ATOM     25  O2  UNL A   1      50.135  53.320  24.728  1.00  0.00    +0.000 O 
ATOM     24  C20 UNL A   1      50.068  52.553  23.776  1.00  0.00    +0.000 C 
BRANCH   24   23
ATOM    116  H25 UNL A   1      50.516  50.920  24.846  1.00  0.00    +0.000 H 
ATOM     23  N3  UNL A   1      50.132  51.196  23.983  1.00  0.00    +0.000 N 
BRANCH   23   22
ATOM    114  H23 UNL A   1      49.404  49.281  23.716  1.00  0.00    +0.000 H 
ATOM    115  H24 UNL A   1      48.910  50.465  22.502  1.00  0.00    +0.000 H 
ATOM     22  C19 UNL A   1      49.714  50.108  23.112  1.00  0.00    +0.000 C 
BRANCH   22   21
ATOM    113  H22 UNL A   1      50.930  48.593  22.327  1.00  0.00    +0.000 H 
ATOM     21  C18 UNL A   1      50.840  49.650  22.189  1.00  0.00    +0.000 C 
ATOM    112  H21 UNL A   1      51.727  50.189  22.453  1.00  0.00    +0.000 H 
BRANCH   21   20
ATOM     20  C17 UNL A   1      50.580  49.868  20.695  1.00  0.00    +0.000 C 
ATOM    110  H19 UNL A   1      51.102  50.753  20.396  1.00  0.00    +0.000 H 
ATOM    111  H20 UNL A   1      50.921  48.978  20.207  1.00  0.00    +0.000 H 
BRANCH   20   19
ATOM     19  C16 UNL A   1      49.108  50.028  20.291  1.00  0.00    +0.000 C 
ATOM    108  H17 UNL A   1      48.546  50.251  21.173  1.00  0.00    +0.000 H 
ATOM    109  H18 UNL A   1      49.086  50.807  19.559  1.00  0.00    +0.000 H 
BRANCH   19   18
ATOM     18  C15 UNL A   1      48.474  48.803  19.623  1.00  0.00    +0.000 C 
ATOM    107  H16 UNL A   1      49.218  48.034  19.616  1.00  0.00    +0.000 H 
ATOM    106  H15 UNL A   1      48.160  49.080  18.639  1.00  0.00    +0.000 H 
BRANCH   18   17
ATOM     17  C14 UNL A   1      47.265  48.241  20.374  1.00  0.00    +0.000 C 
ATOM    105  H14 UNL A   1      46.451  48.925  20.249  1.00  0.00    +0.000 H 
ATOM    104  H13 UNL A   1      47.520  48.129  21.407  1.00  0.00    +0.000 H 
BRANCH   17   16
ATOM    103  H12 UNL A   1      46.808  46.236  20.522  1.00  0.00    +0.000 H 
ATOM     16  N2  UNL A   1      46.853  46.955  19.851  1.00  0.00    +0.000 N 
BRANCH   16   14
ATOM     14  C13 UNL A   1      46.517  46.572  18.588  1.00  0.00    +0.000 C 
ATOM     15  O1  UNL A   1      47.313  45.821  18.010  1.00  0.00    +0.000 O 
BRANCH   14   12
ATOM     99  H8  UNL A   1      44.512  47.187  18.638  1.00  0.00    +0.000 H 
ATOM     12  C11 UNL A   1      45.241  47.035  17.870  1.00  0.00    +0.000 C 
BRANCH   12   11
ATOM     97  H6  UNL A   1      47.480  50.433  15.582  1.00  0.00    +0.000 H 
ATOM     98  H7  UNL A   1      47.276  48.168  16.380  1.00  0.00    +0.000 H 
ATOM    131  H40 UNL A   1      43.460  49.044  17.876  1.00  0.00    +0.000 H 
ATOM    132  H41 UNL A   1      43.607  51.269  16.955  1.00  0.00    +0.000 H 
ATOM      8  C7  UNL A   1      45.569  51.072  16.204  1.00  0.00    +0.000 C 
ATOM      9  C8  UNL A   1      46.611  50.143  16.058  1.00  0.00    +0.000 C 
ATOM     10  C9  UNL A   1      46.504  48.833  16.542  1.00  0.00    +0.000 C 
ATOM     11  C10 UNL A   1      45.370  48.413  17.240  1.00  0.00    +0.000 C 
ATOM     89  C65 UNL A   1      44.318  49.330  17.379  1.00  0.00    +0.000 C 
ATOM     90  C66 UNL A   1      44.409  50.628  16.857  1.00  0.00    +0.000 C 
BRANCH    8    7
ATOM      3  C3  UNL A   1      45.571  54.117  13.910  1.00  0.00    +0.000 C 
ATOM      4  C4  UNL A   1      45.934  55.076  14.850  1.00  0.00    +0.000 C 
ATOM      5  N1  UNL A   1      46.175  54.812  16.153  1.00  0.00    +0.000 N 
ATOM    133  H42 UNL A   1      45.204  52.051  13.686  1.00  0.00    +0.000 H 
ATOM      7  C6  UNL A   1      45.702  52.456  15.700  1.00  0.00    +0.000 C 
ATOM      6  C5  UNL A   1      46.060  53.517  16.535  1.00  0.00    +0.000 C 
ATOM     91  C67 UNL A   1      45.463  52.793  14.356  1.00  0.00    +0.000 C 
ATOM     95  H4  UNL A   1      46.024  56.052  14.531  1.00  0.00    +0.000 H 
ATOM     96  H5  UNL A   1      46.251  53.297  17.525  1.00  0.00    +0.000 H 
BRANCH    3    2
ATOM      2  C2  UNL A   1      45.377  54.505  12.509  1.00  0.00    +0.000 C 
ATOM     94  H3  UNL A   1      45.186  55.498  12.306  1.00  0.00    +0.000 H 
BRANCH    2    1
ATOM      1  C1  UNL A   1      45.432  53.654  11.477  1.00  0.00    +0.000 C 
ATOM     92  H1  UNL A   1      44.567  53.389  10.980  1.00  0.00    +0.000 H 
ATOM     93  H2  UNL A   1      46.340  53.263  11.178  1.00  0.00    +0.000 H 
ENDBRANCH    2    1
ENDBRANCH    3    2
ENDBRANCH    8    7
ENDBRANCH   12   11
BRANCH   12   13
ATOM    101  H10 UNL A   1      44.104  45.237  17.645  1.00  0.00    +0.000 H 
ATOM    100  H9  UNL A   1      43.846  46.409  16.374  1.00  0.00    +0.000 H 
ATOM     13  C12 UNL A   1      44.578  45.957  17.011  1.00  0.00    +0.000 C 
ATOM    102  H11 UNL A   1      45.320  45.471  16.413  1.00  0.00    +0.000 H 
ENDBRANCH   12   13
ENDBRANCH   14   12
ENDBRANCH   16   14
ENDBRANCH   17   16
ENDBRANCH   18   17
ENDBRANCH   19   18
ENDBRANCH   20   19
ENDBRANCH   21   20
ENDBRANCH   22   21
ENDBRANCH   23   22
ENDBRANCH   24   23
ENDBRANCH   26   24
ENDBRANCH   30   29
BRANCH   34   35
ATOM     35  C29 UNL A   1      48.221  60.356  17.163  1.00  0.00    +0.000 C 
ATOM     36  C30 UNL A   1      49.278  61.236  17.444  1.00  0.00    +0.000 C 
ATOM     37  F1  UNL A   1      50.543  60.875  17.185  1.00  0.00    +0.000 F 
ATOM     38  C31 UNL A   1      49.040  62.477  18.029  1.00  0.00    +0.000 C 
ATOM     39  F2  UNL A   1      50.068  63.280  18.333  1.00  0.00    +0.000 F 
ATOM     40  C32 UNL A   1      47.743  62.876  18.314  1.00  0.00    +0.000 C 
ATOM     41  F3  UNL A   1      47.516  64.072  18.874  1.00  0.00    +0.000 F 
ATOM     42  C33 UNL A   1      46.682  62.031  18.025  1.00  0.00    +0.000 C 
ATOM     43  F4  UNL A   1      45.427  62.420  18.288  1.00  0.00    +0.000 F 
ATOM     44  C34 UNL A   1      46.918  60.778  17.465  1.00  0.00    +0.000 C 
ATOM     45  F5  UNL A   1      45.871  59.978  17.210  1.00  0.00    +0.000 F 
ENDBRANCH   34   35
BRANCH   51   52
ATOM     52  C40 UNL A   1      48.389  57.466  10.560  1.00  0.00    +0.000 C 
ATOM     53  C41 UNL A   1      47.137  57.801  10.024  1.00  0.00    +0.000 C 
ATOM     54  F6  UNL A   1      46.027  57.669  10.766  1.00  0.00    +0.000 F 
ATOM     55  C42 UNL A   1      47.018  58.240   8.707  1.00  0.00    +0.000 C 
ATOM     56  F7  UNL A   1      45.808  58.514   8.201  1.00  0.00    +0.000 F 
ATOM     57  C43 UNL A   1      48.148  58.380   7.915  1.00  0.00    +0.000 C 
ATOM     58  F8  UNL A   1      48.032  58.807   6.650  1.00  0.00    +0.000 F 
ATOM     59  C44 UNL A   1      49.397  58.069   8.431  1.00  0.00    +0.000 C 
ATOM     60  F9  UNL A   1      50.491  58.213   7.670  1.00  0.00    +0.000 F 
ATOM     61  C45 UNL A   1      49.516  57.605   9.738  1.00  0.00    +0.000 C 
ATOM     62  F10 UNL A   1      50.737  57.301  10.207  1.00  0.00    +0.000 F 
ENDBRANCH   51   52
BRANCH   66   67
ATOM     67  C49 UNL A   1      49.624  51.224  13.388  1.00  0.00    +0.000 C 
ATOM     68  C50 UNL A   1      50.891  50.625  13.357  1.00  0.00    +0.000 C 
ATOM     69  F11 UNL A   1      51.957  51.292  13.823  1.00  0.00    +0.000 F 
ATOM     70  C51 UNL A   1      51.075  49.356  12.814  1.00  0.00    +0.000 C 
ATOM     71  F12 UNL A   1      52.303  48.823  12.761  1.00  0.00    +0.000 F 
ATOM     72  C52 UNL A   1      49.990  48.650  12.316  1.00  0.00    +0.000 C 
ATOM     73  F13 UNL A   1      50.165  47.427  11.798  1.00  0.00    +0.000 F 
ATOM     74  C53 UNL A   1      48.724  49.216  12.349  1.00  0.00    +0.000 C 
ATOM     75  F14 UNL A   1      47.672  48.531  11.880  1.00  0.00    +0.000 F 
ATOM     76  C54 UNL A   1      48.544  50.496  12.870  1.00  0.00    +0.000 C 
ATOM     77  F15 UNL A   1      47.311  51.023  12.881  1.00  0.00    +0.000 F 
ENDBRANCH   66   67
TORSDOF 20
ENDMDL
MODEL 6
REMARK VINA RESULT:      -7.3      3.234      6.587
ROOT
ATOM     30  C25 UNL A   1      25.630  38.225  50.545  1.00  0.00    +0.000 C 
ATOM     31  C26 UNL A   1      24.150  38.125  50.787  1.00  0.00    +0.000 C 
ATOM     32  N4  UNL A   1      23.260  37.375  50.185  1.00  0.00    +0.000 N 
ATOM     33  C27 UNL A   1      22.054  37.635  50.823  1.00  0.00    +0.000 C 
ATOM     34  C28 UNL A   1      20.823  37.148  50.534  1.00  0.00    +0.000 C 
ATOM     46  C35 UNL A   1      20.544  36.236  49.456  1.00  0.00    +0.000 C 
ATOM     47  C36 UNL A   1      19.323  35.732  49.045  1.00  0.00    +0.000 C 
ATOM     48  C37 UNL A   1      19.547  34.853  47.980  1.00  0.00    +0.000 C 
ATOM     49  C38 UNL A   1      20.904  34.841  47.701  1.00  0.00    +0.000 C 
ATOM     50  N5  UNL A   1      21.504  35.691  48.617  1.00  0.00    +0.000 N 
ATOM     51  C39 UNL A   1      21.603  34.108  46.676  1.00  0.00    +0.000 C 
ATOM     63  C46 UNL A   1      22.940  34.160  46.457  1.00  0.00    +0.000 C 
ATOM     64  N6  UNL A   1      23.905  34.895  47.130  1.00  0.00    +0.000 N 
ATOM     65  C47 UNL A   1      25.047  34.599  46.557  1.00  0.00    +0.000 C 
ATOM     66  C48 UNL A   1      26.425  35.122  46.859  1.00  0.00    +0.000 C 
ATOM     78  C55 UNL A   1      26.582  36.042  47.831  1.00  0.00    +0.000 C 
ATOM     79  C56 UNL A   1      27.852  36.640  48.232  1.00  0.00    +0.000 C 
ATOM     80  C57 UNL A   1      27.635  37.476  49.260  1.00  0.00    +0.000 C 
ATOM     81  C58 UNL A   1      26.205  37.496  49.568  1.00  0.00    +0.000 C 
ATOM     82  N7  UNL A   1      25.657  36.623  48.663  1.00  0.00    +0.000 N 
ATOM     83  C59 UNL A   1      24.936  33.617  45.470  1.00  0.00    +0.000 C 
ATOM     84  C60 UNL A   1      23.627  33.410  45.426  1.00  0.00    +0.000 C 
ATOM     85  C61 UNL A   1      22.333  38.575  51.887  1.00  0.00    +0.000 C 
ATOM     86  C62 UNL A   1      23.601  38.959  51.866  1.00  0.00    +0.000 C 
ATOM    119  H28 UNL A   1      18.404  35.965  49.454  1.00  0.00    +0.000 H 
ATOM    120  H29 UNL A   1      18.824  34.306  47.487  1.00  0.00    +0.000 H 
ATOM    121  H30 UNL A   1      22.469  35.878  48.664  1.00  0.00    +0.000 H 
ATOM    122  H31 UNL A   1      28.768  36.452  47.795  1.00  0.00    +0.000 H 
ATOM    123  H32 UNL A   1      28.362  38.018  49.754  1.00  0.00    +0.000 H 
ATOM    124  H33 UNL A   1      24.693  36.431  48.613  1.00  0.00    +0.000 H 
ATOM    125  H34 UNL A   1      25.681  33.196  44.893  1.00  0.00    +0.000 H 
ATOM    126  H35 UNL A   1      23.158  32.794  44.744  1.00  0.00    +0.000 H 
ATOM    127  H36 UNL A   1      21.635  38.905  52.571  1.00  0.00    +0.000 H 
ATOM    128  H37 UNL A   1      24.079  39.659  52.454  1.00  0.00    +0.000 H 
ENDROOT
BRANCH   30   29
ATOM    129  H38 UNL A   1      26.449  40.740  50.124  1.00  0.00    +0.000 H 
ATOM    130  H39 UNL A   1      27.913  42.106  51.490  1.00  0.00    +0.000 H 
ATOM    117  H26 UNL A   1      28.053  39.065  54.394  1.00  0.00    +0.000 H 
ATOM    118  H27 UNL A   1      26.753  37.620  52.939  1.00  0.00    +0.000 H 
ATOM     87  C63 UNL A   1      26.806  40.374  51.020  1.00  0.00    +0.000 C 
ATOM     88  C64 UNL A   1      27.616  41.175  51.823  1.00  0.00    +0.000 C 
ATOM     26  C21 UNL A   1      28.025  40.719  53.080  1.00  0.00    +0.000 C 
ATOM     27  C22 UNL A   1      27.718  39.416  53.483  1.00  0.00    +0.000 C 
ATOM     28  C23 UNL A   1      26.959  38.589  52.650  1.00  0.00    +0.000 C 
ATOM     29  C24 UNL A   1      26.475  39.071  51.425  1.00  0.00    +0.000 C 
BRANCH   26   24
ATOM     25  O2  UNL A   1      28.732  42.793  53.909  1.00  0.00    +0.000 O 
ATOM     24  C20 UNL A   1      28.829  41.575  53.982  1.00  0.00    +0.000 C 
BRANCH   24   23
ATOM    116  H25 UNL A   1      29.265  40.754  55.757  1.00  0.00    +0.000 H 
ATOM     23  N3  UNL A   1      29.679  41.009  54.901  1.00  0.00    +0.000 N 
BRANCH   23   22
ATOM    114  H23 UNL A   1      31.558  41.492  54.192  1.00  0.00    +0.000 H 
ATOM    115  H24 UNL A   1      31.513  40.722  55.781  1.00  0.00    +0.000 H 
ATOM     22  C19 UNL A   1      31.103  40.732  54.793  1.00  0.00    +0.000 C 
BRANCH   22   21
ATOM    113  H22 UNL A   1      30.467  38.813  54.243  1.00  0.00    +0.000 H 
ATOM     21  C18 UNL A   1      31.374  39.372  54.155  1.00  0.00    +0.000 C 
ATOM    112  H21 UNL A   1      32.200  38.922  54.668  1.00  0.00    +0.000 H 
BRANCH   21   20
ATOM     20  C17 UNL A   1      31.711  39.414  52.661  1.00  0.00    +0.000 C 
ATOM    110  H19 UNL A   1      31.718  40.439  52.354  1.00  0.00    +0.000 H 
ATOM    111  H20 UNL A   1      32.658  38.925  52.561  1.00  0.00    +0.000 H 
BRANCH   20   19
ATOM     19  C16 UNL A   1      30.748  38.653  51.739  1.00  0.00    +0.000 C 
ATOM    108  H17 UNL A   1      31.090  37.642  51.667  1.00  0.00    +0.000 H 
ATOM    109  H18 UNL A   1      29.779  38.748  52.180  1.00  0.00    +0.000 H 
BRANCH   19   18
ATOM     18  C15 UNL A   1      30.622  39.212  50.317  1.00  0.00    +0.000 C 
ATOM    107  H16 UNL A   1      29.927  40.024  50.364  1.00  0.00    +0.000 H 
ATOM    106  H15 UNL A   1      30.292  38.424  49.673  1.00  0.00    +0.000 H 
BRANCH   18   17
ATOM     17  C14 UNL A   1      31.927  39.779  49.754  1.00  0.00    +0.000 C 
ATOM    105  H14 UNL A   1      32.518  38.959  49.400  1.00  0.00    +0.000 H 
ATOM    104  H13 UNL A   1      32.435  40.315  50.529  1.00  0.00    +0.000 H 
BRANCH   17   16
ATOM    103  H12 UNL A   1      31.673  41.629  48.881  1.00  0.00    +0.000 H 
ATOM     16  N2  UNL A   1      31.692  40.675  48.641  1.00  0.00    +0.000 N 
BRANCH   16   14
ATOM     14  C13 UNL A   1      31.491  40.421  47.318  1.00  0.00    +0.000 C 
ATOM     15  O1  UNL A   1      32.172  39.514  46.822  1.00  0.00    +0.000 O 
BRANCH   14   12
ATOM     99  H8  UNL A   1      30.785  41.004  45.430  1.00  0.00    +0.000 H 
ATOM     12  C11 UNL A   1      30.500  41.202  46.443  1.00  0.00    +0.000 C 
BRANCH   12   11
ATOM     97  H6  UNL A   1      26.929  38.529  45.068  1.00  0.00    +0.000 H 
ATOM     98  H7  UNL A   1      29.248  39.186  45.026  1.00  0.00    +0.000 H 
ATOM    131  H40 UNL A   1      28.509  41.966  48.075  1.00  0.00    +0.000 H 
ATOM    132  H41 UNL A   1      26.222  41.212  48.212  1.00  0.00    +0.000 H 
ATOM      8  C7  UNL A   1      26.350  39.817  46.634  1.00  0.00    +0.000 C 
ATOM      9  C8  UNL A   1      27.259  39.255  45.724  1.00  0.00    +0.000 C 
ATOM     10  C9  UNL A   1      28.601  39.651  45.683  1.00  0.00    +0.000 C 
ATOM     11  C10 UNL A   1      29.079  40.666  46.514  1.00  0.00    +0.000 C 
ATOM     89  C65 UNL A   1      28.182  41.225  47.436  1.00  0.00    +0.000 C 
ATOM     90  C66 UNL A   1      26.849  40.797  47.506  1.00  0.00    +0.000 C 
BRANCH    8    7
ATOM      3  C3  UNL A   1      23.059  38.092  45.783  1.00  0.00    +0.000 C 
ATOM      4  C4  UNL A   1      22.280  38.635  46.799  1.00  0.00    +0.000 C 
ATOM      5  N1  UNL A   1      22.736  39.506  47.726  1.00  0.00    +0.000 N 
ATOM    133  H42 UNL A   1      25.008  38.119  44.976  1.00  0.00    +0.000 H 
ATOM      7  C6  UNL A   1      24.933  39.397  46.658  1.00  0.00    +0.000 C 
ATOM      6  C5  UNL A   1      24.038  39.865  47.624  1.00  0.00    +0.000 C 
ATOM     91  C67 UNL A   1      24.400  38.494  45.722  1.00  0.00    +0.000 C 
ATOM     95  H4  UNL A   1      21.289  38.353  46.849  1.00  0.00    +0.000 H 
ATOM     96  H5  UNL A   1      24.400  40.538  48.318  1.00  0.00    +0.000 H 
BRANCH    3    2
ATOM      2  C2  UNL A   1      22.450  37.190  44.800  1.00  0.00    +0.000 C 
ATOM     94  H3  UNL A   1      21.451  36.961  44.909  1.00  0.00    +0.000 H 
BRANCH    2    1
ATOM      1  C1  UNL A   1      23.109  36.643  43.770  1.00  0.00    +0.000 C 
ATOM     92  H1  UNL A   1      23.984  36.121  43.936  1.00  0.00    +0.000 H 
ATOM     93  H2  UNL A   1      22.743  36.745  42.811  1.00  0.00    +0.000 H 
ENDBRANCH    2    1
ENDBRANCH    3    2
ENDBRANCH    8    7
ENDBRANCH   12   11
BRANCH   12   13
ATOM    101  H10 UNL A   1      29.816  43.192  46.055  1.00  0.00    +0.000 H 
ATOM    100  H9  UNL A   1      30.705  43.021  47.549  1.00  0.00    +0.000 H 
ATOM     13  C12 UNL A   1      30.656  42.723  46.524  1.00  0.00    +0.000 C 
ATOM    102  H11 UNL A   1      31.554  43.016  46.022  1.00  0.00    +0.000 H 
ENDBRANCH   12   13
ENDBRANCH   14   12
ENDBRANCH   16   14
ENDBRANCH   17   16
ENDBRANCH   18   17
ENDBRANCH   19   18
ENDBRANCH   20   19
ENDBRANCH   21   20
ENDBRANCH   22   21
ENDBRANCH   23   22
ENDBRANCH   24   23
ENDBRANCH   26   24
ENDBRANCH   30   29
BRANCH   34   35
ATOM     35  C29 UNL A   1      19.681  37.599  51.397  1.00  0.00    +0.000 C 
ATOM     36  C30 UNL A   1      18.746  38.542  50.943  1.00  0.00    +0.000 C 
ATOM     37  F1  UNL A   1      18.882  39.095  49.729  1.00  0.00    +0.000 F 
ATOM     38  C31 UNL A   1      17.689  38.950  51.752  1.00  0.00    +0.000 C 
ATOM     39  F2  UNL A   1      16.837  39.887  51.316  1.00  0.00    +0.000 F 
ATOM     40  C32 UNL A   1      17.526  38.399  53.015  1.00  0.00    +0.000 C 
ATOM     41  F3  UNL A   1      16.506  38.789  53.791  1.00  0.00    +0.000 F 
ATOM     42  C33 UNL A   1      18.426  37.449  53.475  1.00  0.00    +0.000 C 
ATOM     43  F4  UNL A   1      18.262  36.908  54.690  1.00  0.00    +0.000 F 
ATOM     44  C34 UNL A   1      19.500  37.060  52.679  1.00  0.00    +0.000 C 
ATOM     45  F5  UNL A   1      20.361  36.150  53.158  1.00  0.00    +0.000 F 
ENDBRANCH   34   35
BRANCH   51   52
ATOM     52  C40 UNL A   1      20.792  33.238  45.764  1.00  0.00    +0.000 C 
ATOM     53  C41 UNL A   1      20.710  31.851  45.955  1.00  0.00    +0.000 C 
ATOM     54  F6  UNL A   1      21.404  31.263  46.940  1.00  0.00    +0.000 F 
ATOM     55  C42 UNL A   1      19.938  31.058  45.109  1.00  0.00    +0.000 C 
ATOM     56  F7  UNL A   1      19.907  29.730  45.282  1.00  0.00    +0.000 F 
ATOM     57  C43 UNL A   1      19.214  31.639  44.078  1.00  0.00    +0.000 C 
ATOM     58  F8  UNL A   1      18.469  30.874  43.268  1.00  0.00    +0.000 F 
ATOM     59  C44 UNL A   1      19.270  33.011  43.881  1.00  0.00    +0.000 C 
ATOM     60  F9  UNL A   1      18.563  33.574  42.891  1.00  0.00    +0.000 F 
ATOM     61  C45 UNL A   1      20.060  33.802  44.709  1.00  0.00    +0.000 C 
ATOM     62  F10 UNL A   1      20.103  35.126  44.488  1.00  0.00    +0.000 F 
ENDBRANCH   51   52
BRANCH   66   67
ATOM     67  C49 UNL A   1      27.601  34.662  46.080  1.00  0.00    +0.000 C 
ATOM     68  C50 UNL A   1      28.424  33.636  46.564  1.00  0.00    +0.000 C 
ATOM     69  F11 UNL A   1      28.166  33.077  47.756  1.00  0.00    +0.000 F 
ATOM     70  C51 UNL A   1      29.538  33.207  45.846  1.00  0.00    +0.000 C 
ATOM     71  F12 UNL A   1      30.331  32.253  46.351  1.00  0.00    +0.000 F 
ATOM     72  C52 UNL A   1      29.834  33.777  44.617  1.00  0.00    +0.000 C 
ATOM     73  F13 UNL A   1      30.902  33.361  43.923  1.00  0.00    +0.000 F 
ATOM     74  C53 UNL A   1      29.025  34.783  44.110  1.00  0.00    +0.000 C 
ATOM     75  F14 UNL A   1      29.301  35.327  42.917  1.00  0.00    +0.000 F 
ATOM     76  C54 UNL A   1      27.925  35.230  44.840  1.00  0.00    +0.000 C 
ATOM     77  F15 UNL A   1      27.164  36.210  44.330  1.00  0.00    +0.000 F 
ENDBRANCH   66   67
TORSDOF 20
ENDMDL
MODEL 7
REMARK VINA RESULT:      -7.3     43.290     48.215
ROOT
ATOM     30  C25 UNL A   1      18.642  19.935   4.996  1.00  0.00    +0.000 C 
ATOM     31  C26 UNL A   1      18.997  18.600   5.588  1.00  0.00    +0.000 C 
ATOM     32  N4  UNL A   1      18.368  17.904   6.502  1.00  0.00    +0.000 N 
ATOM     33  C27 UNL A   1      19.094  16.730   6.650  1.00  0.00    +0.000 C 
ATOM     34  C28 UNL A   1      18.881  15.708   7.513  1.00  0.00    +0.000 C 
ATOM     46  C35 UNL A   1      17.812  15.668   8.476  1.00  0.00    +0.000 C 
ATOM     47  C36 UNL A   1      17.547  14.705   9.434  1.00  0.00    +0.000 C 
ATOM     48  C37 UNL A   1      16.383  15.075  10.116  1.00  0.00    +0.000 C 
ATOM     49  C38 UNL A   1      15.945  16.287   9.611  1.00  0.00    +0.000 C 
ATOM     50  N5  UNL A   1      16.829  16.638   8.603  1.00  0.00    +0.000 N 
ATOM     51  C39 UNL A   1      14.806  17.070  10.016  1.00  0.00    +0.000 C 
ATOM     63  C46 UNL A   1      14.449  18.262   9.477  1.00  0.00    +0.000 C 
ATOM     64  N6  UNL A   1      15.066  18.980   8.462  1.00  0.00    +0.000 N 
ATOM     65  C47 UNL A   1      14.341  20.058   8.291  1.00  0.00    +0.000 C 
ATOM     66  C48 UNL A   1      14.553  21.205   7.341  1.00  0.00    +0.000 C 
ATOM     78  C55 UNL A   1      15.631  21.200   6.533  1.00  0.00    +0.000 C 
ATOM     79  C56 UNL A   1      15.968  22.241   5.566  1.00  0.00    +0.000 C 
ATOM     80  C57 UNL A   1      17.080  21.880   4.907  1.00  0.00    +0.000 C 
ATOM     81  C58 UNL A   1      17.552  20.597   5.429  1.00  0.00    +0.000 C 
ATOM     82  N7  UNL A   1      16.636  20.274   6.398  1.00  0.00    +0.000 N 
ATOM     83  C59 UNL A   1      13.161  20.132   9.164  1.00  0.00    +0.000 C 
ATOM     84  C60 UNL A   1      13.294  19.032   9.892  1.00  0.00    +0.000 C 
ATOM     85  C61 UNL A   1      20.185  16.786   5.701  1.00  0.00    +0.000 C 
ATOM     86  C62 UNL A   1      20.208  17.949   5.066  1.00  0.00    +0.000 C 
ATOM    119  H28 UNL A   1      18.112  13.860   9.614  1.00  0.00    +0.000 H 
ATOM    120  H29 UNL A   1      15.927  14.534  10.868  1.00  0.00    +0.000 H 
ATOM    121  H30 UNL A   1      16.768  17.455   8.057  1.00  0.00    +0.000 H 
ATOM    122  H31 UNL A   1      15.438  23.113   5.415  1.00  0.00    +0.000 H 
ATOM    123  H32 UNL A   1      17.530  22.421   4.152  1.00  0.00    +0.000 H 
ATOM    124  H33 UNL A   1      16.693  19.458   6.944  1.00  0.00    +0.000 H 
ATOM    125  H34 UNL A   1      12.421  20.851   9.201  1.00  0.00    +0.000 H 
ATOM    126  H35 UNL A   1      12.658  18.759  10.657  1.00  0.00    +0.000 H 
ATOM    127  H36 UNL A   1      20.858  16.021   5.540  1.00  0.00    +0.000 H 
ATOM    128  H37 UNL A   1      20.895  18.304   4.383  1.00  0.00    +0.000 H 
ENDROOT
BRANCH   30   29
ATOM    129  H38 UNL A   1      20.885  21.391   5.157  1.00  0.00    +0.000 H 
ATOM    130  H39 UNL A   1      22.163  22.408   3.366  1.00  0.00    +0.000 H 
ATOM    117  H26 UNL A   1      19.612  20.638   0.528  1.00  0.00    +0.000 H 
ATOM    118  H27 UNL A   1      18.215  19.784   2.322  1.00  0.00    +0.000 H 
ATOM     87  C63 UNL A   1      20.600  21.248   4.175  1.00  0.00    +0.000 C 
ATOM     88  C64 UNL A   1      21.359  21.801   3.146  1.00  0.00    +0.000 C 
ATOM     26  C21 UNL A   1      21.031  21.532   1.813  1.00  0.00    +0.000 C 
ATOM     27  C22 UNL A   1      19.876  20.804   1.512  1.00  0.00    +0.000 C 
ATOM     28  C23 UNL A   1      19.080  20.302   2.545  1.00  0.00    +0.000 C 
ATOM     29  C24 UNL A   1      19.450  20.497   3.884  1.00  0.00    +0.000 C 
BRANCH   26   24
ATOM     25  O2  UNL A   1      22.569  21.284   0.064  1.00  0.00    +0.000 O 
ATOM     24  C20 UNL A   1      21.858  22.051   0.700  1.00  0.00    +0.000 C 
BRANCH   24   23
ATOM    116  H25 UNL A   1      22.673  23.754   0.029  1.00  0.00    +0.000 H 
ATOM     23  N3  UNL A   1      21.828  23.386   0.376  1.00  0.00    +0.000 N 
BRANCH   23   22
ATOM    114  H23 UNL A   1      20.522  24.722  -0.504  1.00  0.00    +0.000 H 
ATOM    115  H24 UNL A   1      19.882  23.818   0.872  1.00  0.00    +0.000 H 
ATOM     22  C19 UNL A   1      20.729  24.334   0.471  1.00  0.00    +0.000 C 
BRANCH   22   21
ATOM    113  H22 UNL A   1      21.008  25.109   2.399  1.00  0.00    +0.000 H 
ATOM     21  C18 UNL A   1      21.057  25.498   1.404  1.00  0.00    +0.000 C 
ATOM    112  H21 UNL A   1      20.349  26.281   1.220  1.00  0.00    +0.000 H 
BRANCH   21   20
ATOM     20  C17 UNL A   1      22.463  26.082   1.238  1.00  0.00    +0.000 C 
ATOM    110  H19 UNL A   1      22.914  26.135   2.208  1.00  0.00    +0.000 H 
ATOM    111  H20 UNL A   1      22.972  25.430   0.559  1.00  0.00    +0.000 H 
BRANCH   20   19
ATOM     19  C16 UNL A   1      22.535  27.480   0.608  1.00  0.00    +0.000 C 
ATOM    108  H17 UNL A   1      23.562  27.777   0.579  1.00  0.00    +0.000 H 
ATOM    109  H18 UNL A   1      22.086  27.391  -0.359  1.00  0.00    +0.000 H 
BRANCH   19   18
ATOM     18  C15 UNL A   1      21.747  28.571   1.342  1.00  0.00    +0.000 C 
ATOM    107  H16 UNL A   1      21.981  28.477   2.381  1.00  0.00    +0.000 H 
ATOM    106  H15 UNL A   1      20.706  28.429   1.138  1.00  0.00    +0.000 H 
BRANCH   18   17
ATOM     17  C14 UNL A   1      22.127  29.995   0.930  1.00  0.00    +0.000 C 
ATOM    105  H14 UNL A   1      22.746  29.935   0.060  1.00  0.00    +0.000 H 
ATOM    104  H13 UNL A   1      22.645  30.463   1.742  1.00  0.00    +0.000 H 
BRANCH   17   16
ATOM    103  H12 UNL A   1      20.445  31.104   1.373  1.00  0.00    +0.000 H 
ATOM     16  N2  UNL A   1      20.963  30.790   0.597  1.00  0.00    +0.000 N 
BRANCH   16   14
ATOM     14  C13 UNL A   1      20.463  31.178  -0.609  1.00  0.00    +0.000 C 
ATOM     15  O1  UNL A   1      20.796  32.300  -1.009  1.00  0.00    +0.000 O 
BRANCH   14   12
ATOM     99  H8  UNL A   1      19.318  30.878  -2.342  1.00  0.00    +0.000 H 
ATOM     12  C11 UNL A   1      19.519  30.311  -1.456  1.00  0.00    +0.000 C 
BRANCH   12   11
ATOM     97  H6  UNL A   1      19.876  25.710  -2.152  1.00  0.00    +0.000 H 
ATOM     98  H7  UNL A   1      18.678  27.678  -1.445  1.00  0.00    +0.000 H 
ATOM    131  H40 UNL A   1      21.856  30.076  -2.757  1.00  0.00    +0.000 H 
ATOM    132  H41 UNL A   1      22.993  28.118  -3.590  1.00  0.00    +0.000 H 
ATOM      8  C7  UNL A   1      21.555  26.724  -2.926  1.00  0.00    +0.000 C 
ATOM      9  C8  UNL A   1      20.302  26.638  -2.299  1.00  0.00    +0.000 C 
ATOM     10  C9  UNL A   1      19.615  27.779  -1.867  1.00  0.00    +0.000 C 
ATOM     11  C10 UNL A   1      20.177  29.051  -1.995  1.00  0.00    +0.000 C 
ATOM     89  C65 UNL A   1      21.422  29.148  -2.632  1.00  0.00    +0.000 C 
ATOM     90  C66 UNL A   1      22.090  28.009  -3.103  1.00  0.00    +0.000 C 
BRANCH    8    7
ATOM      3  C3  UNL A   1      22.490  23.080  -3.544  1.00  0.00    +0.000 C 
ATOM      4  C4  UNL A   1      23.663  23.293  -4.261  1.00  0.00    +0.000 C 
ATOM      5  N1  UNL A   1      24.166  24.513  -4.553  1.00  0.00    +0.000 N 
ATOM    133  H42 UNL A   1      20.932  24.096  -2.549  1.00  0.00    +0.000 H 
ATOM      7  C6  UNL A   1      22.275  25.509  -3.366  1.00  0.00    +0.000 C 
ATOM      6  C5  UNL A   1      23.466  25.578  -4.094  1.00  0.00    +0.000 C 
ATOM     91  C67 UNL A   1      21.802  24.214  -3.093  1.00  0.00    +0.000 C 
ATOM     95  H4  UNL A   1      24.182  22.465  -4.591  1.00  0.00    +0.000 H 
ATOM     96  H5  UNL A   1      23.842  26.516  -4.300  1.00  0.00    +0.000 H 
BRANCH    3    2
ATOM      2  C2  UNL A   1      22.058  21.711  -3.242  1.00  0.00    +0.000 C 
ATOM     94  H3  UNL A   1      21.650  21.529  -2.312  1.00  0.00    +0.000 H 
BRANCH    2    1
ATOM      1  C1  UNL A   1      22.160  20.684  -4.094  1.00  0.00    +0.000 C 
ATOM     92  H1  UNL A   1      23.022  20.117  -4.117  1.00  0.00    +0.000 H 
ATOM     93  H2  UNL A   1      21.377  20.459  -4.728  1.00  0.00    +0.000 H 
ENDBRANCH    2    1
ENDBRANCH    3    2
ENDBRANCH    8    7
ENDBRANCH   12   11
BRANCH   12   13
ATOM    101  H10 UNL A   1      17.740  31.100  -0.567  1.00  0.00    +0.000 H 
ATOM    100  H9  UNL A   1      17.470  29.713  -1.595  1.00  0.00    +0.000 H 
ATOM     13  C12 UNL A   1      18.119  30.144  -0.862  1.00  0.00    +0.000 C 
ATOM    102  H11 UNL A   1      18.169  29.501  -0.008  1.00  0.00    +0.000 H 
ENDBRANCH   12   13
ENDBRANCH   14   12
ENDBRANCH   16   14
ENDBRANCH   17   16
ENDBRANCH   18   17
ENDBRANCH   19   18
ENDBRANCH   20   19
ENDBRANCH   21   20
ENDBRANCH   22   21
ENDBRANCH   23   22
ENDBRANCH   24   23
ENDBRANCH   26   24
ENDBRANCH   30   29
BRANCH   34   35
ATOM     35  C29 UNL A   1      19.829  14.546   7.456  1.00  0.00    +0.000 C 
ATOM     36  C30 UNL A   1      19.625  13.475   6.573  1.00  0.00    +0.000 C 
ATOM     37  F1  UNL A   1      18.543  13.450   5.781  1.00  0.00    +0.000 F 
ATOM     38  C31 UNL A   1      20.514  12.404   6.528  1.00  0.00    +0.000 C 
ATOM     39  F2  UNL A   1      20.273  11.370   5.711  1.00  0.00    +0.000 F 
ATOM     40  C32 UNL A   1      21.640  12.399   7.339  1.00  0.00    +0.000 C 
ATOM     41  F3  UNL A   1      22.497  11.369   7.291  1.00  0.00    +0.000 F 
ATOM     42  C33 UNL A   1      21.873  13.457   8.203  1.00  0.00    +0.000 C 
ATOM     43  F4  UNL A   1      22.966  13.459   8.978  1.00  0.00    +0.000 F 
ATOM     44  C34 UNL A   1      20.971  14.517   8.271  1.00  0.00    +0.000 C 
ATOM     45  F5  UNL A   1      21.216  15.519   9.128  1.00  0.00    +0.000 F 
ENDBRANCH   34   35
BRANCH   51   52
ATOM     52  C40 UNL A   1      13.958  16.542  11.134  1.00  0.00    +0.000 C 
ATOM     53  C41 UNL A   1      14.189  16.912  12.467  1.00  0.00    +0.000 C 
ATOM     54  F6  UNL A   1      15.218  17.715  12.777  1.00  0.00    +0.000 F 
ATOM     55  C42 UNL A   1      13.382  16.427  13.494  1.00  0.00    +0.000 C 
ATOM     56  F7  UNL A   1      13.646  16.758  14.765  1.00  0.00    +0.000 F 
ATOM     57  C43 UNL A   1      12.315  15.589  13.203  1.00  0.00    +0.000 C 
ATOM     58  F8  UNL A   1      11.537  15.127  14.192  1.00  0.00    +0.000 F 
ATOM     59  C44 UNL A   1      12.060  15.224  11.890  1.00  0.00    +0.000 C 
ATOM     60  F9  UNL A   1      11.023  14.423  11.607  1.00  0.00    +0.000 F 
ATOM     61  C45 UNL A   1      12.880  15.687  10.866  1.00  0.00    +0.000 C 
ATOM     62  F10 UNL A   1      12.616  15.307   9.605  1.00  0.00    +0.000 F 
ENDBRANCH   51   52
BRANCH   66   67
ATOM     67  C49 UNL A   1      13.609  22.350   7.308  1.00  0.00    +0.000 C 
ATOM     68  C50 UNL A   1      13.765  23.432   8.185  1.00  0.00    +0.000 C 
ATOM     69  F11 UNL A   1      14.763  23.428   9.082  1.00  0.00    +0.000 F 
ATOM     70  C51 UNL A   1      12.877  24.505   8.171  1.00  0.00    +0.000 C 
ATOM     71  F12 UNL A   1      13.026  25.507   9.047  1.00  0.00    +0.000 F 
ATOM     72  C52 UNL A   1      11.831  24.528   7.261  1.00  0.00    +0.000 C 
ATOM     73  F13 UNL A   1      10.978  25.562   7.244  1.00  0.00    +0.000 F 
ATOM     74  C53 UNL A   1      11.664  23.475   6.374  1.00  0.00    +0.000 C 
ATOM     75  F14 UNL A   1      10.661  23.501   5.485  1.00  0.00    +0.000 F 
ATOM     76  C54 UNL A   1      12.538  22.391   6.404  1.00  0.00    +0.000 C 
ATOM     77  F15 UNL A   1      12.349  21.382   5.541  1.00  0.00    +0.000 F 
ENDBRANCH   66   67
TORSDOF 20
ENDMDL
MODEL 8
REMARK VINA RESULT:      -7.3     44.864     47.956
ROOT
ATOM     30  C25 UNL A   1      14.094  50.071   4.159  1.00  0.00    +0.000 C 
ATOM     31  C26 UNL A   1      14.761  49.662   2.876  1.00  0.00    +0.000 C 
ATOM     32  N4  UNL A   1      15.444  50.389   2.026  1.00  0.00    +0.000 N 
ATOM     33  C27 UNL A   1      15.877  49.512   1.041  1.00  0.00    +0.000 C 
ATOM     34  C28 UNL A   1      16.575  49.787  -0.087  1.00  0.00    +0.000 C 
ATOM     46  C35 UNL A   1      17.002  51.106  -0.476  1.00  0.00    +0.000 C 
ATOM     47  C36 UNL A   1      17.662  51.495  -1.629  1.00  0.00    +0.000 C 
ATOM     48  C37 UNL A   1      17.901  52.871  -1.552  1.00  0.00    +0.000 C 
ATOM     49  C38 UNL A   1      17.355  53.346  -0.372  1.00  0.00    +0.000 C 
ATOM     50  N5  UNL A   1      16.810  52.251   0.281  1.00  0.00    +0.000 N 
ATOM     51  C39 UNL A   1      17.330  54.698   0.127  1.00  0.00    +0.000 C 
ATOM     63  C46 UNL A   1      16.760  55.086   1.294  1.00  0.00    +0.000 C 
ATOM     64  N6  UNL A   1      16.094  54.318   2.237  1.00  0.00    +0.000 N 
ATOM     65  C47 UNL A   1      15.739  55.145   3.191  1.00  0.00    +0.000 C 
ATOM     66  C48 UNL A   1      14.968  54.866   4.452  1.00  0.00    +0.000 C 
ATOM     78  C55 UNL A   1      14.531  53.615   4.694  1.00  0.00    +0.000 C 
ATOM     79  C56 UNL A   1      13.771  53.197   5.869  1.00  0.00    +0.000 C 
ATOM     80  C57 UNL A   1      13.551  51.874   5.798  1.00  0.00    +0.000 C 
ATOM     81  C58 UNL A   1      14.126  51.359   4.555  1.00  0.00    +0.000 C 
ATOM     82  N7  UNL A   1      14.679  52.464   3.959  1.00  0.00    +0.000 N 
ATOM     83  C59 UNL A   1      16.167  56.533   2.970  1.00  0.00    +0.000 C 
ATOM     84  C60 UNL A   1      16.752  56.449   1.783  1.00  0.00    +0.000 C 
ATOM     85  C61 UNL A   1      15.421  48.192   1.420  1.00  0.00    +0.000 C 
ATOM     86  C62 UNL A   1      14.672  48.239   2.512  1.00  0.00    +0.000 C 
ATOM    119  H28 UNL A   1      17.931  50.876  -2.410  1.00  0.00    +0.000 H 
ATOM    120  H29 UNL A   1      18.401  53.437  -2.257  1.00  0.00    +0.000 H 
ATOM    121  H30 UNL A   1      16.354  52.283   1.153  1.00  0.00    +0.000 H 
ATOM    122  H31 UNL A   1      13.453  53.817   6.629  1.00  0.00    +0.000 H 
ATOM    123  H32 UNL A   1      13.055  51.311   6.506  1.00  0.00    +0.000 H 
ATOM    124  H33 UNL A   1      15.136  52.436   3.089  1.00  0.00    +0.000 H 
ATOM    125  H34 UNL A   1      16.045  57.358   3.579  1.00  0.00    +0.000 H 
ATOM    126  H35 UNL A   1      17.151  57.253   1.273  1.00  0.00    +0.000 H 
ATOM    127  H36 UNL A   1      15.649  47.327   0.906  1.00  0.00    +0.000 H 
ATOM    128  H37 UNL A   1      14.161  47.478   2.984  1.00  0.00    +0.000 H 
ENDROOT
BRANCH   30   29
ATOM    129  H38 UNL A   1      11.505  49.402   4.295  1.00  0.00    +0.000 H 
ATOM    130  H39 UNL A   1      10.425  47.817   5.778  1.00  0.00    +0.000 H 
ATOM    117  H26 UNL A   1      14.171  46.727   7.353  1.00  0.00    +0.000 H 
ATOM    118  H27 UNL A   1      15.232  48.453   6.014  1.00  0.00    +0.000 H 
ATOM     87  C63 UNL A   1      12.070  48.851   4.959  1.00  0.00    +0.000 C 
ATOM     88  C64 UNL A   1      11.453  47.912   5.783  1.00  0.00    +0.000 C 
ATOM     26  C21 UNL A   1      12.224  47.097   6.616  1.00  0.00    +0.000 C 
ATOM     27  C22 UNL A   1      13.605  47.302   6.709  1.00  0.00    +0.000 C 
ATOM     28  C23 UNL A   1      14.216  48.287   5.929  1.00  0.00    +0.000 C 
ATOM     29  C24 UNL A   1      13.458  49.050   5.029  1.00  0.00    +0.000 C 
BRANCH   26   24
ATOM     25  O2  UNL A   1      11.557  44.892   7.044  1.00  0.00    +0.000 O 
ATOM     24  C20 UNL A   1      11.602  46.046   7.453  1.00  0.00    +0.000 C 
BRANCH   24   23
ATOM    116  H25 UNL A   1      10.107  46.227   8.775  1.00  0.00    +0.000 H 
ATOM     23  N3  UNL A   1      11.078  46.357   8.685  1.00  0.00    +0.000 N 
BRANCH   23   22
ATOM    114  H23 UNL A   1      11.105  46.722  10.717  1.00  0.00    +0.000 H 
ATOM    115  H24 UNL A   1      12.659  46.295   9.996  1.00  0.00    +0.000 H 
ATOM     22  C19 UNL A   1      11.753  46.850   9.876  1.00  0.00    +0.000 C 
BRANCH   22   21
ATOM    113  H22 UNL A   1      12.764  48.410   8.908  1.00  0.00    +0.000 H 
ATOM     21  C18 UNL A   1      12.117  48.328   9.756  1.00  0.00    +0.000 C 
ATOM    112  H21 UNL A   1      12.579  48.632  10.673  1.00  0.00    +0.000 H 
BRANCH   21   20
ATOM     20  C17 UNL A   1      10.935  49.265   9.487  1.00  0.00    +0.000 C 
ATOM    110  H19 UNL A   1      10.121  48.672   9.125  1.00  0.00    +0.000 H 
ATOM    111  H20 UNL A   1      10.735  49.757  10.416  1.00  0.00    +0.000 H 
BRANCH   20   19
ATOM     19  C16 UNL A   1      11.191  50.385   8.468  1.00  0.00    +0.000 C 
ATOM    108  H17 UNL A   1      11.934  51.038   8.876  1.00  0.00    +0.000 H 
ATOM    109  H18 UNL A   1      11.494  49.900   7.565  1.00  0.00    +0.000 H 
BRANCH   19   18
ATOM     18  C15 UNL A   1       9.966  51.231   8.103  1.00  0.00    +0.000 C 
ATOM    107  H16 UNL A   1       9.470  51.470   9.020  1.00  0.00    +0.000 H 
ATOM    106  H15 UNL A   1       9.351  50.664   7.436  1.00  0.00    +0.000 H 
BRANCH   18   17
ATOM     17  C14 UNL A   1      10.309  52.560   7.426  1.00  0.00    +0.000 C 
ATOM    105  H14 UNL A   1       9.969  52.513   6.412  1.00  0.00    +0.000 H 
ATOM    104  H13 UNL A   1      11.367  52.710   7.473  1.00  0.00    +0.000 H 
BRANCH   17   16
ATOM    103  H12 UNL A   1       8.734  53.491   8.378  1.00  0.00    +0.000 H 
ATOM     16  N2  UNL A   1       9.648  53.679   8.067  1.00  0.00    +0.000 N 
BRANCH   16   14
ATOM     14  C13 UNL A   1      10.078  54.948   8.311  1.00  0.00    +0.000 C 
ATOM     15  O1  UNL A   1       9.782  55.802   7.467  1.00  0.00    +0.000 O 
BRANCH   14   12
ATOM     99  H8  UNL A   1      10.269  55.180  10.388  1.00  0.00    +0.000 H 
ATOM     12  C11 UNL A   1      10.906  55.342   9.543  1.00  0.00    +0.000 C 
BRANCH   12   11
ATOM     97  H6  UNL A   1      15.217  53.687   8.863  1.00  0.00    +0.000 H 
ATOM     98  H7  UNL A   1      13.479  55.324   8.533  1.00  0.00    +0.000 H 
ATOM    131  H40 UNL A   1      11.019  53.245  11.216  1.00  0.00    +0.000 H 
ATOM    132  H41 UNL A   1      12.807  51.686  11.651  1.00  0.00    +0.000 H 
ATOM      8  C7  UNL A   1      14.174  52.521  10.278  1.00  0.00    +0.000 C 
ATOM      9  C8  UNL A   1      14.329  53.590   9.381  1.00  0.00    +0.000 C 
ATOM     10  C9  UNL A   1      13.313  54.530   9.171  1.00  0.00    +0.000 C 
ATOM     11  C10 UNL A   1      12.076  54.409   9.809  1.00  0.00    +0.000 C 
ATOM     89  C65 UNL A   1      11.916  53.351  10.716  1.00  0.00    +0.000 C 
ATOM     90  C66 UNL A   1      12.950  52.436  10.958  1.00  0.00    +0.000 C 
BRANCH    8    7
ATOM      3  C3  UNL A   1      16.417  49.464   9.885  1.00  0.00    +0.000 C 
ATOM      4  C4  UNL A   1      17.324  49.749  10.900  1.00  0.00    +0.000 C 
ATOM      5  N1  UNL A   1      17.262  50.842  11.691  1.00  0.00    +0.000 N 
ATOM    133  H42 UNL A   1      14.671  50.192   8.950  1.00  0.00    +0.000 H 
ATOM      7  C6  UNL A   1      15.252  51.530  10.480  1.00  0.00    +0.000 C 
ATOM      6  C5  UNL A   1      16.231  51.691  11.464  1.00  0.00    +0.000 C 
ATOM     91  C67 UNL A   1      15.370  50.374   9.689  1.00  0.00    +0.000 C 
ATOM     95  H4  UNL A   1      18.094  49.082  11.059  1.00  0.00    +0.000 H 
ATOM     96  H5  UNL A   1      16.163  52.527  12.067  1.00  0.00    +0.000 H 
BRANCH    3    2
ATOM      2  C2  UNL A   1      16.550  48.223   9.115  1.00  0.00    +0.000 C 
ATOM     94  H3  UNL A   1      17.344  48.144   8.461  1.00  0.00    +0.000 H 
BRANCH    2    1
ATOM      1  C1  UNL A   1      15.708  47.186   9.206  1.00  0.00    +0.000 C 
ATOM     92  H1  UNL A   1      15.734  46.572  10.035  1.00  0.00    +0.000 H 
ATOM     93  H2  UNL A   1      15.034  47.000   8.447  1.00  0.00    +0.000 H 
ENDBRANCH    2    1
ENDBRANCH    3    2
ENDBRANCH    8    7
ENDBRANCH   12   11
BRANCH   12   13
ATOM    101  H10 UNL A   1      11.993  57.001  10.348  1.00  0.00    +0.000 H 
ATOM    100  H9  UNL A   1      11.482  57.218   8.691  1.00  0.00    +0.000 H 
ATOM     13  C12 UNL A   1      11.197  56.841   9.650  1.00  0.00    +0.000 C 
ATOM    102  H11 UNL A   1      10.319  57.351   9.988  1.00  0.00    +0.000 H 
ENDBRANCH   12   13
ENDBRANCH   14   12
ENDBRANCH   16   14
ENDBRANCH   17   16
ENDBRANCH   18   17
ENDBRANCH   19   18
ENDBRANCH   20   19
ENDBRANCH   21   20
ENDBRANCH   22   21
ENDBRANCH   23   22
ENDBRANCH   24   23
ENDBRANCH   26   24
ENDBRANCH   30   29
BRANCH   34   35
ATOM     35  C29 UNL A   1      16.918  48.635  -0.986  1.00  0.00    +0.000 C 
ATOM     36  C30 UNL A   1      16.153  48.342  -2.126  1.00  0.00    +0.000 C 
ATOM     37  F1  UNL A   1      15.064  49.070  -2.413  1.00  0.00    +0.000 F 
ATOM     38  C31 UNL A   1      16.483  47.272  -2.954  1.00  0.00    +0.000 C 
ATOM     39  F2  UNL A   1      15.710  46.981  -4.009  1.00  0.00    +0.000 F 
ATOM     40  C32 UNL A   1      17.600  46.498  -2.679  1.00  0.00    +0.000 C 
ATOM     41  F3  UNL A   1      17.919  45.471  -3.480  1.00  0.00    +0.000 F 
ATOM     42  C33 UNL A   1      18.383  46.784  -1.571  1.00  0.00    +0.000 C 
ATOM     43  F4  UNL A   1      19.470  46.044  -1.312  1.00  0.00    +0.000 F 
ATOM     44  C34 UNL A   1      18.040  47.835  -0.725  1.00  0.00    +0.000 C 
ATOM     45  F5  UNL A   1      18.809  48.078   0.347  1.00  0.00    +0.000 F 
ENDBRANCH   34   35
BRANCH   51   52
ATOM     52  C40 UNL A   1      17.962  55.764  -0.716  1.00  0.00    +0.000 C 
ATOM     53  C41 UNL A   1      17.233  56.454  -1.695  1.00  0.00    +0.000 C 
ATOM     54  F6  UNL A   1      15.952  56.133  -1.934  1.00  0.00    +0.000 F 
ATOM     55  C42 UNL A   1      17.829  57.454  -2.459  1.00  0.00    +0.000 C 
ATOM     56  F7  UNL A   1      17.127  58.072  -3.418  1.00  0.00    +0.000 F 
ATOM     57  C43 UNL A   1      19.154  57.802  -2.238  1.00  0.00    +0.000 C 
ATOM     58  F8  UNL A   1      19.725  58.768  -2.970  1.00  0.00    +0.000 F 
ATOM     59  C44 UNL A   1      19.889  57.143  -1.264  1.00  0.00    +0.000 C 
ATOM     60  F9  UNL A   1      21.166  57.485  -1.042  1.00  0.00    +0.000 F 
ATOM     61  C45 UNL A   1      19.303  56.126  -0.517  1.00  0.00    +0.000 C 
ATOM     62  F10 UNL A   1      20.042  55.497   0.411  1.00  0.00    +0.000 F 
ENDBRANCH   51   52
BRANCH   66   67
ATOM     67  C49 UNL A   1      14.657  55.956   5.410  1.00  0.00    +0.000 C 
ATOM     68  C50 UNL A   1      15.661  56.511   6.214  1.00  0.00    +0.000 C 
ATOM     69  F11 UNL A   1      16.915  56.040   6.139  1.00  0.00    +0.000 F 
ATOM     70  C51 UNL A   1      15.376  57.525   7.126  1.00  0.00    +0.000 C 
ATOM     71  F12 UNL A   1      16.348  58.009   7.911  1.00  0.00    +0.000 F 
ATOM     72  C52 UNL A   1      14.086  58.022   7.231  1.00  0.00    +0.000 C 
ATOM     73  F13 UNL A   1      13.812  59.001   8.104  1.00  0.00    +0.000 F 
ATOM     74  C53 UNL A   1      13.078  57.499   6.434  1.00  0.00    +0.000 C 
ATOM     75  F14 UNL A   1      11.833  57.986   6.525  1.00  0.00    +0.000 F 
ATOM     76  C54 UNL A   1      13.358  56.468   5.540  1.00  0.00    +0.000 C 
ATOM     77  F15 UNL A   1      12.363  55.974   4.789  1.00  0.00    +0.000 F 
ENDBRANCH   66   67
TORSDOF 20
ENDMDL
MODEL 9
REMARK VINA RESULT:      -7.2     33.075     40.215
ROOT
ATOM     30  C25 UNL A   1      49.404  49.538  21.224  1.00  0.00    +0.000 C 
ATOM     31  C26 UNL A   1      48.183  49.344  20.368  1.00  0.00    +0.000 C 
ATOM     32  N4  UNL A   1      47.760  50.055  19.353  1.00  0.00    +0.000 N 
ATOM     33  C27 UNL A   1      46.616  49.416  18.895  1.00  0.00    +0.000 C 
ATOM     34  C28 UNL A   1      45.780  49.791  17.897  1.00  0.00    +0.000 C 
ATOM     46  C35 UNL A   1      45.946  50.981  17.104  1.00  0.00    +0.000 C 
ATOM     47  C36 UNL A   1      45.122  51.479  16.110  1.00  0.00    +0.000 C 
ATOM     48  C37 UNL A   1      45.708  52.641  15.597  1.00  0.00    +0.000 C 
ATOM     49  C38 UNL A   1      46.875  52.889  16.299  1.00  0.00    +0.000 C 
ATOM     50  N5  UNL A   1      47.011  51.861  17.218  1.00  0.00    +0.000 N 
ATOM     51  C39 UNL A   1      47.800  53.983  16.144  1.00  0.00    +0.000 C 
ATOM     63  C46 UNL A   1      48.922  54.164  16.884  1.00  0.00    +0.000 C 
ATOM     64  N6  UNL A   1      49.420  53.384  17.917  1.00  0.00    +0.000 N 
ATOM     65  C47 UNL A   1      50.531  53.963  18.303  1.00  0.00    +0.000 C 
ATOM     66  C48 UNL A   1      51.476  53.568  19.405  1.00  0.00    +0.000 C 
ATOM     78  C55 UNL A   1      51.196  52.484  20.155  1.00  0.00    +0.000 C 
ATOM     79  C56 UNL A   1      52.015  51.983  21.255  1.00  0.00    +0.000 C 
ATOM     80  C57 UNL A   1      51.456  50.863  21.740  1.00  0.00    +0.000 C 
ATOM     81  C58 UNL A   1      50.221  50.587  21.005  1.00  0.00    +0.000 C 
ATOM     82  N7  UNL A   1      50.142  51.607  20.090  1.00  0.00    +0.000 N 
ATOM     83  C59 UNL A   1      50.877  55.168  17.536  1.00  0.00    +0.000 C 
ATOM     84  C60 UNL A   1      49.845  55.266  16.709  1.00  0.00    +0.000 C 
ATOM     85  C61 UNL A   1      46.435  48.235  19.713  1.00  0.00    +0.000 C 
ATOM     86  C62 UNL A   1      47.340  48.179  20.679  1.00  0.00    +0.000 C 
ATOM    119  H28 UNL A   1      44.228  51.064  15.801  1.00  0.00    +0.000 H 
ATOM    120  H29 UNL A   1      45.333  53.215  14.825  1.00  0.00    +0.000 H 
ATOM    121  H30 UNL A   1      47.755  51.769  17.856  1.00  0.00    +0.000 H 
ATOM    122  H31 UNL A   1      52.881  52.420  21.605  1.00  0.00    +0.000 H 
ATOM    123  H32 UNL A   1      51.836  50.288  22.508  1.00  0.00    +0.000 H 
ATOM    124  H33 UNL A   1      49.402  51.701  19.449  1.00  0.00    +0.000 H 
ATOM    125  H34 UNL A   1      51.706  55.778  17.618  1.00  0.00    +0.000 H 
ATOM    126  H35 UNL A   1      49.716  56.031  16.028  1.00  0.00    +0.000 H 
ATOM    127  H36 UNL A   1      45.697  47.530  19.564  1.00  0.00    +0.000 H 
ATOM    128  H37 UNL A   1      47.430  47.497  21.448  1.00  0.00    +0.000 H 
ENDROOT
BRANCH   30   29
ATOM    129  H38 UNL A   1      50.463  47.102  20.887  1.00  0.00    +0.000 H 
ATOM    130  H39 UNL A   1      50.943  45.413  22.558  1.00  0.00    +0.000 H 
ATOM    117  H26 UNL A   1      49.774  48.078  25.596  1.00  0.00    +0.000 H 
ATOM    118  H27 UNL A   1      49.105  49.697  23.915  1.00  0.00    +0.000 H 
ATOM     87  C63 UNL A   1      50.295  47.303  21.885  1.00  0.00    +0.000 C 
ATOM     88  C64 UNL A   1      50.609  46.346  22.847  1.00  0.00    +0.000 C 
ATOM     26  C21 UNL A   1      50.472  46.648  24.205  1.00  0.00    +0.000 C 
ATOM     27  C22 UNL A   1      49.912  47.869  24.595  1.00  0.00    +0.000 C 
ATOM     28  C23 UNL A   1      49.539  48.805  23.627  1.00  0.00    +0.000 C 
ATOM     29  C24 UNL A   1      49.752  48.540  22.266  1.00  0.00    +0.000 C 
BRANCH   26   24
ATOM     25  O2  UNL A   1      51.881  45.858  25.901  1.00  0.00    +0.000 O 
ATOM     24  C20 UNL A   1      50.860  45.675  25.251  1.00  0.00    +0.000 C 
BRANCH   24   23
ATOM    116  H25 UNL A   1      50.571  43.728  25.628  1.00  0.00    +0.000 H 
ATOM     23  N3  UNL A   1      50.080  44.571  25.498  1.00  0.00    +0.000 N 
BRANCH   23   22
ATOM    114  H23 UNL A   1      48.387  43.732  26.333  1.00  0.00    +0.000 H 
ATOM    115  H24 UNL A   1      48.251  45.431  25.868  1.00  0.00    +0.000 H 
ATOM     22  C19 UNL A   1      48.632  44.469  25.596  1.00  0.00    +0.000 C 
BRANCH   22   21
ATOM    113  H22 UNL A   1      47.346  43.245  24.482  1.00  0.00    +0.000 H 
ATOM     21  C18 UNL A   1      47.995  44.068  24.268  1.00  0.00    +0.000 C 
ATOM    112  H21 UNL A   1      48.781  43.819  23.584  1.00  0.00    +0.000 H 
BRANCH   21   20
ATOM     20  C17 UNL A   1      47.124  45.146  23.617  1.00  0.00    +0.000 C 
ATOM    110  H19 UNL A   1      47.391  46.089  24.046  1.00  0.00    +0.000 H 
ATOM    111  H20 UNL A   1      47.313  45.079  22.565  1.00  0.00    +0.000 H 
BRANCH   20   19
ATOM     19  C16 UNL A   1      45.608  44.966  23.780  1.00  0.00    +0.000 C 
ATOM    108  H17 UNL A   1      45.245  45.766  24.390  1.00  0.00    +0.000 H 
ATOM    109  H18 UNL A   1      45.203  44.963  22.790  1.00  0.00    +0.000 H 
BRANCH   19   18
ATOM     18  C15 UNL A   1      45.170  43.644  24.420  1.00  0.00    +0.000 C 
ATOM    107  H16 UNL A   1      45.474  43.680  25.445  1.00  0.00    +0.000 H 
ATOM    106  H15 UNL A   1      45.628  42.841  23.882  1.00  0.00    +0.000 H 
BRANCH   18   17
ATOM     17  C14 UNL A   1      43.656  43.423  24.416  1.00  0.00    +0.000 C 
ATOM    105  H14 UNL A   1      43.248  43.905  25.281  1.00  0.00    +0.000 H 
ATOM    104  H13 UNL A   1      43.459  42.371  24.431  1.00  0.00    +0.000 H 
BRANCH   17   16
ATOM    103  H12 UNL A   1      43.037  44.984  23.219  1.00  0.00    +0.000 H 
ATOM     16  N2  UNL A   1      43.028  44.000  23.245  1.00  0.00    +0.000 N 
BRANCH   16   14
ATOM     14  C13 UNL A   1      42.427  43.412  22.174  1.00  0.00    +0.000 C 
ATOM     15  O1  UNL A   1      41.508  42.623  22.423  1.00  0.00    +0.000 O 
BRANCH   14   12
ATOM     99  H8  UNL A   1      42.582  44.684  20.512  1.00  0.00    +0.000 H 
ATOM     12  C11 UNL A   1      42.846  43.667  20.718  1.00  0.00    +0.000 C 
BRANCH   12   11
ATOM     97  H6  UNL A   1      47.145  41.905  21.162  1.00  0.00    +0.000 H 
ATOM     98  H7  UNL A   1      44.746  41.762  21.351  1.00  0.00    +0.000 H 
ATOM    131  H40 UNL A   1      44.387  45.533  19.555  1.00  0.00    +0.000 H 
ATOM    132  H41 UNL A   1      46.777  45.613  19.241  1.00  0.00    +0.000 H 
ATOM      8  C7  UNL A   1      47.192  43.779  20.196  1.00  0.00    +0.000 C 
ATOM      9  C8  UNL A   1      46.565  42.679  20.803  1.00  0.00    +0.000 C 
ATOM     10  C9  UNL A   1      45.173  42.605  20.934  1.00  0.00    +0.000 C 
ATOM     11  C10 UNL A   1      44.352  43.653  20.512  1.00  0.00    +0.000 C 
ATOM     89  C65 UNL A   1      44.968  44.750  19.893  1.00  0.00    +0.000 C 
ATOM     90  C66 UNL A   1      46.359  44.804  19.723  1.00  0.00    +0.000 C 
BRANCH    8    7
ATOM      3  C3  UNL A   1      50.915  43.210  20.786  1.00  0.00    +0.000 C 
ATOM      4  C4  UNL A   1      51.405  44.005  19.755  1.00  0.00    +0.000 C 
ATOM      5  N1  UNL A   1      50.629  44.702  18.896  1.00  0.00    +0.000 N 
ATOM    133  H42 UNL A   1      49.123  42.574  21.698  1.00  0.00    +0.000 H 
ATOM      7  C6  UNL A   1      48.664  43.849  20.076  1.00  0.00    +0.000 C 
ATOM      6  C5  UNL A   1      49.290  44.609  19.085  1.00  0.00    +0.000 C 
ATOM     91  C67 UNL A   1      49.524  43.147  20.938  1.00  0.00    +0.000 C 
ATOM     95  H4  UNL A   1      52.428  44.065  19.638  1.00  0.00    +0.000 H 
ATOM     96  H5  UNL A   1      48.684  45.144  18.444  1.00  0.00    +0.000 H 
BRANCH    3    2
ATOM      2  C2  UNL A   1      51.849  42.532  21.691  1.00  0.00    +0.000 C 
ATOM     94  H3  UNL A   1      52.322  41.682  21.348  1.00  0.00    +0.000 H 
BRANCH    2    1
ATOM      1  C1  UNL A   1      52.127  42.945  22.934  1.00  0.00    +0.000 C 
ATOM     92  H1  UNL A   1      51.811  42.389  23.745  1.00  0.00    +0.000 H 
ATOM     93  H2  UNL A   1      52.657  43.818  23.082  1.00  0.00    +0.000 H 
ENDBRANCH    2    1
ENDBRANCH    3    2
ENDBRANCH    8    7
ENDBRANCH   12   11
BRANCH   12   13
ATOM    101  H10 UNL A   1      42.210  43.302  18.708  1.00  0.00    +0.000 H 
ATOM    100  H9  UNL A   1      42.273  41.871  19.709  1.00  0.00    +0.000 H 
ATOM     13  C12 UNL A   1      42.013  42.908  19.683  1.00  0.00    +0.000 C 
ATOM    102  H11 UNL A   1      40.973  43.021  19.910  1.00  0.00    +0.000 H 
ENDBRANCH   12   13
ENDBRANCH   14   12
ENDBRANCH   16   14
ENDBRANCH   17   16
ENDBRANCH   18   17
ENDBRANCH   19   18
ENDBRANCH   20   19
ENDBRANCH   21   20
ENDBRANCH   22   21
ENDBRANCH   23   22
ENDBRANCH   24   23
ENDBRANCH   26   24
ENDBRANCH   30   29
BRANCH   34   35
ATOM     35  C29 UNL A   1      44.605  48.903  17.607  1.00  0.00    +0.000 C 
ATOM     36  C30 UNL A   1      43.291  49.316  17.873  1.00  0.00    +0.000 C 
ATOM     37  F1  UNL A   1      43.060  50.512  18.436  1.00  0.00    +0.000 F 
ATOM     38  C31 UNL A   1      42.209  48.485  17.598  1.00  0.00    +0.000 C 
ATOM     39  F2  UNL A   1      40.966  48.880  17.904  1.00  0.00    +0.000 F 
ATOM     40  C32 UNL A   1      42.416  47.240  17.021  1.00  0.00    +0.000 C 
ATOM     41  F3  UNL A   1      41.373  46.442  16.752  1.00  0.00    +0.000 F 
ATOM     42  C33 UNL A   1      43.705  46.820  16.730  1.00  0.00    +0.000 C 
ATOM     43  F4  UNL A   1      43.906  45.623  16.161  1.00  0.00    +0.000 F 
ATOM     44  C34 UNL A   1      44.792  47.638  17.030  1.00  0.00    +0.000 C 
ATOM     45  F5  UNL A   1      46.028  47.198  16.749  1.00  0.00    +0.000 F 
ENDBRANCH   34   35
BRANCH   51   52
ATOM     52  C40 UNL A   1      47.492  55.016  15.102  1.00  0.00    +0.000 C 
ATOM     53  C41 UNL A   1      47.762  54.791  13.744  1.00  0.00    +0.000 C 
ATOM     54  F6  UNL A   1      48.356  53.653  13.353  1.00  0.00    +0.000 F 
ATOM     55  C42 UNL A   1      47.454  55.753  12.785  1.00  0.00    +0.000 C 
ATOM     56  F7  UNL A   1      47.760  55.536  11.499  1.00  0.00    +0.000 F 
ATOM     57  C43 UNL A   1      46.846  56.942  13.162  1.00  0.00    +0.000 C 
ATOM     58  F8  UNL A   1      46.547  57.865  12.238  1.00  0.00    +0.000 F 
ATOM     59  C44 UNL A   1      46.557  57.178  14.498  1.00  0.00    +0.000 C 
ATOM     60  F9  UNL A   1      45.960  58.321  14.862  1.00  0.00    +0.000 F 
ATOM     61  C45 UNL A   1      46.886  56.229  15.461  1.00  0.00    +0.000 C 
ATOM     62  F10 UNL A   1      46.605  56.489  16.747  1.00  0.00    +0.000 F 
ENDBRANCH   51   52
BRANCH   66   67
ATOM     67  C49 UNL A   1      52.689  54.373  19.692  1.00  0.00    +0.000 C 
ATOM     68  C50 UNL A   1      52.642  55.440  20.600  1.00  0.00    +0.000 C 
ATOM     69  F11 UNL A   1      51.486  55.756  21.201  1.00  0.00    +0.000 F 
ATOM     70  C51 UNL A   1      53.772  56.210  20.865  1.00  0.00    +0.000 C 
ATOM     71  F12 UNL A   1      53.689  57.249  21.707  1.00  0.00    +0.000 F 
ATOM     72  C52 UNL A   1      54.977  55.911  20.248  1.00  0.00    +0.000 C 
ATOM     73  F13 UNL A   1      56.066  56.648  20.507  1.00  0.00    +0.000 F 
ATOM     74  C53 UNL A   1      55.051  54.850  19.357  1.00  0.00    +0.000 C 
ATOM     75  F14 UNL A   1      56.218  54.551  18.769  1.00  0.00    +0.000 F 
ATOM     76  C54 UNL A   1      53.916  54.095  19.073  1.00  0.00    +0.000 C 
ATOM     77  F15 UNL A   1      54.014  53.081  18.200  1.00  0.00    +0.000 F 
ENDBRANCH   66   67
TORSDOF 20
ENDMDL
MODEL 10
REMARK VINA RESULT:      -7.1     45.268     50.368
ROOT
ATOM     30  C25 UNL A   1       8.654  27.952   2.012  1.00  0.00    +0.000 C 
ATOM     31  C26 UNL A   1       9.885  28.497   1.344  1.00  0.00    +0.000 C 
ATOM     32  N4  UNL A   1       9.986  29.399   0.400  1.00  0.00    +0.000 N 
ATOM     33  C27 UNL A   1      11.347  29.566   0.182  1.00  0.00    +0.000 C 
ATOM     34  C28 UNL A   1      11.967  30.350  -0.734  1.00  0.00    +0.000 C 
ATOM     46  C35 UNL A   1      11.279  31.181  -1.688  1.00  0.00    +0.000 C 
ATOM     47  C36 UNL A   1      11.815  31.965  -2.695  1.00  0.00    +0.000 C 
ATOM     48  C37 UNL A   1      10.764  32.621  -3.344  1.00  0.00    +0.000 C 
ATOM     49  C38 UNL A   1       9.572  32.215  -2.770  1.00  0.00    +0.000 C 
ATOM     50  N5  UNL A   1       9.903  31.334  -1.752  1.00  0.00    +0.000 N 
ATOM     51  C39 UNL A   1       8.229  32.600  -3.121  1.00  0.00    +0.000 C 
ATOM     63  C46 UNL A   1       7.105  32.145  -2.514  1.00  0.00    +0.000 C 
ATOM     64  N6  UNL A   1       6.984  31.242  -1.468  1.00  0.00    +0.000 N 
ATOM     65  C47 UNL A   1       5.698  31.135  -1.231  1.00  0.00    +0.000 C 
ATOM     66  C48 UNL A   1       4.987  30.276  -0.222  1.00  0.00    +0.000 C 
ATOM     78  C55 UNL A   1       5.706  29.462   0.574  1.00  0.00    +0.000 C 
ATOM     79  C56 UNL A   1       5.156  28.573   1.594  1.00  0.00    +0.000 C 
ATOM     80  C57 UNL A   1       6.166  27.951   2.222  1.00  0.00    +0.000 C 
ATOM     81  C58 UNL A   1       7.434  28.374   1.626  1.00  0.00    +0.000 C 
ATOM     82  N7  UNL A   1       7.063  29.264   0.650  1.00  0.00    +0.000 N 
ATOM     83  C59 UNL A   1       4.858  31.983  -2.088  1.00  0.00    +0.000 C 
ATOM     84  C60 UNL A   1       5.762  32.549  -2.876  1.00  0.00    +0.000 C 
ATOM     85  C61 UNL A   1      12.035  28.708   1.122  1.00  0.00    +0.000 C 
ATOM     86  C62 UNL A   1      11.177  27.978   1.819  1.00  0.00    +0.000 C 
ATOM    119  H28 UNL A   1      12.818  32.051  -2.926  1.00  0.00    +0.000 H 
ATOM    120  H29 UNL A   1      10.862  33.295  -4.121  1.00  0.00    +0.000 H 
ATOM    121  H30 UNL A   1       9.256  30.884  -1.162  1.00  0.00    +0.000 H 
ATOM    122  H31 UNL A   1       4.153  28.442   1.797  1.00  0.00    +0.000 H 
ATOM    123  H32 UNL A   1       6.065  27.282   3.001  1.00  0.00    +0.000 H 
ATOM    124  H33 UNL A   1       7.707  29.717   0.059  1.00  0.00    +0.000 H 
ATOM    125  H34 UNL A   1       3.833  32.107  -2.078  1.00  0.00    +0.000 H 
ATOM    126  H35 UNL A   1       5.537  33.196  -3.648  1.00  0.00    +0.000 H 
ATOM    127  H36 UNL A   1      13.059  28.669   1.234  1.00  0.00    +0.000 H 
ATOM    128  H37 UNL A   1      11.365  27.239   2.514  1.00  0.00    +0.000 H 
ENDROOT
BRANCH   30   29
ATOM    129  H38 UNL A   1       8.524  25.278   1.944  1.00  0.00    +0.000 H 
ATOM    130  H39 UNL A   1       8.617  23.709   3.788  1.00  0.00    +0.000 H 
ATOM    117  H26 UNL A   1       9.322  26.880   6.461  1.00  0.00    +0.000 H 
ATOM    118  H27 UNL A   1       9.030  28.468   4.648  1.00  0.00    +0.000 H 
ATOM     87  C63 UNL A   1       8.672  25.622   2.905  1.00  0.00    +0.000 C 
ATOM     88  C64 UNL A   1       8.765  24.716   3.960  1.00  0.00    +0.000 C 
ATOM     26  C21 UNL A   1       9.058  25.169   5.249  1.00  0.00    +0.000 C 
ATOM     27  C22 UNL A   1       9.144  26.542   5.502  1.00  0.00    +0.000 C 
ATOM     28  C23 UNL A   1       8.989  27.455   4.456  1.00  0.00    +0.000 C 
ATOM     29  C24 UNL A   1       8.778  27.001   3.145  1.00  0.00    +0.000 C 
BRANCH   26   24
ATOM     25  O2  UNL A   1       8.955  23.040   6.220  1.00  0.00    +0.000 O 
ATOM     24  C20 UNL A   1       9.228  24.224   6.375  1.00  0.00    +0.000 C 
BRANCH   24   23
ATOM    116  H25 UNL A   1      10.650  24.898   7.615  1.00  0.00    +0.000 H 
ATOM     23  N3  UNL A   1       9.694  24.666   7.590  1.00  0.00    +0.000 N 
BRANCH   23   22
ATOM    114  H23 UNL A   1       7.936  24.962   8.633  1.00  0.00    +0.000 H 
ATOM    115  H24 UNL A   1       9.152  23.974   9.447  1.00  0.00    +0.000 H 
ATOM     22  C19 UNL A   1       8.977  24.840   8.844  1.00  0.00    +0.000 C 
BRANCH   22   21
ATOM    113  H22 UNL A   1       9.486  26.872   8.921  1.00  0.00    +0.000 H 
ATOM     21  C18 UNL A   1       9.469  26.061   9.618  1.00  0.00    +0.000 C 
ATOM    112  H21 UNL A   1      10.433  25.832  10.024  1.00  0.00    +0.000 H 
BRANCH   21   20
ATOM     20  C17 UNL A   1       8.561  26.504  10.770  1.00  0.00    +0.000 C 
ATOM    110  H19 UNL A   1       7.947  27.306  10.416  1.00  0.00    +0.000 H 
ATOM    111  H20 UNL A   1       8.012  25.632  11.061  1.00  0.00    +0.000 H 
BRANCH   20   19
ATOM     19  C16 UNL A   1       9.281  26.986  12.038  1.00  0.00    +0.000 C 
ATOM    108  H17 UNL A   1      10.311  27.139  11.795  1.00  0.00    +0.000 H 
ATOM    109  H18 UNL A   1       8.775  27.877  12.345  1.00  0.00    +0.000 H 
BRANCH   19   18
ATOM     18  C15 UNL A   1       9.214  26.029  13.233  1.00  0.00    +0.000 C 
ATOM    107  H16 UNL A   1      10.207  25.665  13.395  1.00  0.00    +0.000 H 
ATOM    106  H15 UNL A   1       8.521  25.247  13.001  1.00  0.00    +0.000 H 
BRANCH   18   17
ATOM     17  C14 UNL A   1       8.769  26.694  14.538  1.00  0.00    +0.000 C 
ATOM    105  H14 UNL A   1       9.623  27.164  14.978  1.00  0.00    +0.000 H 
ATOM    104  H13 UNL A   1       8.362  25.945  15.187  1.00  0.00    +0.000 H 
BRANCH   17   16
ATOM    103  H12 UNL A   1       8.107  28.539  13.900  1.00  0.00    +0.000 H 
ATOM     16  N2  UNL A   1       7.765  27.713  14.310  1.00  0.00    +0.000 N 
BRANCH   16   14
ATOM     14  C13 UNL A   1       6.428  27.721  14.568  1.00  0.00    +0.000 C 
ATOM     15  O1  UNL A   1       5.949  28.792  14.960  1.00  0.00    +0.000 O 
BRANCH   14   12
ATOM     99  H8  UNL A   1       4.528  26.831  14.600  1.00  0.00    +0.000 H 
ATOM     12  C11 UNL A   1       5.525  26.488  14.415  1.00  0.00    +0.000 C 
BRANCH   12   11
ATOM     97  H6  UNL A   1       6.047  23.279  11.066  1.00  0.00    +0.000 H 
ATOM     98  H7  UNL A   1       5.999  23.972  13.374  1.00  0.00    +0.000 H 
ATOM    131  H40 UNL A   1       4.823  27.817  12.190  1.00  0.00    +0.000 H 
ATOM    132  H41 UNL A   1       4.735  27.085   9.893  1.00  0.00    +0.000 H 
ATOM      8  C7  UNL A   1       5.409  25.119  10.257  1.00  0.00    +0.000 C 
ATOM      9  C8  UNL A   1       5.770  24.246  11.296  1.00  0.00    +0.000 C 
ATOM     10  C9  UNL A   1       5.766  24.653  12.635  1.00  0.00    +0.000 C 
ATOM     11  C10 UNL A   1       5.451  25.967  12.988  1.00  0.00    +0.000 C 
ATOM     89  C65 UNL A   1       5.076  26.843  11.959  1.00  0.00    +0.000 C 
ATOM     90  C66 UNL A   1       5.040  26.422  10.622  1.00  0.00    +0.000 C 
BRANCH    8    7
ATOM      3  C3  UNL A   1       5.484  25.143   6.445  1.00  0.00    +0.000 C 
ATOM      4  C4  UNL A   1       5.514  23.768   6.237  1.00  0.00    +0.000 C 
ATOM      5  N1  UNL A   1       5.510  22.848   7.226  1.00  0.00    +0.000 N 
ATOM    133  H42 UNL A   1       5.405  26.601   7.968  1.00  0.00    +0.000 H 
ATOM      7  C6  UNL A   1       5.431  24.678   8.845  1.00  0.00    +0.000 C 
ATOM      6  C5  UNL A   1       5.462  23.327   8.493  1.00  0.00    +0.000 C 
ATOM     91  C67 UNL A   1       5.437  25.587   7.773  1.00  0.00    +0.000 C 
ATOM     95  H4  UNL A   1       5.541  23.429   5.263  1.00  0.00    +0.000 H 
ATOM     96  H5  UNL A   1       5.448  22.636   9.260  1.00  0.00    +0.000 H 
BRANCH    3    2
ATOM      2  C2  UNL A   1       5.444  26.054   5.297  1.00  0.00    +0.000 C 
ATOM     94  H3  UNL A   1       5.981  25.794   4.456  1.00  0.00    +0.000 H 
BRANCH    2    1
ATOM      1  C1  UNL A   1       4.755  27.202   5.270  1.00  0.00    +0.000 C 
ATOM     92  H1  UNL A   1       4.685  27.741   4.392  1.00  0.00    +0.000 H 
ATOM     93  H2  UNL A   1       4.294  27.548   6.126  1.00  0.00    +0.000 H 
ENDBRANCH    2    1
ENDBRANCH    3    2
ENDBRANCH    8    7
ENDBRANCH   12   11
BRANCH   12   13
ATOM    101  H10 UNL A   1       5.139  25.717  16.373  1.00  0.00    +0.000 H 
ATOM    100  H9  UNL A   1       5.369  24.487  15.154  1.00  0.00    +0.000 H 
ATOM     13  C12 UNL A   1       5.707  25.436  15.511  1.00  0.00    +0.000 C 
ATOM    102  H11 UNL A   1       6.743  25.371  15.773  1.00  0.00    +0.000 H 
ENDBRANCH   12   13
ENDBRANCH   14   12
ENDBRANCH   16   14
ENDBRANCH   17   16
ENDBRANCH   18   17
ENDBRANCH   19   18
ENDBRANCH   20   19
ENDBRANCH   21   20
ENDBRANCH   22   21
ENDBRANCH   23   22
ENDBRANCH   24   23
ENDBRANCH   26   24
ENDBRANCH   30   29
BRANCH   34   35
ATOM     35  C29 UNL A   1      13.467  30.342  -0.750  1.00  0.00    +0.000 C 
ATOM     36  C30 UNL A   1      14.187  29.513  -1.624  1.00  0.00    +0.000 C 
ATOM     37  F1  UNL A   1      13.539  28.672  -2.443  1.00  0.00    +0.000 F 
ATOM     38  C31 UNL A   1      15.579  29.517  -1.632  1.00  0.00    +0.000 C 
ATOM     39  F2  UNL A   1      16.245  28.682  -2.440  1.00  0.00    +0.000 F 
ATOM     40  C32 UNL A   1      16.277  30.372  -0.792  1.00  0.00    +0.000 C 
ATOM     41  F3  UNL A   1      17.618  30.378  -0.803  1.00  0.00    +0.000 F 
ATOM     42  C33 UNL A   1      15.586  31.216   0.064  1.00  0.00    +0.000 C 
ATOM     43  F4  UNL A   1      16.260  32.051   0.867  1.00  0.00    +0.000 F 
ATOM     44  C34 UNL A   1      14.194  31.194   0.094  1.00  0.00    +0.000 C 
ATOM     45  F5  UNL A   1      13.554  32.012   0.944  1.00  0.00    +0.000 F 
ENDBRANCH   34   35
BRANCH   51   52
ATOM     52  C40 UNL A   1       8.053  33.561  -4.258  1.00  0.00    +0.000 C 
ATOM     53  C41 UNL A   1       7.846  33.113  -5.571  1.00  0.00    +0.000 C 
ATOM     54  F6  UNL A   1       7.852  31.800  -5.846  1.00  0.00    +0.000 F 
ATOM     55  C42 UNL A   1       7.666  34.018  -6.615  1.00  0.00    +0.000 C 
ATOM     56  F7  UNL A   1       7.513  33.571  -7.868  1.00  0.00    +0.000 F 
ATOM     57  C43 UNL A   1       7.662  35.382  -6.361  1.00  0.00    +0.000 C 
ATOM     58  F8  UNL A   1       7.485  36.251  -7.365  1.00  0.00    +0.000 F 
ATOM     59  C44 UNL A   1       7.849  35.845  -5.067  1.00  0.00    +0.000 C 
ATOM     60  F9  UNL A   1       7.835  37.162  -4.819  1.00  0.00    +0.000 F 
ATOM     61  C45 UNL A   1       8.054  34.944  -4.027  1.00  0.00    +0.000 C 
ATOM     62  F10 UNL A   1       8.244  35.421  -2.786  1.00  0.00    +0.000 F 
ENDBRANCH   51   52
BRANCH   66   67
ATOM     67  C49 UNL A   1       3.506  30.293  -0.118  1.00  0.00    +0.000 C 
ATOM     68  C50 UNL A   1       2.852  31.277   0.636  1.00  0.00    +0.000 C 
ATOM     69  F11 UNL A   1       3.568  32.202   1.292  1.00  0.00    +0.000 F 
ATOM     70  C51 UNL A   1       1.464  31.293   0.750  1.00  0.00    +0.000 C 
ATOM     71  F12 UNL A   1       0.868  32.221   1.510  1.00  0.00    +0.000 F 
ATOM     72  C52 UNL A   1       0.702  30.340   0.091  1.00  0.00    +0.000 C 
ATOM     73  F13 UNL A   1      -0.633  30.358   0.196  1.00  0.00    +0.000 F 
ATOM     74  C53 UNL A   1       1.326  29.365  -0.673  1.00  0.00    +0.000 C 
ATOM     75  F14 UNL A   1       0.592  28.451  -1.322  1.00  0.00    +0.000 F 
ATOM     76  C54 UNL A   1       2.716  29.335  -0.768  1.00  0.00    +0.000 C 
ATOM     77  F15 UNL A   1       3.294  28.375  -1.507  1.00  0.00    +0.000 F 
ENDBRANCH   66   67
TORSDOF 20
ENDMDL
