MODEL 1
REMARK VINA RESULT:      -8.8      0.000      0.000
ROOT
ATOM     19  C15 UNL A   1      14.046  53.998   4.910  1.00  0.00    +0.000 C 
ATOM     20  C16 UNL A   1      15.012  54.420   3.840  1.00  0.00    +0.000 C 
ATOM     21  N3  UNL A   1      15.494  53.728   2.838  1.00  0.00    +0.000 N 
ATOM     22  C17 UNL A   1      16.304  54.604   2.128  1.00  0.00    +0.000 C 
ATOM     23  C18 UNL A   1      17.065  54.354   1.036  1.00  0.00    +0.000 C 
ATOM     35  C25 UNL A   1      17.177  53.068   0.401  1.00  0.00    +0.000 C 
ATOM     36  C26 UNL A   1      17.974  52.700  -0.669  1.00  0.00    +0.000 C 
ATOM     37  C27 UNL A   1      17.725  51.353  -0.957  1.00  0.00    +0.000 C 
ATOM     38  C28 UNL A   1      16.802  50.874  -0.043  1.00  0.00    +0.000 C 
ATOM     39  N4  UNL A   1      16.472  51.936   0.782  1.00  0.00    +0.000 N 
ATOM     40  C29 UNL A   1      16.259  49.545   0.071  1.00  0.00    +0.000 C 
ATOM     52  C36 UNL A   1      15.363  49.148   1.007  1.00  0.00    +0.000 C 
ATOM     53  N5  UNL A   1      14.787  49.887   2.030  1.00  0.00    +0.000 N 
ATOM     54  C37 UNL A   1      13.982  49.067   2.659  1.00  0.00    +0.000 C 
ATOM     55  C38 UNL A   1      13.117  49.321   3.862  1.00  0.00    +0.000 C 
ATOM     67  C45 UNL A   1      13.137  50.535   4.445  1.00  0.00    +0.000 C 
ATOM     68  C46 UNL A   1      12.359  50.925   5.617  1.00  0.00    +0.000 C 
ATOM     69  C47 UNL A   1      12.600  52.216   5.893  1.00  0.00    +0.000 C 
ATOM     70  C48 UNL A   1      13.575  52.737   4.934  1.00  0.00    +0.000 C 
ATOM     71  N6  UNL A   1      13.843  51.666   4.117  1.00  0.00    +0.000 N 
ATOM     72  C49 UNL A   1      13.939  47.713   2.086  1.00  0.00    +0.000 C 
ATOM     73  C50 UNL A   1      14.824  47.807   1.104  1.00  0.00    +0.000 C 
ATOM     74  C51 UNL A   1      16.217  55.890   2.788  1.00  0.00    +0.000 C 
ATOM     75  C52 UNL A   1      15.480  55.815   3.887  1.00  0.00    +0.000 C 
ATOM    111  H21 UNL A   1      18.636  53.313  -1.169  1.00  0.00    +0.000 H 
ATOM    112  H22 UNL A   1      18.158  50.810  -1.721  1.00  0.00    +0.000 H 
ATOM    113  H23 UNL A   1      15.831  51.894   1.528  1.00  0.00    +0.000 H 
ATOM    114  H24 UNL A   1      11.727  50.307   6.148  1.00  0.00    +0.000 H 
ATOM    115  H25 UNL A   1      12.167  52.756   6.659  1.00  0.00    +0.000 H 
ATOM    116  H26 UNL A   1      14.481  51.706   3.368  1.00  0.00    +0.000 H 
ATOM    117  H27 UNL A   1      13.369  46.902   2.374  1.00  0.00    +0.000 H 
ATOM    118  H28 UNL A   1      15.094  47.025   0.487  1.00  0.00    +0.000 H 
ATOM    119  H29 UNL A   1      16.670  56.752   2.448  1.00  0.00    +0.000 H 
ATOM    120  H30 UNL A   1      15.285  56.543   4.592  1.00  0.00    +0.000 H 
ENDROOT
BRANCH   19   18
ATOM     76  C53 UNL A   1      14.332  55.288   7.027  1.00  0.00    +0.000 C 
ATOM    109  H19 UNL A   1      10.987  57.075   6.508  1.00  0.00    +0.000 H 
ATOM     77  C54 UNL A   1      13.883  56.212   7.969  1.00  0.00    +0.000 C 
ATOM     15  C11 UNL A   1      12.690  56.907   7.748  1.00  0.00    +0.000 C 
ATOM     16  C12 UNL A   1      11.889  56.593   6.646  1.00  0.00    +0.000 C 
ATOM     17  C13 UNL A   1      12.312  55.625   5.733  1.00  0.00    +0.000 C 
ATOM    110  H20 UNL A   1      11.712  55.378   4.931  1.00  0.00    +0.000 H 
ATOM     18  C14 UNL A   1      13.551  54.985   5.901  1.00  0.00    +0.000 C 
ATOM    121  H31 UNL A   1      15.244  54.824   7.159  1.00  0.00    +0.000 H 
ATOM    122  H32 UNL A   1      14.429  56.382   8.827  1.00  0.00    +0.000 H 
BRANCH   15   13
ATOM     13  C10 UNL A   1      12.239  57.966   8.678  1.00  0.00    +0.000 C 
ATOM     14  O2  UNL A   1      12.804  59.056   8.673  1.00  0.00    +0.000 O 
BRANCH   13   12
ATOM    108  H18 UNL A   1      10.807  58.524   9.961  1.00  0.00    +0.000 H 
ATOM     12  N2  UNL A   1      11.209  57.724   9.551  1.00  0.00    +0.000 N 
BRANCH   12   11
ATOM    106  H16 UNL A   1       9.581  56.598  10.131  1.00  0.00    +0.000 H 
ATOM     11  C9  UNL A   1      10.627  56.456   9.958  1.00  0.00    +0.000 C 
ATOM    107  H17 UNL A   1      10.802  55.750   9.173  1.00  0.00    +0.000 H 
BRANCH   11   10
ATOM    105  H15 UNL A   1      10.453  55.652  11.884  1.00  0.00    +0.000 H 
ATOM     10  C8  UNL A   1      11.263  55.905  11.231  1.00  0.00    +0.000 C 
ATOM    104  H14 UNL A   1      11.912  56.655  11.630  1.00  0.00    +0.000 H 
BRANCH   10    9
ATOM      9  C7  UNL A   1      12.077  54.623  11.044  1.00  0.00    +0.000 C 
ATOM    102  H12 UNL A   1      13.107  54.897  10.947  1.00  0.00    +0.000 H 
ATOM    103  H13 UNL A   1      11.876  54.015  11.901  1.00  0.00    +0.000 H 
BRANCH    9    8
ATOM    100  H10 UNL A   1      10.871  53.153  10.101  1.00  0.00    +0.000 H 
ATOM    101  H11 UNL A   1      11.462  54.476   9.046  1.00  0.00    +0.000 H 
ATOM      8  C6  UNL A   1      11.694  53.780   9.825  1.00  0.00    +0.000 C 
BRANCH    8    7
ATOM     98  H8  UNL A   1      12.528  51.862   9.436  1.00  0.00    +0.000 H 
ATOM     99  H9  UNL A   1      12.910  53.131   8.236  1.00  0.00    +0.000 H 
ATOM      7  C5  UNL A   1      12.808  52.882   9.271  1.00  0.00    +0.000 C 
BRANCH    7    6
ATOM     97  H7  UNL A   1      14.184  52.662  10.880  1.00  0.00    +0.000 H 
ATOM      6  C4  UNL A   1      14.189  53.104   9.907  1.00  0.00    +0.000 C 
ATOM     96  H6  UNL A   1      14.378  54.156   9.966  1.00  0.00    +0.000 H 
BRANCH    6    5
ATOM      5  N1  UNL A   1      15.245  52.478   9.127  1.00  0.00    +0.000 N 
ATOM     95  H5  UNL A   1      15.512  52.897   8.277  1.00  0.00    +0.000 H 
BRANCH    5    3
ATOM      3  C3  UNL A   1      15.885  51.326   9.525  1.00  0.00    +0.000 C 
ATOM      4  O1  UNL A   1      16.377  51.312  10.652  1.00  0.00    +0.000 O 
BRANCH    3    2
ATOM      2  C2  UNL A   1      15.856  50.127   8.574  1.00  0.00    +0.000 C 
ATOM     94  H4  UNL A   1      16.748  49.573   8.778  1.00  0.00    +0.000 H 
BRANCH    2    1
ATOM      1  C1  UNL A   1      15.781  50.687   7.144  1.00  0.00    +0.000 C 
ATOM     91  H1  UNL A   1      14.776  50.984   6.929  1.00  0.00    +0.000 H 
ATOM     92  H2  UNL A   1      16.085  49.931   6.450  1.00  0.00    +0.000 H 
ATOM     93  H3  UNL A   1      16.429  51.533   7.057  1.00  0.00    +0.000 H 
ENDBRANCH    2    1
BRANCH    2   78
ATOM    130  H40 UNL A   1      14.140  45.861   9.570  1.00  0.00    +0.000 H 
ATOM     78  C55 UNL A   1      14.767  49.076   8.787  1.00  0.00    +0.000 C 
ATOM     79  C56 UNL A   1      13.425  49.504   8.747  1.00  0.00    +0.000 C 
ATOM     80  C57 UNL A   1      12.369  48.637   9.043  1.00  0.00    +0.000 C 
ATOM     81  C58 UNL A   1      12.616  47.307   9.396  1.00  0.00    +0.000 C 
ATOM     88  C64 UNL A   1      13.936  46.849   9.356  1.00  0.00    +0.000 C 
ATOM     89  C65 UNL A   1      14.985  47.716   9.031  1.00  0.00    +0.000 C 
ATOM     90  F16 UNL A   1      16.204  47.175   8.939  1.00  0.00    +0.000 F 
ATOM    123  H33 UNL A   1      13.215  50.482   8.494  1.00  0.00    +0.000 H 
ATOM    124  H34 UNL A   1      11.397  48.981   9.001  1.00  0.00    +0.000 H 
BRANCH   81   82
ATOM     82  C59 UNL A   1      11.485  46.392   9.812  1.00  0.00    +0.000 C 
ATOM    125  H35 UNL A   1      11.781  45.381   9.626  1.00  0.00    +0.000 H 
ATOM    126  H36 UNL A   1      10.625  46.672   9.240  1.00  0.00    +0.000 H 
BRANCH   82   83
ATOM    129  H39 UNL A   1      11.204  46.119  14.729  1.00  0.00    +0.000 H 
ATOM     83  C60 UNL A   1      11.116  46.525  11.267  1.00  0.00    +0.000 C 
ATOM     84  C61 UNL A   1      10.037  47.184  11.828  1.00  0.00    +0.000 C 
ATOM     85  C62 UNL A   1      10.007  47.077  13.248  1.00  0.00    +0.000 C 
ATOM     86  C63 UNL A   1      11.054  46.325  13.729  1.00  0.00    +0.000 C 
ATOM     87  S1  UNL A   1      12.076  45.773  12.475  1.00  0.00    +0.000 S 
ATOM    127  H37 UNL A   1       9.331  47.696  11.278  1.00  0.00    +0.000 H 
ATOM    128  H38 UNL A   1       9.285  47.512  13.845  1.00  0.00    +0.000 H 
ENDBRANCH   82   83
ENDBRANCH   81   82
ENDBRANCH    2   78
ENDBRANCH    3    2
ENDBRANCH    5    3
ENDBRANCH    6    5
ENDBRANCH    7    6
ENDBRANCH    8    7
ENDBRANCH    9    8
ENDBRANCH   10    9
ENDBRANCH   11   10
ENDBRANCH   12   11
ENDBRANCH   13   12
ENDBRANCH   15   13
ENDBRANCH   19   18
BRANCH   23   24
ATOM     33  C24 UNL A   1      17.341  56.221  -0.634  1.00  0.00    +0.000 C 
ATOM     34  F5  UNL A   1      16.146  55.910  -1.159  1.00  0.00    +0.000 F 
ATOM     24  C19 UNL A   1      17.842  55.500   0.459  1.00  0.00    +0.000 C 
ATOM     25  C20 UNL A   1      19.098  55.863   0.967  1.00  0.00    +0.000 C 
ATOM     26  F1  UNL A   1      19.614  55.211   2.019  1.00  0.00    +0.000 F 
ATOM     27  C21 UNL A   1      19.812  56.924   0.417  1.00  0.00    +0.000 C 
ATOM     28  F2  UNL A   1      20.990  57.283   0.947  1.00  0.00    +0.000 F 
ATOM     29  C22 UNL A   1      19.300  57.621  -0.667  1.00  0.00    +0.000 C 
ATOM     30  F3  UNL A   1      19.991  58.640  -1.197  1.00  0.00    +0.000 F 
ATOM     31  C23 UNL A   1      18.069  57.266  -1.198  1.00  0.00    +0.000 C 
ATOM     32  F4  UNL A   1      17.578  57.931  -2.252  1.00  0.00    +0.000 F 
ENDBRANCH   23   24
BRANCH   40   41
ATOM     41  C30 UNL A   1      16.730  48.512  -0.908  1.00  0.00    +0.000 C 
ATOM     42  C31 UNL A   1      17.917  47.795  -0.701  1.00  0.00    +0.000 C 
ATOM     43  F6  UNL A   1      18.690  48.061   0.363  1.00  0.00    +0.000 F 
ATOM     44  C32 UNL A   1      18.333  46.824  -1.609  1.00  0.00    +0.000 C 
ATOM     45  F7  UNL A   1      19.491  46.178  -1.413  1.00  0.00    +0.000 F 
ATOM     46  C33 UNL A   1      17.558  46.535  -2.722  1.00  0.00    +0.000 C 
ATOM     47  F8  UNL A   1      17.957  45.597  -3.591  1.00  0.00    +0.000 F 
ATOM     48  C34 UNL A   1      16.374  47.223  -2.938  1.00  0.00    +0.000 C 
ATOM     49  F9  UNL A   1      15.618  46.937  -4.009  1.00  0.00    +0.000 F 
ATOM     50  C35 UNL A   1      15.966  48.210  -2.046  1.00  0.00    +0.000 C 
ATOM     51  F10 UNL A   1      14.821  48.866  -2.284  1.00  0.00    +0.000 F 
ENDBRANCH   40   41
BRANCH   55   56
ATOM     65  C44 UNL A   1      10.931  48.085   4.035  1.00  0.00    +0.000 C 
ATOM     66  F15 UNL A   1      10.395  48.913   3.127  1.00  0.00    +0.000 F 
ATOM     56  C39 UNL A   1      12.267  48.245   4.429  1.00  0.00    +0.000 C 
ATOM     57  C40 UNL A   1      12.780  47.357   5.383  1.00  0.00    +0.000 C 
ATOM     58  F11 UNL A   1      14.059  47.459   5.774  1.00  0.00    +0.000 F 
ATOM     59  C41 UNL A   1      11.991  46.337   5.914  1.00  0.00    +0.000 C 
ATOM     60  F12 UNL A   1      12.517  45.479   6.799  1.00  0.00    +0.000 F 
ATOM     61  C42 UNL A   1      10.670  46.203   5.517  1.00  0.00    +0.000 C 
ATOM     62  F13 UNL A   1       9.910  45.226   6.030  1.00  0.00    +0.000 F 
ATOM     63  C43 UNL A   1      10.138  47.080   4.583  1.00  0.00    +0.000 C 
ATOM     64  F14 UNL A   1       8.858  46.959   4.206  1.00  0.00    +0.000 F 
ENDBRANCH   55   56
TORSDOF 19
ENDMDL
MODEL 2
REMARK VINA RESULT:      -8.8     45.852     52.618
ROOT
ATOM     19  C15 UNL A   1       7.075   2.869  26.070  1.00  0.00    +0.000 C 
ATOM     20  C16 UNL A   1       6.340   4.014  25.432  1.00  0.00    +0.000 C 
ATOM     21  N3  UNL A   1       6.576   5.299  25.516  1.00  0.00    +0.000 N 
ATOM     22  C17 UNL A   1       5.634   5.910  24.699  1.00  0.00    +0.000 C 
ATOM     23  C18 UNL A   1       5.431   7.232  24.487  1.00  0.00    +0.000 C 
ATOM     35  C25 UNL A   1       6.188   8.282  25.115  1.00  0.00    +0.000 C 
ATOM     36  C26 UNL A   1       6.014   9.651  25.014  1.00  0.00    +0.000 C 
ATOM     37  C27 UNL A   1       7.007  10.276  25.777  1.00  0.00    +0.000 C 
ATOM     38  C28 UNL A   1       7.777   9.296  26.380  1.00  0.00    +0.000 C 
ATOM     39  N4  UNL A   1       7.266   8.077  25.963  1.00  0.00    +0.000 N 
ATOM     40  C29 UNL A   1       8.896   9.455  27.272  1.00  0.00    +0.000 C 
ATOM     52  C36 UNL A   1       9.593   8.439  27.835  1.00  0.00    +0.000 C 
ATOM     53  N5  UNL A   1       9.404   7.071  27.699  1.00  0.00    +0.000 N 
ATOM     54  C37 UNL A   1      10.333   6.504  28.428  1.00  0.00    +0.000 C 
ATOM     55  C38 UNL A   1      10.589   5.043  28.669  1.00  0.00    +0.000 C 
ATOM     67  C45 UNL A   1       9.776   4.128  28.107  1.00  0.00    +0.000 C 
ATOM     68  C46 UNL A   1       9.899   2.681  28.256  1.00  0.00    +0.000 C 
ATOM     69  C47 UNL A   1       8.944   2.083  27.525  1.00  0.00    +0.000 C 
ATOM     70  C48 UNL A   1       8.122   3.108  26.881  1.00  0.00    +0.000 C 
ATOM     71  N6  UNL A   1       8.685   4.291  27.290  1.00  0.00    +0.000 N 
ATOM     72  C49 UNL A   1      11.237   7.454  29.094  1.00  0.00    +0.000 C 
ATOM     73  C50 UNL A   1      10.721   8.619  28.727  1.00  0.00    +0.000 C 
ATOM     74  C51 UNL A   1       4.849   4.854  24.095  1.00  0.00    +0.000 C 
ATOM     75  C52 UNL A   1       5.206   3.666  24.562  1.00  0.00    +0.000 C 
ATOM    111  H21 UNL A   1       5.278  10.129  24.471  1.00  0.00    +0.000 H 
ATOM    112  H22 UNL A   1       7.143  11.295  25.873  1.00  0.00    +0.000 H 
ATOM    113  H23 UNL A   1       7.616   7.197  26.230  1.00  0.00    +0.000 H 
ATOM    114  H24 UNL A   1      10.604   2.195  28.831  1.00  0.00    +0.000 H 
ATOM    115  H25 UNL A   1       8.811   1.064  27.433  1.00  0.00    +0.000 H 
ATOM    116  H26 UNL A   1       8.340   5.174  27.022  1.00  0.00    +0.000 H 
ATOM    117  H27 UNL A   1      12.057   7.263  29.691  1.00  0.00    +0.000 H 
ATOM    118  H28 UNL A   1      11.078   9.536  29.037  1.00  0.00    +0.000 H 
ATOM    119  H29 UNL A   1       4.109   5.006  23.393  1.00  0.00    +0.000 H 
ATOM    120  H30 UNL A   1       4.795   2.740  24.367  1.00  0.00    +0.000 H 
ENDROOT
BRANCH   19   18
ATOM     76  C53 UNL A   1       7.118   0.891  24.548  1.00  0.00    +0.000 C 
ATOM    109  H19 UNL A   1       5.061  -1.183  27.021  1.00  0.00    +0.000 H 
ATOM     77  C54 UNL A   1       6.770  -0.421  24.235  1.00  0.00    +0.000 C 
ATOM     15  C11 UNL A   1       6.069  -1.196  25.164  1.00  0.00    +0.000 C 
ATOM     16  C12 UNL A   1       5.616  -0.622  26.356  1.00  0.00    +0.000 C 
ATOM     17  C13 UNL A   1       5.916   0.710  26.644  1.00  0.00    +0.000 C 
ATOM    110  H20 UNL A   1       5.564   1.140  27.513  1.00  0.00    +0.000 H 
ATOM     18  C14 UNL A   1       6.694   1.469  25.755  1.00  0.00    +0.000 C 
ATOM    121  H31 UNL A   1       7.691   1.441  23.889  1.00  0.00    +0.000 H 
ATOM    122  H32 UNL A   1       7.028  -0.820  23.319  1.00  0.00    +0.000 H 
BRANCH   15   13
ATOM     13  C10 UNL A   1       5.775  -2.623  24.903  1.00  0.00    +0.000 C 
ATOM     14  O2  UNL A   1       4.763  -3.129  25.378  1.00  0.00    +0.000 O 
BRANCH   13   12
ATOM    108  H18 UNL A   1       6.295  -3.660  23.271  1.00  0.00    +0.000 H 
ATOM     12  N2  UNL A   1       6.638  -3.377  24.150  1.00  0.00    +0.000 N 
BRANCH   12   11
ATOM    106  H16 UNL A   1       8.124  -4.806  24.073  1.00  0.00    +0.000 H 
ATOM     11  C9  UNL A   1       7.987  -3.819  24.463  1.00  0.00    +0.000 C 
ATOM    107  H17 UNL A   1       8.670  -3.124  24.018  1.00  0.00    +0.000 H 
BRANCH   11   10
ATOM    105  H15 UNL A   1       8.765  -4.765  26.161  1.00  0.00    +0.000 H 
ATOM     10  C8  UNL A   1       8.260  -3.842  25.964  1.00  0.00    +0.000 C 
ATOM    104  H14 UNL A   1       7.323  -3.753  26.473  1.00  0.00    +0.000 H 
BRANCH   10    9
ATOM      9  C7  UNL A   1       9.184  -2.733  26.471  1.00  0.00    +0.000 C 
ATOM    102  H12 UNL A   1       8.593  -2.045  27.039  1.00  0.00    +0.000 H 
ATOM    103  H13 UNL A   1       9.944  -3.219  27.046  1.00  0.00    +0.000 H 
BRANCH    9    8
ATOM    100  H10 UNL A   1       9.342  -2.021  24.479  1.00  0.00    +0.000 H 
ATOM    101  H11 UNL A   1      10.000  -0.943  25.750  1.00  0.00    +0.000 H 
ATOM      8  C6  UNL A   1       9.913  -1.944  25.381  1.00  0.00    +0.000 C 
BRANCH    8    7
ATOM     98  H8  UNL A   1      11.286  -3.313  24.509  1.00  0.00    +0.000 H 
ATOM     99  H9  UNL A   1      11.817  -1.607  24.552  1.00  0.00    +0.000 H 
ATOM      7  C5  UNL A   1      11.343  -2.409  25.079  1.00  0.00    +0.000 C 
BRANCH    7    6
ATOM     97  H7  UNL A   1      12.757  -3.584  26.152  1.00  0.00    +0.000 H 
ATOM      6  C4  UNL A   1      12.207  -2.682  26.319  1.00  0.00    +0.000 C 
ATOM     96  H6  UNL A   1      11.568  -2.776  27.173  1.00  0.00    +0.000 H 
BRANCH    6    5
ATOM      5  N1  UNL A   1      13.156  -1.607  26.558  1.00  0.00    +0.000 N 
ATOM     95  H5  UNL A   1      13.270  -1.276  27.479  1.00  0.00    +0.000 H 
BRANCH    5    3
ATOM      3  C3  UNL A   1      13.902  -1.031  25.554  1.00  0.00    +0.000 C 
ATOM      4  O1  UNL A   1      14.515  -1.785  24.800  1.00  0.00    +0.000 O 
BRANCH    3    2
ATOM      2  C2  UNL A   1      13.836   0.491  25.397  1.00  0.00    +0.000 C 
ATOM     94  H4  UNL A   1      14.739   0.770  24.896  1.00  0.00    +0.000 H 
BRANCH    2    1
ATOM      1  C1  UNL A   1      13.696   1.084  26.809  1.00  0.00    +0.000 C 
ATOM     91  H1  UNL A   1      13.179   2.019  26.753  1.00  0.00    +0.000 H 
ATOM     92  H2  UNL A   1      14.668   1.239  27.228  1.00  0.00    +0.000 H 
ATOM     93  H3  UNL A   1      13.144   0.409  27.427  1.00  0.00    +0.000 H 
ENDBRANCH    2    1
BRANCH    2   78
ATOM    130  H40 UNL A   1      11.965   1.820  21.290  1.00  0.00    +0.000 H 
ATOM     78  C55 UNL A   1      12.762   1.066  24.474  1.00  0.00    +0.000 C 
ATOM     79  C56 UNL A   1      11.510   1.380  25.040  1.00  0.00    +0.000 C 
ATOM     80  C57 UNL A   1      10.435   1.802  24.253  1.00  0.00    +0.000 C 
ATOM     81  C58 UNL A   1      10.569   1.923  22.867  1.00  0.00    +0.000 C 
ATOM     88  C64 UNL A   1      11.829   1.696  22.305  1.00  0.00    +0.000 C 
ATOM     89  C65 UNL A   1      12.908   1.301  23.104  1.00  0.00    +0.000 C 
ATOM     90  F16 UNL A   1      14.093   1.184  22.495  1.00  0.00    +0.000 F 
ATOM    123  H33 UNL A   1      11.382   1.296  26.061  1.00  0.00    +0.000 H 
ATOM    124  H34 UNL A   1       9.532   2.028  24.699  1.00  0.00    +0.000 H 
BRANCH   81   82
ATOM     82  C59 UNL A   1       9.382   2.284  22.001  1.00  0.00    +0.000 C 
ATOM    125  H35 UNL A   1       8.505   1.842  22.426  1.00  0.00    +0.000 H 
ATOM    126  H36 UNL A   1       9.584   1.915  21.017  1.00  0.00    +0.000 H 
BRANCH   82   83
ATOM    129  H39 UNL A   1       9.106   6.988  20.541  1.00  0.00    +0.000 H 
ATOM     83  C60 UNL A   1       9.161   3.770  21.884  1.00  0.00    +0.000 C 
ATOM     84  C61 UNL A   1       8.709   4.655  22.846  1.00  0.00    +0.000 C 
ATOM     85  C62 UNL A   1       8.644   5.997  22.372  1.00  0.00    +0.000 C 
ATOM     86  C63 UNL A   1       9.065   6.100  21.065  1.00  0.00    +0.000 C 
ATOM     87  S1  UNL A   1       9.513   4.584  20.414  1.00  0.00    +0.000 S 
ATOM    127  H37 UNL A   1       8.449   4.374  23.804  1.00  0.00    +0.000 H 
ATOM    128  H38 UNL A   1       8.320   6.795  22.940  1.00  0.00    +0.000 H 
ENDBRANCH   82   83
ENDBRANCH   81   82
ENDBRANCH    2   78
ENDBRANCH    3    2
ENDBRANCH    5    3
ENDBRANCH    6    5
ENDBRANCH    7    6
ENDBRANCH    8    7
ENDBRANCH    9    8
ENDBRANCH   10    9
ENDBRANCH   11   10
ENDBRANCH   12   11
ENDBRANCH   13   12
ENDBRANCH   15   13
ENDBRANCH   19   18
BRANCH   23   24
ATOM     33  C24 UNL A   1       4.569   7.633  22.152  1.00  0.00    +0.000 C 
ATOM     34  F5  UNL A   1       5.766   7.275  21.664  1.00  0.00    +0.000 F 
ATOM     24  C19 UNL A   1       4.337   7.618  23.535  1.00  0.00    +0.000 C 
ATOM     25  C20 UNL A   1       3.070   8.006  23.994  1.00  0.00    +0.000 C 
ATOM     26  F1  UNL A   1       2.796   7.998  25.307  1.00  0.00    +0.000 F 
ATOM     27  C21 UNL A   1       2.066   8.370  23.100  1.00  0.00    +0.000 C 
ATOM     28  F2  UNL A   1       0.849   8.694  23.558  1.00  0.00    +0.000 F 
ATOM     29  C22 UNL A   1       2.319   8.382  21.737  1.00  0.00    +0.000 C 
ATOM     30  F3  UNL A   1       1.353   8.735  20.878  1.00  0.00    +0.000 F 
ATOM     31  C23 UNL A   1       3.571   8.021  21.262  1.00  0.00    +0.000 C 
ATOM     32  F4  UNL A   1       3.820   8.043  19.946  1.00  0.00    +0.000 F 
ENDBRANCH   23   24
BRANCH   40   41
ATOM     41  C30 UNL A   1       9.317  10.851  27.622  1.00  0.00    +0.000 C 
ATOM     42  C31 UNL A   1      10.397  11.473  26.980  1.00  0.00    +0.000 C 
ATOM     43  F6  UNL A   1      11.116  10.803  26.066  1.00  0.00    +0.000 F 
ATOM     44  C32 UNL A   1      10.764  12.777  27.301  1.00  0.00    +0.000 C 
ATOM     45  F7  UNL A   1      11.825  13.339  26.704  1.00  0.00    +0.000 F 
ATOM     46  C33 UNL A   1      10.044  13.490  28.248  1.00  0.00    +0.000 C 
ATOM     47  F8  UNL A   1      10.396  14.746  28.552  1.00  0.00    +0.000 F 
ATOM     48  C34 UNL A   1       8.964  12.898  28.885  1.00  0.00    +0.000 C 
ATOM     49  F9  UNL A   1       8.260  13.590  29.793  1.00  0.00    +0.000 F 
ATOM     50  C35 UNL A   1       8.608  11.587  28.583  1.00  0.00    +0.000 C 
ATOM     51  F10 UNL A   1       7.565  11.037  29.221  1.00  0.00    +0.000 F 
ENDBRANCH   40   41
BRANCH   55   56
ATOM     65  C44 UNL A   1      11.609   4.652  30.937  1.00  0.00    +0.000 C 
ATOM     66  F15 UNL A   1      10.489   5.108  31.516  1.00  0.00    +0.000 F 
ATOM     56  C39 UNL A   1      11.707   4.600  29.540  1.00  0.00    +0.000 C 
ATOM     57  C40 UNL A   1      12.899   4.119  28.983  1.00  0.00    +0.000 C 
ATOM     58  F11 UNL A   1      13.029   4.032  27.651  1.00  0.00    +0.000 F 
ATOM     59  C41 UNL A   1      13.950   3.692  29.793  1.00  0.00    +0.000 C 
ATOM     60  F12 UNL A   1      15.066   3.203  29.236  1.00  0.00    +0.000 F 
ATOM     61  C42 UNL A   1      13.836   3.761  31.173  1.00  0.00    +0.000 C 
ATOM     62  F13 UNL A   1      14.847   3.354  31.952  1.00  0.00    +0.000 F 
ATOM     63  C43 UNL A   1      12.669   4.246  31.746  1.00  0.00    +0.000 C 
ATOM     64  F14 UNL A   1      12.560   4.324  33.079  1.00  0.00    +0.000 F 
ENDBRANCH   55   56
TORSDOF 19
ENDMDL
MODEL 3
REMARK VINA RESULT:      -8.7     45.883     50.832
ROOT
ATOM     19  C15 UNL A   1      53.457  19.595  11.545  1.00  0.00    +0.000 C 
ATOM     20  C16 UNL A   1      54.807  18.949  11.419  1.00  0.00    +0.000 C 
ATOM     21  N3  UNL A   1      55.795  18.920  12.279  1.00  0.00    +0.000 N 
ATOM     22  C17 UNL A   1      56.789  18.153  11.685  1.00  0.00    +0.000 C 
ATOM     23  C18 UNL A   1      58.027  17.868  12.153  1.00  0.00    +0.000 C 
ATOM     35  C25 UNL A   1      58.554  18.345  13.404  1.00  0.00    +0.000 C 
ATOM     36  C26 UNL A   1      59.819  18.164  13.933  1.00  0.00    +0.000 C 
ATOM     37  C27 UNL A   1      59.862  18.784  15.188  1.00  0.00    +0.000 C 
ATOM     38  C28 UNL A   1      58.635  19.381  15.422  1.00  0.00    +0.000 C 
ATOM     39  N4  UNL A   1      57.840  19.101  14.322  1.00  0.00    +0.000 N 
ATOM     40  C29 UNL A   1      58.214  20.150  16.564  1.00  0.00    +0.000 C 
ATOM     52  C36 UNL A   1      56.992  20.717  16.714  1.00  0.00    +0.000 C 
ATOM     53  N5  UNL A   1      55.910  20.696  15.847  1.00  0.00    +0.000 N 
ATOM     54  C37 UNL A   1      54.959  21.374  16.440  1.00  0.00    +0.000 C 
ATOM     55  C38 UNL A   1      53.574  21.693  15.951  1.00  0.00    +0.000 C 
ATOM     67  C45 UNL A   1      53.192  21.276  14.729  1.00  0.00    +0.000 C 
ATOM     68  C46 UNL A   1      51.887  21.515  14.121  1.00  0.00    +0.000 C 
ATOM     69  C47 UNL A   1      51.848  20.921  12.917  1.00  0.00    +0.000 C 
ATOM     70  C48 UNL A   1      53.140  20.286  12.656  1.00  0.00    +0.000 C 
ATOM     71  N6  UNL A   1      53.877  20.554  13.782  1.00  0.00    +0.000 N 
ATOM     72  C49 UNL A   1      55.325  21.882  17.771  1.00  0.00    +0.000 C 
ATOM     73  C50 UNL A   1      56.585  21.484  17.874  1.00  0.00    +0.000 C 
ATOM     74  C51 UNL A   1      56.271  17.701  10.411  1.00  0.00    +0.000 C 
ATOM     75  C52 UNL A   1      55.074  18.216  10.171  1.00  0.00    +0.000 C 
ATOM    111  H21 UNL A   1      60.598  17.660  13.482  1.00  0.00    +0.000 H 
ATOM    112  H22 UNL A   1      60.671  18.795  15.828  1.00  0.00    +0.000 H 
ATOM    113  H23 UNL A   1      56.908  19.396  14.208  1.00  0.00    +0.000 H 
ATOM    114  H24 UNL A   1      51.117  22.054  14.547  1.00  0.00    +0.000 H 
ATOM    115  H25 UNL A   1      51.038  20.915  12.279  1.00  0.00    +0.000 H 
ATOM    116  H26 UNL A   1      54.809  20.258  13.900  1.00  0.00    +0.000 H 
ATOM    117  H27 UNL A   1      54.751  22.412  18.446  1.00  0.00    +0.000 H 
ATOM    118  H28 UNL A   1      57.197  21.693  18.678  1.00  0.00    +0.000 H 
ATOM    119  H29 UNL A   1      56.770  17.063   9.772  1.00  0.00    +0.000 H 
ATOM    120  H30 UNL A   1      54.483  18.127   9.330  1.00  0.00    +0.000 H 
ENDROOT
BRANCH   19   18
ATOM     76  C53 UNL A   1      51.665  18.249  10.447  1.00  0.00    +0.000 C 
ATOM    109  H19 UNL A   1      51.089  20.971   7.819  1.00  0.00    +0.000 H 
ATOM     77  C54 UNL A   1      50.708  18.064   9.452  1.00  0.00    +0.000 C 
ATOM     15  C11 UNL A   1      50.457  19.084   8.528  1.00  0.00    +0.000 C 
ATOM     16  C12 UNL A   1      51.245  20.239   8.529  1.00  0.00    +0.000 C 
ATOM     17  C13 UNL A   1      52.243  20.398   9.492  1.00  0.00    +0.000 C 
ATOM    110  H20 UNL A   1      52.838  21.241   9.480  1.00  0.00    +0.000 H 
ATOM     18  C14 UNL A   1      52.441  19.417  10.477  1.00  0.00    +0.000 C 
ATOM    121  H31 UNL A   1      51.803  17.522  11.167  1.00  0.00    +0.000 H 
ATOM    122  H32 UNL A   1      50.184  17.176   9.395  1.00  0.00    +0.000 H 
BRANCH   15   13
ATOM     13  C10 UNL A   1      49.377  18.958   7.524  1.00  0.00    +0.000 C 
ATOM     14  O2  UNL A   1      49.445  18.080   6.669  1.00  0.00    +0.000 O 
BRANCH   13   12
ATOM    108  H18 UNL A   1      47.602  19.612   8.180  1.00  0.00    +0.000 H 
ATOM     12  N2  UNL A   1      48.318  19.830   7.540  1.00  0.00    +0.000 N 
BRANCH   12   11
ATOM    106  H16 UNL A   1      47.279  21.572   7.164  1.00  0.00    +0.000 H 
ATOM     11  C9  UNL A   1      48.100  21.028   6.746  1.00  0.00    +0.000 C 
ATOM    107  H17 UNL A   1      49.003  21.602   6.768  1.00  0.00    +0.000 H 
BRANCH   11   10
ATOM    105  H15 UNL A   1      48.629  20.171   4.909  1.00  0.00    +0.000 H 
ATOM     10  C8  UNL A   1      47.785  20.711   5.287  1.00  0.00    +0.000 C 
ATOM    104  H14 UNL A   1      47.608  21.634   4.777  1.00  0.00    +0.000 H 
BRANCH   10    9
ATOM      9  C7  UNL A   1      46.569  19.808   5.069  1.00  0.00    +0.000 C 
ATOM    102  H12 UNL A   1      46.911  18.892   4.633  1.00  0.00    +0.000 H 
ATOM    103  H13 UNL A   1      46.117  19.681   6.031  1.00  0.00    +0.000 H 
BRANCH    9    8
ATOM    100  H10 UNL A   1      44.569  20.425   4.720  1.00  0.00    +0.000 H 
ATOM    101  H11 UNL A   1      45.836  21.348   3.853  1.00  0.00    +0.000 H 
ATOM      8  C6  UNL A   1      45.481  20.387   4.162  1.00  0.00    +0.000 C 
BRANCH    8    7
ATOM     98  H8  UNL A   1      46.148  19.222   2.513  1.00  0.00    +0.000 H 
ATOM     99  H9  UNL A   1      44.516  18.831   3.126  1.00  0.00    +0.000 H 
ATOM      7  C5  UNL A   1      45.214  19.601   2.871  1.00  0.00    +0.000 C 
BRANCH    7    6
ATOM     97  H7  UNL A   1      44.601  19.834   0.847  1.00  0.00    +0.000 H 
ATOM      6  C4  UNL A   1      44.566  20.417   1.743  1.00  0.00    +0.000 C 
ATOM     96  H6  UNL A   1      45.106  21.333   1.624  1.00  0.00    +0.000 H 
BRANCH    6    5
ATOM      5  N1  UNL A   1      43.175  20.723   2.034  1.00  0.00    +0.000 N 
ATOM     95  H5  UNL A   1      42.922  21.663   2.183  1.00  0.00    +0.000 H 
BRANCH    5    3
ATOM      3  C3  UNL A   1      42.197  19.757   2.110  1.00  0.00    +0.000 C 
ATOM      4  O1  UNL A   1      41.948  19.290   3.220  1.00  0.00    +0.000 O 
BRANCH    3    2
ATOM      2  C2  UNL A   1      41.436  19.406   0.829  1.00  0.00    +0.000 C 
ATOM     94  H4  UNL A   1      40.903  18.504   1.046  1.00  0.00    +0.000 H 
BRANCH    2    1
ATOM      1  C1  UNL A   1      42.480  19.260  -0.291  1.00  0.00    +0.000 C 
ATOM     91  H1  UNL A   1      43.286  18.645   0.051  1.00  0.00    +0.000 H 
ATOM     92  H2  UNL A   1      42.856  20.226  -0.555  1.00  0.00    +0.000 H 
ATOM     93  H3  UNL A   1      42.026  18.808  -1.147  1.00  0.00    +0.000 H 
ENDBRANCH    2    1
BRANCH    2   78
ATOM    130  H40 UNL A   1      37.260  21.551   1.130  1.00  0.00    +0.000 H 
ATOM     78  C55 UNL A   1      40.316  20.346   0.386  1.00  0.00    +0.000 C 
ATOM     79  C56 UNL A   1      40.552  21.168  -0.735  1.00  0.00    +0.000 C 
ATOM     80  C57 UNL A   1      39.631  22.137  -1.141  1.00  0.00    +0.000 C 
ATOM     81  C58 UNL A   1      38.437  22.325  -0.439  1.00  0.00    +0.000 C 
ATOM     88  C64 UNL A   1      38.154  21.460   0.622  1.00  0.00    +0.000 C 
ATOM     89  C65 UNL A   1      39.068  20.473   1.005  1.00  0.00    +0.000 C 
ATOM     90  F16 UNL A   1      38.680  19.641   1.977  1.00  0.00    +0.000 F 
ATOM    123  H33 UNL A   1      41.428  21.052  -1.269  1.00  0.00    +0.000 H 
ATOM    124  H34 UNL A   1      39.833  22.719  -1.969  1.00  0.00    +0.000 H 
BRANCH   81   82
ATOM     82  C59 UNL A   1      37.483  23.438  -0.815  1.00  0.00    +0.000 C 
ATOM    125  H35 UNL A   1      38.045  24.228  -1.267  1.00  0.00    +0.000 H 
ATOM    126  H36 UNL A   1      36.994  23.753   0.083  1.00  0.00    +0.000 H 
BRANCH   82   83
ATOM    129  H39 UNL A   1      33.286  22.064  -3.012  1.00  0.00    +0.000 H 
ATOM     83  C60 UNL A   1      36.409  23.001  -1.778  1.00  0.00    +0.000 C 
ATOM     84  C61 UNL A   1      36.532  22.665  -3.115  1.00  0.00    +0.000 C 
ATOM     85  C62 UNL A   1      35.292  22.281  -3.701  1.00  0.00    +0.000 C 
ATOM     86  C63 UNL A   1      34.261  22.318  -2.790  1.00  0.00    +0.000 C 
ATOM     87  S1  UNL A   1      34.786  22.834  -1.247  1.00  0.00    +0.000 S 
ATOM    127  H37 UNL A   1      37.425  22.690  -3.630  1.00  0.00    +0.000 H 
ATOM    128  H38 UNL A   1      35.180  22.008  -4.690  1.00  0.00    +0.000 H 
ENDBRANCH   82   83
ENDBRANCH   81   82
ENDBRANCH    2   78
ENDBRANCH    3    2
ENDBRANCH    5    3
ENDBRANCH    6    5
ENDBRANCH    7    6
ENDBRANCH    8    7
ENDBRANCH    9    8
ENDBRANCH   10    9
ENDBRANCH   11   10
ENDBRANCH   12   11
ENDBRANCH   13   12
ENDBRANCH   15   13
ENDBRANCH   19   18
BRANCH   23   24
ATOM     33  C24 UNL A   1      59.688  17.558  10.282  1.00  0.00    +0.000 C 
ATOM     34  F5  UNL A   1      59.682  18.883  10.076  1.00  0.00    +0.000 F 
ATOM     24  C19 UNL A   1      58.904  16.997  11.301  1.00  0.00    +0.000 C 
ATOM     25  C20 UNL A   1      58.942  15.606  11.471  1.00  0.00    +0.000 C 
ATOM     26  F1  UNL A   1      58.219  15.024  12.439  1.00  0.00    +0.000 F 
ATOM     27  C21 UNL A   1      59.754  14.809  10.668  1.00  0.00    +0.000 C 
ATOM     28  F2  UNL A   1      59.809  13.487  10.878  1.00  0.00    +0.000 F 
ATOM     29  C22 UNL A   1      60.517  15.384   9.663  1.00  0.00    +0.000 C 
ATOM     30  F3  UNL A   1      61.296  14.615   8.889  1.00  0.00    +0.000 F 
ATOM     31  C23 UNL A   1      60.480  16.756   9.464  1.00  0.00    +0.000 C 
ATOM     32  F4  UNL A   1      61.209  17.310   8.487  1.00  0.00    +0.000 F 
ENDBRANCH   23   24
BRANCH   40   41
ATOM     41  C30 UNL A   1      59.206  20.359  17.669  1.00  0.00    +0.000 C 
ATOM     42  C31 UNL A   1      59.456  19.366  18.626  1.00  0.00    +0.000 C 
ATOM     43  F6  UNL A   1      58.766  18.216  18.602  1.00  0.00    +0.000 F 
ATOM     44  C32 UNL A   1      60.394  19.566  19.635  1.00  0.00    +0.000 C 
ATOM     45  F7  UNL A   1      60.590  18.619  20.564  1.00  0.00    +0.000 F 
ATOM     46  C33 UNL A   1      61.116  20.749  19.689  1.00  0.00    +0.000 C 
ATOM     47  F8  UNL A   1      62.023  20.938  20.658  1.00  0.00    +0.000 F 
ATOM     48  C34 UNL A   1      60.895  21.739  18.744  1.00  0.00    +0.000 C 
ATOM     49  F9  UNL A   1      61.599  22.879  18.790  1.00  0.00    +0.000 F 
ATOM     50  C35 UNL A   1      59.941  21.552  17.748  1.00  0.00    +0.000 C 
ATOM     51  F10 UNL A   1      59.740  22.530  16.853  1.00  0.00    +0.000 F 
ENDBRANCH   40   41
BRANCH   55   56
ATOM     65  C44 UNL A   1      52.489  23.867  16.609  1.00  0.00    +0.000 C 
ATOM     66  F15 UNL A   1      53.203  24.504  15.670  1.00  0.00    +0.000 F 
ATOM     56  C39 UNL A   1      52.635  22.484  16.786  1.00  0.00    +0.000 C 
ATOM     57  C40 UNL A   1      51.869  21.866  17.783  1.00  0.00    +0.000 C 
ATOM     58  F11 UNL A   1      51.962  20.541  17.973  1.00  0.00    +0.000 F 
ATOM     59  C41 UNL A   1      50.979  22.599  18.565  1.00  0.00    +0.000 C 
ATOM     60  F12 UNL A   1      50.233  21.977  19.487  1.00  0.00    +0.000 F 
ATOM     61  C42 UNL A   1      50.857  23.968  18.379  1.00  0.00    +0.000 C 
ATOM     62  F13 UNL A   1      50.004  24.674  19.134  1.00  0.00    +0.000 F 
ATOM     63  C43 UNL A   1      51.615  24.603  17.406  1.00  0.00    +0.000 C 
ATOM     64  F14 UNL A   1      51.506  25.927  17.233  1.00  0.00    +0.000 F 
ENDBRANCH   55   56
TORSDOF 19
ENDMDL
MODEL 4
REMARK VINA RESULT:      -8.7     39.941     45.471
ROOT
ATOM     19  C15 UNL A   1      42.731  28.499  33.808  1.00  0.00    +0.000 C 
ATOM     20  C16 UNL A   1      41.751  29.413  34.485  1.00  0.00    +0.000 C 
ATOM     21  N3  UNL A   1      40.683  29.992  33.995  1.00  0.00    +0.000 N 
ATOM     22  C17 UNL A   1      40.112  30.689  35.052  1.00  0.00    +0.000 C 
ATOM     23  C18 UNL A   1      39.019  31.487  35.045  1.00  0.00    +0.000 C 
ATOM     35  C25 UNL A   1      38.229  31.773  33.877  1.00  0.00    +0.000 C 
ATOM     36  C26 UNL A   1      37.143  32.622  33.755  1.00  0.00    +0.000 C 
ATOM     37  C27 UNL A   1      36.679  32.554  32.436  1.00  0.00    +0.000 C 
ATOM     38  C28 UNL A   1      37.499  31.691  31.729  1.00  0.00    +0.000 C 
ATOM     39  N4  UNL A   1      38.443  31.216  32.625  1.00  0.00    +0.000 N 
ATOM     40  C29 UNL A   1      37.429  31.324  30.338  1.00  0.00    +0.000 C 
ATOM     52  C36 UNL A   1      38.282  30.477  29.713  1.00  0.00    +0.000 C 
ATOM     53  N5  UNL A   1      39.374  29.799  30.234  1.00  0.00    +0.000 N 
ATOM     54  C37 UNL A   1      39.871  29.101  29.243  1.00  0.00    +0.000 C 
ATOM     55  C38 UNL A   1      41.072  28.197  29.227  1.00  0.00    +0.000 C 
ATOM     67  C45 UNL A   1      41.806  28.053  30.347  1.00  0.00    +0.000 C 
ATOM     68  C46 UNL A   1      42.996  27.218  30.479  1.00  0.00    +0.000 C 
ATOM     69  C47 UNL A   1      43.440  27.286  31.745  1.00  0.00    +0.000 C 
ATOM     70  C48 UNL A   1      42.582  28.196  32.505  1.00  0.00    +0.000 C 
ATOM     71  N6  UNL A   1      41.644  28.609  31.592  1.00  0.00    +0.000 N 
ATOM     72  C49 UNL A   1      39.130  29.239  27.980  1.00  0.00    +0.000 C 
ATOM     73  C50 UNL A   1      38.193  30.116  28.312  1.00  0.00    +0.000 C 
ATOM     74  C51 UNL A   1      40.928  30.428  36.220  1.00  0.00    +0.000 C 
ATOM     75  C52 UNL A   1      41.987  29.695  35.910  1.00  0.00    +0.000 C 
ATOM    111  H21 UNL A   1      36.743  33.205  34.507  1.00  0.00    +0.000 H 
ATOM    112  H22 UNL A   1      35.865  33.061  32.056  1.00  0.00    +0.000 H 
ATOM    113  H23 UNL A   1      39.160  30.579  32.405  1.00  0.00    +0.000 H 
ATOM    114  H24 UNL A   1      43.427  26.665  29.723  1.00  0.00    +0.000 H 
ATOM    115  H25 UNL A   1      44.256  26.778  32.120  1.00  0.00    +0.000 H 
ATOM    116  H26 UNL A   1      40.923  29.244  31.810  1.00  0.00    +0.000 H 
ATOM    117  H27 UNL A   1      39.297  28.777  27.073  1.00  0.00    +0.000 H 
ATOM    118  H28 UNL A   1      37.489  30.492  27.658  1.00  0.00    +0.000 H 
ATOM    119  H29 UNL A   1      40.713  30.770  37.169  1.00  0.00    +0.000 H 
ATOM    120  H30 UNL A   1      42.774  29.400  36.510  1.00  0.00    +0.000 H 
ENDROOT
BRANCH   19   18
ATOM     76  C53 UNL A   1      43.622  26.613  35.180  1.00  0.00    +0.000 C 
ATOM    109  H19 UNL A   1      47.020  28.340  35.529  1.00  0.00    +0.000 H 
ATOM     77  C54 UNL A   1      44.638  26.008  35.916  1.00  0.00    +0.000 C 
ATOM     15  C11 UNL A   1      45.897  26.611  35.993  1.00  0.00    +0.000 C 
ATOM     16  C12 UNL A   1      46.103  27.875  35.433  1.00  0.00    +0.000 C 
ATOM     17  C13 UNL A   1      45.067  28.508  34.744  1.00  0.00    +0.000 C 
ATOM    110  H20 UNL A   1      45.212  29.450  34.349  1.00  0.00    +0.000 H 
ATOM     18  C14 UNL A   1      43.826  27.869  34.588  1.00  0.00    +0.000 C 
ATOM    121  H31 UNL A   1      42.714  26.136  35.070  1.00  0.00    +0.000 H 
ATOM    122  H32 UNL A   1      44.462  25.115  36.404  1.00  0.00    +0.000 H 
BRANCH   15   13
ATOM     13  C10 UNL A   1      47.024  25.944  36.681  1.00  0.00    +0.000 C 
ATOM     14  O2  UNL A   1      47.152  26.067  37.895  1.00  0.00    +0.000 O 
BRANCH   13   12
ATOM    108  H18 UNL A   1      48.855  25.229  36.299  1.00  0.00    +0.000 H 
ATOM     12  N2  UNL A   1      47.930  25.207  35.961  1.00  0.00    +0.000 N 
BRANCH   12   11
ATOM    106  H16 UNL A   1      48.293  23.500  34.861  1.00  0.00    +0.000 H 
ATOM     11  C9  UNL A   1      47.722  24.400  34.770  1.00  0.00    +0.000 C 
ATOM    107  H17 UNL A   1      46.674  24.194  34.696  1.00  0.00    +0.000 H 
BRANCH   11   10
ATOM    105  H15 UNL A   1      48.702  24.411  32.919  1.00  0.00    +0.000 H 
ATOM     10  C8  UNL A   1      48.146  25.122  33.494  1.00  0.00    +0.000 C 
ATOM    104  H14 UNL A   1      48.717  25.982  33.774  1.00  0.00    +0.000 H 
BRANCH   10    9
ATOM      9  C7  UNL A   1      46.994  25.587  32.601  1.00  0.00    +0.000 C 
ATOM    102  H12 UNL A   1      46.860  24.858  31.829  1.00  0.00    +0.000 H 
ATOM    103  H13 UNL A   1      46.144  25.692  33.242  1.00  0.00    +0.000 H 
BRANCH    9    8
ATOM    100  H10 UNL A   1      46.486  27.633  32.357  1.00  0.00    +0.000 H 
ATOM    101  H11 UNL A   1      48.214  27.221  32.120  1.00  0.00    +0.000 H 
ATOM      8  C6  UNL A   1      47.195  26.951  31.936  1.00  0.00    +0.000 C 
BRANCH    8    7
ATOM     98  H8  UNL A   1      46.309  26.217  30.147  1.00  0.00    +0.000 H 
ATOM     99  H9  UNL A   1      46.707  27.960  30.155  1.00  0.00    +0.000 H 
ATOM      7  C5  UNL A   1      47.022  26.970  30.411  1.00  0.00    +0.000 C 
BRANCH    7    6
ATOM     97  H7  UNL A   1      48.397  25.652  29.461  1.00  0.00    +0.000 H 
ATOM      6  C4  UNL A   1      48.309  26.707  29.614  1.00  0.00    +0.000 C 
ATOM     96  H6  UNL A   1      49.144  27.083  30.170  1.00  0.00    +0.000 H 
BRANCH    6    5
ATOM      5  N1  UNL A   1      48.277  27.356  28.314  1.00  0.00    +0.000 N 
ATOM     95  H5  UNL A   1      48.847  28.145  28.168  1.00  0.00    +0.000 H 
BRANCH    5    3
ATOM      3  C3  UNL A   1      47.483  26.915  27.278  1.00  0.00    +0.000 C 
ATOM      4  O1  UNL A   1      46.626  27.687  26.853  1.00  0.00    +0.000 O 
BRANCH    3    2
ATOM      2  C2  UNL A   1      47.790  25.540  26.678  1.00  0.00    +0.000 C 
ATOM     94  H4  UNL A   1      48.363  25.022  27.418  1.00  0.00    +0.000 H 
BRANCH    2    1
ATOM      1  C1  UNL A   1      48.546  25.782  25.360  1.00  0.00    +0.000 C 
ATOM     91  H1  UNL A   1      49.566  25.478  25.473  1.00  0.00    +0.000 H 
ATOM     92  H2  UNL A   1      48.509  26.822  25.114  1.00  0.00    +0.000 H 
ATOM     93  H3  UNL A   1      48.089  25.214  24.577  1.00  0.00    +0.000 H 
ENDBRANCH    2    1
BRANCH    2   78
ATOM    130  H40 UNL A   1      44.073  22.930  27.901  1.00  0.00    +0.000 H 
ATOM     78  C55 UNL A   1      46.619  24.586  26.447  1.00  0.00    +0.000 C 
ATOM     79  C56 UNL A   1      46.314  24.231  25.118  1.00  0.00    +0.000 C 
ATOM     80  C57 UNL A   1      45.193  23.457  24.805  1.00  0.00    +0.000 C 
ATOM     81  C58 UNL A   1      44.331  23.011  25.810  1.00  0.00    +0.000 C 
ATOM     88  C64 UNL A   1      44.670  23.285  27.138  1.00  0.00    +0.000 C 
ATOM     89  C65 UNL A   1      45.809  24.036  27.446  1.00  0.00    +0.000 C 
ATOM     90  F16 UNL A   1      46.100  24.182  28.743  1.00  0.00    +0.000 F 
ATOM    123  H33 UNL A   1      46.932  24.550  24.356  1.00  0.00    +0.000 H 
ATOM    124  H34 UNL A   1      45.000  23.211  23.821  1.00  0.00    +0.000 H 
BRANCH   81   82
ATOM     82  C59 UNL A   1      43.064  22.257  25.468  1.00  0.00    +0.000 C 
ATOM    125  H35 UNL A   1      42.805  22.472  24.452  1.00  0.00    +0.000 H 
ATOM    126  H36 UNL A   1      42.309  22.579  26.153  1.00  0.00    +0.000 H 
BRANCH   82   83
ATOM    129  H39 UNL A   1      42.537  17.491  26.624  1.00  0.00    +0.000 H 
ATOM     83  C60 UNL A   1      43.200  20.764  25.622  1.00  0.00    +0.000 C 
ATOM     84  C61 UNL A   1      44.205  19.935  25.157  1.00  0.00    +0.000 C 
ATOM     85  C62 UNL A   1      44.002  18.571  25.513  1.00  0.00    +0.000 C 
ATOM     86  C63 UNL A   1      42.856  18.401  26.257  1.00  0.00    +0.000 C 
ATOM     87  S1  UNL A   1      42.024  19.875  26.500  1.00  0.00    +0.000 S 
ATOM    127  H37 UNL A   1      45.014  20.269  24.610  1.00  0.00    +0.000 H 
ATOM    128  H38 UNL A   1      44.637  17.803  25.247  1.00  0.00    +0.000 H 
ENDBRANCH   82   83
ENDBRANCH   81   82
ENDBRANCH    2   78
ENDBRANCH    3    2
ENDBRANCH    5    3
ENDBRANCH    6    5
ENDBRANCH    7    6
ENDBRANCH    8    7
ENDBRANCH    9    8
ENDBRANCH   10    9
ENDBRANCH   11   10
ENDBRANCH   12   11
ENDBRANCH   13   12
ENDBRANCH   15   13
ENDBRANCH   19   18
BRANCH   23   24
ATOM     33  C24 UNL A   1      38.991  33.432  36.648  1.00  0.00    +0.000 C 
ATOM     34  F5  UNL A   1      39.697  34.153  35.765  1.00  0.00    +0.000 F 
ATOM     24  C19 UNL A   1      38.614  32.115  36.346  1.00  0.00    +0.000 C 
ATOM     25  C20 UNL A   1      37.881  31.404  37.306  1.00  0.00    +0.000 C 
ATOM     26  F1  UNL A   1      37.487  30.146  37.059  1.00  0.00    +0.000 F 
ATOM     27  C21 UNL A   1      37.518  31.996  38.513  1.00  0.00    +0.000 C 
ATOM     28  F2  UNL A   1      36.780  31.312  39.398  1.00  0.00    +0.000 F 
ATOM     29  C22 UNL A   1      37.906  33.297  38.794  1.00  0.00    +0.000 C 
ATOM     30  F3  UNL A   1      37.559  33.865  39.957  1.00  0.00    +0.000 F 
ATOM     31  C23 UNL A   1      38.648  34.014  37.867  1.00  0.00    +0.000 C 
ATOM     32  F4  UNL A   1      39.033  35.267  38.141  1.00  0.00    +0.000 F 
ENDBRANCH   23   24
BRANCH   40   41
ATOM     41  C30 UNL A   1      36.340  31.936  29.509  1.00  0.00    +0.000 C 
ATOM     42  C31 UNL A   1      35.261  31.174  29.040  1.00  0.00    +0.000 C 
ATOM     43  F6  UNL A   1      35.209  29.856  29.284  1.00  0.00    +0.000 F 
ATOM     44  C32 UNL A   1      34.247  31.760  28.287  1.00  0.00    +0.000 C 
ATOM     45  F7  UNL A   1      33.244  31.005  27.815  1.00  0.00    +0.000 F 
ATOM     46  C33 UNL A   1      34.279  33.119  28.013  1.00  0.00    +0.000 C 
ATOM     47  F8  UNL A   1      33.300  33.681  27.292  1.00  0.00    +0.000 F 
ATOM     48  C34 UNL A   1      35.331  33.893  28.479  1.00  0.00    +0.000 C 
ATOM     49  F9  UNL A   1      35.359  35.209  28.223  1.00  0.00    +0.000 F 
ATOM     50  C35 UNL A   1      36.358  33.307  29.212  1.00  0.00    +0.000 C 
ATOM     51  F10 UNL A   1      37.368  34.078  29.642  1.00  0.00    +0.000 F 
ENDBRANCH   40   41
BRANCH   55   56
ATOM     65  C44 UNL A   1      42.437  28.022  27.118  1.00  0.00    +0.000 C 
ATOM     66  F15 UNL A   1      43.017  29.197  27.400  1.00  0.00    +0.000 F 
ATOM     56  C39 UNL A   1      41.475  27.487  27.986  1.00  0.00    +0.000 C 
ATOM     57  C40 UNL A   1      40.895  26.258  27.646  1.00  0.00    +0.000 C 
ATOM     58  F11 UNL A   1      39.985  25.700  28.458  1.00  0.00    +0.000 F 
ATOM     59  C41 UNL A   1      41.273  25.581  26.489  1.00  0.00    +0.000 C 
ATOM     60  F12 UNL A   1      40.730  24.389  26.205  1.00  0.00    +0.000 F 
ATOM     61  C42 UNL A   1      42.221  26.132  25.639  1.00  0.00    +0.000 C 
ATOM     62  F13 UNL A   1      42.582  25.482  24.524  1.00  0.00    +0.000 F 
ATOM     63  C43 UNL A   1      42.798  27.354  25.950  1.00  0.00    +0.000 C 
ATOM     64  F14 UNL A   1      43.705  27.894  25.126  1.00  0.00    +0.000 F 
ENDBRANCH   55   56
TORSDOF 19
ENDMDL
MODEL 5
REMARK VINA RESULT:      -8.6     34.125     37.783
ROOT
ATOM     19  C15 UNL A   1      46.368  50.817  18.163  1.00  0.00    +0.000 C 
ATOM     20  C16 UNL A   1      46.633  52.110  17.445  1.00  0.00    +0.000 C 
ATOM     21  N3  UNL A   1      47.649  52.928  17.561  1.00  0.00    +0.000 N 
ATOM     22  C17 UNL A   1      47.423  53.942  16.639  1.00  0.00    +0.000 C 
ATOM     23  C18 UNL A   1      48.162  55.053  16.408  1.00  0.00    +0.000 C 
ATOM     35  C25 UNL A   1      49.363  55.394  17.124  1.00  0.00    +0.000 C 
ATOM     36  C26 UNL A   1      50.145  56.530  17.007  1.00  0.00    +0.000 C 
ATOM     37  C27 UNL A   1      51.229  56.407  17.884  1.00  0.00    +0.000 C 
ATOM     38  C28 UNL A   1      51.102  55.212  18.572  1.00  0.00    +0.000 C 
ATOM     39  N4  UNL A   1      49.955  54.599  18.094  1.00  0.00    +0.000 N 
ATOM     40  C29 UNL A   1      51.961  54.666  19.590  1.00  0.00    +0.000 C 
ATOM     52  C36 UNL A   1      51.760  53.489  20.229  1.00  0.00    +0.000 C 
ATOM     53  N5  UNL A   1      50.729  52.574  20.068  1.00  0.00    +0.000 N 
ATOM     54  C37 UNL A   1      50.982  51.595  20.901  1.00  0.00    +0.000 C 
ATOM     55  C38 UNL A   1      50.188  50.346  21.166  1.00  0.00    +0.000 C 
ATOM     67  C45 UNL A   1      49.029  50.148  20.510  1.00  0.00    +0.000 C 
ATOM     68  C46 UNL A   1      48.152  48.992  20.668  1.00  0.00    +0.000 C 
ATOM     69  C47 UNL A   1      47.112  49.112  19.827  1.00  0.00    +0.000 C 
ATOM     70  C48 UNL A   1      47.234  50.372  19.093  1.00  0.00    +0.000 C 
ATOM     71  N6  UNL A   1      48.397  50.924  19.569  1.00  0.00    +0.000 N 
ATOM     72  C49 UNL A   1      52.222  51.768  21.671  1.00  0.00    +0.000 C 
ATOM     73  C50 UNL A   1      52.639  52.953  21.249  1.00  0.00    +0.000 C 
ATOM     74  C51 UNL A   1      46.196  53.616  15.943  1.00  0.00    +0.000 C 
ATOM     75  C52 UNL A   1      45.636  52.525  16.446  1.00  0.00    +0.000 C 
ATOM    111  H21 UNL A   1      49.960  57.329  16.382  1.00  0.00    +0.000 H 
ATOM    112  H22 UNL A   1      51.992  57.091  17.999  1.00  0.00    +0.000 H 
ATOM    113  H23 UNL A   1      49.611  53.728  18.397  1.00  0.00    +0.000 H 
ATOM    114  H24 UNL A   1      48.307  48.208  21.321  1.00  0.00    +0.000 H 
ATOM    115  H25 UNL A   1      46.349  48.426  19.717  1.00  0.00    +0.000 H 
ATOM    116  H26 UNL A   1      48.745  51.793  19.264  1.00  0.00    +0.000 H 
ATOM    117  H27 UNL A   1      52.654  51.132  22.361  1.00  0.00    +0.000 H 
ATOM    118  H28 UNL A   1      53.482  53.433  21.601  1.00  0.00    +0.000 H 
ATOM    119  H29 UNL A   1      45.808  54.162  15.159  1.00  0.00    +0.000 H 
ATOM    120  H30 UNL A   1      44.736  52.083  16.201  1.00  0.00    +0.000 H 
ENDROOT
BRANCH   19   18
ATOM     76  C53 UNL A   1      45.338  48.934  16.888  1.00  0.00    +0.000 C 
ATOM    109  H19 UNL A   1      41.919  49.598  18.473  1.00  0.00    +0.000 H 
ATOM     77  C54 UNL A   1      44.244  48.148  16.535  1.00  0.00    +0.000 C 
ATOM     15  C11 UNL A   1      43.009  48.353  17.159  1.00  0.00    +0.000 C 
ATOM     16  C12 UNL A   1      42.842  49.420  18.047  1.00  0.00    +0.000 C 
ATOM     17  C13 UNL A   1      43.925  50.244  18.356  1.00  0.00    +0.000 C 
ATOM    110  H20 UNL A   1      43.797  51.043  18.995  1.00  0.00    +0.000 H 
ATOM     18  C14 UNL A   1      45.190  49.989  17.801  1.00  0.00    +0.000 C 
ATOM    121  H31 UNL A   1      46.264  48.739  16.475  1.00  0.00    +0.000 H 
ATOM    122  H32 UNL A   1      44.343  47.416  15.815  1.00  0.00    +0.000 H 
BRANCH   15   13
ATOM     13  C10 UNL A   1      41.856  47.469  16.881  1.00  0.00    +0.000 C 
ATOM     14  O2  UNL A   1      40.733  47.805  17.245  1.00  0.00    +0.000 O 
BRANCH   13   12
ATOM    108  H18 UNL A   1      42.237  46.338  15.273  1.00  0.00    +0.000 H 
ATOM     12  N2  UNL A   1      42.045  46.273  16.237  1.00  0.00    +0.000 N 
BRANCH   12   11
ATOM    106  H16 UNL A   1      41.172  44.406  16.334  1.00  0.00    +0.000 H 
ATOM     11  C9  UNL A   1      42.000  44.922  16.773  1.00  0.00    +0.000 C 
ATOM    107  H17 UNL A   1      42.929  44.446  16.535  1.00  0.00    +0.000 H 
BRANCH   11   10
ATOM    105  H15 UNL A   1      40.832  45.199  18.489  1.00  0.00    +0.000 H 
ATOM     10  C8  UNL A   1      41.841  44.902  18.291  1.00  0.00    +0.000 C 
ATOM    104  H14 UNL A   1      42.570  45.564  18.710  1.00  0.00    +0.000 H 
BRANCH   10    9
ATOM      9  C7  UNL A   1      42.018  43.528  18.941  1.00  0.00    +0.000 C 
ATOM    102  H12 UNL A   1      41.405  42.829  18.409  1.00  0.00    +0.000 H 
ATOM    103  H13 UNL A   1      43.063  43.306  18.889  1.00  0.00    +0.000 H 
BRANCH    9    8
ATOM    100  H10 UNL A   1      41.770  44.430  20.845  1.00  0.00    +0.000 H 
ATOM    101  H11 UNL A   1      40.631  43.103  20.453  1.00  0.00    +0.000 H 
ATOM      8  C6  UNL A   1      41.641  43.455  20.423  1.00  0.00    +0.000 C 
BRANCH    8    7
ATOM     98  H8  UNL A   1      42.268  42.664  22.294  1.00  0.00    +0.000 H 
ATOM     99  H9  UNL A   1      42.153  41.486  20.955  1.00  0.00    +0.000 H 
ATOM      7  C5  UNL A   1      42.460  42.464  21.261  1.00  0.00    +0.000 C 
BRANCH    7    6
ATOM     97  H7  UNL A   1      44.157  42.583  19.982  1.00  0.00    +0.000 H 
ATOM      6  C4  UNL A   1      43.978  42.532  21.035  1.00  0.00    +0.000 C 
ATOM     96  H6  UNL A   1      44.430  41.658  21.458  1.00  0.00    +0.000 H 
BRANCH    6    5
ATOM      5  N1  UNL A   1      44.559  43.711  21.655  1.00  0.00    +0.000 N 
ATOM     95  H5  UNL A   1      43.957  44.429  21.958  1.00  0.00    +0.000 H 
BRANCH    5    3
ATOM      3  C3  UNL A   1      45.915  43.869  21.836  1.00  0.00    +0.000 C 
ATOM      4  O1  UNL A   1      46.553  42.891  22.222  1.00  0.00    +0.000 O 
BRANCH    3    2
ATOM      2  C2  UNL A   1      46.535  45.217  21.456  1.00  0.00    +0.000 C 
ATOM     94  H4  UNL A   1      47.420  45.306  22.051  1.00  0.00    +0.000 H 
BRANCH    2    1
ATOM      1  C1  UNL A   1      45.478  46.297  21.743  1.00  0.00    +0.000 C 
ATOM     91  H1  UNL A   1      44.686  45.874  22.325  1.00  0.00    +0.000 H 
ATOM     92  H2  UNL A   1      45.085  46.664  20.818  1.00  0.00    +0.000 H 
ATOM     93  H3  UNL A   1      45.928  47.102  22.285  1.00  0.00    +0.000 H 
ENDBRANCH    2    1
BRANCH    2   78
ATOM    130  H40 UNL A   1      46.292  45.999  16.824  1.00  0.00    +0.000 H 
ATOM     78  C55 UNL A   1      47.081  45.375  20.038  1.00  0.00    +0.000 C 
ATOM     79  C56 UNL A   1      48.480  45.352  19.866  1.00  0.00    +0.000 C 
ATOM     80  C57 UNL A   1      49.071  45.603  18.624  1.00  0.00    +0.000 C 
ATOM     81  C58 UNL A   1      48.284  45.891  17.506  1.00  0.00    +0.000 C 
ATOM     88  C64 UNL A   1      46.894  45.833  17.645  1.00  0.00    +0.000 C 
ATOM     89  C65 UNL A   1      46.310  45.552  18.885  1.00  0.00    +0.000 C 
ATOM     90  F16 UNL A   1      44.978  45.438  18.908  1.00  0.00    +0.000 F 
ATOM    123  H33 UNL A   1      49.084  45.146  20.677  1.00  0.00    +0.000 H 
ATOM    124  H34 UNL A   1      50.098  45.575  18.532  1.00  0.00    +0.000 H 
BRANCH   81   82
ATOM     82  C59 UNL A   1      48.921  46.259  16.184  1.00  0.00    +0.000 C 
ATOM    125  H35 UNL A   1      48.374  45.780  15.398  1.00  0.00    +0.000 H 
ATOM    126  H36 UNL A   1      49.940  45.934  16.222  1.00  0.00    +0.000 H 
BRANCH   82   83
ATOM    129  H39 UNL A   1      49.727  51.125  16.224  1.00  0.00    +0.000 H 
ATOM     83  C60 UNL A   1      48.935  47.743  15.922  1.00  0.00    +0.000 C 
ATOM     84  C61 UNL A   1      48.184  48.467  15.014  1.00  0.00    +0.000 C 
ATOM     85  C62 UNL A   1      48.459  49.864  15.064  1.00  0.00    +0.000 C 
ATOM     86  C63 UNL A   1      49.399  50.168  16.022  1.00  0.00    +0.000 C 
ATOM     87  S1  UNL A   1      49.960  48.773  16.835  1.00  0.00    +0.000 S 
ATOM    127  H37 UNL A   1      47.498  48.042  14.371  1.00  0.00    +0.000 H 
ATOM    128  H38 UNL A   1      48.006  50.564  14.455  1.00  0.00    +0.000 H 
ENDBRANCH   82   83
ENDBRANCH   81   82
ENDBRANCH    2   78
ENDBRANCH    3    2
ENDBRANCH    5    3
ENDBRANCH    6    5
ENDBRANCH    7    6
ENDBRANCH    8    7
ENDBRANCH    9    8
ENDBRANCH   10    9
ENDBRANCH   11   10
ENDBRANCH   12   11
ENDBRANCH   13   12
ENDBRANCH   15   13
ENDBRANCH   19   18
BRANCH   23   24
ATOM     33  C24 UNL A   1      47.981  55.731  13.987  1.00  0.00    +0.000 C 
ATOM     34  F5  UNL A   1      48.668  54.632  13.642  1.00  0.00    +0.000 F 
ATOM     24  C19 UNL A   1      47.687  55.987  15.334  1.00  0.00    +0.000 C 
ATOM     25  C20 UNL A   1      46.971  57.153  15.642  1.00  0.00    +0.000 C 
ATOM     26  F1  UNL A   1      46.656  57.435  16.914  1.00  0.00    +0.000 F 
ATOM     27  C21 UNL A   1      46.543  58.016  14.636  1.00  0.00    +0.000 C 
ATOM     28  F2  UNL A   1      45.820  59.100  14.949  1.00  0.00    +0.000 F 
ATOM     29  C22 UNL A   1      46.848  57.746  13.311  1.00  0.00    +0.000 C 
ATOM     30  F3  UNL A   1      46.438  58.579  12.345  1.00  0.00    +0.000 F 
ATOM     31  C23 UNL A   1      47.573  56.609  12.986  1.00  0.00    +0.000 C 
ATOM     32  F4  UNL A   1      47.878  56.353  11.707  1.00  0.00    +0.000 F 
ENDBRANCH   23   24
BRANCH   40   41
ATOM     41  C30 UNL A   1      53.163  55.467  19.991  1.00  0.00    +0.000 C 
ATOM     42  C31 UNL A   1      54.423  55.231  19.423  1.00  0.00    +0.000 C 
ATOM     43  F6  UNL A   1      54.588  54.238  18.536  1.00  0.00    +0.000 F 
ATOM     44  C32 UNL A   1      55.527  55.996  19.790  1.00  0.00    +0.000 C 
ATOM     45  F7  UNL A   1      56.730  55.728  19.263  1.00  0.00    +0.000 F 
ATOM     46  C33 UNL A   1      55.387  57.023  20.711  1.00  0.00    +0.000 C 
ATOM     47  F8  UNL A   1      56.450  57.761  21.060  1.00  0.00    +0.000 F 
ATOM     48  C34 UNL A   1      54.147  57.282  21.275  1.00  0.00    +0.000 C 
ATOM     49  F9  UNL A   1      54.008  58.282  22.158  1.00  0.00    +0.000 F 
ATOM     50  C35 UNL A   1      53.046  56.505  20.928  1.00  0.00    +0.000 C 
ATOM     51  F10 UNL A   1      51.861  56.772  21.497  1.00  0.00    +0.000 F 
ENDBRANCH   40   41
BRANCH   55   56
ATOM     65  C44 UNL A   1      51.443  48.255  21.787  1.00  0.00    +0.000 C 
ATOM     66  F15 UNL A   1      51.800  48.093  20.504  1.00  0.00    +0.000 F 
ATOM     56  C39 UNL A   1      50.650  49.348  22.162  1.00  0.00    +0.000 C 
ATOM     57  C40 UNL A   1      50.301  49.471  23.513  1.00  0.00    +0.000 C 
ATOM     58  F11 UNL A   1      49.561  50.512  23.921  1.00  0.00    +0.000 F 
ATOM     59  C41 UNL A   1      50.739  48.543  24.457  1.00  0.00    +0.000 C 
ATOM     60  F12 UNL A   1      50.420  48.703  25.748  1.00  0.00    +0.000 F 
ATOM     61  C42 UNL A   1      51.514  47.464  24.062  1.00  0.00    +0.000 C 
ATOM     62  F13 UNL A   1      51.932  46.570  24.968  1.00  0.00    +0.000 F 
ATOM     63  C43 UNL A   1      51.862  47.316  22.727  1.00  0.00    +0.000 C 
ATOM     64  F14 UNL A   1      52.602  46.268  22.341  1.00  0.00    +0.000 F 
ENDBRANCH   55   56
TORSDOF 19
ENDMDL
MODEL 6
REMARK VINA RESULT:      -8.6     46.306     51.115
ROOT
ATOM     19  C15 UNL A   1      53.511  19.754  11.846  1.00  0.00    +0.000 C 
ATOM     20  C16 UNL A   1      54.870  19.128  11.711  1.00  0.00    +0.000 C 
ATOM     21  N3  UNL A   1      55.852  19.084  12.576  1.00  0.00    +0.000 N 
ATOM     22  C17 UNL A   1      56.859  18.348  11.967  1.00  0.00    +0.000 C 
ATOM     23  C18 UNL A   1      58.097  18.064  12.435  1.00  0.00    +0.000 C 
ATOM     35  C25 UNL A   1      58.610  18.510  13.704  1.00  0.00    +0.000 C 
ATOM     36  C26 UNL A   1      59.874  18.328  14.236  1.00  0.00    +0.000 C 
ATOM     37  C27 UNL A   1      59.900  18.911  15.509  1.00  0.00    +0.000 C 
ATOM     38  C28 UNL A   1      58.664  19.485  15.753  1.00  0.00    +0.000 C 
ATOM     39  N4  UNL A   1      57.881  19.229  14.639  1.00  0.00    +0.000 N 
ATOM     40  C29 UNL A   1      58.226  20.214  16.914  1.00  0.00    +0.000 C 
ATOM     52  C36 UNL A   1      56.997  20.761  17.073  1.00  0.00    +0.000 C 
ATOM     53  N5  UNL A   1      55.920  20.753  16.197  1.00  0.00    +0.000 N 
ATOM     54  C37 UNL A   1      54.957  21.401  16.804  1.00  0.00    +0.000 C 
ATOM     55  C38 UNL A   1      53.571  21.718  16.315  1.00  0.00    +0.000 C 
ATOM     67  C45 UNL A   1      53.203  21.334  15.078  1.00  0.00    +0.000 C 
ATOM     68  C46 UNL A   1      51.899  21.575  14.468  1.00  0.00    +0.000 C 
ATOM     69  C47 UNL A   1      51.876  21.018  13.247  1.00  0.00    +0.000 C 
ATOM     70  C48 UNL A   1      53.178  20.406  12.976  1.00  0.00    +0.000 C 
ATOM     71  N6  UNL A   1      53.904  20.650  14.115  1.00  0.00    +0.000 N 
ATOM     72  C49 UNL A   1      55.308  21.874  18.152  1.00  0.00    +0.000 C 
ATOM     73  C50 UNL A   1      56.572  21.488  18.252  1.00  0.00    +0.000 C 
ATOM     74  C51 UNL A   1      56.355  17.929  10.676  1.00  0.00    +0.000 C 
ATOM     75  C52 UNL A   1      55.154  18.436  10.444  1.00  0.00    +0.000 C 
ATOM    111  H21 UNL A   1      60.662  17.847  13.775  1.00  0.00    +0.000 H 
ATOM    112  H22 UNL A   1      60.705  18.912  16.155  1.00  0.00    +0.000 H 
ATOM    113  H23 UNL A   1      56.946  19.515  14.527  1.00  0.00    +0.000 H 
ATOM    114  H24 UNL A   1      51.120  22.092  14.905  1.00  0.00    +0.000 H 
ATOM    115  H25 UNL A   1      51.070  21.021  12.603  1.00  0.00    +0.000 H 
ATOM    116  H26 UNL A   1      54.839  20.361  14.230  1.00  0.00    +0.000 H 
ATOM    117  H27 UNL A   1      54.723  22.376  18.838  1.00  0.00    +0.000 H 
ATOM    118  H28 UNL A   1      57.176  21.680  19.066  1.00  0.00    +0.000 H 
ATOM    119  H29 UNL A   1      56.866  17.316  10.022  1.00  0.00    +0.000 H 
ATOM    120  H30 UNL A   1      54.569  18.365   9.596  1.00  0.00    +0.000 H 
ENDROOT
BRANCH   19   18
ATOM     76  C53 UNL A   1      52.381  20.589   9.783  1.00  0.00    +0.000 C 
ATOM    109  H19 UNL A   1      50.174  17.467   9.606  1.00  0.00    +0.000 H 
ATOM     77  C54 UNL A   1      51.442  20.458   8.762  1.00  0.00    +0.000 C 
ATOM     15  C11 UNL A   1      50.678  19.291   8.665  1.00  0.00    +0.000 C 
ATOM     16  C12 UNL A   1      50.771  18.308   9.655  1.00  0.00    +0.000 C 
ATOM     17  C13 UNL A   1      51.671  18.467  10.710  1.00  0.00    +0.000 C 
ATOM    110  H20 UNL A   1      51.725  17.752  11.452  1.00  0.00    +0.000 H 
ATOM     18  C14 UNL A   1      52.505  19.595  10.766  1.00  0.00    +0.000 C 
ATOM    121  H31 UNL A   1      52.990  21.422   9.816  1.00  0.00    +0.000 H 
ATOM    122  H32 UNL A   1      51.310  21.220   8.079  1.00  0.00    +0.000 H 
BRANCH   15   13
ATOM     13  C10 UNL A   1      49.747  19.078   7.535  1.00  0.00    +0.000 C 
ATOM     14  O2  UNL A   1      48.635  19.598   7.560  1.00  0.00    +0.000 O 
BRANCH   13   12
ATOM    108  H18 UNL A   1      51.085  18.116   6.397  1.00  0.00    +0.000 H 
ATOM     12  N2  UNL A   1      50.119  18.290   6.475  1.00  0.00    +0.000 N 
BRANCH   12   11
ATOM    106  H16 UNL A   1      49.904  17.036   4.851  1.00  0.00    +0.000 H 
ATOM     11  C9  UNL A   1      49.291  17.676   5.450  1.00  0.00    +0.000 C 
ATOM    107  H17 UNL A   1      48.515  17.127   5.943  1.00  0.00    +0.000 H 
BRANCH   11   10
ATOM    105  H15 UNL A   1      48.699  18.319   3.547  1.00  0.00    +0.000 H 
ATOM     10  C8  UNL A   1      48.627  18.707   4.542  1.00  0.00    +0.000 C 
ATOM    104  H14 UNL A   1      49.134  19.640   4.672  1.00  0.00    +0.000 H 
BRANCH   10    9
ATOM      9  C7  UNL A   1      47.137  18.935   4.804  1.00  0.00    +0.000 C 
ATOM    102  H12 UNL A   1      47.034  19.849   5.353  1.00  0.00    +0.000 H 
ATOM    103  H13 UNL A   1      46.666  18.958   3.844  1.00  0.00    +0.000 H 
BRANCH    9    8
ATOM    100  H10 UNL A   1      47.189  17.248   6.089  1.00  0.00    +0.000 H 
ATOM    101  H11 UNL A   1      45.765  18.322   6.265  1.00  0.00    +0.000 H 
ATOM      8  C6  UNL A   1      46.437  17.827   5.595  1.00  0.00    +0.000 C 
BRANCH    8    7
ATOM     98  H8  UNL A   1      46.147  15.988   4.567  1.00  0.00    +0.000 H 
ATOM     99  H9  UNL A   1      44.691  16.683   5.335  1.00  0.00    +0.000 H 
ATOM      7  C5  UNL A   1      45.574  16.870   4.761  1.00  0.00    +0.000 C 
BRANCH    7    6
ATOM     97  H7  UNL A   1      44.948  16.619   2.743  1.00  0.00    +0.000 H 
ATOM      6  C4  UNL A   1      45.103  17.438   3.414  1.00  0.00    +0.000 C 
ATOM     96  H6  UNL A   1      45.851  18.104   3.037  1.00  0.00    +0.000 H 
BRANCH    6    5
ATOM      5  N1  UNL A   1      43.850  18.162   3.546  1.00  0.00    +0.000 N 
ATOM     95  H5  UNL A   1      43.092  17.715   3.989  1.00  0.00    +0.000 H 
BRANCH    5    3
ATOM      3  C3  UNL A   1      43.675  19.446   3.080  1.00  0.00    +0.000 C 
ATOM      4  O1  UNL A   1      44.128  20.363   3.763  1.00  0.00    +0.000 O 
BRANCH    3    2
ATOM      2  C2  UNL A   1      43.017  19.626   1.709  1.00  0.00    +0.000 C 
ATOM     94  H4  UNL A   1      43.104  18.678   1.220  1.00  0.00    +0.000 H 
BRANCH    2    1
ATOM      1  C1  UNL A   1      43.761  20.768   0.997  1.00  0.00    +0.000 C 
ATOM     91  H1  UNL A   1      43.872  20.529  -0.040  1.00  0.00    +0.000 H 
ATOM     92  H2  UNL A   1      44.727  20.894   1.439  1.00  0.00    +0.000 H 
ATOM     93  H3  UNL A   1      43.202  21.674   1.096  1.00  0.00    +0.000 H 
ENDBRANCH    2    1
BRANCH    2   78
ATOM    130  H40 UNL A   1      38.528  18.999   2.971  1.00  0.00    +0.000 H 
ATOM     78  C55 UNL A   1      41.510  19.873   1.670  1.00  0.00    +0.000 C 
ATOM     79  C56 UNL A   1      41.037  20.924   0.858  1.00  0.00    +0.000 C 
ATOM     80  C57 UNL A   1      39.690  21.295   0.849  1.00  0.00    +0.000 C 
ATOM     81  C58 UNL A   1      38.762  20.631   1.655  1.00  0.00    +0.000 C 
ATOM     88  C64 UNL A   1      39.202  19.533   2.400  1.00  0.00    +0.000 C 
ATOM     89  C65 UNL A   1      40.548  19.149   2.382  1.00  0.00    +0.000 C 
ATOM     90  F16 UNL A   1      40.865  18.042   3.061  1.00  0.00    +0.000 F 
ATOM    123  H33 UNL A   1      41.703  21.433   0.256  1.00  0.00    +0.000 H 
ATOM    124  H34 UNL A   1      39.376  22.067   0.240  1.00  0.00    +0.000 H 
BRANCH   81   82
ATOM     82  C59 UNL A   1      37.322  21.092   1.722  1.00  0.00    +0.000 C 
ATOM    125  H35 UNL A   1      36.783  20.641   0.915  1.00  0.00    +0.000 H 
ATOM    126  H36 UNL A   1      37.328  22.160   1.656  1.00  0.00    +0.000 H 
BRANCH   82   83
ATOM    129  H39 UNL A   1      35.344  21.014   6.240  1.00  0.00    +0.000 H 
ATOM     83  C60 UNL A   1      36.640  20.729   3.016  1.00  0.00    +0.000 C 
ATOM     84  C61 UNL A   1      36.137  19.503   3.412  1.00  0.00    +0.000 C 
ATOM     85  C62 UNL A   1      35.574  19.537   4.720  1.00  0.00    +0.000 C 
ATOM     86  C63 UNL A   1      35.680  20.784   5.292  1.00  0.00    +0.000 C 
ATOM     87  S1  UNL A   1      36.432  21.908   4.245  1.00  0.00    +0.000 S 
ATOM    127  H37 UNL A   1      36.166  18.656   2.824  1.00  0.00    +0.000 H 
ATOM    128  H38 UNL A   1      35.139  18.723   5.184  1.00  0.00    +0.000 H 
ENDBRANCH   82   83
ENDBRANCH   81   82
ENDBRANCH    2   78
ENDBRANCH    3    2
ENDBRANCH    5    3
ENDBRANCH    6    5
ENDBRANCH    7    6
ENDBRANCH    8    7
ENDBRANCH    9    8
ENDBRANCH   10    9
ENDBRANCH   11   10
ENDBRANCH   12   11
ENDBRANCH   13   12
ENDBRANCH   15   13
ENDBRANCH   19   18
BRANCH   23   24
ATOM     33  C24 UNL A   1      59.005  15.834  11.689  1.00  0.00    +0.000 C 
ATOM     34  F5  UNL A   1      58.200  15.226  12.572  1.00  0.00    +0.000 F 
ATOM     24  C19 UNL A   1      58.990  17.231  11.563  1.00  0.00    +0.000 C 
ATOM     25  C20 UNL A   1      59.855  17.816  10.628  1.00  0.00    +0.000 C 
ATOM     26  F1  UNL A   1      59.869  19.147  10.463  1.00  0.00    +0.000 F 
ATOM     27  C21 UNL A   1      60.684  17.032   9.830  1.00  0.00    +0.000 C 
ATOM     28  F2  UNL A   1      61.470  17.610   8.912  1.00  0.00    +0.000 F 
ATOM     29  C22 UNL A   1      60.686  15.653   9.974  1.00  0.00    +0.000 C 
ATOM     30  F3  UNL A   1      61.487  14.900   9.208  1.00  0.00    +0.000 F 
ATOM     31  C23 UNL A   1      59.854  15.053  10.907  1.00  0.00    +0.000 C 
ATOM     32  F4  UNL A   1      59.863  13.722  11.054  1.00  0.00    +0.000 F 
ENDBRANCH   23   24
BRANCH   40   41
ATOM     41  C30 UNL A   1      59.208  20.402  18.032  1.00  0.00    +0.000 C 
ATOM     42  C31 UNL A   1      59.500  19.367  18.931  1.00  0.00    +0.000 C 
ATOM     43  F6  UNL A   1      58.861  18.191  18.838  1.00  0.00    +0.000 F 
ATOM     44  C32 UNL A   1      60.429  19.548  19.952  1.00  0.00    +0.000 C 
ATOM     45  F7  UNL A   1      60.666  18.558  20.825  1.00  0.00    +0.000 F 
ATOM     46  C33 UNL A   1      61.099  20.756  20.076  1.00  0.00    +0.000 C 
ATOM     47  F8  UNL A   1      61.997  20.927  21.057  1.00  0.00    +0.000 F 
ATOM     48  C34 UNL A   1      60.835  21.788  19.190  1.00  0.00    +0.000 C 
ATOM     49  F9  UNL A   1      61.489  22.954  19.303  1.00  0.00    +0.000 F 
ATOM     50  C35 UNL A   1      59.890  21.619  18.182  1.00  0.00    +0.000 C 
ATOM     51  F10 UNL A   1      59.648  22.637  17.344  1.00  0.00    +0.000 F 
ENDBRANCH   40   41
BRANCH   55   56
ATOM     65  C44 UNL A   1      51.809  21.823  18.109  1.00  0.00    +0.000 C 
ATOM     66  F15 UNL A   1      51.887  20.493  18.259  1.00  0.00    +0.000 F 
ATOM     56  C39 UNL A   1      52.618  22.472  17.166  1.00  0.00    +0.000 C 
ATOM     57  C40 UNL A   1      52.497  23.863  17.045  1.00  0.00    +0.000 C 
ATOM     58  F11 UNL A   1      53.266  24.528  16.170  1.00  0.00    +0.000 F 
ATOM     59  C41 UNL A   1      51.611  24.580  17.847  1.00  0.00    +0.000 C 
ATOM     60  F12 UNL A   1      51.541  25.914  17.736  1.00  0.00    +0.000 F 
ATOM     61  C42 UNL A   1      50.814  23.917  18.767  1.00  0.00    +0.000 C 
ATOM     62  F13 UNL A   1      49.959  24.606  19.536  1.00  0.00    +0.000 F 
ATOM     63  C43 UNL A   1      50.908  22.539  18.895  1.00  0.00    +0.000 C 
ATOM     64  F14 UNL A   1      50.131  21.894  19.775  1.00  0.00    +0.000 F 
ENDBRANCH   55   56
TORSDOF 19
ENDMDL
MODEL 7
REMARK VINA RESULT:      -8.4     39.875     44.437
ROOT
ATOM     19  C15 UNL A   1      22.240   8.798   7.714  1.00  0.00    +0.000 C 
ATOM     20  C16 UNL A   1      23.341   8.225   6.868  1.00  0.00    +0.000 C 
ATOM     21  N3  UNL A   1      23.734   6.982   6.751  1.00  0.00    +0.000 N 
ATOM     22  C17 UNL A   1      24.753   6.995   5.808  1.00  0.00    +0.000 C 
ATOM     23  C18 UNL A   1      25.516   5.963   5.375  1.00  0.00    +0.000 C 
ATOM     35  C25 UNL A   1      25.402   4.611   5.853  1.00  0.00    +0.000 C 
ATOM     36  C26 UNL A   1      26.174   3.511   5.524  1.00  0.00    +0.000 C 
ATOM     37  C27 UNL A   1      25.672   2.401   6.214  1.00  0.00    +0.000 C 
ATOM     38  C28 UNL A   1      24.612   2.819   7.000  1.00  0.00    +0.000 C 
ATOM     39  N4  UNL A   1      24.454   4.176   6.767  1.00  0.00    +0.000 N 
ATOM     40  C29 UNL A   1      23.799   2.041   7.899  1.00  0.00    +0.000 C 
ATOM     52  C36 UNL A   1      22.781   2.528   8.648  1.00  0.00    +0.000 C 
ATOM     53  N5  UNL A   1      22.304   3.828   8.729  1.00  0.00    +0.000 N 
ATOM     54  C37 UNL A   1      21.307   3.795   9.578  1.00  0.00    +0.000 C 
ATOM     55  C38 UNL A   1      20.436   4.919  10.064  1.00  0.00    +0.000 C 
ATOM     67  C45 UNL A   1      20.668   6.171   9.627  1.00  0.00    +0.000 C 
ATOM     68  C46 UNL A   1      19.911   7.358  10.014  1.00  0.00    +0.000 C 
ATOM     69  C47 UNL A   1      20.395   8.422   9.352  1.00  0.00    +0.000 C 
ATOM     70  C48 UNL A   1      21.518   7.994   8.517  1.00  0.00    +0.000 C 
ATOM     71  N6  UNL A   1      21.612   6.645   8.749  1.00  0.00    +0.000 N 
ATOM     72  C49 UNL A   1      21.022   2.456  10.116  1.00  0.00    +0.000 C 
ATOM     73  C50 UNL A   1      21.970   1.728   9.544  1.00  0.00    +0.000 C 
ATOM     74  C51 UNL A   1      24.890   8.362   5.352  1.00  0.00    +0.000 C 
ATOM     75  C52 UNL A   1      24.083   9.173   6.021  1.00  0.00    +0.000 C 
ATOM    111  H21 UNL A   1      26.981   3.508   4.880  1.00  0.00    +0.000 H 
ATOM    112  H22 UNL A   1      26.032   1.437   6.149  1.00  0.00    +0.000 H 
ATOM    113  H23 UNL A   1      23.771   4.746   7.187  1.00  0.00    +0.000 H 
ATOM    114  H24 UNL A   1      19.131   7.377  10.688  1.00  0.00    +0.000 H 
ATOM    115  H25 UNL A   1      20.033   9.386   9.422  1.00  0.00    +0.000 H 
ATOM    116  H26 UNL A   1      22.292   6.071   8.327  1.00  0.00    +0.000 H 
ATOM    117  H27 UNL A   1      20.279   2.161  10.769  1.00  0.00    +0.000 H 
ATOM    118  H28 UNL A   1      22.113   0.720   9.714  1.00  0.00    +0.000 H 
ATOM    119  H29 UNL A   1      25.534   8.666   4.605  1.00  0.00    +0.000 H 
ATOM    120  H30 UNL A   1      23.997  10.200   5.963  1.00  0.00    +0.000 H 
ENDROOT
BRANCH   19   18
ATOM     76  C53 UNL A   1      20.906  10.655   6.712  1.00  0.00    +0.000 C 
ATOM    109  H19 UNL A   1      22.631  13.237   8.949  1.00  0.00    +0.000 H 
ATOM     77  C54 UNL A   1      20.571  12.003   6.605  1.00  0.00    +0.000 C 
ATOM     15  C11 UNL A   1      21.159  12.937   7.464  1.00  0.00    +0.000 C 
ATOM     16  C12 UNL A   1      22.167  12.539   8.347  1.00  0.00    +0.000 C 
ATOM     17  C13 UNL A   1      22.543  11.197   8.413  1.00  0.00    +0.000 C 
ATOM    110  H20 UNL A   1      23.302  10.906   9.049  1.00  0.00    +0.000 H 
ATOM     18  C14 UNL A   1      21.895  10.239   7.615  1.00  0.00    +0.000 C 
ATOM    121  H31 UNL A   1      20.424   9.958   6.122  1.00  0.00    +0.000 H 
ATOM    122  H32 UNL A   1      19.890  12.312   5.894  1.00  0.00    +0.000 H 
BRANCH   15   13
ATOM     13  C10 UNL A   1      20.748  14.358   7.444  1.00  0.00    +0.000 C 
ATOM     14  O2  UNL A   1      19.800  14.725   8.133  1.00  0.00    +0.000 O 
BRANCH   13   12
ATOM    108  H18 UNL A   1      20.837  15.841   6.101  1.00  0.00    +0.000 H 
ATOM     12  N2  UNL A   1      21.412  15.256   6.647  1.00  0.00    +0.000 N 
BRANCH   12   11
ATOM    106  H16 UNL A   1      23.328  14.515   6.454  1.00  0.00    +0.000 H 
ATOM     11  C9  UNL A   1      22.842  15.468   6.493  1.00  0.00    +0.000 C 
ATOM    107  H17 UNL A   1      22.993  16.022   5.589  1.00  0.00    +0.000 H 
BRANCH   11   10
ATOM    105  H15 UNL A   1      24.364  16.672   7.277  1.00  0.00    +0.000 H 
ATOM     10  C8  UNL A   1      23.439  16.275   7.641  1.00  0.00    +0.000 C 
ATOM    104  H14 UNL A   1      23.558  15.622   8.480  1.00  0.00    +0.000 H 
BRANCH   10    9
ATOM      9  C7  UNL A   1      22.605  17.477   8.089  1.00  0.00    +0.000 C 
ATOM    102  H12 UNL A   1      23.026  18.355   7.644  1.00  0.00    +0.000 H 
ATOM    103  H13 UNL A   1      21.602  17.277   7.775  1.00  0.00    +0.000 H 
BRANCH    9    8
ATOM    100  H10 UNL A   1      22.682  18.742   9.791  1.00  0.00    +0.000 H 
ATOM    101  H11 UNL A   1      21.585  17.330   9.913  1.00  0.00    +0.000 H 
ATOM      8  C6  UNL A   1      22.541  17.698   9.603  1.00  0.00    +0.000 C 
BRANCH    8    7
ATOM     98  H8  UNL A   1      24.223  16.405   9.744  1.00  0.00    +0.000 H 
ATOM     99  H9  UNL A   1      24.090  17.646  11.024  1.00  0.00    +0.000 H 
ATOM      7  C5  UNL A   1      23.579  16.922  10.424  1.00  0.00    +0.000 C 
BRANCH    7    6
ATOM     97  H7  UNL A   1      23.061  14.925  10.947  1.00  0.00    +0.000 H 
ATOM      6  C4  UNL A   1      22.989  15.892  11.399  1.00  0.00    +0.000 C 
ATOM     96  H6  UNL A   1      21.968  16.146  11.597  1.00  0.00    +0.000 H 
BRANCH    6    5
ATOM      5  N1  UNL A   1      23.720  15.863  12.655  1.00  0.00    +0.000 N 
ATOM     95  H5  UNL A   1      24.684  15.660  12.633  1.00  0.00    +0.000 H 
BRANCH    5    3
ATOM      3  C3  UNL A   1      23.124  16.105  13.872  1.00  0.00    +0.000 C 
ATOM      4  O1  UNL A   1      22.555  15.165  14.422  1.00  0.00    +0.000 O 
BRANCH    3    2
ATOM      2  C2  UNL A   1      23.296  17.497  14.487  1.00  0.00    +0.000 C 
ATOM     94  H4  UNL A   1      24.032  17.385  15.256  1.00  0.00    +0.000 H 
BRANCH    2    1
ATOM      1  C1  UNL A   1      21.915  17.936  15.004  1.00  0.00    +0.000 C 
ATOM     91  H1  UNL A   1      21.455  17.123  15.526  1.00  0.00    +0.000 H 
ATOM     92  H2  UNL A   1      21.300  18.221  14.176  1.00  0.00    +0.000 H 
ATOM     93  H3  UNL A   1      22.029  18.767  15.667  1.00  0.00    +0.000 H 
ENDBRANCH    2    1
BRANCH    2   78
ATOM    130  H40 UNL A   1      26.758  19.851  12.341  1.00  0.00    +0.000 H 
ATOM     78  C55 UNL A   1      23.905  18.592  13.613  1.00  0.00    +0.000 C 
ATOM     79  C56 UNL A   1      23.022  19.456  12.933  1.00  0.00    +0.000 C 
ATOM     80  C57 UNL A   1      23.486  20.411  12.024  1.00  0.00    +0.000 C 
ATOM     81  C58 UNL A   1      24.851  20.537  11.757  1.00  0.00    +0.000 C 
ATOM     88  C64 UNL A   1      25.742  19.746  12.488  1.00  0.00    +0.000 C 
ATOM     89  C65 UNL A   1      25.272  18.811  13.418  1.00  0.00    +0.000 C 
ATOM     90  F16 UNL A   1      26.195  18.155  14.128  1.00  0.00    +0.000 F 
ATOM    123  H33 UNL A   1      22.008  19.380  13.108  1.00  0.00    +0.000 H 
ATOM    124  H34 UNL A   1      22.813  21.030  11.545  1.00  0.00    +0.000 H 
BRANCH   81   82
ATOM     82  C59 UNL A   1      25.350  21.502  10.703  1.00  0.00    +0.000 C 
ATOM    125  H35 UNL A   1      26.098  22.129  11.142  1.00  0.00    +0.000 H 
ATOM    126  H36 UNL A   1      24.504  22.062  10.361  1.00  0.00    +0.000 H 
BRANCH   82   83
ATOM    129  H39 UNL A   1      28.276  19.812   7.109  1.00  0.00    +0.000 H 
ATOM     83  C60 UNL A   1      25.945  20.815   9.501  1.00  0.00    +0.000 C 
ATOM     84  C61 UNL A   1      25.315  20.023   8.558  1.00  0.00    +0.000 C 
ATOM     85  C62 UNL A   1      26.205  19.558   7.548  1.00  0.00    +0.000 C 
ATOM     86  C63 UNL A   1      27.486  20.024   7.738  1.00  0.00    +0.000 C 
ATOM     87  S1  UNL A   1      27.613  20.995   9.140  1.00  0.00    +0.000 S 
ATOM    127  H37 UNL A   1      24.309  19.794   8.584  1.00  0.00    +0.000 H 
ATOM    128  H38 UNL A   1      25.922  18.946   6.766  1.00  0.00    +0.000 H 
ENDBRANCH   82   83
ENDBRANCH   81   82
ENDBRANCH    2   78
ENDBRANCH    3    2
ENDBRANCH    5    3
ENDBRANCH    6    5
ENDBRANCH    7    6
ENDBRANCH    8    7
ENDBRANCH    9    8
ENDBRANCH   10    9
ENDBRANCH   11   10
ENDBRANCH   12   11
ENDBRANCH   13   12
ENDBRANCH   15   13
ENDBRANCH   19   18
BRANCH   23   24
ATOM     33  C24 UNL A   1      27.857   6.612   4.700  1.00  0.00    +0.000 C 
ATOM     34  F5  UNL A   1      28.203   6.658   5.995  1.00  0.00    +0.000 F 
ATOM     24  C19 UNL A   1      26.550   6.261   4.329  1.00  0.00    +0.000 C 
ATOM     25  C20 UNL A   1      26.240   6.231   2.962  1.00  0.00    +0.000 C 
ATOM     26  F1  UNL A   1      25.007   5.890   2.558  1.00  0.00    +0.000 F 
ATOM     27  C21 UNL A   1      27.207   6.517   2.002  1.00  0.00    +0.000 C 
ATOM     28  F2  UNL A   1      26.900   6.439   0.700  1.00  0.00    +0.000 F 
ATOM     29  C22 UNL A   1      28.491   6.866   2.391  1.00  0.00    +0.000 C 
ATOM     30  F3  UNL A   1      29.420   7.144   1.466  1.00  0.00    +0.000 F 
ATOM     31  C23 UNL A   1      28.816   6.921   3.738  1.00  0.00    +0.000 C 
ATOM     32  F4  UNL A   1      30.053   7.269   4.115  1.00  0.00    +0.000 F 
ENDBRANCH   23   24
BRANCH   40   41
ATOM     41  C30 UNL A   1      24.110   0.580   8.033  1.00  0.00    +0.000 C 
ATOM     42  C31 UNL A   1      23.524  -0.374   7.189  1.00  0.00    +0.000 C 
ATOM     43  F6  UNL A   1      22.624   0.002   6.267  1.00  0.00    +0.000 F 
ATOM     44  C32 UNL A   1      23.837  -1.725   7.312  1.00  0.00    +0.000 C 
ATOM     45  F7  UNL A   1      23.237  -2.625   6.521  1.00  0.00    +0.000 F 
ATOM     46  C33 UNL A   1      24.758  -2.142   8.261  1.00  0.00    +0.000 C 
ATOM     47  F8  UNL A   1      25.062  -3.443   8.375  1.00  0.00    +0.000 F 
ATOM     48  C34 UNL A   1      25.359  -1.214   9.097  1.00  0.00    +0.000 C 
ATOM     49  F9  UNL A   1      26.256  -1.615  10.010  1.00  0.00    +0.000 F 
ATOM     50  C35 UNL A   1      25.031   0.135   8.993  1.00  0.00    +0.000 C 
ATOM     51  F10 UNL A   1      25.621   1.010   9.821  1.00  0.00    +0.000 F 
ENDBRANCH   40   41
BRANCH   55   56
ATOM     65  C44 UNL A   1      19.574   4.730  12.422  1.00  0.00    +0.000 C 
ATOM     66  F15 UNL A   1      20.797   5.019  12.889  1.00  0.00    +0.000 F 
ATOM     56  C39 UNL A   1      19.345   4.670  11.040  1.00  0.00    +0.000 C 
ATOM     57  C40 UNL A   1      18.051   4.360  10.602  1.00  0.00    +0.000 C 
ATOM     58  F11 UNL A   1      17.782   4.313   9.289  1.00  0.00    +0.000 F 
ATOM     59  C41 UNL A   1      17.019   4.134  11.512  1.00  0.00    +0.000 C 
ATOM     60  F12 UNL A   1      15.782   3.876  11.066  1.00  0.00    +0.000 F 
ATOM     61  C42 UNL A   1      17.269   4.190  12.874  1.00  0.00    +0.000 C 
ATOM     62  F13 UNL A   1      16.278   3.968  13.749  1.00  0.00    +0.000 F 
ATOM     63  C43 UNL A   1      18.547   4.482  13.330  1.00  0.00    +0.000 C 
ATOM     64  F14 UNL A   1      18.793   4.525  14.646  1.00  0.00    +0.000 F 
ENDBRANCH   55   56
TORSDOF 19
ENDMDL
MODEL 8
REMARK VINA RESULT:      -8.3     40.025     44.594
ROOT
ATOM     19  C15 UNL A   1      22.209   8.778   7.626  1.00  0.00    +0.000 C 
ATOM     20  C16 UNL A   1      23.324   8.205   6.797  1.00  0.00    +0.000 C 
ATOM     21  N3  UNL A   1      23.737   6.966   6.707  1.00  0.00    +0.000 N 
ATOM     22  C17 UNL A   1      24.760   6.976   5.768  1.00  0.00    +0.000 C 
ATOM     23  C18 UNL A   1      25.541   5.948   5.360  1.00  0.00    +0.000 C 
ATOM     35  C25 UNL A   1      25.446   4.604   5.864  1.00  0.00    +0.000 C 
ATOM     36  C26 UNL A   1      26.237   3.510   5.560  1.00  0.00    +0.000 C 
ATOM     37  C27 UNL A   1      25.749   2.407   6.271  1.00  0.00    +0.000 C 
ATOM     38  C28 UNL A   1      24.678   2.823   7.043  1.00  0.00    +0.000 C 
ATOM     39  N4  UNL A   1      24.501   4.172   6.782  1.00  0.00    +0.000 N 
ATOM     40  C29 UNL A   1      23.873   2.050   7.953  1.00  0.00    +0.000 C 
ATOM     52  C36 UNL A   1      22.844   2.537   8.688  1.00  0.00    +0.000 C 
ATOM     53  N5  UNL A   1      22.346   3.831   8.740  1.00  0.00    +0.000 N 
ATOM     54  C37 UNL A   1      21.345   3.798   9.585  1.00  0.00    +0.000 C 
ATOM     55  C38 UNL A   1      20.454   4.918  10.045  1.00  0.00    +0.000 C 
ATOM     67  C45 UNL A   1      20.669   6.165   9.584  1.00  0.00    +0.000 C 
ATOM     68  C46 UNL A   1      19.892   7.347   9.944  1.00  0.00    +0.000 C 
ATOM     69  C47 UNL A   1      20.363   8.405   9.263  1.00  0.00    +0.000 C 
ATOM     70  C48 UNL A   1      21.496   7.979   8.442  1.00  0.00    +0.000 C 
ATOM     71  N6  UNL A   1      21.610   6.636   8.702  1.00  0.00    +0.000 N 
ATOM     72  C49 UNL A   1      21.079   2.466  10.149  1.00  0.00    +0.000 C 
ATOM     73  C50 UNL A   1      22.042   1.742   9.596  1.00  0.00    +0.000 C 
ATOM     74  C51 UNL A   1      24.878   8.336   5.286  1.00  0.00    +0.000 C 
ATOM     75  C52 UNL A   1      24.055   9.147   5.934  1.00  0.00    +0.000 C 
ATOM    111  H21 UNL A   1      27.047   3.507   4.921  1.00  0.00    +0.000 H 
ATOM    112  H22 UNL A   1      26.124   1.447   6.226  1.00  0.00    +0.000 H 
ATOM    113  H23 UNL A   1      23.807   4.740   7.188  1.00  0.00    +0.000 H 
ATOM    114  H24 UNL A   1      19.108   7.367  10.614  1.00  0.00    +0.000 H 
ATOM    115  H25 UNL A   1      19.986   9.364   9.312  1.00  0.00    +0.000 H 
ATOM    116  H26 UNL A   1      22.301   6.065   8.294  1.00  0.00    +0.000 H 
ATOM    117  H27 UNL A   1      20.337   2.172  10.804  1.00  0.00    +0.000 H 
ATOM    118  H28 UNL A   1      22.199   0.740   9.786  1.00  0.00    +0.000 H 
ATOM    119  H29 UNL A   1      25.521   8.636   4.536  1.00  0.00    +0.000 H 
ATOM    120  H30 UNL A   1      23.953  10.171   5.856  1.00  0.00    +0.000 H 
ENDROOT
BRANCH   19   18
ATOM     76  C53 UNL A   1      22.463  11.161   8.323  1.00  0.00    +0.000 C 
ATOM    109  H19 UNL A   1      19.904  12.301   5.714  1.00  0.00    +0.000 H 
ATOM     77  C54 UNL A   1      22.131  12.510   8.217  1.00  0.00    +0.000 C 
ATOM     15  C11 UNL A   1      21.241  12.932   7.224  1.00  0.00    +0.000 C 
ATOM     16  C12 UNL A   1      20.595  11.992   6.416  1.00  0.00    +0.000 C 
ATOM     17  C13 UNL A   1      20.885  10.634   6.562  1.00  0.00    +0.000 C 
ATOM    110  H20 UNL A   1      20.393   9.938   5.981  1.00  0.00    +0.000 H 
ATOM     18  C14 UNL A   1      21.843  10.211   7.497  1.00  0.00    +0.000 C 
ATOM    121  H31 UNL A   1      23.169  10.859   9.012  1.00  0.00    +0.000 H 
ATOM    122  H32 UNL A   1      22.540  13.197   8.869  1.00  0.00    +0.000 H 
BRANCH   15   13
ATOM     13  C10 UNL A   1      20.948  14.368   7.020  1.00  0.00    +0.000 C 
ATOM     14  O2  UNL A   1      20.751  14.791   5.885  1.00  0.00    +0.000 O 
BRANCH   13   12
ATOM    108  H18 UNL A   1      20.161  15.091   8.714  1.00  0.00    +0.000 H 
ATOM     12  N2  UNL A   1      20.914  15.223   8.093  1.00  0.00    +0.000 N 
BRANCH   12   11
ATOM    106  H16 UNL A   1      22.442  16.517   7.593  1.00  0.00    +0.000 H 
ATOM     11  C9  UNL A   1      21.829  16.297   8.443  1.00  0.00    +0.000 C 
ATOM    107  H17 UNL A   1      21.243  17.144   8.733  1.00  0.00    +0.000 H 
BRANCH   11   10
ATOM    105  H15 UNL A   1      23.738  16.017   9.257  1.00  0.00    +0.000 H 
ATOM     10  C8  UNL A   1      22.734  15.932   9.617  1.00  0.00    +0.000 C 
ATOM    104  H14 UNL A   1      22.479  14.944   9.938  1.00  0.00    +0.000 H 
BRANCH   10    9
ATOM      9  C7  UNL A   1      22.633  16.866  10.825  1.00  0.00    +0.000 C 
ATOM    102  H12 UNL A   1      23.073  17.804  10.555  1.00  0.00    +0.000 H 
ATOM    103  H13 UNL A   1      21.591  16.934  11.062  1.00  0.00    +0.000 H 
BRANCH    9    8
ATOM    100  H10 UNL A   1      23.281  15.296  12.097  1.00  0.00    +0.000 H 
ATOM    101  H11 UNL A   1      24.322  16.754  12.059  1.00  0.00    +0.000 H 
ATOM      8  C6  UNL A   1      23.326  16.365  12.095  1.00  0.00    +0.000 C 
BRANCH    8    7
ATOM     98  H8  UNL A   1      21.859  17.455  13.183  1.00  0.00    +0.000 H 
ATOM     99  H9  UNL A   1      22.499  15.997  13.994  1.00  0.00    +0.000 H 
ATOM      7  C5  UNL A   1      22.723  16.868  13.413  1.00  0.00    +0.000 C 
BRANCH    7    6
ATOM     97  H7  UNL A   1      24.513  17.126  14.535  1.00  0.00    +0.000 H 
ATOM      6  C4  UNL A   1      23.668  17.726  14.267  1.00  0.00    +0.000 C 
ATOM     96  H6  UNL A   1      23.143  18.058  15.139  1.00  0.00    +0.000 H 
BRANCH    6    5
ATOM      5  N1  UNL A   1      24.148  18.886  13.535  1.00  0.00    +0.000 N 
ATOM     95  H5  UNL A   1      23.490  19.548  13.220  1.00  0.00    +0.000 H 
BRANCH    5    3
ATOM      3  C3  UNL A   1      25.480  19.100  13.261  1.00  0.00    +0.000 C 
ATOM      4  O1  UNL A   1      26.304  18.533  13.977  1.00  0.00    +0.000 O 
BRANCH    3    2
ATOM      2  C2  UNL A   1      25.831  19.948  12.036  1.00  0.00    +0.000 C 
ATOM     94  H4  UNL A   1      26.582  20.636  12.365  1.00  0.00    +0.000 H 
BRANCH    2    1
ATOM      1  C1  UNL A   1      24.531  20.621  11.565  1.00  0.00    +0.000 C 
ATOM     91  H1  UNL A   1      24.560  21.663  11.808  1.00  0.00    +0.000 H 
ATOM     92  H2  UNL A   1      23.696  20.164  12.054  1.00  0.00    +0.000 H 
ATOM     93  H3  UNL A   1      24.431  20.505  10.506  1.00  0.00    +0.000 H 
ENDBRANCH    2    1
BRANCH    2   78
ATOM    130  H40 UNL A   1      29.483  18.475   9.461  1.00  0.00    +0.000 H 
ATOM     78  C55 UNL A   1      26.521  19.254  10.862  1.00  0.00    +0.000 C 
ATOM     79  C56 UNL A   1      25.713  18.536   9.957  1.00  0.00    +0.000 C 
ATOM     80  C57 UNL A   1      26.267  17.777   8.923  1.00  0.00    +0.000 C 
ATOM     81  C58 UNL A   1      27.652  17.703   8.755  1.00  0.00    +0.000 C 
ATOM     88  C64 UNL A   1      28.459  18.479   9.593  1.00  0.00    +0.000 C 
ATOM     89  C65 UNL A   1      27.896  19.259  10.608  1.00  0.00    +0.000 C 
ATOM     90  F16 UNL A   1      28.735  20.028  11.309  1.00  0.00    +0.000 F 
ATOM    123  H33 UNL A   1      24.687  18.570  10.062  1.00  0.00    +0.000 H 
ATOM    124  H34 UNL A   1      25.647  17.265   8.275  1.00  0.00    +0.000 H 
BRANCH   81   82
ATOM     82  C59 UNL A   1      28.259  16.806   7.698  1.00  0.00    +0.000 C 
ATOM    125  H35 UNL A   1      27.613  15.964   7.556  1.00  0.00    +0.000 H 
ATOM    126  H36 UNL A   1      29.228  16.516   8.048  1.00  0.00    +0.000 H 
BRANCH   82   83
ATOM    129  H39 UNL A   1      29.797  18.321   3.263  1.00  0.00    +0.000 H 
ATOM     83  C60 UNL A   1      28.450  17.494   6.371  1.00  0.00    +0.000 C 
ATOM     84  C61 UNL A   1      27.744  18.558   5.840  1.00  0.00    +0.000 C 
ATOM     85  C62 UNL A   1      28.225  18.952   4.559  1.00  0.00    +0.000 C 
ATOM     86  C63 UNL A   1      29.297  18.188   4.156  1.00  0.00    +0.000 C 
ATOM     87  S1  UNL A   1      29.700  16.991   5.308  1.00  0.00    +0.000 S 
ATOM    127  H37 UNL A   1      26.955  19.017   6.321  1.00  0.00    +0.000 H 
ATOM    128  H38 UNL A   1      27.819  19.719   4.000  1.00  0.00    +0.000 H 
ENDBRANCH   82   83
ENDBRANCH   81   82
ENDBRANCH    2   78
ENDBRANCH    3    2
ENDBRANCH    5    3
ENDBRANCH    6    5
ENDBRANCH    7    6
ENDBRANCH    8    7
ENDBRANCH    9    8
ENDBRANCH   10    9
ENDBRANCH   11   10
ENDBRANCH   12   11
ENDBRANCH   13   12
ENDBRANCH   15   13
ENDBRANCH   19   18
BRANCH   23   24
ATOM     33  C24 UNL A   1      26.267   6.111   2.951  1.00  0.00    +0.000 C 
ATOM     34  F5  UNL A   1      25.033   5.749   2.569  1.00  0.00    +0.000 F 
ATOM     24  C19 UNL A   1      26.576   6.241   4.313  1.00  0.00    +0.000 C 
ATOM     25  C20 UNL A   1      27.881   6.618   4.659  1.00  0.00    +0.000 C 
ATOM     26  F1  UNL A   1      28.222   6.767   5.947  1.00  0.00    +0.000 F 
ATOM     27  C21 UNL A   1      28.834   6.880   3.677  1.00  0.00    +0.000 C 
ATOM     28  F2  UNL A   1      30.063   7.282   4.029  1.00  0.00    +0.000 F 
ATOM     29  C22 UNL A   1      28.509   6.740   2.337  1.00  0.00    +0.000 C 
ATOM     30  F3  UNL A   1      29.428   6.989   1.394  1.00  0.00    +0.000 F 
ATOM     31  C23 UNL A   1      27.229   6.349   1.972  1.00  0.00    +0.000 C 
ATOM     32  F4  UNL A   1      26.917   6.203   0.678  1.00  0.00    +0.000 F 
ENDBRANCH   23   24
BRANCH   40   41
ATOM     41  C30 UNL A   1      24.206   0.598   8.118  1.00  0.00    +0.000 C 
ATOM     42  C31 UNL A   1      23.631  -0.383   7.298  1.00  0.00    +0.000 C 
ATOM     43  F6  UNL A   1      22.721  -0.041   6.373  1.00  0.00    +0.000 F 
ATOM     44  C32 UNL A   1      23.964  -1.727   7.450  1.00  0.00    +0.000 C 
ATOM     45  F7  UNL A   1      23.373  -2.652   6.681  1.00  0.00    +0.000 F 
ATOM     46  C33 UNL A   1      24.896  -2.109   8.403  1.00  0.00    +0.000 C 
ATOM     47  F8  UNL A   1      25.219  -3.402   8.544  1.00  0.00    +0.000 F 
ATOM     48  C34 UNL A   1      25.486  -1.154   9.216  1.00  0.00    +0.000 C 
ATOM     49  F9  UNL A   1      26.394  -1.521  10.132  1.00  0.00    +0.000 F 
ATOM     50  C35 UNL A   1      25.139   0.187   9.083  1.00  0.00    +0.000 C 
ATOM     51  F10 UNL A   1      25.718   1.089   9.889  1.00  0.00    +0.000 F 
ENDBRANCH   40   41
BRANCH   55   56
ATOM     65  C44 UNL A   1      19.589   4.741  12.403  1.00  0.00    +0.000 C 
ATOM     66  F15 UNL A   1      20.811   5.037  12.870  1.00  0.00    +0.000 F 
ATOM     56  C39 UNL A   1      19.363   4.671  11.021  1.00  0.00    +0.000 C 
ATOM     57  C40 UNL A   1      18.071   4.354  10.583  1.00  0.00    +0.000 C 
ATOM     58  F11 UNL A   1      17.805   4.297   9.270  1.00  0.00    +0.000 F 
ATOM     59  C41 UNL A   1      17.038   4.130  11.492  1.00  0.00    +0.000 C 
ATOM     60  F12 UNL A   1      15.803   3.864  11.046  1.00  0.00    +0.000 F 
ATOM     61  C42 UNL A   1      17.286   4.195  12.855  1.00  0.00    +0.000 C 
ATOM     62  F13 UNL A   1      16.294   3.976  13.729  1.00  0.00    +0.000 F 
ATOM     63  C43 UNL A   1      18.562   4.495  13.310  1.00  0.00    +0.000 C 
ATOM     64  F14 UNL A   1      18.806   4.548  14.627  1.00  0.00    +0.000 F 
ENDBRANCH   55   56
TORSDOF 19
ENDMDL
MODEL 9
REMARK VINA RESULT:      -8.3     46.065     54.337
ROOT
ATOM     19  C15 UNL A   1       2.410  11.084  37.827  1.00  0.00    +0.000 C 
ATOM     20  C16 UNL A   1       1.092  10.673  37.236  1.00  0.00    +0.000 C 
ATOM     21  N3  UNL A   1       0.698   9.491  36.833  1.00  0.00    +0.000 N 
ATOM     22  C17 UNL A   1      -0.618   9.653  36.418  1.00  0.00    +0.000 C 
ATOM     23  C18 UNL A   1      -1.449   8.735  35.871  1.00  0.00    +0.000 C 
ATOM     35  C25 UNL A   1      -1.089   7.368  35.603  1.00  0.00    +0.000 C 
ATOM     36  C26 UNL A   1      -1.841   6.381  34.991  1.00  0.00    +0.000 C 
ATOM     37  C27 UNL A   1      -1.086   5.202  34.977  1.00  0.00    +0.000 C 
ATOM     38  C28 UNL A   1       0.147   5.465  35.547  1.00  0.00    +0.000 C 
ATOM     39  N4  UNL A   1       0.132   6.797  35.930  1.00  0.00    +0.000 N 
ATOM     40  C29 UNL A   1       1.261   4.571  35.732  1.00  0.00    +0.000 C 
ATOM     52  C36 UNL A   1       2.447   4.910  36.290  1.00  0.00    +0.000 C 
ATOM     53  N5  UNL A   1       2.856   6.138  36.789  1.00  0.00    +0.000 N 
ATOM     54  C37 UNL A   1       4.077   5.961  37.230  1.00  0.00    +0.000 C 
ATOM     55  C38 UNL A   1       5.016   6.956  37.853  1.00  0.00    +0.000 C 
ATOM     67  C45 UNL A   1       4.625   8.237  37.989  1.00  0.00    +0.000 C 
ATOM     68  C46 UNL A   1       5.427   9.311  38.568  1.00  0.00    +0.000 C 
ATOM     69  C47 UNL A   1       4.702  10.442  38.578  1.00  0.00    +0.000 C 
ATOM     70  C48 UNL A   1       3.394  10.178  37.978  1.00  0.00    +0.000 C 
ATOM     71  N6  UNL A   1       3.441   8.845  37.651  1.00  0.00    +0.000 N 
ATOM     72  C49 UNL A   1       4.574   4.585  37.081  1.00  0.00    +0.000 C 
ATOM     73  C50 UNL A   1       3.556   3.994  36.472  1.00  0.00    +0.000 C 
ATOM     74  C51 UNL A   1      -0.969  11.037  36.656  1.00  0.00    +0.000 C 
ATOM     75  C52 UNL A   1       0.072  11.725  37.104  1.00  0.00    +0.000 C 
ATOM    111  H21 UNL A   1      -2.793   6.494  34.610  1.00  0.00    +0.000 H 
ATOM    112  H22 UNL A   1      -1.397   4.291  34.604  1.00  0.00    +0.000 H 
ATOM    113  H23 UNL A   1       0.876   7.267  36.369  1.00  0.00    +0.000 H 
ATOM    114  H24 UNL A   1       6.394   9.217  38.912  1.00  0.00    +0.000 H 
ATOM    115  H25 UNL A   1       5.018  11.351  38.950  1.00  0.00    +0.000 H 
ATOM    116  H26 UNL A   1       2.696   8.371  37.215  1.00  0.00    +0.000 H 
ATOM    117  H27 UNL A   1       5.480   4.184  37.373  1.00  0.00    +0.000 H 
ATOM    118  H28 UNL A   1       3.552   3.009  36.167  1.00  0.00    +0.000 H 
ATOM    119  H29 UNL A   1      -1.907  11.437  36.497  1.00  0.00    +0.000 H 
ATOM    120  H30 UNL A   1       0.148  12.734  37.307  1.00  0.00    +0.000 H 
ENDROOT
BRANCH   19   18
ATOM     76  C53 UNL A   1       2.205  12.817  39.612  1.00  0.00    +0.000 C 
ATOM    109  H19 UNL A   1       3.880  15.446  37.392  1.00  0.00    +0.000 H 
ATOM     77  C54 UNL A   1       2.384  14.115  40.084  1.00  0.00    +0.000 C 
ATOM     15  C11 UNL A   1       3.049  15.059  39.295  1.00  0.00    +0.000 C 
ATOM     16  C12 UNL A   1       3.430  14.736  37.989  1.00  0.00    +0.000 C 
ATOM     17  C13 UNL A   1       3.198  13.451  37.495  1.00  0.00    +0.000 C 
ATOM    110  H20 UNL A   1       3.460  13.218  36.525  1.00  0.00    +0.000 H 
ATOM     18  C14 UNL A   1       2.610  12.472  38.313  1.00  0.00    +0.000 C 
ATOM    121  H31 UNL A   1       1.773  12.105  40.221  1.00  0.00    +0.000 H 
ATOM    122  H32 UNL A   1       2.026  14.381  41.015  1.00  0.00    +0.000 H 
BRANCH   15   13
ATOM     13  C10 UNL A   1       3.344  16.414  39.809  1.00  0.00    +0.000 C 
ATOM     14  O2  UNL A   1       2.819  17.390  39.282  1.00  0.00    +0.000 O 
BRANCH   13   12
ATOM    108  H18 UNL A   1       4.119  17.423  41.356  1.00  0.00    +0.000 H 
ATOM     12  N2  UNL A   1       4.214  16.579  40.857  1.00  0.00    +0.000 N 
BRANCH   12   11
ATOM    106  H16 UNL A   1       5.719  16.128  42.194  1.00  0.00    +0.000 H 
ATOM     11  C9  UNL A   1       5.259  15.687  41.334  1.00  0.00    +0.000 C 
ATOM    107  H17 UNL A   1       4.802  14.749  41.572  1.00  0.00    +0.000 H 
BRANCH   11   10
ATOM    105  H15 UNL A   1       5.841  15.491  39.332  1.00  0.00    +0.000 H 
ATOM     10  C8  UNL A   1       6.332  15.430  40.281  1.00  0.00    +0.000 C 
ATOM    104  H14 UNL A   1       6.764  14.470  40.475  1.00  0.00    +0.000 H 
BRANCH   10    9
ATOM      9  C7  UNL A   1       7.462  16.461  40.244  1.00  0.00    +0.000 C 
ATOM    102  H12 UNL A   1       7.081  17.353  39.793  1.00  0.00    +0.000 H 
ATOM    103  H13 UNL A   1       7.776  16.595  41.258  1.00  0.00    +0.000 H 
BRANCH    9    8
ATOM    100  H10 UNL A   1       9.063  15.115  39.887  1.00  0.00    +0.000 H 
ATOM    101  H11 UNL A   1       8.404  15.948  38.444  1.00  0.00    +0.000 H 
ATOM      8  C6  UNL A   1       8.709  16.033  39.466  1.00  0.00    +0.000 C 
BRANCH    8    7
ATOM     98  H8  UNL A   1      10.783  16.492  39.572  1.00  0.00    +0.000 H 
ATOM     99  H9  UNL A   1       9.798  17.592  38.566  1.00  0.00    +0.000 H 
ATOM      7  C5  UNL A   1       9.869  17.039  39.479  1.00  0.00    +0.000 C 
BRANCH    7    6
ATOM     97  H7  UNL A   1      10.118  17.588  41.520  1.00  0.00    +0.000 H 
ATOM      6  C4  UNL A   1       9.812  18.070  40.616  1.00  0.00    +0.000 C 
ATOM     96  H6  UNL A   1       8.811  18.440  40.699  1.00  0.00    +0.000 H 
BRANCH    6    5
ATOM      5  N1  UNL A   1      10.709  19.188  40.369  1.00  0.00    +0.000 N 
ATOM     95  H5  UNL A   1      10.767  19.551  39.456  1.00  0.00    +0.000 H 
BRANCH    5    3
ATOM      3  C3  UNL A   1      11.479  19.760  41.357  1.00  0.00    +0.000 C 
ATOM      4  O1  UNL A   1      11.003  19.811  42.489  1.00  0.00    +0.000 O 
BRANCH    3    2
ATOM      2  C2  UNL A   1      12.899  20.203  40.990  1.00  0.00    +0.000 C 
ATOM     94  H4  UNL A   1      13.026  19.943  39.960  1.00  0.00    +0.000 H 
BRANCH    2    1
ATOM      1  C1  UNL A   1      13.860  19.471  41.942  1.00  0.00    +0.000 C 
ATOM     91  H1  UNL A   1      13.347  18.658  42.411  1.00  0.00    +0.000 H 
ATOM     92  H2  UNL A   1      14.207  20.152  42.690  1.00  0.00    +0.000 H 
ATOM     93  H3  UNL A   1      14.693  19.094  41.388  1.00  0.00    +0.000 H 
ENDBRANCH    2    1
BRANCH    2   78
ATOM    130  H40 UNL A   1      13.341  24.499  42.853  1.00  0.00    +0.000 H 
ATOM     78  C55 UNL A   1      13.199  21.701  40.986  1.00  0.00    +0.000 C 
ATOM     79  C56 UNL A   1      13.711  22.264  39.799  1.00  0.00    +0.000 C 
ATOM     80  C57 UNL A   1      14.121  23.599  39.739  1.00  0.00    +0.000 C 
ATOM     81  C58 UNL A   1      14.038  24.422  40.865  1.00  0.00    +0.000 C 
ATOM     88  C64 UNL A   1      13.453  23.899  42.022  1.00  0.00    +0.000 C 
ATOM     89  C65 UNL A   1      13.019  22.570  42.066  1.00  0.00    +0.000 C 
ATOM     90  F16 UNL A   1      12.400  22.178  43.185  1.00  0.00    +0.000 F 
ATOM    123  H33 UNL A   1      13.787  21.677  38.954  1.00  0.00    +0.000 H 
ATOM    124  H34 UNL A   1      14.488  23.981  38.853  1.00  0.00    +0.000 H 
BRANCH   81   82
ATOM     82  C59 UNL A   1      14.571  25.838  40.832  1.00  0.00    +0.000 C 
ATOM    125  H35 UNL A   1      13.793  26.485  40.481  1.00  0.00    +0.000 H 
ATOM    126  H36 UNL A   1      15.421  25.841  40.182  1.00  0.00    +0.000 H 
BRANCH   82   83
ATOM    129  H39 UNL A   1      16.070  28.500  44.704  1.00  0.00    +0.000 H 
ATOM     83  C60 UNL A   1      15.035  26.332  42.178  1.00  0.00    +0.000 C 
ATOM     84  C61 UNL A   1      15.351  25.596  43.306  1.00  0.00    +0.000 C 
ATOM     85  C62 UNL A   1      15.772  26.412  44.394  1.00  0.00    +0.000 C 
ATOM     86  C63 UNL A   1      15.783  27.747  44.059  1.00  0.00    +0.000 C 
ATOM     87  S1  UNL A   1      15.266  28.010  42.451  1.00  0.00    +0.000 S 
ATOM    127  H37 UNL A   1      15.288  24.567  43.353  1.00  0.00    +0.000 H 
ATOM    128  H38 UNL A   1      16.038  26.046  45.322  1.00  0.00    +0.000 H 
ENDBRANCH   82   83
ENDBRANCH   81   82
ENDBRANCH    2   78
ENDBRANCH    3    2
ENDBRANCH    5    3
ENDBRANCH    6    5
ENDBRANCH    7    6
ENDBRANCH    8    7
ENDBRANCH    9    8
ENDBRANCH   10    9
ENDBRANCH   11   10
ENDBRANCH   12   11
ENDBRANCH   13   12
ENDBRANCH   15   13
ENDBRANCH   19   18
BRANCH   23   24
ATOM     33  C24 UNL A   1      -3.879   9.070  36.454  1.00  0.00    +0.000 C 
ATOM     34  F5  UNL A   1      -3.638   8.584  37.680  1.00  0.00    +0.000 F 
ATOM     24  C19 UNL A   1      -2.838   9.184  35.521  1.00  0.00    +0.000 C 
ATOM     25  C20 UNL A   1      -3.145   9.694  34.252  1.00  0.00    +0.000 C 
ATOM     26  F1  UNL A   1      -2.181   9.833  33.329  1.00  0.00    +0.000 F 
ATOM     27  C21 UNL A   1      -4.439  10.100  33.937  1.00  0.00    +0.000 C 
ATOM     28  F2  UNL A   1      -4.700  10.627  32.733  1.00  0.00    +0.000 F 
ATOM     29  C22 UNL A   1      -5.454   9.974  34.873  1.00  0.00    +0.000 C 
ATOM     30  F3  UNL A   1      -6.700  10.362  34.567  1.00  0.00    +0.000 F 
ATOM     31  C23 UNL A   1      -5.178   9.453  36.128  1.00  0.00    +0.000 C 
ATOM     32  F4  UNL A   1      -6.160   9.322  37.029  1.00  0.00    +0.000 F 
ENDBRANCH   23   24
BRANCH   40   41
ATOM     41  C30 UNL A   1       1.107   3.158  35.255  1.00  0.00    +0.000 C 
ATOM     42  C31 UNL A   1       0.598   2.154  36.091  1.00  0.00    +0.000 C 
ATOM     43  F6  UNL A   1       0.283   2.432  37.365  1.00  0.00    +0.000 F 
ATOM     44  C32 UNL A   1       0.442   0.850  35.629  1.00  0.00    +0.000 C 
ATOM     45  F7  UNL A   1      -0.010  -0.103  36.456  1.00  0.00    +0.000 F 
ATOM     46  C33 UNL A   1       0.767   0.533  34.318  1.00  0.00    +0.000 C 
ATOM     47  F8  UNL A   1       0.612  -0.722  33.874  1.00  0.00    +0.000 F 
ATOM     48  C34 UNL A   1       1.260   1.513  33.471  1.00  0.00    +0.000 C 
ATOM     49  F9  UNL A   1       1.565   1.210  32.201  1.00  0.00    +0.000 F 
ATOM     50  C35 UNL A   1       1.439   2.813  33.936  1.00  0.00    +0.000 C 
ATOM     51  F10 UNL A   1       1.926   3.739  33.097  1.00  0.00    +0.000 F 
ENDBRANCH   40   41
BRANCH   55   56
ATOM     65  C44 UNL A   1       7.514   6.897  37.552  1.00  0.00    +0.000 C 
ATOM     66  F15 UNL A   1       7.392   7.612  36.424  1.00  0.00    +0.000 F 
ATOM     56  C39 UNL A   1       6.375   6.550  38.290  1.00  0.00    +0.000 C 
ATOM     57  C40 UNL A   1       6.555   5.799  39.460  1.00  0.00    +0.000 C 
ATOM     58  F11 UNL A   1       5.494   5.463  40.209  1.00  0.00    +0.000 F 
ATOM     59  C41 UNL A   1       7.828   5.422  39.883  1.00  0.00    +0.000 C 
ATOM     60  F12 UNL A   1       7.975   4.735  41.024  1.00  0.00    +0.000 F 
ATOM     61  C42 UNL A   1       8.941   5.768  39.132  1.00  0.00    +0.000 C 
ATOM     62  F13 UNL A   1      10.164   5.402  39.537  1.00  0.00    +0.000 F 
ATOM     63  C43 UNL A   1       8.785   6.500  37.964  1.00  0.00    +0.000 C 
ATOM     64  F14 UNL A   1       9.857   6.826  37.231  1.00  0.00    +0.000 F 
ENDBRANCH   55   56
TORSDOF 19
ENDMDL
MODEL 10
REMARK VINA RESULT:      -8.3     49.765     56.255
ROOT
ATOM     19  C15 UNL A   1      10.507   0.172  24.552  1.00  0.00    +0.000 C 
ATOM     20  C16 UNL A   1      10.516   0.712  23.151  1.00  0.00    +0.000 C 
ATOM     21  N3  UNL A   1      10.157   0.127  22.035  1.00  0.00    +0.000 N 
ATOM     22  C17 UNL A   1      10.317   1.082  21.040  1.00  0.00    +0.000 C 
ATOM     23  C18 UNL A   1      10.125   0.951  19.706  1.00  0.00    +0.000 C 
ATOM     35  C25 UNL A   1       9.713  -0.266  19.059  1.00  0.00    +0.000 C 
ATOM     36  C26 UNL A   1       9.555  -0.516  17.707  1.00  0.00    +0.000 C 
ATOM     37  C27 UNL A   1       9.110  -1.834  17.554  1.00  0.00    +0.000 C 
ATOM     38  C28 UNL A   1       9.025  -2.415  18.808  1.00  0.00    +0.000 C 
ATOM     39  N4  UNL A   1       9.394  -1.442  19.723  1.00  0.00    +0.000 N 
ATOM     40  C29 UNL A   1       8.635  -3.758  19.151  1.00  0.00    +0.000 C 
ATOM     52  C36 UNL A   1       8.590  -4.259  20.409  1.00  0.00    +0.000 C 
ATOM     53  N5  UNL A   1       8.896  -3.631  21.608  1.00  0.00    +0.000 N 
ATOM     54  C37 UNL A   1       8.687  -4.523  22.545  1.00  0.00    +0.000 C 
ATOM     55  C38 UNL A   1       8.878  -4.400  24.031  1.00  0.00    +0.000 C 
ATOM     67  C45 UNL A   1       9.349  -3.247  24.543  1.00  0.00    +0.000 C 
ATOM     68  C46 UNL A   1       9.590  -2.985  25.959  1.00  0.00    +0.000 C 
ATOM     69  C47 UNL A   1      10.019  -1.721  26.104  1.00  0.00    +0.000 C 
ATOM     70  C48 UNL A   1      10.114  -1.094  24.785  1.00  0.00    +0.000 C 
ATOM     71  N6  UNL A   1       9.704  -2.077  23.919  1.00  0.00    +0.000 N 
ATOM     72  C49 UNL A   1       8.199  -5.817  22.044  1.00  0.00    +0.000 C 
ATOM     73  C50 UNL A   1       8.191  -5.613  20.735  1.00  0.00    +0.000 C 
ATOM     74  C51 UNL A   1      10.765   2.297  21.687  1.00  0.00    +0.000 C 
ATOM     75  C52 UNL A   1      10.962   2.104  22.983  1.00  0.00    +0.000 C 
ATOM    111  H21 UNL A   1       9.736   0.154  16.944  1.00  0.00    +0.000 H 
ATOM    112  H22 UNL A   1       8.884  -2.294  16.659  1.00  0.00    +0.000 H 
ATOM    113  H23 UNL A   1       9.426  -1.566  20.699  1.00  0.00    +0.000 H 
ATOM    114  H24 UNL A   1       9.453  -3.662  26.725  1.00  0.00    +0.000 H 
ATOM    115  H25 UNL A   1      10.246  -1.265  27.002  1.00  0.00    +0.000 H 
ATOM    116  H26 UNL A   1       9.668  -1.954  22.943  1.00  0.00    +0.000 H 
ATOM    117  H27 UNL A   1       7.934  -6.661  22.574  1.00  0.00    +0.000 H 
ATOM    118  H28 UNL A   1       7.932  -6.327  20.036  1.00  0.00    +0.000 H 
ATOM    119  H29 UNL A   1      10.912   3.196  21.203  1.00  0.00    +0.000 H 
ATOM    120  H30 UNL A   1      11.333   2.759  23.690  1.00  0.00    +0.000 H 
ENDROOT
BRANCH   19   18
ATOM     76  C53 UNL A   1      12.208   1.176  26.079  1.00  0.00    +0.000 C 
ATOM    109  H19 UNL A   1       9.516   3.167  27.933  1.00  0.00    +0.000 H 
ATOM     77  C54 UNL A   1      12.561   1.996  27.149  1.00  0.00    +0.000 C 
ATOM     15  C11 UNL A   1      11.585   2.768  27.787  1.00  0.00    +0.000 C 
ATOM     16  C12 UNL A   1      10.240   2.630  27.431  1.00  0.00    +0.000 C 
ATOM     17  C13 UNL A   1       9.880   1.764  26.398  1.00  0.00    +0.000 C 
ATOM    110  H20 UNL A   1       8.885   1.646  26.149  1.00  0.00    +0.000 H 
ATOM     18  C14 UNL A   1      10.864   1.052  25.694  1.00  0.00    +0.000 C 
ATOM    121  H31 UNL A   1      12.939   0.657  25.567  1.00  0.00    +0.000 H 
ATOM    122  H32 UNL A   1      13.541   2.034  27.470  1.00  0.00    +0.000 H 
BRANCH   15   13
ATOM     13  C10 UNL A   1      11.946   3.725  28.857  1.00  0.00    +0.000 C 
ATOM     14  O2  UNL A   1      11.294   4.756  28.992  1.00  0.00    +0.000 O 
BRANCH   13   12
ATOM    108  H18 UNL A   1      12.786   3.079  30.555  1.00  0.00    +0.000 H 
ATOM     12  N2  UNL A   1      13.013   3.467  29.679  1.00  0.00    +0.000 N 
BRANCH   12   11
ATOM    106  H16 UNL A   1      14.561   4.040  28.442  1.00  0.00    +0.000 H 
ATOM     11  C9  UNL A   1      14.430   3.688  29.444  1.00  0.00    +0.000 C 
ATOM    107  H17 UNL A   1      14.771   4.407  30.160  1.00  0.00    +0.000 H 
BRANCH   11   10
ATOM    105  H15 UNL A   1      14.562   1.646  29.888  1.00  0.00    +0.000 H 
ATOM     10  C8  UNL A   1      15.256   2.418  29.628  1.00  0.00    +0.000 C 
ATOM    104  H14 UNL A   1      15.988   2.605  30.386  1.00  0.00    +0.000 H 
BRANCH   10    9
ATOM      9  C7  UNL A   1      15.986   1.933  28.374  1.00  0.00    +0.000 C 
ATOM    102  H12 UNL A   1      16.124   0.875  28.460  1.00  0.00    +0.000 H 
ATOM    103  H13 UNL A   1      15.373   2.218  27.544  1.00  0.00    +0.000 H 
BRANCH    9    8
ATOM    100  H10 UNL A   1      17.497   2.656  27.071  1.00  0.00    +0.000 H 
ATOM    101  H11 UNL A   1      17.337   3.513  28.637  1.00  0.00    +0.000 H 
ATOM      8  C6  UNL A   1      17.356   2.571  28.129  1.00  0.00    +0.000 C 
BRANCH    8    7
ATOM     98  H8  UNL A   1      18.407   1.709  29.764  1.00  0.00    +0.000 H 
ATOM     99  H9  UNL A   1      18.579   0.862  28.200  1.00  0.00    +0.000 H 
ATOM      7  C5  UNL A   1      18.551   1.803  28.708  1.00  0.00    +0.000 C 
BRANCH    7    6
ATOM     97  H7  UNL A   1      19.750   3.443  28.075  1.00  0.00    +0.000 H 
ATOM      6  C4  UNL A   1      19.917   2.464  28.469  1.00  0.00    +0.000 C 
ATOM     96  H6  UNL A   1      20.476   1.865  27.780  1.00  0.00    +0.000 H 
BRANCH    6    5
ATOM      5  N1  UNL A   1      20.673   2.593  29.704  1.00  0.00    +0.000 N 
ATOM     95  H5  UNL A   1      20.359   3.234  30.382  1.00  0.00    +0.000 H 
BRANCH    5    3
ATOM      3  C3  UNL A   1      21.808   1.859  29.966  1.00  0.00    +0.000 C 
ATOM      4  O1  UNL A   1      22.609   1.706  29.045  1.00  0.00    +0.000 O 
BRANCH    3    2
ATOM      2  C2  UNL A   1      22.029   1.370  31.400  1.00  0.00    +0.000 C 
ATOM     94  H4  UNL A   1      22.288   0.335  31.317  1.00  0.00    +0.000 H 
BRANCH    2    1
ATOM      1  C1  UNL A   1      20.722   1.627  32.171  1.00  0.00    +0.000 C 
ATOM     91  H1  UNL A   1      20.131   2.344  31.640  1.00  0.00    +0.000 H 
ATOM     92  H2  UNL A   1      20.952   2.005  33.145  1.00  0.00    +0.000 H 
ATOM     93  H3  UNL A   1      20.176   0.712  32.262  1.00  0.00    +0.000 H 
ENDBRANCH    2    1
BRANCH    2   78
ATOM    130  H40 UNL A   1      25.543   1.319  34.528  1.00  0.00    +0.000 H 
ATOM     78  C55 UNL A   1      23.217   1.941  32.172  1.00  0.00    +0.000 C 
ATOM     79  C56 UNL A   1      23.697   3.212  31.795  1.00  0.00    +0.000 C 
ATOM     80  C57 UNL A   1      24.847   3.761  32.367  1.00  0.00    +0.000 C 
ATOM     81  C58 UNL A   1      25.566   3.059  33.337  1.00  0.00    +0.000 C 
ATOM     88  C64 UNL A   1      25.053   1.837  33.781  1.00  0.00    +0.000 C 
ATOM     89  C65 UNL A   1      23.885   1.306  33.224  1.00  0.00    +0.000 C 
ATOM     90  F16 UNL A   1      23.424   0.172  33.763  1.00  0.00    +0.000 F 
ATOM    123  H33 UNL A   1      23.186   3.749  31.076  1.00  0.00    +0.000 H 
ATOM    124  H34 UNL A   1      25.169   4.696  32.070  1.00  0.00    +0.000 H 
BRANCH   81   82
ATOM     82  C59 UNL A   1      26.865   3.607  33.888  1.00  0.00    +0.000 C 
ATOM    125  H35 UNL A   1      27.364   4.145  33.109  1.00  0.00    +0.000 H 
ATOM    126  H36 UNL A   1      27.439   2.772  34.233  1.00  0.00    +0.000 H 
BRANCH   82   83
ATOM    129  H39 UNL A   1      25.346   5.902  37.981  1.00  0.00    +0.000 H 
ATOM     83  C60 UNL A   1      26.671   4.531  35.062  1.00  0.00    +0.000 C 
ATOM     84  C61 UNL A   1      27.348   5.700  35.363  1.00  0.00    +0.000 C 
ATOM     85  C62 UNL A   1      26.875   6.318  36.555  1.00  0.00    +0.000 C 
ATOM     86  C63 UNL A   1      25.836   5.614  37.120  1.00  0.00    +0.000 C 
ATOM     87  S1  UNL A   1      25.456   4.205  36.229  1.00  0.00    +0.000 S 
ATOM    127  H37 UNL A   1      28.114   6.081  34.785  1.00  0.00    +0.000 H 
ATOM    128  H38 UNL A   1      27.263   7.191  36.947  1.00  0.00    +0.000 H 
ENDBRANCH   82   83
ENDBRANCH   81   82
ENDBRANCH    2   78
ENDBRANCH    3    2
ENDBRANCH    5    3
ENDBRANCH    6    5
ENDBRANCH    7    6
ENDBRANCH    8    7
ENDBRANCH    9    8
ENDBRANCH   10    9
ENDBRANCH   11   10
ENDBRANCH   12   11
ENDBRANCH   13   12
ENDBRANCH   15   13
ENDBRANCH   19   18
BRANCH   23   24
ATOM     33  C24 UNL A   1      11.661   2.485  18.424  1.00  0.00    +0.000 C 
ATOM     34  F5  UNL A   1      12.697   1.700  18.753  1.00  0.00    +0.000 F 
ATOM     24  C19 UNL A   1      10.364   2.161  18.852  1.00  0.00    +0.000 C 
ATOM     25  C20 UNL A   1       9.317   3.018  18.485  1.00  0.00    +0.000 C 
ATOM     26  F1  UNL A   1       8.059   2.745  18.860  1.00  0.00    +0.000 F 
ATOM     27  C21 UNL A   1       9.554   4.143  17.698  1.00  0.00    +0.000 C 
ATOM     28  F2  UNL A   1       8.532   4.922  17.322  1.00  0.00    +0.000 F 
ATOM     29  C22 UNL A   1      10.844   4.447  17.291  1.00  0.00    +0.000 C 
ATOM     30  F3  UNL A   1      11.071   5.531  16.536  1.00  0.00    +0.000 F 
ATOM     31  C23 UNL A   1      11.898   3.624  17.658  1.00  0.00    +0.000 C 
ATOM     32  F4  UNL A   1      13.146   3.923  17.274  1.00  0.00    +0.000 F 
ENDBRANCH   23   24
BRANCH   40   41
ATOM     41  C30 UNL A   1       8.267  -4.685  18.031  1.00  0.00    +0.000 C 
ATOM     42  C31 UNL A   1       9.178  -5.624  17.528  1.00  0.00    +0.000 C 
ATOM     43  F6  UNL A   1      10.429  -5.677  18.012  1.00  0.00    +0.000 F 
ATOM     44  C32 UNL A   1       8.816  -6.492  16.501  1.00  0.00    +0.000 C 
ATOM     45  F7  UNL A   1       9.715  -7.357  16.009  1.00  0.00    +0.000 F 
ATOM     46  C33 UNL A   1       7.533  -6.454  15.978  1.00  0.00    +0.000 C 
ATOM     47  F8  UNL A   1       7.185  -7.293  14.993  1.00  0.00    +0.000 F 
ATOM     48  C34 UNL A   1       6.612  -5.541  16.469  1.00  0.00    +0.000 C 
ATOM     49  F9  UNL A   1       5.368  -5.509  15.970  1.00  0.00    +0.000 F 
ATOM     50  C35 UNL A   1       6.977  -4.656  17.480  1.00  0.00    +0.000 C 
ATOM     51  F10 UNL A   1       6.069  -3.778  17.930  1.00  0.00    +0.000 F 
ENDBRANCH   40   41
BRANCH   55   56
ATOM     65  C44 UNL A   1       9.512  -6.568  25.141  1.00  0.00    +0.000 C 
ATOM     66  F15 UNL A   1      10.701  -6.535  24.521  1.00  0.00    +0.000 F 
ATOM     56  C39 UNL A   1       8.582  -5.541  24.933  1.00  0.00    +0.000 C 
ATOM     57  C40 UNL A   1       7.353  -5.624  25.601  1.00  0.00    +0.000 C 
ATOM     58  F11 UNL A   1       6.442  -4.652  25.448  1.00  0.00    +0.000 F 
ATOM     59  C41 UNL A   1       7.070  -6.686  26.457  1.00  0.00    +0.000 C 
ATOM     60  F12 UNL A   1       5.902  -6.723  27.112  1.00  0.00    +0.000 F 
ATOM     61  C42 UNL A   1       8.002  -7.697  26.642  1.00  0.00    +0.000 C 
ATOM     62  F13 UNL A   1       7.728  -8.721  27.462  1.00  0.00    +0.000 F 
ATOM     63  C43 UNL A   1       9.220  -7.642  25.980  1.00  0.00    +0.000 C 
ATOM     64  F14 UNL A   1      10.117  -8.622  26.148  1.00  0.00    +0.000 F 
ENDBRANCH   55   56
TORSDOF 19
ENDMDL
