MODEL 1
REMARK VINA RESULT:     -11.6      0.000      0.000
ROOT
ATOM     33  C26 UNL A   1      52.945  20.461  11.401  1.00  0.00    +0.000 C 
ATOM     34  C27 UNL A   1      54.265  19.787  11.151  1.00  0.00    +0.000 C 
ATOM     35  N4  UNL A   1      55.279  19.625  11.964  1.00  0.00    +0.000 N 
ATOM     36  C28 UNL A   1      56.223  18.901  11.249  1.00  0.00    +0.000 C 
ATOM     37  C29 UNL A   1      57.467  18.526  11.631  1.00  0.00    +0.000 C 
ATOM     49  C36 UNL A   1      58.053  18.836  12.910  1.00  0.00    +0.000 C 
ATOM     50  C37 UNL A   1      59.330  18.555  13.365  1.00  0.00    +0.000 C 
ATOM     51  C38 UNL A   1      59.434  19.012  14.684  1.00  0.00    +0.000 C 
ATOM     52  C39 UNL A   1      58.238  19.616  15.034  1.00  0.00    +0.000 C 
ATOM     53  N5  UNL A   1      57.398  19.497  13.938  1.00  0.00    +0.000 N 
ATOM     54  C40 UNL A   1      57.884  20.250  16.277  1.00  0.00    +0.000 C 
ATOM     66  C47 UNL A   1      56.687  20.833  16.538  1.00  0.00    +0.000 C 
ATOM     67  N6  UNL A   1      55.580  20.958  15.712  1.00  0.00    +0.000 N 
ATOM     68  C48 UNL A   1      54.672  21.587  16.417  1.00  0.00    +0.000 C 
ATOM     69  C49 UNL A   1      53.287  22.016  16.017  1.00  0.00    +0.000 C 
ATOM     81  C56 UNL A   1      52.853  21.763  14.768  1.00  0.00    +0.000 C 
ATOM     82  C57 UNL A   1      51.538  22.120  14.241  1.00  0.00    +0.000 C 
ATOM     83  C58 UNL A   1      51.436  21.671  12.979  1.00  0.00    +0.000 C 
ATOM     84  C59 UNL A   1      52.693  21.025  12.597  1.00  0.00    +0.000 C 
ATOM     85  N7  UNL A   1      53.476  21.133  13.719  1.00  0.00    +0.000 N 
ATOM     86  C60 UNL A   1      55.095  21.907  17.788  1.00  0.00    +0.000 C 
ATOM     87  C61 UNL A   1      56.343  21.461  17.797  1.00  0.00    +0.000 C 
ATOM     88  C62 UNL A   1      55.644  18.614   9.955  1.00  0.00    +0.000 C 
ATOM     89  C63 UNL A   1      54.461  19.195   9.820  1.00  0.00    +0.000 C 
ATOM    118  H27 UNL A   1      60.076  18.090  12.825  1.00  0.00    +0.000 H 
ATOM    119  H28 UNL A   1      60.263  18.915  15.291  1.00  0.00    +0.000 H 
ATOM    120  H29 UNL A   1      56.474  19.833  13.895  1.00  0.00    +0.000 H 
ATOM    121  H30 UNL A   1      50.806  22.635  14.755  1.00  0.00    +0.000 H 
ATOM    122  H31 UNL A   1      50.605  21.768  12.375  1.00  0.00    +0.000 H 
ATOM    123  H32 UNL A   1      54.398  20.792  13.767  1.00  0.00    +0.000 H 
ATOM    124  H33 UNL A   1      54.559  22.359  18.546  1.00  0.00    +0.000 H 
ATOM    125  H34 UNL A   1      56.987  21.549  18.598  1.00  0.00    +0.000 H 
ATOM    126  H35 UNL A   1      56.095  18.033   9.230  1.00  0.00    +0.000 H 
ATOM    127  H36 UNL A   1      53.840  19.223   8.997  1.00  0.00    +0.000 H 
ENDROOT
BRANCH   33   32
ATOM    129  H38 UNL A   1      49.639  18.362   8.978  1.00  0.00    +0.000 H 
ATOM    128  H37 UNL A   1      51.341  18.431  10.703  1.00  0.00    +0.000 H 
ATOM    116  H25 UNL A   1      50.342  22.420   8.116  1.00  0.00    +0.000 H 
ATOM    117  H26 UNL A   1      52.182  22.433   9.700  1.00  0.00    +0.000 H 
ATOM     90  C64 UNL A   1      51.142  19.274  10.144  1.00  0.00    +0.000 C 
ATOM     91  C65 UNL A   1      50.135  19.245   9.179  1.00  0.00    +0.000 C 
ATOM     29  C22 UNL A   1      49.800  20.411   8.486  1.00  0.00    +0.000 C 
ATOM     30  C23 UNL A   1      50.558  21.572   8.665  1.00  0.00    +0.000 C 
ATOM     31  C24 UNL A   1      51.607  21.584   9.586  1.00  0.00    +0.000 C 
ATOM     32  C25 UNL A   1      51.886  20.445  10.358  1.00  0.00    +0.000 C 
BRANCH   29   27
ATOM     27  C21 UNL A   1      48.656  20.445   7.547  1.00  0.00    +0.000 C 
ATOM     28  O2  UNL A   1      48.245  21.525   7.132  1.00  0.00    +0.000 O 
BRANCH   27   26
ATOM     26  N3  UNL A   1      48.040  19.280   7.166  1.00  0.00    +0.000 N 
ATOM    115  H24 UNL A   1      47.565  18.801   7.883  1.00  0.00    +0.000 H 
BRANCH   26   25
ATOM     25  C20 UNL A   1      47.985  18.646   5.857  1.00  0.00    +0.000 C 
ATOM    114  H23 UNL A   1      48.254  17.618   5.986  1.00  0.00    +0.000 H 
ATOM    113  H22 UNL A   1      48.663  19.155   5.203  1.00  0.00    +0.000 H 
BRANCH   25   24
ATOM    112  H21 UNL A   1      45.903  18.610   6.057  1.00  0.00    +0.000 H 
ATOM    111  H20 UNL A   1      46.517  17.872   4.544  1.00  0.00    +0.000 H 
ATOM     24  C19 UNL A   1      46.591  18.682   5.239  1.00  0.00    +0.000 C 
BRANCH   24   23
ATOM    109  H18 UNL A   1      46.196  20.765   5.217  1.00  0.00    +0.000 H 
ATOM    110  H19 UNL A   1      46.990  20.103   3.753  1.00  0.00    +0.000 H 
ATOM     23  C18 UNL A   1      46.234  19.973   4.500  1.00  0.00    +0.000 C 
BRANCH   23   22
ATOM    107  H16 UNL A   1      44.310  19.152   4.142  1.00  0.00    +0.000 H 
ATOM    108  H17 UNL A   1      44.467  20.921   3.895  1.00  0.00    +0.000 H 
ATOM     22  C17 UNL A   1      44.899  19.954   3.748  1.00  0.00    +0.000 C 
BRANCH   22   21
ATOM    105  H14 UNL A   1      46.000  19.992   1.930  1.00  0.00    +0.000 H 
ATOM    106  H15 UNL A   1      44.718  18.750   2.033  1.00  0.00    +0.000 H 
ATOM     21  C16 UNL A   1      44.998  19.764   2.229  1.00  0.00    +0.000 C 
BRANCH   21   20
ATOM     20  C15 UNL A   1      44.049  20.638   1.409  1.00  0.00    +0.000 C 
ATOM    103  H12 UNL A   1      43.290  21.028   2.053  1.00  0.00    +0.000 H 
ATOM    104  H13 UNL A   1      44.617  21.432   0.970  1.00  0.00    +0.000 H 
BRANCH   20   19
ATOM     19  N2  UNL A   1      43.424  19.882   0.345  1.00  0.00    +0.000 N 
ATOM    102  H11 UNL A   1      43.986  19.280  -0.195  1.00  0.00    +0.000 H 
BRANCH   19    2
ATOM      1  O1  UNL A   1      41.542  19.333  -0.852  1.00  0.00    +0.000 O 
ATOM      2  C1  UNL A   1      42.081  19.963   0.054  1.00  0.00    +0.000 C 
BRANCH    2    3
ATOM      3  C2  UNL A   1      41.299  20.919   0.939  1.00  0.00    +0.000 C 
ATOM     92  H1  UNL A   1      40.744  21.588   0.314  1.00  0.00    +0.000 H 
ATOM     93  H2  UNL A   1      42.003  21.443   1.551  1.00  0.00    +0.000 H 
BRANCH    3    4
ATOM     97  H6  UNL A   1      37.138  20.099   2.868  1.00  0.00    +0.000 H 
ATOM      4  C3  UNL A   1      40.333  20.204   1.861  1.00  0.00    +0.000 C 
ATOM      5  C4  UNL A   1      40.811  19.120   2.622  1.00  0.00    +0.000 C 
ATOM      6  C5  UNL A   1      39.956  18.402   3.453  1.00  0.00    +0.000 C 
ATOM      7  C6  UNL A   1      38.617  18.759   3.534  1.00  0.00    +0.000 C 
ATOM      8  C7  UNL A   1      38.133  19.840   2.791  1.00  0.00    +0.000 C 
ATOM      9  C8  UNL A   1      38.973  20.581   1.945  1.00  0.00    +0.000 C 
ATOM     94  H3  UNL A   1      41.807  18.855   2.563  1.00  0.00    +0.000 H 
ATOM     95  H4  UNL A   1      40.316  17.610   4.007  1.00  0.00    +0.000 H 
ATOM     96  H5  UNL A   1      37.977  18.226   4.143  1.00  0.00    +0.000 H 
BRANCH    9   10
ATOM     10  N1  UNL A   1      38.512  21.722   1.238  1.00  0.00    +0.000 N 
ATOM     98  H7  UNL A   1      39.003  22.558   1.405  1.00  0.00    +0.000 H 
BRANCH   10   11
ATOM     99  H8  UNL A   1      34.065  22.165   0.338  1.00  0.00    +0.000 H 
ATOM    100  H9  UNL A   1      34.418  22.246  -2.062  1.00  0.00    +0.000 H 
ATOM    101  H10 UNL A   1      36.659  22.023  -2.957  1.00  0.00    +0.000 H 
ATOM     11  C9  UNL A   1      37.428  21.811   0.322  1.00  0.00    +0.000 C 
ATOM     12  C10 UNL A   1      36.111  21.933   0.814  1.00  0.00    +0.000 C 
ATOM     13 Cl1  UNL A   1      35.797  21.910   2.518  1.00  0.00    +0.000 Cl
ATOM     14  C11 UNL A   1      35.018  22.084  -0.047  1.00  0.00    +0.000 C 
ATOM     15  C12 UNL A   1      35.219  22.124  -1.423  1.00  0.00    +0.000 C 
ATOM     16  C13 UNL A   1      36.509  21.998  -1.937  1.00  0.00    +0.000 C 
ATOM     17  C14 UNL A   1      37.603  21.838  -1.076  1.00  0.00    +0.000 C 
ATOM     18 Cl2  UNL A   1      39.150  21.595  -1.818  1.00  0.00    +0.000 Cl
ENDBRANCH   10   11
ENDBRANCH    9   10
ENDBRANCH    3    4
ENDBRANCH    2    3
ENDBRANCH   19    2
ENDBRANCH   20   19
ENDBRANCH   21   20
ENDBRANCH   22   21
ENDBRANCH   23   22
ENDBRANCH   24   23
ENDBRANCH   25   24
ENDBRANCH   26   25
ENDBRANCH   27   26
ENDBRANCH   29   27
ENDBRANCH   33   32
BRANCH   37   38
ATOM     38  C30 UNL A   1      58.284  17.737  10.650  1.00  0.00    +0.000 C 
ATOM     39  C31 UNL A   1      58.251  16.334  10.625  1.00  0.00    +0.000 C 
ATOM     40  F1  UNL A   1      57.509  15.661  11.518  1.00  0.00    +0.000 F 
ATOM     41  C32 UNL A   1      59.010  15.616   9.706  1.00  0.00    +0.000 C 
ATOM     42  F2  UNL A   1      59.000  14.276   9.734  1.00  0.00    +0.000 F 
ATOM     43  C33 UNL A   1      59.790  16.283   8.774  1.00  0.00    +0.000 C 
ATOM     44  F3  UNL A   1      60.518  15.589   7.888  1.00  0.00    +0.000 F 
ATOM     45  C34 UNL A   1      59.821  17.669   8.765  1.00  0.00    +0.000 C 
ATOM     46  F4  UNL A   1      60.565  18.315   7.857  1.00  0.00    +0.000 F 
ATOM     47  C35 UNL A   1      59.084  18.391   9.700  1.00  0.00    +0.000 C 
ATOM     48  F5  UNL A   1      59.147  19.731   9.676  1.00  0.00    +0.000 F 
ENDBRANCH   37   38
BRANCH   54   55
ATOM     65  F10 UNL A   1      58.461  18.041  17.967  1.00  0.00    +0.000 F 
ATOM     55  C41 UNL A   1      58.921  20.296  17.360  1.00  0.00    +0.000 C 
ATOM     56  C42 UNL A   1      59.663  21.457  17.619  1.00  0.00    +0.000 C 
ATOM     57  F6  UNL A   1      59.493  22.549  16.859  1.00  0.00    +0.000 F 
ATOM     58  C43 UNL A   1      60.610  21.487  18.639  1.00  0.00    +0.000 C 
ATOM     59  F7  UNL A   1      61.338  22.593  18.841  1.00  0.00    +0.000 F 
ATOM     60  C44 UNL A   1      60.812  20.370  19.436  1.00  0.00    +0.000 C 
ATOM     61  F8  UNL A   1      61.720  20.404  20.421  1.00  0.00    +0.000 F 
ATOM     62  C45 UNL A   1      60.078  19.217  19.207  1.00  0.00    +0.000 C 
ATOM     63  F9  UNL A   1      60.263  18.140  19.984  1.00  0.00    +0.000 F 
ATOM     64  C46 UNL A   1      59.148  19.174  18.172  1.00  0.00    +0.000 C 
ENDBRANCH   54   55
BRANCH   69   70
ATOM     70  C50 UNL A   1      52.412  22.741  16.974  1.00  0.00    +0.000 C 
ATOM     71  C51 UNL A   1      51.641  22.040  17.911  1.00  0.00    +0.000 C 
ATOM     72  F11 UNL A   1      51.674  20.699  17.936  1.00  0.00    +0.000 F 
ATOM     73  C52 UNL A   1      50.802  22.711  18.798  1.00  0.00    +0.000 C 
ATOM     74  F12 UNL A   1      50.044  22.014  19.656  1.00  0.00    +0.000 F 
ATOM     75  C53 UNL A   1      50.740  24.095  18.784  1.00  0.00    +0.000 C 
ATOM     76  F13 UNL A   1      49.936  24.740  19.641  1.00  0.00    +0.000 F 
ATOM     77  C54 UNL A   1      51.506  24.811  17.877  1.00  0.00    +0.000 C 
ATOM     78  F14 UNL A   1      51.458  26.150  17.869  1.00  0.00    +0.000 F 
ATOM     79  C55 UNL A   1      52.326  24.140  16.972  1.00  0.00    +0.000 C 
ATOM     80  F15 UNL A   1      53.047  24.857  16.097  1.00  0.00    +0.000 F 
ENDBRANCH   69   70
TORSDOF 18
ENDMDL
MODEL 2
REMARK VINA RESULT:     -11.5      0.214      2.157
ROOT
ATOM     33  C26 UNL A   1      52.856  20.435  11.361  1.00  0.00    +0.000 C 
ATOM     34  C27 UNL A   1      54.171  19.758  11.100  1.00  0.00    +0.000 C 
ATOM     35  N4  UNL A   1      55.192  19.592  11.904  1.00  0.00    +0.000 N 
ATOM     36  C28 UNL A   1      56.128  18.866  11.181  1.00  0.00    +0.000 C 
ATOM     37  C29 UNL A   1      57.375  18.487  11.552  1.00  0.00    +0.000 C 
ATOM     49  C36 UNL A   1      57.972  18.794  12.826  1.00  0.00    +0.000 C 
ATOM     50  C37 UNL A   1      59.251  18.509  13.271  1.00  0.00    +0.000 C 
ATOM     51  C38 UNL A   1      59.368  18.964  14.589  1.00  0.00    +0.000 C 
ATOM     52  C39 UNL A   1      58.176  19.570  14.950  1.00  0.00    +0.000 C 
ATOM     53  N5  UNL A   1      57.327  19.456  13.860  1.00  0.00    +0.000 N 
ATOM     54  C40 UNL A   1      57.833  20.204  16.197  1.00  0.00    +0.000 C 
ATOM     66  C47 UNL A   1      56.641  20.790  16.468  1.00  0.00    +0.000 C 
ATOM     67  N6  UNL A   1      55.527  20.919  15.651  1.00  0.00    +0.000 N 
ATOM     68  C48 UNL A   1      54.627  21.549  16.364  1.00  0.00    +0.000 C 
ATOM     69  C49 UNL A   1      53.239  21.983  15.977  1.00  0.00    +0.000 C 
ATOM     81  C56 UNL A   1      52.794  21.732  14.731  1.00  0.00    +0.000 C 
ATOM     82  C57 UNL A   1      51.477  22.094  14.215  1.00  0.00    +0.000 C 
ATOM     83  C58 UNL A   1      51.363  21.647  12.954  1.00  0.00    +0.000 C 
ATOM     84  C59 UNL A   1      52.615  20.999  12.560  1.00  0.00    +0.000 C 
ATOM     85  N7  UNL A   1      53.408  21.102  13.676  1.00  0.00    +0.000 N 
ATOM     86  C60 UNL A   1      55.061  21.866  17.733  1.00  0.00    +0.000 C 
ATOM     87  C61 UNL A   1      56.309  21.416  17.731  1.00  0.00    +0.000 C 
ATOM     88  C62 UNL A   1      55.538  18.583   9.890  1.00  0.00    +0.000 C 
ATOM     89  C63 UNL A   1      54.355  19.168   9.766  1.00  0.00    +0.000 C 
ATOM    118  H27 UNL A   1      59.992  18.043  12.724  1.00  0.00    +0.000 H 
ATOM    119  H28 UNL A   1      60.200  18.864  15.190  1.00  0.00    +0.000 H 
ATOM    120  H29 UNL A   1      56.403  19.794  13.826  1.00  0.00    +0.000 H 
ATOM    121  H30 UNL A   1      50.750  22.610  14.736  1.00  0.00    +0.000 H 
ATOM    122  H31 UNL A   1      50.527  21.747  12.357  1.00  0.00    +0.000 H 
ATOM    123  H32 UNL A   1      54.329  20.759  13.716  1.00  0.00    +0.000 H 
ATOM    124  H33 UNL A   1      54.533  22.319  18.495  1.00  0.00    +0.000 H 
ATOM    125  H34 UNL A   1      56.959  21.502  18.527  1.00  0.00    +0.000 H 
ATOM    126  H35 UNL A   1      55.981  18.002   9.161  1.00  0.00    +0.000 H 
ATOM    127  H36 UNL A   1      53.727  19.199   8.948  1.00  0.00    +0.000 H 
ENDROOT
BRANCH   33   32
ATOM    129  H38 UNL A   1      49.432  18.392   9.057  1.00  0.00    +0.000 H 
ATOM    128  H37 UNL A   1      51.150  18.456  10.767  1.00  0.00    +0.000 H 
ATOM    116  H25 UNL A   1      50.321  22.368   8.007  1.00  0.00    +0.000 H 
ATOM    117  H26 UNL A   1      52.174  22.364   9.577  1.00  0.00    +0.000 H 
ATOM     90  C64 UNL A   1      50.987  19.282  10.171  1.00  0.00    +0.000 C 
ATOM     91  C65 UNL A   1      49.972  19.258   9.215  1.00  0.00    +0.000 C 
ATOM     29  C22 UNL A   1      49.687  20.407   8.472  1.00  0.00    +0.000 C 
ATOM     30  C23 UNL A   1      50.502  21.537   8.593  1.00  0.00    +0.000 C 
ATOM     31  C24 UNL A   1      51.558  21.539   9.506  1.00  0.00    +0.000 C 
ATOM     32  C25 UNL A   1      51.788  20.424  10.327  1.00  0.00    +0.000 C 
BRANCH   29   27
ATOM     27  C21 UNL A   1      48.538  20.453   7.540  1.00  0.00    +0.000 C 
ATOM     28  O2  UNL A   1      48.162  21.535   7.096  1.00  0.00    +0.000 O 
BRANCH   27   26
ATOM     26  N3  UNL A   1      47.878  19.300   7.196  1.00  0.00    +0.000 N 
ATOM    115  H24 UNL A   1      47.327  18.904   7.909  1.00  0.00    +0.000 H 
BRANCH   26   25
ATOM     25  C20 UNL A   1      47.875  18.576   5.935  1.00  0.00    +0.000 C 
ATOM    114  H23 UNL A   1      48.080  17.548   6.153  1.00  0.00    +0.000 H 
ATOM    113  H22 UNL A   1      48.619  19.002   5.294  1.00  0.00    +0.000 H 
BRANCH   25   24
ATOM    112  H21 UNL A   1      45.784  18.533   5.987  1.00  0.00    +0.000 H 
ATOM    111  H20 UNL A   1      46.503  17.846   4.497  1.00  0.00    +0.000 H 
ATOM     24  C19 UNL A   1      46.527  18.633   5.223  1.00  0.00    +0.000 C 
BRANCH   24   23
ATOM    109  H18 UNL A   1      46.164  20.722   5.240  1.00  0.00    +0.000 H 
ATOM    110  H19 UNL A   1      47.007  20.085   3.792  1.00  0.00    +0.000 H 
ATOM     23  C18 UNL A   1      46.219  19.948   4.504  1.00  0.00    +0.000 C 
BRANCH   23   22
ATOM    107  H16 UNL A   1      44.311  19.151   4.029  1.00  0.00    +0.000 H 
ATOM    108  H17 UNL A   1      44.478  20.930   3.878  1.00  0.00    +0.000 H 
ATOM     22  C17 UNL A   1      44.916  19.970   3.699  1.00  0.00    +0.000 C 
BRANCH   22   21
ATOM    105  H14 UNL A   1      46.037  20.246   1.915  1.00  0.00    +0.000 H 
ATOM    106  H15 UNL A   1      44.959  18.820   1.939  1.00  0.00    +0.000 H 
ATOM     21  C16 UNL A   1      45.076  19.857   2.178  1.00  0.00    +0.000 C 
BRANCH   21   20
ATOM     20  C15 UNL A   1      44.023  20.607   1.364  1.00  0.00    +0.000 C 
ATOM    103  H12 UNL A   1      43.308  21.041   2.031  1.00  0.00    +0.000 H 
ATOM    104  H13 UNL A   1      44.516  21.367   0.792  1.00  0.00    +0.000 H 
BRANCH   20   19
ATOM     19  N2  UNL A   1      43.336  19.721   0.448  1.00  0.00    +0.000 N 
ATOM    102  H11 UNL A   1      43.821  18.937   0.102  1.00  0.00    +0.000 H 
BRANCH   19    2
ATOM      1  O1  UNL A   1      41.540  19.372  -0.940  1.00  0.00    +0.000 O 
ATOM      2  C1  UNL A   1      42.037  19.922   0.039  1.00  0.00    +0.000 C 
BRANCH    2    3
ATOM      3  C2  UNL A   1      41.251  20.904   0.891  1.00  0.00    +0.000 C 
ATOM     92  H1  UNL A   1      40.706  21.560   0.244  1.00  0.00    +0.000 H 
ATOM     93  H2  UNL A   1      41.951  21.439   1.498  1.00  0.00    +0.000 H 
BRANCH    3    4
ATOM     97  H6  UNL A   1      37.088  20.224   2.869  1.00  0.00    +0.000 H 
ATOM      4  C3  UNL A   1      40.272  20.217   1.820  1.00  0.00    +0.000 C 
ATOM      5  C4  UNL A   1      40.718  19.109   2.565  1.00  0.00    +0.000 C 
ATOM      6  C5  UNL A   1      39.848  18.417   3.401  1.00  0.00    +0.000 C 
ATOM      7  C6  UNL A   1      38.524  18.823   3.504  1.00  0.00    +0.000 C 
ATOM      8  C7  UNL A   1      38.072  19.927   2.777  1.00  0.00    +0.000 C 
ATOM      9  C8  UNL A   1      38.928  20.644   1.926  1.00  0.00    +0.000 C 
ATOM     94  H3  UNL A   1      41.702  18.807   2.490  1.00  0.00    +0.000 H 
ATOM     95  H4  UNL A   1      40.184  17.606   3.944  1.00  0.00    +0.000 H 
ATOM     96  H5  UNL A   1      37.872  18.309   4.117  1.00  0.00    +0.000 H 
BRANCH    9   10
ATOM     10  N1  UNL A   1      38.500  21.808   1.235  1.00  0.00    +0.000 N 
ATOM     98  H7  UNL A   1      38.923  22.653   1.514  1.00  0.00    +0.000 H 
BRANCH   10   11
ATOM     99  H8  UNL A   1      37.406  22.245  -3.168  1.00  0.00    +0.000 H 
ATOM    100  H9  UNL A   1      35.028  22.012  -2.743  1.00  0.00    +0.000 H 
ATOM    101  H10 UNL A   1      34.232  21.746  -0.469  1.00  0.00    +0.000 H 
ATOM     11  C9  UNL A   1      37.537  21.910   0.194  1.00  0.00    +0.000 C 
ATOM     12  C10 UNL A   1      37.970  22.073  -1.139  1.00  0.00    +0.000 C 
ATOM     13 Cl1  UNL A   1      39.657  22.217  -1.510  1.00  0.00    +0.000 Cl
ATOM     14  C11 UNL A   1      37.064  22.118  -2.204  1.00  0.00    +0.000 C 
ATOM     15  C12 UNL A   1      35.700  21.991  -1.960  1.00  0.00    +0.000 C 
ATOM     16  C13 UNL A   1      35.243  21.836  -0.652  1.00  0.00    +0.000 C 
ATOM     17  C14 UNL A   1      36.149  21.800   0.416  1.00  0.00    +0.000 C 
ATOM     18 Cl2  UNL A   1      35.475  21.700   2.009  1.00  0.00    +0.000 Cl
ENDBRANCH   10   11
ENDBRANCH    9   10
ENDBRANCH    3    4
ENDBRANCH    2    3
ENDBRANCH   19    2
ENDBRANCH   20   19
ENDBRANCH   21   20
ENDBRANCH   22   21
ENDBRANCH   23   22
ENDBRANCH   24   23
ENDBRANCH   25   24
ENDBRANCH   26   25
ENDBRANCH   27   26
ENDBRANCH   29   27
ENDBRANCH   33   32
BRANCH   37   38
ATOM     38  C30 UNL A   1      58.181  17.698  10.563  1.00  0.00    +0.000 C 
ATOM     39  C31 UNL A   1      59.004  18.327   9.617  1.00  0.00    +0.000 C 
ATOM     40  F1  UNL A   1      59.055  19.666   9.551  1.00  0.00    +0.000 F 
ATOM     41  C32 UNL A   1      59.750  17.582   8.708  1.00  0.00    +0.000 C 
ATOM     42  F2  UNL A   1      60.491  18.205   7.782  1.00  0.00    +0.000 F 
ATOM     43  C33 UNL A   1      59.715  16.196   8.748  1.00  0.00    +0.000 C 
ATOM     44  F3  UNL A   1      60.437  15.481   7.875  1.00  0.00    +0.000 F 
ATOM     45  C34 UNL A   1      58.927  15.552   9.690  1.00  0.00    +0.000 C 
ATOM     46  F4  UNL A   1      58.901  14.214   9.738  1.00  0.00    +0.000 F 
ATOM     47  C35 UNL A   1      58.157  16.294  10.582  1.00  0.00    +0.000 C 
ATOM     48  F5  UNL A   1      57.392  15.643  11.471  1.00  0.00    +0.000 F 
ENDBRANCH   37   38
BRANCH   54   55
ATOM     65  F10 UNL A   1      59.472  22.473  16.683  1.00  0.00    +0.000 F 
ATOM     55  C41 UNL A   1      58.879  20.245  17.272  1.00  0.00    +0.000 C 
ATOM     56  C42 UNL A   1      59.127  19.140  18.099  1.00  0.00    +0.000 C 
ATOM     57  F6  UNL A   1      58.388  18.027  17.977  1.00  0.00    +0.000 F 
ATOM     58  C43 UNL A   1      60.112  19.190  19.081  1.00  0.00    +0.000 C 
ATOM     59  F7  UNL A   1      60.302  18.137  19.889  1.00  0.00    +0.000 F 
ATOM     60  C44 UNL A   1      60.886  20.329  19.235  1.00  0.00    +0.000 C 
ATOM     61  F8  UNL A   1      61.838  20.372  20.178  1.00  0.00    +0.000 F 
ATOM     62  C45 UNL A   1      60.668  21.428  18.418  1.00  0.00    +0.000 C 
ATOM     63  F9  UNL A   1      61.424  22.527  18.558  1.00  0.00    +0.000 F 
ATOM     64  C46 UNL A   1      59.667  21.392  17.452  1.00  0.00    +0.000 C 
ENDBRANCH   54   55
BRANCH   69   70
ATOM     70  C50 UNL A   1      52.374  22.709  16.942  1.00  0.00    +0.000 C 
ATOM     71  C51 UNL A   1      52.288  24.107  16.912  1.00  0.00    +0.000 C 
ATOM     72  F11 UNL A   1      53.006  24.805  16.019  1.00  0.00    +0.000 F 
ATOM     73  C52 UNL A   1      51.495  24.798  17.827  1.00  0.00    +0.000 C 
ATOM     74  F12 UNL A   1      51.462  26.137  17.804  1.00  0.00    +0.000 F 
ATOM     75  C53 UNL A   1      50.752  24.102  18.768  1.00  0.00    +0.000 C 
ATOM     76  F13 UNL A   1      49.986  24.766  19.644  1.00  0.00    +0.000 F 
ATOM     77  C54 UNL A   1      50.809  22.717  18.804  1.00  0.00    +0.000 C 
ATOM     78  F14 UNL A   1      50.084  22.041  19.705  1.00  0.00    +0.000 F 
ATOM     79  C55 UNL A   1      51.622  22.027  17.908  1.00  0.00    +0.000 C 
ATOM     80  F15 UNL A   1      51.669  20.688  17.974  1.00  0.00    +0.000 F 
ENDBRANCH   69   70
TORSDOF 18
ENDMDL
MODEL 3
REMARK VINA RESULT:     -11.3     40.685     48.381
ROOT
ATOM     33  C26 UNL A   1      25.872  34.739  46.280  1.00  0.00    +0.000 C 
ATOM     34  C27 UNL A   1      25.609  35.884  47.216  1.00  0.00    +0.000 C 
ATOM     35  N4  UNL A   1      26.342  36.943  47.457  1.00  0.00    +0.000 N 
ATOM     36  C28 UNL A   1      25.619  37.702  48.366  1.00  0.00    +0.000 C 
ATOM     37  C29 UNL A   1      25.973  38.864  48.967  1.00  0.00    +0.000 C 
ATOM     49  C36 UNL A   1      27.228  39.539  48.756  1.00  0.00    +0.000 C 
ATOM     50  C37 UNL A   1      27.705  40.686  49.367  1.00  0.00    +0.000 C 
ATOM     51  C38 UNL A   1      28.954  40.989  48.814  1.00  0.00    +0.000 C 
ATOM     52  C39 UNL A   1      29.274  40.008  47.891  1.00  0.00    +0.000 C 
ATOM     53  N5  UNL A   1      28.205  39.126  47.862  1.00  0.00    +0.000 N 
ATOM     54  C40 UNL A   1      30.464  39.883  47.090  1.00  0.00    +0.000 C 
ATOM     66  C47 UNL A   1      30.709  38.878  46.213  1.00  0.00    +0.000 C 
ATOM     67  N6  UNL A   1      29.916  37.783  45.898  1.00  0.00    +0.000 N 
ATOM     68  C48 UNL A   1      30.578  37.107  44.993  1.00  0.00    +0.000 C 
ATOM     69  C49 UNL A   1      30.209  35.816  44.313  1.00  0.00    +0.000 C 
ATOM     81  C56 UNL A   1      29.054  35.206  44.638  1.00  0.00    +0.000 C 
ATOM     82  C57 UNL A   1      28.568  33.954  44.064  1.00  0.00    +0.000 C 
ATOM     83  C58 UNL A   1      27.365  33.670  44.588  1.00  0.00    +0.000 C 
ATOM     84  C59 UNL A   1      27.011  34.704  45.562  1.00  0.00    +0.000 C 
ATOM     85  N7  UNL A   1      28.075  35.570  45.530  1.00  0.00    +0.000 N 
ATOM     86  C60 UNL A   1      31.859  37.716  44.608  1.00  0.00    +0.000 C 
ATOM     87  C61 UNL A   1      31.908  38.771  45.408  1.00  0.00    +0.000 C 
ATOM     88  C62 UNL A   1      24.371  37.009  48.600  1.00  0.00    +0.000 C 
ATOM     89  C63 UNL A   1      24.342  35.847  47.962  1.00  0.00    +0.000 C 
ATOM    118  H27 UNL A   1      27.223  41.223  50.104  1.00  0.00    +0.000 H 
ATOM    119  H28 UNL A   1      29.537  41.806  49.054  1.00  0.00    +0.000 H 
ATOM    120  H29 UNL A   1      28.147  38.326  47.293  1.00  0.00    +0.000 H 
ATOM    121  H30 UNL A   1      29.069  33.380  43.368  1.00  0.00    +0.000 H 
ATOM    122  H31 UNL A   1      26.783  32.854  44.344  1.00  0.00    +0.000 H 
ATOM    123  H32 UNL A   1      28.132  36.375  46.093  1.00  0.00    +0.000 H 
ATOM    124  H33 UNL A   1      32.541  37.404  43.898  1.00  0.00    +0.000 H 
ATOM    125  H34 UNL A   1      32.699  39.432  45.452  1.00  0.00    +0.000 H 
ATOM    126  H35 UNL A   1      23.603  37.372  49.186  1.00  0.00    +0.000 H 
ATOM    127  H36 UNL A   1      23.620  35.111  47.983  1.00  0.00    +0.000 H 
ENDROOT
BRANCH   33   32
ATOM    129  H38 UNL A   1      22.200  32.956  44.147  1.00  0.00    +0.000 H 
ATOM    128  H37 UNL A   1      23.910  34.647  44.457  1.00  0.00    +0.000 H 
ATOM    116  H25 UNL A   1      23.893  30.670  47.248  1.00  0.00    +0.000 H 
ATOM    117  H26 UNL A   1      25.479  32.454  47.692  1.00  0.00    +0.000 H 
ATOM     90  C64 UNL A   1      23.898  33.811  45.061  1.00  0.00    +0.000 C 
ATOM     91  C65 UNL A   1      22.939  32.820  44.856  1.00  0.00    +0.000 C 
ATOM     29  C22 UNL A   1      22.979  31.645  45.611  1.00  0.00    +0.000 C 
ATOM     30  C23 UNL A   1      23.897  31.517  46.658  1.00  0.00    +0.000 C 
ATOM     31  C24 UNL A   1      24.818  32.538  46.904  1.00  0.00    +0.000 C 
ATOM     32  C25 UNL A   1      24.849  33.679  46.086  1.00  0.00    +0.000 C 
BRANCH   29   27
ATOM     27  C21 UNL A   1      22.054  30.522  45.334  1.00  0.00    +0.000 C 
ATOM     28  O2  UNL A   1      22.305  29.406  45.782  1.00  0.00    +0.000 O 
BRANCH   27   26
ATOM     26  N3  UNL A   1      20.939  30.720  44.559  1.00  0.00    +0.000 N 
ATOM    115  H24 UNL A   1      21.095  30.708  43.588  1.00  0.00    +0.000 H 
BRANCH   26   25
ATOM     25  C20 UNL A   1      19.559  30.944  44.962  1.00  0.00    +0.000 C 
ATOM    114  H23 UNL A   1      19.531  31.858  45.519  1.00  0.00    +0.000 H 
ATOM    113  H22 UNL A   1      19.235  30.111  45.550  1.00  0.00    +0.000 H 
BRANCH   25   24
ATOM    112  H21 UNL A   1      19.081  30.594  42.956  1.00  0.00    +0.000 H 
ATOM    111  H20 UNL A   1      18.467  32.147  43.605  1.00  0.00    +0.000 H 
ATOM     24  C19 UNL A   1      18.614  31.100  43.775  1.00  0.00    +0.000 C 
BRANCH   24   23
ATOM    109  H18 UNL A   1      16.871  30.199  42.971  1.00  0.00    +0.000 H 
ATOM    110  H19 UNL A   1      17.387  29.607  44.582  1.00  0.00    +0.000 H 
ATOM     23  C18 UNL A   1      17.238  30.453  43.943  1.00  0.00    +0.000 C 
BRANCH   23   22
ATOM    107  H16 UNL A   1      15.364  30.688  44.910  1.00  0.00    +0.000 H 
ATOM    108  H17 UNL A   1      16.676  31.776  45.466  1.00  0.00    +0.000 H 
ATOM     22  C17 UNL A   1      16.181  31.321  44.634  1.00  0.00    +0.000 C 
BRANCH   22   21
ATOM    105  H14 UNL A   1      16.111  32.463  42.843  1.00  0.00    +0.000 H 
ATOM    106  H15 UNL A   1      14.565  32.315  43.728  1.00  0.00    +0.000 H 
ATOM     21  C16 UNL A   1      15.621  32.476  43.794  1.00  0.00    +0.000 C 
BRANCH   21   20
ATOM     20  C15 UNL A   1      15.808  33.864  44.405  1.00  0.00    +0.000 C 
ATOM    103  H12 UNL A   1      15.199  34.565  43.873  1.00  0.00    +0.000 H 
ATOM    104  H13 UNL A   1      15.520  33.820  45.435  1.00  0.00    +0.000 H 
BRANCH   20   19
ATOM     19  N2  UNL A   1      17.190  34.288  44.334  1.00  0.00    +0.000 N 
ATOM    102  H11 UNL A   1      17.729  34.001  43.562  1.00  0.00    +0.000 H 
BRANCH   19    2
ATOM      1  O1  UNL A   1      17.268  36.090  45.757  1.00  0.00    +0.000 O 
ATOM      2  C1  UNL A   1      17.784  35.076  45.294  1.00  0.00    +0.000 C 
BRANCH    2    3
ATOM      3  C2  UNL A   1      19.159  34.603  45.738  1.00  0.00    +0.000 C 
ATOM     92  H1  UNL A   1      19.395  33.699  45.215  1.00  0.00    +0.000 H 
ATOM     93  H2  UNL A   1      19.122  34.450  46.796  1.00  0.00    +0.000 H 
BRANCH    3    4
ATOM     97  H6  UNL A   1      22.099  38.038  46.859  1.00  0.00    +0.000 H 
ATOM      4  C3  UNL A   1      20.245  35.622  45.460  1.00  0.00    +0.000 C 
ATOM      5  C4  UNL A   1      20.818  35.658  44.175  1.00  0.00    +0.000 C 
ATOM      6  C5  UNL A   1      21.847  36.546  43.880  1.00  0.00    +0.000 C 
ATOM      7  C6  UNL A   1      22.315  37.408  44.864  1.00  0.00    +0.000 C 
ATOM      8  C7  UNL A   1      21.747  37.387  46.140  1.00  0.00    +0.000 C 
ATOM      9  C8  UNL A   1      20.708  36.501  46.466  1.00  0.00    +0.000 C 
ATOM     94  H3  UNL A   1      20.470  35.019  43.443  1.00  0.00    +0.000 H 
ATOM     95  H4  UNL A   1      22.261  36.566  42.934  1.00  0.00    +0.000 H 
ATOM     96  H5  UNL A   1      23.084  38.063  44.652  1.00  0.00    +0.000 H 
BRANCH    9   10
ATOM     10  N1  UNL A   1      20.076  36.518  47.736  1.00  0.00    +0.000 N 
ATOM     98  H7  UNL A   1      19.096  36.617  47.728  1.00  0.00    +0.000 H 
BRANCH   10   11
ATOM     99  H8  UNL A   1      21.466  38.365  51.665  1.00  0.00    +0.000 H 
ATOM    100  H9  UNL A   1      22.128  36.225  52.597  1.00  0.00    +0.000 H 
ATOM    101  H10 UNL A   1      21.904  34.211  51.267  1.00  0.00    +0.000 H 
ATOM     11  C9  UNL A   1      20.678  36.411  49.020  1.00  0.00    +0.000 C 
ATOM     12  C10 UNL A   1      20.829  37.567  49.814  1.00  0.00    +0.000 C 
ATOM     13 Cl1  UNL A   1      20.350  39.121  49.215  1.00  0.00    +0.000 Cl
ATOM     14  C11 UNL A   1      21.360  37.504  51.107  1.00  0.00    +0.000 C 
ATOM     15  C12 UNL A   1      21.746  36.278  51.640  1.00  0.00    +0.000 C 
ATOM     16  C13 UNL A   1      21.614  35.120  50.874  1.00  0.00    +0.000 C 
ATOM     17  C14 UNL A   1      21.091  35.183  49.576  1.00  0.00    +0.000 C 
ATOM     18 Cl2  UNL A   1      21.058  33.704  48.675  1.00  0.00    +0.000 Cl
ENDBRANCH   10   11
ENDBRANCH    9   10
ENDBRANCH    3    4
ENDBRANCH    2    3
ENDBRANCH   19    2
ENDBRANCH   20   19
ENDBRANCH   21   20
ENDBRANCH   22   21
ENDBRANCH   23   22
ENDBRANCH   24   23
ENDBRANCH   25   24
ENDBRANCH   26   25
ENDBRANCH   27   26
ENDBRANCH   29   27
ENDBRANCH   33   32
BRANCH   37   38
ATOM     38  C30 UNL A   1      24.988  39.480  49.917  1.00  0.00    +0.000 C 
ATOM     39  C31 UNL A   1      24.994  39.171  51.286  1.00  0.00    +0.000 C 
ATOM     40  F1  UNL A   1      25.867  38.274  51.771  1.00  0.00    +0.000 F 
ATOM     41  C32 UNL A   1      24.077  39.753  52.156  1.00  0.00    +0.000 C 
ATOM     42  F2  UNL A   1      24.070  39.405  53.450  1.00  0.00    +0.000 F 
ATOM     43  C33 UNL A   1      23.160  40.679  51.684  1.00  0.00    +0.000 C 
ATOM     44  F3  UNL A   1      22.280  41.241  52.524  1.00  0.00    +0.000 F 
ATOM     45  C34 UNL A   1      23.150  41.018  50.339  1.00  0.00    +0.000 C 
ATOM     46  F4  UNL A   1      22.273  41.922  49.884  1.00  0.00    +0.000 F 
ATOM     47  C35 UNL A   1      24.048  40.417  49.460  1.00  0.00    +0.000 C 
ATOM     48  F5  UNL A   1      24.004  40.753  48.162  1.00  0.00    +0.000 F 
ENDBRANCH   37   38
BRANCH   54   55
ATOM     65  F10 UNL A   1      32.786  39.498  48.682  1.00  0.00    +0.000 F 
ATOM     55  C41 UNL A   1      31.530  40.927  47.252  1.00  0.00    +0.000 C 
ATOM     56  C42 UNL A   1      31.430  42.182  46.634  1.00  0.00    +0.000 C 
ATOM     57  F6  UNL A   1      30.389  42.458  45.834  1.00  0.00    +0.000 F 
ATOM     58  C43 UNL A   1      32.420  43.145  46.808  1.00  0.00    +0.000 C 
ATOM     59  F7  UNL A   1      32.325  44.321  46.174  1.00  0.00    +0.000 F 
ATOM     60  C44 UNL A   1      33.509  42.884  47.625  1.00  0.00    +0.000 C 
ATOM     61  F8  UNL A   1      34.458  43.815  47.795  1.00  0.00    +0.000 F 
ATOM     62  C45 UNL A   1      33.621  41.656  48.258  1.00  0.00    +0.000 C 
ATOM     63  F9  UNL A   1      34.668  41.406  49.056  1.00  0.00    +0.000 F 
ATOM     64  C46 UNL A   1      32.646  40.681  48.066  1.00  0.00    +0.000 C 
ENDBRANCH   54   55
BRANCH   69   70
ATOM     70  C50 UNL A   1      31.119  35.199  43.314  1.00  0.00    +0.000 C 
ATOM     71  C51 UNL A   1      31.160  35.671  41.996  1.00  0.00    +0.000 C 
ATOM     72  F11 UNL A   1      30.358  36.678  41.619  1.00  0.00    +0.000 F 
ATOM     73  C52 UNL A   1      31.996  35.084  41.047  1.00  0.00    +0.000 C 
ATOM     74  F12 UNL A   1      31.985  35.528  39.783  1.00  0.00    +0.000 F 
ATOM     75  C53 UNL A   1      32.825  34.034  41.407  1.00  0.00    +0.000 C 
ATOM     76  F13 UNL A   1      33.632  33.472  40.495  1.00  0.00    +0.000 F 
ATOM     77  C54 UNL A   1      32.813  33.561  42.710  1.00  0.00    +0.000 C 
ATOM     78  F14 UNL A   1      33.623  32.553  43.064  1.00  0.00    +0.000 F 
ATOM     79  C55 UNL A   1      31.960  34.129  43.652  1.00  0.00    +0.000 C 
ATOM     80  F15 UNL A   1      31.959  33.644  44.903  1.00  0.00    +0.000 F 
ENDBRANCH   69   70
TORSDOF 18
ENDMDL
MODEL 4
REMARK VINA RESULT:     -11.2     44.821     49.914
ROOT
ATOM     33  C26 UNL A   1      13.277  50.153   3.243  1.00  0.00    +0.000 C 
ATOM     34  C27 UNL A   1      14.184  49.683   2.142  1.00  0.00    +0.000 C 
ATOM     35  N4  UNL A   1      15.077  50.356   1.458  1.00  0.00    +0.000 N 
ATOM     36  C28 UNL A   1      15.664  49.439   0.599  1.00  0.00    +0.000 C 
ATOM     37  C29 UNL A   1      16.607  49.654  -0.351  1.00  0.00    +0.000 C 
ATOM     49  C36 UNL A   1      17.184  50.940  -0.646  1.00  0.00    +0.000 C 
ATOM     50  C37 UNL A   1      18.099  51.269  -1.632  1.00  0.00    +0.000 C 
ATOM     51  C38 UNL A   1      18.400  52.631  -1.511  1.00  0.00    +0.000 C 
ATOM     52  C39 UNL A   1      17.642  53.157  -0.479  1.00  0.00    +0.000 C 
ATOM     53  N5  UNL A   1      16.903  52.109   0.046  1.00  0.00    +0.000 N 
ATOM     54  C40 UNL A   1      17.596  54.515  -0.002  1.00  0.00    +0.000 C 
ATOM     66  C47 UNL A   1      16.812  54.956   1.013  1.00  0.00    +0.000 C 
ATOM     67  N6  UNL A   1      15.908  54.244   1.789  1.00  0.00    +0.000 N 
ATOM     68  C48 UNL A   1      15.406  55.104   2.639  1.00  0.00    +0.000 C 
ATOM     69  C49 UNL A   1      14.360  54.893   3.699  1.00  0.00    +0.000 C 
ATOM     81  C56 UNL A   1      13.807  53.674   3.846  1.00  0.00    +0.000 C 
ATOM     82  C57 UNL A   1      12.783  53.323   4.827  1.00  0.00    +0.000 C 
ATOM     83  C58 UNL A   1      12.503  52.014   4.717  1.00  0.00    +0.000 C 
ATOM     84  C59 UNL A   1      13.302  51.442   3.632  1.00  0.00    +0.000 C 
ATOM     85  N7  UNL A   1      14.041  52.502   3.169  1.00  0.00    +0.000 N 
ATOM     86  C60 UNL A   1      15.960  56.460   2.517  1.00  0.00    +0.000 C 
ATOM     87  C61 UNL A   1      16.783  56.324   1.486  1.00  0.00    +0.000 C 
ATOM     88  C62 UNL A   1      15.063  48.153   0.876  1.00  0.00    +0.000 C 
ATOM     89  C63 UNL A   1      14.096  48.261   1.777  1.00  0.00    +0.000 C 
ATOM    118  H27 UNL A   1      18.489  50.624  -2.335  1.00  0.00    +0.000 H 
ATOM    119  H28 UNL A   1      19.074  53.152  -2.093  1.00  0.00    +0.000 H 
ATOM    120  H29 UNL A   1      16.273  52.182   0.798  1.00  0.00    +0.000 H 
ATOM    121  H30 UNL A   1      12.346  53.975   5.497  1.00  0.00    +0.000 H 
ATOM    122  H31 UNL A   1      11.831  51.494   5.303  1.00  0.00    +0.000 H 
ATOM    123  H32 UNL A   1      14.678  52.430   2.422  1.00  0.00    +0.000 H 
ATOM    124  H33 UNL A   1      15.761  57.299   3.086  1.00  0.00    +0.000 H 
ATOM    125  H34 UNL A   1      17.332  57.094   1.075  1.00  0.00    +0.000 H 
ATOM    126  H35 UNL A   1      15.348  47.267   0.430  1.00  0.00    +0.000 H 
ATOM    127  H36 UNL A   1      13.451  47.537   2.130  1.00  0.00    +0.000 H 
ENDROOT
BRANCH   33   32
ATOM    129  H38 UNL A   1      12.549  46.831   6.347  1.00  0.00    +0.000 H 
ATOM    128  H37 UNL A   1      13.944  48.448   5.199  1.00  0.00    +0.000 H 
ATOM    116  H25 UNL A   1       9.206  48.156   4.163  1.00  0.00    +0.000 H 
ATOM    117  H26 UNL A   1      10.640  49.631   2.871  1.00  0.00    +0.000 H 
ATOM     90  C64 UNL A   1      12.942  48.376   4.966  1.00  0.00    +0.000 C 
ATOM     91  C65 UNL A   1      12.132  47.474   5.655  1.00  0.00    +0.000 C 
ATOM     29  C22 UNL A   1      10.757  47.441   5.407  1.00  0.00    +0.000 C 
ATOM     30  C23 UNL A   1      10.214  48.218   4.378  1.00  0.00    +0.000 C 
ATOM     31  C24 UNL A   1      11.036  49.076   3.646  1.00  0.00    +0.000 C 
ATOM     32  C25 UNL A   1      12.401  49.188   3.956  1.00  0.00    +0.000 C 
BRANCH   29   27
ATOM     27  C21 UNL A   1       9.852  46.585   6.207  1.00  0.00    +0.000 C 
ATOM     28  O2  UNL A   1       9.107  45.792   5.637  1.00  0.00    +0.000 O 
BRANCH   27   26
ATOM     26  N3  UNL A   1       9.825  46.696   7.575  1.00  0.00    +0.000 N 
ATOM    115  H24 UNL A   1       9.251  47.415   7.926  1.00  0.00    +0.000 H 
BRANCH   26   25
ATOM     25  C20 UNL A   1      10.519  45.909   8.582  1.00  0.00    +0.000 C 
ATOM    114  H23 UNL A   1      11.102  45.173   8.069  1.00  0.00    +0.000 H 
ATOM    113  H22 UNL A   1       9.792  45.461   9.226  1.00  0.00    +0.000 H 
BRANCH   25   24
ATOM    112  H21 UNL A   1      11.216  46.544  10.449  1.00  0.00    +0.000 H 
ATOM    111  H20 UNL A   1      11.356  47.769   9.149  1.00  0.00    +0.000 H 
ATOM     24  C19 UNL A   1      11.475  46.743   9.429  1.00  0.00    +0.000 C 
BRANCH   24   23
ATOM    109  H18 UNL A   1      13.141  45.512   9.882  1.00  0.00    +0.000 H 
ATOM    110  H19 UNL A   1      13.128  46.241   8.245  1.00  0.00    +0.000 H 
ATOM     23  C18 UNL A   1      12.956  46.384   9.292  1.00  0.00    +0.000 C 
BRANCH   23   22
ATOM    107  H16 UNL A   1      13.509  48.422   9.503  1.00  0.00    +0.000 H 
ATOM    108  H17 UNL A   1      14.098  47.313  10.783  1.00  0.00    +0.000 H 
ATOM     22  C17 UNL A   1      13.940  47.471   9.736  1.00  0.00    +0.000 C 
BRANCH   22   21
ATOM    105  H14 UNL A   1      15.962  48.110   9.592  1.00  0.00    +0.000 H 
ATOM    106  H15 UNL A   1      15.660  46.396   9.181  1.00  0.00    +0.000 H 
ATOM     21  C16 UNL A   1      15.329  47.410   9.088  1.00  0.00    +0.000 C 
BRANCH   21   20
ATOM     20  C15 UNL A   1      15.357  47.736   7.595  1.00  0.00    +0.000 C 
ATOM    103  H12 UNL A   1      15.322  46.823   7.038  1.00  0.00    +0.000 H 
ATOM    104  H13 UNL A   1      14.510  48.350   7.369  1.00  0.00    +0.000 H 
BRANCH   20   19
ATOM     19  N2  UNL A   1      16.557  48.462   7.237  1.00  0.00    +0.000 N 
ATOM    102  H11 UNL A   1      17.429  48.029   7.384  1.00  0.00    +0.000 H 
BRANCH   19    2
ATOM      1  O1  UNL A   1      15.992  50.009   5.636  1.00  0.00    +0.000 O 
ATOM      2  C1  UNL A   1      16.536  49.730   6.701  1.00  0.00    +0.000 C 
BRANCH    2    3
ATOM      3  C2  UNL A   1      17.262  50.779   7.528  1.00  0.00    +0.000 C 
ATOM     92  H1  UNL A   1      17.084  51.741   7.093  1.00  0.00    +0.000 H 
ATOM     93  H2  UNL A   1      18.302  50.530   7.525  1.00  0.00    +0.000 H 
BRANCH    3    4
ATOM     97  H6  UNL A   1      14.245  51.636  10.972  1.00  0.00    +0.000 H 
ATOM      4  C3  UNL A   1      16.802  50.806   8.971  1.00  0.00    +0.000 C 
ATOM      5  C4  UNL A   1      17.655  50.275   9.957  1.00  0.00    +0.000 C 
ATOM      6  C5  UNL A   1      17.263  50.238  11.291  1.00  0.00    +0.000 C 
ATOM      7  C6  UNL A   1      16.016  50.730  11.656  1.00  0.00    +0.000 C 
ATOM      8  C7  UNL A   1      15.165  51.267  10.687  1.00  0.00    +0.000 C 
ATOM      9  C8  UNL A   1      15.534  51.317   9.333  1.00  0.00    +0.000 C 
ATOM     94  H3  UNL A   1      18.582  49.911   9.687  1.00  0.00    +0.000 H 
ATOM     95  H4  UNL A   1      17.895  49.848  12.008  1.00  0.00    +0.000 H 
ATOM     96  H5  UNL A   1      15.717  50.697  12.643  1.00  0.00    +0.000 H 
BRANCH    9   10
ATOM     10  N1  UNL A   1      14.709  51.922   8.350  1.00  0.00    +0.000 N 
ATOM     98  H7  UNL A   1      15.082  51.960   7.440  1.00  0.00    +0.000 H 
BRANCH   10   11
ATOM     99  H8  UNL A   1      11.961  55.473   9.140  1.00  0.00    +0.000 H 
ATOM    100  H9  UNL A   1       9.946  54.166   8.798  1.00  0.00    +0.000 H 
ATOM    101  H10 UNL A   1      10.114  51.798   8.307  1.00  0.00    +0.000 H 
ATOM     11  C9  UNL A   1      13.412  52.484   8.514  1.00  0.00    +0.000 C 
ATOM     12  C10 UNL A   1      13.283  53.858   8.807  1.00  0.00    +0.000 C 
ATOM     13 Cl1  UNL A   1      14.685  54.850   9.035  1.00  0.00    +0.000 Cl
ATOM     14  C11 UNL A   1      12.029  54.468   8.918  1.00  0.00    +0.000 C 
ATOM     15  C12 UNL A   1      10.873  53.718   8.729  1.00  0.00    +0.000 C 
ATOM     16  C13 UNL A   1      10.971  52.357   8.444  1.00  0.00    +0.000 C 
ATOM     17  C14 UNL A   1      12.226  51.742   8.342  1.00  0.00    +0.000 C 
ATOM     18 Cl2  UNL A   1      12.238  50.030   8.081  1.00  0.00    +0.000 Cl
ENDBRANCH   10   11
ENDBRANCH    9   10
ENDBRANCH    3    4
ENDBRANCH    2    3
ENDBRANCH   19    2
ENDBRANCH   20   19
ENDBRANCH   21   20
ENDBRANCH   22   21
ENDBRANCH   23   22
ENDBRANCH   24   23
ENDBRANCH   25   24
ENDBRANCH   26   25
ENDBRANCH   27   26
ENDBRANCH   29   27
ENDBRANCH   33   32
BRANCH   37   38
ATOM     38  C30 UNL A   1      17.071  48.469  -1.145  1.00  0.00    +0.000 C 
ATOM     39  C31 UNL A   1      18.143  47.671  -0.717  1.00  0.00    +0.000 C 
ATOM     40  F1  UNL A   1      18.808  47.982   0.407  1.00  0.00    +0.000 F 
ATOM     41  C32 UNL A   1      18.561  46.572  -1.461  1.00  0.00    +0.000 C 
ATOM     42  F2  UNL A   1      19.618  45.853  -1.057  1.00  0.00    +0.000 F 
ATOM     43  C33 UNL A   1      17.896  46.228  -2.629  1.00  0.00    +0.000 C 
ATOM     44  F3  UNL A   1      18.298  45.168  -3.343  1.00  0.00    +0.000 F 
ATOM     45  C34 UNL A   1      16.820  46.989  -3.060  1.00  0.00    +0.000 C 
ATOM     46  F4  UNL A   1      16.170  46.651  -4.182  1.00  0.00    +0.000 F 
ATOM     47  C35 UNL A   1      16.417  48.106  -2.333  1.00  0.00    +0.000 C 
ATOM     48  F5  UNL A   1      15.382  48.831  -2.784  1.00  0.00    +0.000 F 
ENDBRANCH   37   38
BRANCH   54   55
ATOM     65  F10 UNL A   1      20.085  55.402   1.041  1.00  0.00    +0.000 F 
ATOM     55  C41 UNL A   1      18.460  55.529  -0.692  1.00  0.00    +0.000 C 
ATOM     56  C42 UNL A   1      18.072  56.123  -1.902  1.00  0.00    +0.000 C 
ATOM     57  F6  UNL A   1      16.930  55.754  -2.499  1.00  0.00    +0.000 F 
ATOM     58  C43 UNL A   1      18.879  57.074  -2.522  1.00  0.00    +0.000 C 
ATOM     59  F7  UNL A   1      18.509  57.598  -3.699  1.00  0.00    +0.000 F 
ATOM     60  C44 UNL A   1      20.068  57.471  -1.931  1.00  0.00    +0.000 C 
ATOM     61  F8  UNL A   1      20.840  58.391  -2.526  1.00  0.00    +0.000 F 
ATOM     62  C45 UNL A   1      20.463  56.908  -0.727  1.00  0.00    +0.000 C 
ATOM     63  F9  UNL A   1      21.608  57.298  -0.148  1.00  0.00    +0.000 F 
ATOM     64  C46 UNL A   1      19.673  55.937  -0.117  1.00  0.00    +0.000 C 
ENDBRANCH   54   55
BRANCH   69   70
ATOM     70  C50 UNL A   1      13.913  56.019   4.559  1.00  0.00    +0.000 C 
ATOM     71  C51 UNL A   1      14.643  56.383   5.698  1.00  0.00    +0.000 C 
ATOM     72  F11 UNL A   1      15.748  55.699   6.032  1.00  0.00    +0.000 F 
ATOM     73  C52 UNL A   1      14.220  57.425   6.521  1.00  0.00    +0.000 C 
ATOM     74  F12 UNL A   1      14.915  57.726   7.627  1.00  0.00    +0.000 F 
ATOM     75  C53 UNL A   1      13.075  58.139   6.205  1.00  0.00    +0.000 C 
ATOM     76  F13 UNL A   1      12.670  59.144   6.995  1.00  0.00    +0.000 F 
ATOM     77  C54 UNL A   1      12.345  57.807   5.074  1.00  0.00    +0.000 C 
ATOM     78  F14 UNL A   1      11.244  58.503   4.759  1.00  0.00    +0.000 F 
ATOM     79  C55 UNL A   1      12.753  56.749   4.264  1.00  0.00    +0.000 C 
ATOM     80  F15 UNL A   1      12.021  56.441   3.183  1.00  0.00    +0.000 F 
ENDBRANCH   69   70
TORSDOF 18
ENDMDL
MODEL 5
REMARK VINA RESULT:     -11.1     45.043     50.420
ROOT
ATOM     33  C26 UNL A   1      12.908  50.283   3.209  1.00  0.00    +0.000 C 
ATOM     34  C27 UNL A   1      12.961  51.750   3.527  1.00  0.00    +0.000 C 
ATOM     35  N4  UNL A   1      13.728  52.682   3.016  1.00  0.00    +0.000 N 
ATOM     36  C28 UNL A   1      13.340  53.866   3.626  1.00  0.00    +0.000 C 
ATOM     37  C29 UNL A   1      13.866  55.106   3.476  1.00  0.00    +0.000 C 
ATOM     49  C36 UNL A   1      14.979  55.419   2.617  1.00  0.00    +0.000 C 
ATOM     50  C37 UNL A   1      15.624  56.632   2.448  1.00  0.00    +0.000 C 
ATOM     51  C38 UNL A   1      16.621  56.465   1.480  1.00  0.00    +0.000 C 
ATOM     52  C39 UNL A   1      16.625  55.139   1.079  1.00  0.00    +0.000 C 
ATOM     53  N5  UNL A   1      15.610  54.509   1.782  1.00  0.00    +0.000 N 
ATOM     54  C40 UNL A   1      17.488  54.493   0.124  1.00  0.00    +0.000 C 
ATOM     66  C47 UNL A   1      17.435  53.178  -0.206  1.00  0.00    +0.000 C 
ATOM     67  N6  UNL A   1      16.589  52.191   0.279  1.00  0.00    +0.000 N 
ATOM     68  C48 UNL A   1      16.920  51.091  -0.349  1.00  0.00    +0.000 C 
ATOM     69  C49 UNL A   1      16.355  49.705  -0.202  1.00  0.00    +0.000 C 
ATOM     81  C56 UNL A   1      15.373  49.485   0.694  1.00  0.00    +0.000 C 
ATOM     82  C57 UNL A   1      14.732  48.197   0.946  1.00  0.00    +0.000 C 
ATOM     83  C58 UNL A   1      13.768  48.362   1.867  1.00  0.00    +0.000 C 
ATOM     84  C59 UNL A   1      13.749  49.761   2.295  1.00  0.00    +0.000 C 
ATOM     85  N7  UNL A   1      14.740  50.351   1.551  1.00  0.00    +0.000 N 
ATOM     86  C60 UNL A   1      18.001  51.264  -1.331  1.00  0.00    +0.000 C 
ATOM     87  C61 UNL A   1      18.305  52.545  -1.175  1.00  0.00    +0.000 C 
ATOM     88  C62 UNL A   1      12.241  53.547   4.510  1.00  0.00    +0.000 C 
ATOM     89  C63 UNL A   1      12.010  52.241   4.534  1.00  0.00    +0.000 C 
ATOM    118  H27 UNL A   1      15.408  57.507   2.949  1.00  0.00    +0.000 H 
ATOM    119  H28 UNL A   1      17.247  57.205   1.125  1.00  0.00    +0.000 H 
ATOM    120  H29 UNL A   1      15.373  53.558   1.701  1.00  0.00    +0.000 H 
ATOM    121  H30 UNL A   1      14.980  47.305   0.490  1.00  0.00    +0.000 H 
ATOM    122  H31 UNL A   1      13.143  47.620   2.217  1.00  0.00    +0.000 H 
ATOM    123  H32 UNL A   1      14.974  51.304   1.625  1.00  0.00    +0.000 H 
ATOM    124  H33 UNL A   1      18.414  50.570  -1.974  1.00  0.00    +0.000 H 
ATOM    125  H34 UNL A   1      19.063  53.029  -1.680  1.00  0.00    +0.000 H 
ATOM    126  H35 UNL A   1      11.706  54.244   5.052  1.00  0.00    +0.000 H 
ATOM    127  H36 UNL A   1      11.338  51.710   5.109  1.00  0.00    +0.000 H 
ENDROOT
BRANCH   33   32
ATOM    129  H38 UNL A   1       8.687  48.457   3.442  1.00  0.00    +0.000 H 
ATOM    128  H37 UNL A   1      10.394  49.829   2.401  1.00  0.00    +0.000 H 
ATOM    116  H25 UNL A   1      11.433  47.282   6.406  1.00  0.00    +0.000 H 
ATOM    117  H26 UNL A   1      13.078  48.811   5.483  1.00  0.00    +0.000 H 
ATOM     90  C64 UNL A   1      10.612  49.302   3.261  1.00  0.00    +0.000 C 
ATOM     91  C65 UNL A   1       9.641  48.482   3.836  1.00  0.00    +0.000 C 
ATOM     29  C22 UNL A   1       9.963  47.695   4.945  1.00  0.00    +0.000 C 
ATOM     30  C23 UNL A   1      11.214  47.827   5.557  1.00  0.00    +0.000 C 
ATOM     31  C24 UNL A   1      12.164  48.696   5.017  1.00  0.00    +0.000 C 
ATOM     32  C25 UNL A   1      11.883  49.415   3.845  1.00  0.00    +0.000 C 
BRANCH   29   27
ATOM     27  C21 UNL A   1       8.996  46.722   5.503  1.00  0.00    +0.000 C 
ATOM     28  O2  UNL A   1       8.901  45.606   4.999  1.00  0.00    +0.000 O 
BRANCH   27   26
ATOM     26  N3  UNL A   1       8.191  47.074   6.557  1.00  0.00    +0.000 N 
ATOM    115  H24 UNL A   1       7.224  46.995   6.391  1.00  0.00    +0.000 H 
BRANCH   26   25
ATOM     25  C20 UNL A   1       8.556  47.546   7.884  1.00  0.00    +0.000 C 
ATOM    114  H23 UNL A   1       7.671  47.941   8.339  1.00  0.00    +0.000 H 
ATOM    113  H22 UNL A   1       9.317  48.292   7.784  1.00  0.00    +0.000 H 
BRANCH   25   24
ATOM    112  H21 UNL A   1       8.287  45.716   8.861  1.00  0.00    +0.000 H 
ATOM    111  H20 UNL A   1       9.352  46.869   9.725  1.00  0.00    +0.000 H 
ATOM     24  C19 UNL A   1       9.079  46.433   8.786  1.00  0.00    +0.000 C 
BRANCH   24   23
ATOM    109  H18 UNL A   1      10.014  44.641   8.146  1.00  0.00    +0.000 H 
ATOM    110  H19 UNL A   1      10.550  46.140   7.325  1.00  0.00    +0.000 H 
ATOM     23  C18 UNL A   1      10.290  45.668   8.250  1.00  0.00    +0.000 C 
BRANCH   23   22
ATOM    107  H16 UNL A   1      11.863  44.728   9.319  1.00  0.00    +0.000 H 
ATOM    108  H17 UNL A   1      12.260  46.307   8.568  1.00  0.00    +0.000 H 
ATOM     22  C17 UNL A   1      11.548  45.732   9.122  1.00  0.00    +0.000 C 
BRANCH   22   21
ATOM    105  H14 UNL A   1      10.591  47.160  10.372  1.00  0.00    +0.000 H 
ATOM    106  H15 UNL A   1      11.185  45.687  11.193  1.00  0.00    +0.000 H 
ATOM     21  C16 UNL A   1      11.385  46.449  10.468  1.00  0.00    +0.000 C 
BRANCH   21   20
ATOM     20  C15 UNL A   1      12.628  47.191  10.956  1.00  0.00    +0.000 C 
ATOM    103  H12 UNL A   1      12.405  48.234  11.035  1.00  0.00    +0.000 H 
ATOM    104  H13 UNL A   1      12.907  46.791  11.910  1.00  0.00    +0.000 H 
BRANCH   20   19
ATOM     19  N2  UNL A   1      13.739  47.013  10.045  1.00  0.00    +0.000 N 
ATOM    102  H11 UNL A   1      14.163  46.126   9.990  1.00  0.00    +0.000 H 
BRANCH   19    2
ATOM      1  O1  UNL A   1      13.565  48.996   8.900  1.00  0.00    +0.000 O 
ATOM      2  C1  UNL A   1      14.228  48.024   9.250  1.00  0.00    +0.000 C 
BRANCH    2    3
ATOM      3  C2  UNL A   1      15.673  47.842   8.813  1.00  0.00    +0.000 C 
ATOM     92  H1  UNL A   1      15.950  46.820   8.966  1.00  0.00    +0.000 H 
ATOM     93  H2  UNL A   1      16.274  48.507   9.397  1.00  0.00    +0.000 H 
BRANCH    3    4
ATOM     97  H6  UNL A   1      17.302  50.427   5.297  1.00  0.00    +0.000 H 
ATOM      4  C3  UNL A   1      15.890  48.190   7.355  1.00  0.00    +0.000 C 
ATOM      5  C4  UNL A   1      15.400  47.308   6.374  1.00  0.00    +0.000 C 
ATOM      6  C5  UNL A   1      15.609  47.560   5.021  1.00  0.00    +0.000 C 
ATOM      7  C6  UNL A   1      16.309  48.695   4.634  1.00  0.00    +0.000 C 
ATOM      8  C7  UNL A   1      16.791  49.583   5.598  1.00  0.00    +0.000 C 
ATOM      9  C8  UNL A   1      16.595  49.354   6.970  1.00  0.00    +0.000 C 
ATOM     94  H3  UNL A   1      14.879  46.464   6.661  1.00  0.00    +0.000 H 
ATOM     95  H4  UNL A   1      15.246  46.907   4.309  1.00  0.00    +0.000 H 
ATOM     96  H5  UNL A   1      16.474  48.883   3.633  1.00  0.00    +0.000 H 
BRANCH    9   10
ATOM     10  N1  UNL A   1      17.019  50.282   7.956  1.00  0.00    +0.000 N 
ATOM     98  H7  UNL A   1      17.993  50.380   8.063  1.00  0.00    +0.000 H 
BRANCH   10   11
ATOM     99  H8  UNL A   1      15.781  51.703  12.107  1.00  0.00    +0.000 H 
ATOM    100  H9  UNL A   1      14.228  53.349  11.232  1.00  0.00    +0.000 H 
ATOM    101  H10 UNL A   1      13.906  53.547   8.837  1.00  0.00    +0.000 H 
ATOM     11  C9  UNL A   1      16.215  51.087   8.811  1.00  0.00    +0.000 C 
ATOM     12  C10 UNL A   1      16.375  50.987  10.209  1.00  0.00    +0.000 C 
ATOM     13 Cl1  UNL A   1      17.489  49.851  10.894  1.00  0.00    +0.000 Cl
ATOM     14  C11 UNL A   1      15.651  51.800  11.089  1.00  0.00    +0.000 C 
ATOM     15  C12 UNL A   1      14.755  52.739  10.588  1.00  0.00    +0.000 C 
ATOM     16  C13 UNL A   1      14.573  52.854   9.210  1.00  0.00    +0.000 C 
ATOM     17  C14 UNL A   1      15.290  52.034   8.329  1.00  0.00    +0.000 C 
ATOM     18 Cl2  UNL A   1      14.921  52.189   6.643  1.00  0.00    +0.000 Cl
ENDBRANCH   10   11
ENDBRANCH    9   10
ENDBRANCH    3    4
ENDBRANCH    2    3
ENDBRANCH   19    2
ENDBRANCH   20   19
ENDBRANCH   21   20
ENDBRANCH   22   21
ENDBRANCH   23   22
ENDBRANCH   24   23
ENDBRANCH   25   24
ENDBRANCH   26   25
ENDBRANCH   27   26
ENDBRANCH   29   27
ENDBRANCH   33   32
BRANCH   37   38
ATOM     38  C30 UNL A   1      13.244  56.221   4.265  1.00  0.00    +0.000 C 
ATOM     39  C31 UNL A   1      13.669  56.527   5.567  1.00  0.00    +0.000 C 
ATOM     40  F1  UNL A   1      14.625  55.791   6.155  1.00  0.00    +0.000 F 
ATOM     41  C32 UNL A   1      13.086  57.567   6.285  1.00  0.00    +0.000 C 
ATOM     42  F2  UNL A   1      13.475  57.809   7.545  1.00  0.00    +0.000 F 
ATOM     43  C33 UNL A   1      12.093  58.342   5.706  1.00  0.00    +0.000 C 
ATOM     44  F3  UNL A   1      11.535  59.345   6.398  1.00  0.00    +0.000 F 
ATOM     45  C34 UNL A   1      11.673  58.073   4.412  1.00  0.00    +0.000 C 
ATOM     46  F4  UNL A   1      10.722  58.829   3.848  1.00  0.00    +0.000 F 
ATOM     47  C35 UNL A   1      12.234  57.016   3.701  1.00  0.00    +0.000 C 
ATOM     48  F5  UNL A   1      11.796  56.771   2.457  1.00  0.00    +0.000 F 
ENDBRANCH   37   38
BRANCH   54   55
ATOM     65  F10 UNL A   1      17.321  55.331  -2.586  1.00  0.00    +0.000 F 
ATOM     55  C41 UNL A   1      18.542  55.326  -0.543  1.00  0.00    +0.000 C 
ATOM     56  C42 UNL A   1      19.700  55.729   0.138  1.00  0.00    +0.000 C 
ATOM     57  F6  UNL A   1      19.865  55.415   1.432  1.00  0.00    +0.000 F 
ATOM     58  C43 UNL A   1      20.676  56.489  -0.500  1.00  0.00    +0.000 C 
ATOM     59  F7  UNL A   1      21.754  56.899   0.182  1.00  0.00    +0.000 F 
ATOM     60  C44 UNL A   1      20.529  56.834  -1.835  1.00  0.00    +0.000 C 
ATOM     61  F8  UNL A   1      21.473  57.561  -2.449  1.00  0.00    +0.000 F 
ATOM     62  C45 UNL A   1      19.399  56.433  -2.532  1.00  0.00    +0.000 C 
ATOM     63  F9  UNL A   1      19.260  56.756  -3.825  1.00  0.00    +0.000 F 
ATOM     64  C46 UNL A   1      18.408  55.696  -1.890  1.00  0.00    +0.000 C 
ENDBRANCH   54   55
BRANCH   69   70
ATOM     70  C50 UNL A   1      16.890  48.578  -1.008  1.00  0.00    +0.000 C 
ATOM     71  C51 UNL A   1      16.263  48.191  -2.201  1.00  0.00    +0.000 C 
ATOM     72  F11 UNL A   1      15.157  48.828  -2.613  1.00  0.00    +0.000 F 
ATOM     73  C52 UNL A   1      16.746  47.122  -2.953  1.00  0.00    +0.000 C 
ATOM     74  F12 UNL A   1      16.104  46.746  -4.067  1.00  0.00    +0.000 F 
ATOM     75  C53 UNL A   1      17.880  46.439  -2.541  1.00  0.00    +0.000 C 
ATOM     76  F13 UNL A   1      18.346  45.413  -3.267  1.00  0.00    +0.000 F 
ATOM     77  C54 UNL A   1      18.525  46.814  -1.374  1.00  0.00    +0.000 C 
ATOM     78  F14 UNL A   1      19.628  46.163  -0.979  1.00  0.00    +0.000 F 
ATOM     79  C55 UNL A   1      18.029  47.866  -0.607  1.00  0.00    +0.000 C 
ATOM     80  F15 UNL A   1      18.666  48.200   0.525  1.00  0.00    +0.000 F 
ENDBRANCH   69   70
TORSDOF 18
ENDMDL
MODEL 6
REMARK VINA RESULT:     -10.9     35.442     41.026
ROOT
ATOM     33  C26 UNL A   1      46.564  11.592  47.269  1.00  0.00    +0.000 C 
ATOM     34  C27 UNL A   1      46.735  10.632  48.412  1.00  0.00    +0.000 C 
ATOM     35  N4  UNL A   1      47.543  10.703  49.440  1.00  0.00    +0.000 N 
ATOM     36  C28 UNL A   1      47.267   9.586  50.215  1.00  0.00    +0.000 C 
ATOM     37  C29 UNL A   1      47.873   9.177  51.356  1.00  0.00    +0.000 C 
ATOM     49  C36 UNL A   1      48.968   9.867  51.987  1.00  0.00    +0.000 C 
ATOM     50  C37 UNL A   1      49.690   9.498  53.109  1.00  0.00    +0.000 C 
ATOM     51  C38 UNL A   1      50.631  10.499  53.373  1.00  0.00    +0.000 C 
ATOM     52  C39 UNL A   1      50.524  11.471  52.392  1.00  0.00    +0.000 C 
ATOM     53  N5  UNL A   1      49.497  11.073  51.550  1.00  0.00    +0.000 N 
ATOM     54  C40 UNL A   1      51.297  12.675  52.233  1.00  0.00    +0.000 C 
ATOM     66  C47 UNL A   1      51.137  13.574  51.231  1.00  0.00    +0.000 C 
ATOM     67  N6  UNL A   1      50.244  13.547  50.169  1.00  0.00    +0.000 N 
ATOM     68  C48 UNL A   1      50.470  14.637  49.479  1.00  0.00    +0.000 C 
ATOM     69  C49 UNL A   1      49.814  15.113  48.211  1.00  0.00    +0.000 C 
ATOM     81  C56 UNL A   1      48.858  14.356  47.639  1.00  0.00    +0.000 C 
ATOM     82  C57 UNL A   1      48.138  14.689  46.413  1.00  0.00    +0.000 C 
ATOM     83  C58 UNL A   1      47.228  13.732  46.167  1.00  0.00    +0.000 C 
ATOM     84  C59 UNL A   1      47.326  12.700  47.201  1.00  0.00    +0.000 C 
ATOM     85  N7  UNL A   1      48.324  13.152  48.028  1.00  0.00    +0.000 N 
ATOM     86  C60 UNL A   1      51.517  15.499  50.046  1.00  0.00    +0.000 C 
ATOM     87  C61 UNL A   1      51.918  14.786  51.090  1.00  0.00    +0.000 C 
ATOM     88  C62 UNL A   1      46.186   8.877  49.566  1.00  0.00    +0.000 C 
ATOM     89  C63 UNL A   1      45.864   9.447  48.413  1.00  0.00    +0.000 C 
ATOM    118  H27 UNL A   1      49.558   8.633  53.655  1.00  0.00    +0.000 H 
ATOM    119  H28 UNL A   1      51.292  10.511  54.165  1.00  0.00    +0.000 H 
ATOM    120  H29 UNL A   1      49.190  11.570  50.759  1.00  0.00    +0.000 H 
ATOM    121  H30 UNL A   1      48.302  15.523  45.829  1.00  0.00    +0.000 H 
ATOM    122  H31 UNL A   1      46.567  13.724  45.375  1.00  0.00    +0.000 H 
ATOM    123  H32 UNL A   1      48.629  12.660  48.824  1.00  0.00    +0.000 H 
ATOM    124  H33 UNL A   1      51.853  16.418  49.718  1.00  0.00    +0.000 H 
ATOM    125  H34 UNL A   1      52.687  15.060  51.721  1.00  0.00    +0.000 H 
ATOM    126  H35 UNL A   1      45.725   8.036  49.949  1.00  0.00    +0.000 H 
ATOM    127  H36 UNL A   1      45.181   9.140  47.703  1.00  0.00    +0.000 H 
ENDROOT
BRANCH   33   32
ATOM    129  H38 UNL A   1      45.069   9.896  43.257  1.00  0.00    +0.000 H 
ATOM    128  H37 UNL A   1      46.759  10.246  44.960  1.00  0.00    +0.000 H 
ATOM    116  H25 UNL A   1      42.252  11.934  45.627  1.00  0.00    +0.000 H 
ATOM    117  H26 UNL A   1      43.993  12.460  47.237  1.00  0.00    +0.000 H 
ATOM     90  C64 UNL A   1      45.807  10.619  45.096  1.00  0.00    +0.000 C 
ATOM     91  C65 UNL A   1      44.825  10.383  44.135  1.00  0.00    +0.000 C 
ATOM     29  C22 UNL A   1      43.513  10.807  44.361  1.00  0.00    +0.000 C 
ATOM     30  C23 UNL A   1      43.211  11.580  45.487  1.00  0.00    +0.000 C 
ATOM     31  C24 UNL A   1      44.210  11.869  46.419  1.00  0.00    +0.000 C 
ATOM     32  C25 UNL A   1      45.508  11.363  46.249  1.00  0.00    +0.000 C 
BRANCH   29   27
ATOM     27  C21 UNL A   1      42.422  10.464  43.420  1.00  0.00    +0.000 C 
ATOM     28  O2  UNL A   1      41.841   9.388  43.533  1.00  0.00    +0.000 O 
BRANCH   27   26
ATOM     26  N3  UNL A   1      42.082  11.329  42.410  1.00  0.00    +0.000 N 
ATOM    115  H24 UNL A   1      42.689  11.330  41.636  1.00  0.00    +0.000 H 
BRANCH   26   25
ATOM     25  C20 UNL A   1      40.956  12.245  42.316  1.00  0.00    +0.000 C 
ATOM    114  H23 UNL A   1      40.234  11.944  43.047  1.00  0.00    +0.000 H 
ATOM    113  H22 UNL A   1      40.558  12.197  41.323  1.00  0.00    +0.000 H 
BRANCH   25   24
ATOM    112  H21 UNL A   1      40.915  13.915  43.574  1.00  0.00    +0.000 H 
ATOM    111  H20 UNL A   1      40.967  14.304  41.826  1.00  0.00    +0.000 H 
ATOM     24  C19 UNL A   1      41.341  13.690  42.619  1.00  0.00    +0.000 C 
BRANCH   24   23
ATOM    109  H18 UNL A   1      43.262  13.179  43.357  1.00  0.00    +0.000 H 
ATOM    110  H19 UNL A   1      43.227  13.978  41.754  1.00  0.00    +0.000 H 
ATOM     23  C18 UNL A   1      42.842  13.954  42.752  1.00  0.00    +0.000 C 
BRANCH   23   22
ATOM    107  H16 UNL A   1      43.646  15.913  42.614  1.00  0.00    +0.000 H 
ATOM    108  H17 UNL A   1      42.316  15.693  43.795  1.00  0.00    +0.000 H 
ATOM     22  C17 UNL A   1      43.220  15.299  43.380  1.00  0.00    +0.000 C 
BRANCH   22   21
ATOM    105  H14 UNL A   1      43.932  14.422  45.181  1.00  0.00    +0.000 H 
ATOM    106  H15 UNL A   1      45.186  15.096  44.099  1.00  0.00    +0.000 H 
ATOM     21  C16 UNL A   1      44.220  15.230  44.541  1.00  0.00    +0.000 C 
BRANCH   21   20
ATOM     20  C15 UNL A   1      44.309  16.498  45.390  1.00  0.00    +0.000 C 
ATOM    103  H12 UNL A   1      44.937  17.207  44.893  1.00  0.00    +0.000 H 
ATOM    104  H13 UNL A   1      43.320  16.890  45.514  1.00  0.00    +0.000 H 
BRANCH   20   19
ATOM     19  N2  UNL A   1      44.856  16.217  46.700  1.00  0.00    +0.000 N 
ATOM    102  H11 UNL A   1      45.828  16.084  46.783  1.00  0.00    +0.000 H 
BRANCH   19    2
ATOM      1  O1  UNL A   1      43.651  17.104  48.442  1.00  0.00    +0.000 O 
ATOM      2  C1  UNL A   1      44.082  16.128  47.835  1.00  0.00    +0.000 C 
BRANCH    2    3
ATOM      3  C2  UNL A   1      43.806  14.708  48.302  1.00  0.00    +0.000 C 
ATOM     92  H1  UNL A   1      43.967  14.040  47.482  1.00  0.00    +0.000 H 
ATOM     93  H2  UNL A   1      42.795  14.673  48.649  1.00  0.00    +0.000 H 
BRANCH    3    4
ATOM     97  H6  UNL A   1      45.071  12.016  51.887  1.00  0.00    +0.000 H 
ATOM      4  C3  UNL A   1      44.698  14.288  49.452  1.00  0.00    +0.000 C 
ATOM      5  C4  UNL A   1      45.882  15.015  49.683  1.00  0.00    +0.000 C 
ATOM      6  C5  UNL A   1      46.757  14.645  50.700  1.00  0.00    +0.000 C 
ATOM      7  C6  UNL A   1      46.460  13.547  51.497  1.00  0.00    +0.000 C 
ATOM      8  C7  UNL A   1      45.284  12.824  51.283  1.00  0.00    +0.000 C 
ATOM      9  C8  UNL A   1      44.383  13.175  50.264  1.00  0.00    +0.000 C 
ATOM     94  H3  UNL A   1      46.102  15.832  49.091  1.00  0.00    +0.000 H 
ATOM     95  H4  UNL A   1      47.622  15.184  50.862  1.00  0.00    +0.000 H 
ATOM     96  H5  UNL A   1      47.110  13.263  52.247  1.00  0.00    +0.000 H 
BRANCH    9   10
ATOM     10  N1  UNL A   1      43.152  12.492  50.081  1.00  0.00    +0.000 N 
ATOM     98  H7  UNL A   1      42.976  12.161  49.171  1.00  0.00    +0.000 H 
BRANCH   10   11
ATOM     99  H8  UNL A   1      39.403  13.705  52.373  1.00  0.00    +0.000 H 
ATOM    100  H9  UNL A   1      39.232  11.563  53.500  1.00  0.00    +0.000 H 
ATOM    101  H10 UNL A   1      40.906   9.856  53.103  1.00  0.00    +0.000 H 
ATOM     11  C9  UNL A   1      42.140  12.229  51.045  1.00  0.00    +0.000 C 
ATOM     12  C10 UNL A   1      41.156  13.207  51.303  1.00  0.00    +0.000 C 
ATOM     13 Cl1  UNL A   1      41.208  14.746  50.509  1.00  0.00    +0.000 Cl
ATOM     14  C11 UNL A   1      40.106  12.971  52.197  1.00  0.00    +0.000 C 
ATOM     15  C12 UNL A   1      40.011  11.746  52.849  1.00  0.00    +0.000 C 
ATOM     16  C13 UNL A   1      40.973  10.764  52.617  1.00  0.00    +0.000 C 
ATOM     17  C14 UNL A   1      42.030  11.002  51.729  1.00  0.00    +0.000 C 
ATOM     18 Cl2  UNL A   1      43.224   9.754  51.584  1.00  0.00    +0.000 Cl
ENDBRANCH   10   11
ENDBRANCH    9   10
ENDBRANCH    3    4
ENDBRANCH    2    3
ENDBRANCH   19    2
ENDBRANCH   20   19
ENDBRANCH   21   20
ENDBRANCH   22   21
ENDBRANCH   23   22
ENDBRANCH   24   23
ENDBRANCH   25   24
ENDBRANCH   26   25
ENDBRANCH   27   26
ENDBRANCH   29   27
ENDBRANCH   33   32
BRANCH   37   38
ATOM     38  C30 UNL A   1      47.366   7.918  51.997  1.00  0.00    +0.000 C 
ATOM     39  C31 UNL A   1      46.326   7.939  52.938  1.00  0.00    +0.000 C 
ATOM     40  F1  UNL A   1      45.786   9.107  53.320  1.00  0.00    +0.000 F 
ATOM     41  C32 UNL A   1      45.863   6.763  53.521  1.00  0.00    +0.000 C 
ATOM     42  F2  UNL A   1      44.902   6.814  54.455  1.00  0.00    +0.000 F 
ATOM     43  C33 UNL A   1      46.404   5.542  53.150  1.00  0.00    +0.000 C 
ATOM     44  F3  UNL A   1      45.954   4.411  53.710  1.00  0.00    +0.000 F 
ATOM     45  C34 UNL A   1      47.416   5.494  52.204  1.00  0.00    +0.000 C 
ATOM     46  F4  UNL A   1      47.932   4.313  51.836  1.00  0.00    +0.000 F 
ATOM     47  C35 UNL A   1      47.902   6.671  51.640  1.00  0.00    +0.000 C 
ATOM     48  F5  UNL A   1      48.893   6.593  50.739  1.00  0.00    +0.000 F 
ENDBRANCH   37   38
BRANCH   54   55
ATOM     65  F10 UNL A   1      53.984  11.818  51.891  1.00  0.00    +0.000 F 
ATOM     55  C41 UNL A   1      52.379  12.949  53.236  1.00  0.00    +0.000 C 
ATOM     56  C42 UNL A   1      52.118  13.638  54.429  1.00  0.00    +0.000 C 
ATOM     57  F6  UNL A   1      50.889  14.116  54.677  1.00  0.00    +0.000 F 
ATOM     58  C43 UNL A   1      53.130  13.870  55.356  1.00  0.00    +0.000 C 
ATOM     59  F7  UNL A   1      52.868  14.568  56.470  1.00  0.00    +0.000 F 
ATOM     60  C44 UNL A   1      54.411  13.394  55.123  1.00  0.00    +0.000 C 
ATOM     61  F8  UNL A   1      55.383  13.614  56.020  1.00  0.00    +0.000 F 
ATOM     62  C45 UNL A   1      54.688  12.697  53.957  1.00  0.00    +0.000 C 
ATOM     63  F9  UNL A   1      55.923  12.226  53.735  1.00  0.00    +0.000 F 
ATOM     64  C46 UNL A   1      53.685  12.486  53.015  1.00  0.00    +0.000 C 
ENDBRANCH   54   55
BRANCH   69   70
ATOM     70  C50 UNL A   1      50.233  16.387  47.573  1.00  0.00    +0.000 C 
ATOM     71  C51 UNL A   1      51.276  16.409  46.637  1.00  0.00    +0.000 C 
ATOM     72  F11 UNL A   1      51.920  15.274  46.325  1.00  0.00    +0.000 F 
ATOM     73  C52 UNL A   1      51.689  17.602  46.048  1.00  0.00    +0.000 C 
ATOM     74  F12 UNL A   1      52.716  17.601  45.187  1.00  0.00    +0.000 F 
ATOM     75  C53 UNL A   1      51.049  18.790  46.362  1.00  0.00    +0.000 C 
ATOM     76  F13 UNL A   1      51.444  19.938  45.793  1.00  0.00    +0.000 F 
ATOM     77  C54 UNL A   1      50.004  18.790  47.273  1.00  0.00    +0.000 C 
ATOM     78  F14 UNL A   1      49.374  19.936  47.570  1.00  0.00    +0.000 F 
ATOM     79  C55 UNL A   1      49.606  17.602  47.882  1.00  0.00    +0.000 C 
ATOM     80  F15 UNL A   1      48.601  17.633  48.769  1.00  0.00    +0.000 F 
ENDBRANCH   69   70
TORSDOF 18
ENDMDL
MODEL 7
REMARK VINA RESULT:     -10.8     43.682     47.284
ROOT
ATOM     33  C26 UNL A   1      29.137 -14.345  32.455  1.00  0.00    +0.000 C 
ATOM     34  C27 UNL A   1      28.626 -14.470  33.862  1.00  0.00    +0.000 C 
ATOM     35  N4  UNL A   1      27.545 -13.962  34.400  1.00  0.00    +0.000 N 
ATOM     36  C28 UNL A   1      27.524 -14.420  35.709  1.00  0.00    +0.000 C 
ATOM     37  C29 UNL A   1      26.636 -14.131  36.692  1.00  0.00    +0.000 C 
ATOM     49  C36 UNL A   1      25.509 -13.249  36.535  1.00  0.00    +0.000 C 
ATOM     50  C37 UNL A   1      24.591 -12.844  37.489  1.00  0.00    +0.000 C 
ATOM     51  C38 UNL A   1      23.649 -12.018  36.865  1.00  0.00    +0.000 C 
ATOM     52  C39 UNL A   1      24.005 -11.874  35.535  1.00  0.00    +0.000 C 
ATOM     53  N5  UNL A   1      25.146 -12.638  35.344  1.00  0.00    +0.000 N 
ATOM     54  C40 UNL A   1      23.352 -11.100  34.510  1.00  0.00    +0.000 C 
ATOM     66  C47 UNL A   1      23.774 -11.001  33.225  1.00  0.00    +0.000 C 
ATOM     67  N6  UNL A   1      24.882 -11.583  32.623  1.00  0.00    +0.000 N 
ATOM     68  C48 UNL A   1      24.857 -11.196  31.372  1.00  0.00    +0.000 C 
ATOM     69  C49 UNL A   1      25.828 -11.500  30.264  1.00  0.00    +0.000 C 
ATOM     81  C56 UNL A   1      26.907 -12.263  30.524  1.00  0.00    +0.000 C 
ATOM     82  C57 UNL A   1      27.931 -12.638  29.552  1.00  0.00    +0.000 C 
ATOM     83  C58 UNL A   1      28.828 -13.440  30.149  1.00  0.00    +0.000 C 
ATOM     84  C59 UNL A   1      28.460 -13.605  31.556  1.00  0.00    +0.000 C 
ATOM     85  N7  UNL A   1      27.311 -12.866  31.689  1.00  0.00    +0.000 N 
ATOM     86  C60 UNL A   1      23.708 -10.345  31.030  1.00  0.00    +0.000 C 
ATOM     87  C61 UNL A   1      23.102 -10.225  32.204  1.00  0.00    +0.000 C 
ATOM     88  C62 UNL A   1      28.673 -15.284  35.875  1.00  0.00    +0.000 C 
ATOM     89  C63 UNL A   1      29.423 -15.297  34.781  1.00  0.00    +0.000 C 
ATOM    118  H27 UNL A   1      24.600 -13.105  38.486  1.00  0.00    +0.000 H 
ATOM    119  H28 UNL A   1      22.828 -11.589  37.321  1.00  0.00    +0.000 H 
ATOM    120  H29 UNL A   1      25.627 -12.732  34.491  1.00  0.00    +0.000 H 
ATOM    121  H30 UNL A   1      27.961 -12.335  28.566  1.00  0.00    +0.000 H 
ATOM    122  H31 UNL A   1      29.646 -13.869  29.690  1.00  0.00    +0.000 H 
ATOM    123  H32 UNL A   1      26.824 -12.776  32.539  1.00  0.00    +0.000 H 
ATOM    124  H33 UNL A   1      23.443  -9.945  30.116  1.00  0.00    +0.000 H 
ATOM    125  H34 UNL A   1      22.260  -9.653  32.367  1.00  0.00    +0.000 H 
ATOM    126  H35 UNL A   1      28.883 -15.819  36.732  1.00  0.00    +0.000 H 
ATOM    127  H36 UNL A   1      30.327 -15.765  34.618  1.00  0.00    +0.000 H 
ENDROOT
BRANCH   33   32
ATOM    129  H38 UNL A   1      33.691 -14.761  31.908  1.00  0.00    +0.000 H 
ATOM    128  H37 UNL A   1      31.700 -13.585  32.638  1.00  0.00    +0.000 H 
ATOM    116  H25 UNL A   1      31.327 -18.032  30.718  1.00  0.00    +0.000 H 
ATOM    117  H26 UNL A   1      29.321 -16.775  31.259  1.00  0.00    +0.000 H 
ATOM     90  C64 UNL A   1      31.617 -14.522  32.215  1.00  0.00    +0.000 C 
ATOM     91  C65 UNL A   1      32.766 -15.214  31.833  1.00  0.00    +0.000 C 
ATOM     29  C22 UNL A   1      32.662 -16.521  31.348  1.00  0.00    +0.000 C 
ATOM     30  C23 UNL A   1      31.403 -17.085  31.123  1.00  0.00    +0.000 C 
ATOM     31  C24 UNL A   1      30.251 -16.367  31.447  1.00  0.00    +0.000 C 
ATOM     32  C25 UNL A   1      30.348 -15.093  32.028  1.00  0.00    +0.000 C 
BRANCH   29   27
ATOM     27  C21 UNL A   1      33.868 -17.327  31.051  1.00  0.00    +0.000 C 
ATOM     28  O2  UNL A   1      34.237 -18.182  31.852  1.00  0.00    +0.000 O 
BRANCH   27   26
ATOM     26  N3  UNL A   1      34.585 -17.103  29.902  1.00  0.00    +0.000 N 
ATOM    115  H24 UNL A   1      35.505 -16.778  30.038  1.00  0.00    +0.000 H 
BRANCH   26   25
ATOM     25  C20 UNL A   1      34.187 -17.273  28.514  1.00  0.00    +0.000 C 
ATOM    114  H23 UNL A   1      33.317 -17.897  28.503  1.00  0.00    +0.000 H 
ATOM    113  H22 UNL A   1      35.000 -17.715  27.977  1.00  0.00    +0.000 H 
BRANCH   25   24
ATOM    112  H21 UNL A   1      34.059 -16.076  26.803  1.00  0.00    +0.000 H 
ATOM    111  H20 UNL A   1      34.362 -15.172  28.321  1.00  0.00    +0.000 H 
ATOM     24  C19 UNL A   1      33.815 -15.956  27.839  1.00  0.00    +0.000 C 
BRANCH   24   23
ATOM    109  H18 UNL A   1      31.951 -15.626  26.884  1.00  0.00    +0.000 H 
ATOM    110  H19 UNL A   1      31.873 -16.303  28.541  1.00  0.00    +0.000 H 
ATOM     23  C18 UNL A   1      32.330 -15.593  27.884  1.00  0.00    +0.000 C 
BRANCH   23   22
ATOM    107  H16 UNL A   1      31.265 -14.340  29.225  1.00  0.00    +0.000 H 
ATOM    108  H17 UNL A   1      32.935 -13.824  28.828  1.00  0.00    +0.000 H 
ATOM     22  C17 UNL A   1      32.007 -14.213  28.465  1.00  0.00    +0.000 C 
BRANCH   22   21
ATOM    105  H14 UNL A   1      31.082 -12.353  28.012  1.00  0.00    +0.000 H 
ATOM    106  H15 UNL A   1      32.314 -12.910  26.843  1.00  0.00    +0.000 H 
ATOM     21  C16 UNL A   1      31.483 -13.178  27.461  1.00  0.00    +0.000 C 
BRANCH   21   20
ATOM     20  C15 UNL A   1      30.395 -13.691  26.518  1.00  0.00    +0.000 C 
ATOM    103  H12 UNL A   1      30.591 -14.716  26.283  1.00  0.00    +0.000 H 
ATOM    104  H13 UNL A   1      29.448 -13.589  27.009  1.00  0.00    +0.000 H 
BRANCH   20   19
ATOM     19  N2  UNL A   1      30.357 -12.924  25.291  1.00  0.00    +0.000 N 
ATOM    102  H11 UNL A   1      31.203 -12.755  24.818  1.00  0.00    +0.000 H 
BRANCH   19    2
ATOM      1  O1  UNL A   1      28.702 -12.820  23.702  1.00  0.00    +0.000 O 
ATOM      2  C1  UNL A   1      29.193 -12.421  24.755  1.00  0.00    +0.000 C 
BRANCH    2    3
ATOM      3  C2  UNL A   1      28.554 -11.304  25.564  1.00  0.00    +0.000 C 
ATOM     92  H1  UNL A   1      28.930 -11.349  26.565  1.00  0.00    +0.000 H 
ATOM     93  H2  UNL A   1      27.494 -11.447  25.532  1.00  0.00    +0.000 H 
BRANCH    3    4
ATOM     97  H6  UNL A   1      30.739  -7.193  25.397  1.00  0.00    +0.000 H 
ATOM      4  C3  UNL A   1      28.848  -9.931  24.996  1.00  0.00    +0.000 C 
ATOM      5  C4  UNL A   1      28.169  -9.527  23.831  1.00  0.00    +0.000 C 
ATOM      6  C5  UNL A   1      28.431  -8.293  23.245  1.00  0.00    +0.000 C 
ATOM      7  C6  UNL A   1      29.374  -7.448  23.817  1.00  0.00    +0.000 C 
ATOM      8  C7  UNL A   1      30.048  -7.834  24.978  1.00  0.00    +0.000 C 
ATOM      9  C8  UNL A   1      29.802  -9.073  25.590  1.00  0.00    +0.000 C 
ATOM     94  H3  UNL A   1      27.467 -10.155  23.407  1.00  0.00    +0.000 H 
ATOM     95  H4  UNL A   1      27.928  -8.006  22.392  1.00  0.00    +0.000 H 
ATOM     96  H5  UNL A   1      29.579  -6.535  23.382  1.00  0.00    +0.000 H 
BRANCH    9   10
ATOM     10  N1  UNL A   1      30.428  -9.448  26.808  1.00  0.00    +0.000 N 
ATOM     98  H7  UNL A   1      30.147 -10.313  27.186  1.00  0.00    +0.000 H 
BRANCH   10   11
ATOM     99  H8  UNL A   1      34.768  -8.536  27.863  1.00  0.00    +0.000 H 
ATOM    100  H9  UNL A   1      34.167  -6.732  29.371  1.00  0.00    +0.000 H 
ATOM    101  H10 UNL A   1      31.830  -6.211  29.754  1.00  0.00    +0.000 H 
ATOM     11  C9  UNL A   1      31.406  -8.732  27.552  1.00  0.00    +0.000 C 
ATOM     12  C10 UNL A   1      32.774  -9.020  27.356  1.00  0.00    +0.000 C 
ATOM     13 Cl1  UNL A   1      33.268 -10.278  26.271  1.00  0.00    +0.000 Cl
ATOM     14  C11 UNL A   1      33.775  -8.302  28.019  1.00  0.00    +0.000 C 
ATOM     15  C12 UNL A   1      33.431  -7.272  28.888  1.00  0.00    +0.000 C 
ATOM     16  C13 UNL A   1      32.087  -6.972  29.106  1.00  0.00    +0.000 C 
ATOM     17  C14 UNL A   1      31.083  -7.696  28.450  1.00  0.00    +0.000 C 
ATOM     18 Cl2  UNL A   1      29.445  -7.308  28.861  1.00  0.00    +0.000 Cl
ENDBRANCH   10   11
ENDBRANCH    9   10
ENDBRANCH    3    4
ENDBRANCH    2    3
ENDBRANCH   19    2
ENDBRANCH   20   19
ENDBRANCH   21   20
ENDBRANCH   22   21
ENDBRANCH   23   22
ENDBRANCH   24   23
ENDBRANCH   25   24
ENDBRANCH   26   25
ENDBRANCH   27   26
ENDBRANCH   29   27
ENDBRANCH   33   32
BRANCH   37   38
ATOM     38  C30 UNL A   1      26.852 -14.774  38.031  1.00  0.00    +0.000 C 
ATOM     39  C31 UNL A   1      27.614 -14.152  39.031  1.00  0.00    +0.000 C 
ATOM     40  F1  UNL A   1      28.207 -12.972  38.791  1.00  0.00    +0.000 F 
ATOM     41  C32 UNL A   1      27.803 -14.759  40.269  1.00  0.00    +0.000 C 
ATOM     42  F2  UNL A   1      28.576 -14.168  41.192  1.00  0.00    +0.000 F 
ATOM     43  C33 UNL A   1      27.207 -15.980  40.545  1.00  0.00    +0.000 C 
ATOM     44  F3  UNL A   1      27.387 -16.560  41.739  1.00  0.00    +0.000 F 
ATOM     45  C34 UNL A   1      26.431 -16.603  39.580  1.00  0.00    +0.000 C 
ATOM     46  F4  UNL A   1      25.845 -17.777  39.849  1.00  0.00    +0.000 F 
ATOM     47  C35 UNL A   1      26.263 -16.013  38.330  1.00  0.00    +0.000 C 
ATOM     48  F5  UNL A   1      25.519 -16.648  37.411  1.00  0.00    +0.000 F 
ENDBRANCH   37   38
BRANCH   54   55
ATOM     65  F10 UNL A   1      23.446  -8.437  35.495  1.00  0.00    +0.000 F 
ATOM     55  C41 UNL A   1      22.127 -10.324  34.892  1.00  0.00    +0.000 C 
ATOM     56  C42 UNL A   1      20.844 -10.884  34.804  1.00  0.00    +0.000 C 
ATOM     57  F6  UNL A   1      20.683 -12.125  34.320  1.00  0.00    +0.000 F 
ATOM     58  C43 UNL A   1      19.719 -10.155  35.178  1.00  0.00    +0.000 C 
ATOM     59  F7  UNL A   1      18.500 -10.695  35.044  1.00  0.00    +0.000 F 
ATOM     60  C44 UNL A   1      19.856  -8.868  35.674  1.00  0.00    +0.000 C 
ATOM     61  F8  UNL A   1      18.771  -8.170  36.039  1.00  0.00    +0.000 F 
ATOM     62  C45 UNL A   1      21.116  -8.300  35.785  1.00  0.00    +0.000 C 
ATOM     63  F9  UNL A   1      21.251  -7.060  36.275  1.00  0.00    +0.000 F 
ATOM     64  C46 UNL A   1      22.241  -9.016  35.387  1.00  0.00    +0.000 C 
ENDBRANCH   54   55
BRANCH   69   70
ATOM     70  C50 UNL A   1      25.624 -10.943  28.902  1.00  0.00    +0.000 C 
ATOM     71  C51 UNL A   1      24.773 -11.580  27.989  1.00  0.00    +0.000 C 
ATOM     72  F11 UNL A   1      24.150 -12.717  28.335  1.00  0.00    +0.000 F 
ATOM     73  C52 UNL A   1      24.592 -11.076  26.703  1.00  0.00    +0.000 C 
ATOM     74  F12 UNL A   1      23.806 -11.728  25.835  1.00  0.00    +0.000 F 
ATOM     75  C53 UNL A   1      25.235  -9.910  26.316  1.00  0.00    +0.000 C 
ATOM     76  F13 UNL A   1      25.057  -9.423  25.080  1.00  0.00    +0.000 F 
ATOM     77  C54 UNL A   1      26.068  -9.254  27.208  1.00  0.00    +0.000 C 
ATOM     78  F14 UNL A   1      26.682  -8.120  26.842  1.00  0.00    +0.000 F 
ATOM     79  C55 UNL A   1      26.271  -9.771  28.486  1.00  0.00    +0.000 C 
ATOM     80  F15 UNL A   1      27.092  -9.122  29.325  1.00  0.00    +0.000 F 
ENDBRANCH   69   70
TORSDOF 18
ENDMDL
MODEL 8
REMARK VINA RESULT:     -10.7     45.109     50.169
ROOT
ATOM     33  C26 UNL A   1      14.145  50.058   4.133  1.00  0.00    +0.000 C 
ATOM     34  C27 UNL A   1      14.818  49.649   2.853  1.00  0.00    +0.000 C 
ATOM     35  N4  UNL A   1      15.491  50.381   2.000  1.00  0.00    +0.000 N 
ATOM     36  C28 UNL A   1      15.935  49.506   1.020  1.00  0.00    +0.000 C 
ATOM     37  C29 UNL A   1      16.630  49.783  -0.111  1.00  0.00    +0.000 C 
ATOM     49  C36 UNL A   1      17.041  51.105  -0.508  1.00  0.00    +0.000 C 
ATOM     50  C37 UNL A   1      17.692  51.495  -1.665  1.00  0.00    +0.000 C 
ATOM     51  C38 UNL A   1      17.921  52.874  -1.595  1.00  0.00    +0.000 C 
ATOM     52  C39 UNL A   1      17.375  53.349  -0.414  1.00  0.00    +0.000 C 
ATOM     53  N5  UNL A   1      16.841  52.253   0.245  1.00  0.00    +0.000 N 
ATOM     54  C40 UNL A   1      17.344  54.701   0.080  1.00  0.00    +0.000 C 
ATOM     66  C47 UNL A   1      16.774  55.088   1.248  1.00  0.00    +0.000 C 
ATOM     67  N6  UNL A   1      16.113  54.317   2.194  1.00  0.00    +0.000 N 
ATOM     68  C48 UNL A   1      15.754  55.142   3.145  1.00  0.00    +0.000 C 
ATOM     69  C49 UNL A   1      14.983  54.861   4.406  1.00  0.00    +0.000 C 
ATOM     81  C56 UNL A   1      14.558  53.607   4.654  1.00  0.00    +0.000 C 
ATOM     82  C57 UNL A   1      13.801  53.188   5.830  1.00  0.00    +0.000 C 
ATOM     83  C58 UNL A   1      13.592  51.863   5.766  1.00  0.00    +0.000 C 
ATOM     84  C59 UNL A   1      14.170  51.346   4.525  1.00  0.00    +0.000 C 
ATOM     85  N7  UNL A   1      14.716  52.454   3.926  1.00  0.00    +0.000 N 
ATOM     86  C60 UNL A   1      16.175  56.533   2.923  1.00  0.00    +0.000 C 
ATOM     87  C61 UNL A   1      16.759  56.452   1.735  1.00  0.00    +0.000 C 
ATOM     88  C62 UNL A   1      15.497  48.182   1.404  1.00  0.00    +0.000 C 
ATOM     89  C63 UNL A   1      14.747  48.225   2.497  1.00  0.00    +0.000 C 
ATOM    118  H27 UNL A   1      17.960  50.877  -2.446  1.00  0.00    +0.000 H 
ATOM    119  H28 UNL A   1      18.414  53.440  -2.303  1.00  0.00    +0.000 H 
ATOM    120  H29 UNL A   1      16.388  52.284   1.118  1.00  0.00    +0.000 H 
ATOM    121  H30 UNL A   1      13.479  53.810   6.589  1.00  0.00    +0.000 H 
ATOM    122  H31 UNL A   1      13.101  51.300   6.478  1.00  0.00    +0.000 H 
ATOM    123  H32 UNL A   1      15.176  52.424   3.056  1.00  0.00    +0.000 H 
ATOM    124  H33 UNL A   1      16.051  57.356   3.533  1.00  0.00    +0.000 H 
ATOM    125  H34 UNL A   1      17.151  57.257   1.224  1.00  0.00    +0.000 H 
ATOM    126  H35 UNL A   1      15.736  47.316   0.895  1.00  0.00    +0.000 H 
ATOM    127  H36 UNL A   1      14.246  47.459   2.972  1.00  0.00    +0.000 H 
ENDROOT
BRANCH   33   32
ATOM    129  H38 UNL A   1      10.488  47.783   5.763  1.00  0.00    +0.000 H 
ATOM    128  H37 UNL A   1      11.552  49.411   4.314  1.00  0.00    +0.000 H 
ATOM    116  H25 UNL A   1      14.253  46.657   7.268  1.00  0.00    +0.000 H 
ATOM    117  H26 UNL A   1      15.296  48.424   5.970  1.00  0.00    +0.000 H 
ATOM     90  C64 UNL A   1      12.125  48.839   4.953  1.00  0.00    +0.000 C 
ATOM     91  C65 UNL A   1      11.517  47.875   5.756  1.00  0.00    +0.000 C 
ATOM     29  C22 UNL A   1      12.301  47.036   6.551  1.00  0.00    +0.000 C 
ATOM     30  C23 UNL A   1      13.681  47.246   6.642  1.00  0.00    +0.000 C 
ATOM     31  C24 UNL A   1      14.282  48.253   5.884  1.00  0.00    +0.000 C 
ATOM     32  C25 UNL A   1      13.514  49.036   5.007  1.00  0.00    +0.000 C 
BRANCH   29   27
ATOM     27  C21 UNL A   1      11.699  45.922   7.319  1.00  0.00    +0.000 C 
ATOM     28  O2  UNL A   1      10.892  45.176   6.772  1.00  0.00    +0.000 O 
BRANCH   27   26
ATOM     26  N3  UNL A   1      12.017  45.742   8.642  1.00  0.00    +0.000 N 
ATOM    115  H24 UNL A   1      12.533  44.928   8.843  1.00  0.00    +0.000 H 
BRANCH   26   25
ATOM     25  C20 UNL A   1      11.704  46.576   9.792  1.00  0.00    +0.000 C 
ATOM    114  H23 UNL A   1      11.169  45.970  10.493  1.00  0.00    +0.000 H 
ATOM    113  H22 UNL A   1      11.120  47.410   9.461  1.00  0.00    +0.000 H 
BRANCH   25   24
ATOM    112  H21 UNL A   1      13.022  46.559  11.416  1.00  0.00    +0.000 H 
ATOM    111  H20 UNL A   1      12.830  48.159  10.633  1.00  0.00    +0.000 H 
ATOM     24  C19 UNL A   1      12.950  47.104  10.497  1.00  0.00    +0.000 C 
BRANCH   24   23
ATOM    109  H18 UNL A   1      14.580  45.864   9.952  1.00  0.00    +0.000 H 
ATOM    110  H19 UNL A   1      14.071  47.070   8.729  1.00  0.00    +0.000 H 
ATOM     23  C18 UNL A   1      14.270  46.869   9.761  1.00  0.00    +0.000 C 
BRANCH   23   22
ATOM    107  H16 UNL A   1      14.995  48.696  10.561  1.00  0.00    +0.000 H 
ATOM    108  H17 UNL A   1      16.014  47.251  10.856  1.00  0.00    +0.000 H 
ATOM     22  C17 UNL A   1      15.420  47.801  10.157  1.00  0.00    +0.000 C 
BRANCH   22   21
ATOM    105  H14 UNL A   1      17.189  47.512   9.015  1.00  0.00    +0.000 H 
ATOM    106  H15 UNL A   1      15.790  48.174   8.121  1.00  0.00    +0.000 H 
ATOM     21  C16 UNL A   1      16.369  48.200   9.020  1.00  0.00    +0.000 C 
BRANCH   21   20
ATOM     20  C15 UNL A   1      16.938  49.614   9.125  1.00  0.00    +0.000 C 
ATOM    103  H12 UNL A   1      17.977  49.593   8.871  1.00  0.00    +0.000 H 
ATOM    104  H13 UNL A   1      16.397  50.245   8.450  1.00  0.00    +0.000 H 
BRANCH   20   19
ATOM     19  N2  UNL A   1      16.789  50.143  10.464  1.00  0.00    +0.000 N 
ATOM    102  H11 UNL A   1      17.354  49.772  11.180  1.00  0.00    +0.000 H 
BRANCH   19    2
ATOM      1  O1  UNL A   1      15.597  51.444  11.934  1.00  0.00    +0.000 O 
ATOM      2  C1  UNL A   1      15.897  51.142  10.782  1.00  0.00    +0.000 C 
BRANCH    2    3
ATOM      3  C2  UNL A   1      15.283  51.847   9.584  1.00  0.00    +0.000 C 
ATOM     92  H1  UNL A   1      15.785  51.517   8.698  1.00  0.00    +0.000 H 
ATOM     93  H2  UNL A   1      15.398  52.900   9.735  1.00  0.00    +0.000 H 
BRANCH    3    4
ATOM     97  H6  UNL A   1      10.746  52.828   9.986  1.00  0.00    +0.000 H 
ATOM      4  C3  UNL A   1      13.802  51.565   9.436  1.00  0.00    +0.000 C 
ATOM      5  C4  UNL A   1      13.407  50.368   8.810  1.00  0.00    +0.000 C 
ATOM      6  C5  UNL A   1      12.060  50.080   8.611  1.00  0.00    +0.000 C 
ATOM      7  C6  UNL A   1      11.094  50.983   9.036  1.00  0.00    +0.000 C 
ATOM      8  C7  UNL A   1      11.474  52.170   9.667  1.00  0.00    +0.000 C 
ATOM      9  C8  UNL A   1      12.826  52.486   9.881  1.00  0.00    +0.000 C 
ATOM     94  H3  UNL A   1      14.124  49.696   8.495  1.00  0.00    +0.000 H 
ATOM     95  H4  UNL A   1      11.779  49.200   8.152  1.00  0.00    +0.000 H 
ATOM     96  H5  UNL A   1      10.094  50.778   8.884  1.00  0.00    +0.000 H 
BRANCH    9   10
ATOM     10  N1  UNL A   1      13.224  53.654  10.582  1.00  0.00    +0.000 N 
ATOM     98  H7  UNL A   1      14.181  53.879  10.533  1.00  0.00    +0.000 H 
BRANCH   10   11
ATOM     99  H8  UNL A   1      11.669  55.200  14.579  1.00  0.00    +0.000 H 
ATOM    100  H9  UNL A   1      10.408  57.000  13.549  1.00  0.00    +0.000 H 
ATOM    101  H10 UNL A   1      10.389  57.230  11.136  1.00  0.00    +0.000 H 
ATOM     11  C9  UNL A   1      12.415  54.540  11.347  1.00  0.00    +0.000 C 
ATOM     12  C10 UNL A   1      12.400  54.425  12.754  1.00  0.00    +0.000 C 
ATOM     13 Cl1  UNL A   1      13.302  53.178  13.549  1.00  0.00    +0.000 Cl
ATOM     14  C11 UNL A   1      11.669  55.309  13.553  1.00  0.00    +0.000 C 
ATOM     15  C12 UNL A   1      10.940  56.337  12.963  1.00  0.00    +0.000 C 
ATOM     16  C13 UNL A   1      10.932  56.470  11.575  1.00  0.00    +0.000 C 
ATOM     17  C14 UNL A   1      11.656  55.579  10.773  1.00  0.00    +0.000 C 
ATOM     18 Cl2  UNL A   1      11.503  55.771   9.058  1.00  0.00    +0.000 Cl
ENDBRANCH   10   11
ENDBRANCH    9   10
ENDBRANCH    3    4
ENDBRANCH    2    3
ENDBRANCH   19    2
ENDBRANCH   20   19
ENDBRANCH   21   20
ENDBRANCH   22   21
ENDBRANCH   23   22
ENDBRANCH   24   23
ENDBRANCH   25   24
ENDBRANCH   26   25
ENDBRANCH   27   26
ENDBRANCH   29   27
ENDBRANCH   33   32
BRANCH   37   38
ATOM     38  C30 UNL A   1      16.987  48.631  -1.004  1.00  0.00    +0.000 C 
ATOM     39  C31 UNL A   1      16.250  48.344  -2.162  1.00  0.00    +0.000 C 
ATOM     40  F1  UNL A   1      15.171  49.079  -2.476  1.00  0.00    +0.000 F 
ATOM     41  C32 UNL A   1      16.595  47.274  -2.984  1.00  0.00    +0.000 C 
ATOM     42  F2  UNL A   1      15.846  46.989  -4.059  1.00  0.00    +0.000 F 
ATOM     43  C33 UNL A   1      17.701  46.494  -2.684  1.00  0.00    +0.000 C 
ATOM     44  F3  UNL A   1      18.033  45.467  -3.478  1.00  0.00    +0.000 F 
ATOM     45  C34 UNL A   1      18.458  46.774  -1.556  1.00  0.00    +0.000 C 
ATOM     46  F4  UNL A   1      19.534  46.028  -1.272  1.00  0.00    +0.000 F 
ATOM     47  C35 UNL A   1      18.099  47.825  -0.717  1.00  0.00    +0.000 C 
ATOM     48  F5  UNL A   1      18.842  48.061   0.375  1.00  0.00    +0.000 F 
ENDBRANCH   37   38
BRANCH   54   55
ATOM     65  F10 UNL A   1      15.907  56.136  -1.907  1.00  0.00    +0.000 F 
ATOM     55  C41 UNL A   1      17.965  55.771  -0.769  1.00  0.00    +0.000 C 
ATOM     56  C42 UNL A   1      19.319  56.116  -0.643  1.00  0.00    +0.000 C 
ATOM     57  F6  UNL A   1      20.082  55.522   0.286  1.00  0.00    +0.000 F 
ATOM     58  C43 UNL A   1      19.883  57.100  -1.450  1.00  0.00    +0.000 C 
ATOM     59  F7  UNL A   1      21.167  57.443  -1.284  1.00  0.00    +0.000 F 
ATOM     60  C44 UNL A   1      19.116  57.734  -2.415  1.00  0.00    +0.000 C 
ATOM     61  F8  UNL A   1      19.663  58.678  -3.194  1.00  0.00    +0.000 F 
ATOM     62  C45 UNL A   1      17.779  57.398  -2.567  1.00  0.00    +0.000 C 
ATOM     63  F9  UNL A   1      17.039  58.003  -3.506  1.00  0.00    +0.000 F 
ATOM     64  C46 UNL A   1      17.204  56.433  -1.744  1.00  0.00    +0.000 C 
ENDBRANCH   54   55
BRANCH   69   70
ATOM     70  C50 UNL A   1      14.661  55.955   5.358  1.00  0.00    +0.000 C 
ATOM     71  C51 UNL A   1      13.363  56.477   5.435  1.00  0.00    +0.000 C 
ATOM     72  F11 UNL A   1      12.401  56.003   4.628  1.00  0.00    +0.000 F 
ATOM     73  C52 UNL A   1      13.057  57.517   6.310  1.00  0.00    +0.000 C 
ATOM     74  F12 UNL A   1      11.817  58.027   6.334  1.00  0.00    +0.000 F 
ATOM     75  C53 UNL A   1      14.035  58.034   7.145  1.00  0.00    +0.000 C 
ATOM     76  F13 UNL A   1      13.739  59.032   7.989  1.00  0.00    +0.000 F 
ATOM     77  C54 UNL A   1      15.322  57.522   7.098  1.00  0.00    +0.000 C 
ATOM     78  F14 UNL A   1      16.268  58.011   7.911  1.00  0.00    +0.000 F 
ATOM     79  C55 UNL A   1      15.636  56.500   6.205  1.00  0.00    +0.000 C 
ATOM     80  F15 UNL A   1      16.893  56.031   6.171  1.00  0.00    +0.000 F 
ENDBRANCH   69   70
TORSDOF 18
ENDMDL
MODEL 9
REMARK VINA RESULT:     -10.7      2.229      4.066
ROOT
ATOM     33  C26 UNL A   1      53.406  19.742  11.793  1.00  0.00    +0.000 C 
ATOM     34  C27 UNL A   1      54.780  19.152  11.650  1.00  0.00    +0.000 C 
ATOM     35  N4  UNL A   1      55.779  19.162  12.498  1.00  0.00    +0.000 N 
ATOM     36  C28 UNL A   1      56.796  18.439  11.891  1.00  0.00    +0.000 C 
ATOM     37  C29 UNL A   1      58.054  18.209  12.340  1.00  0.00    +0.000 C 
ATOM     49  C36 UNL A   1      58.575  18.705  13.587  1.00  0.00    +0.000 C 
ATOM     50  C37 UNL A   1      59.855  18.579  14.099  1.00  0.00    +0.000 C 
ATOM     51  C38 UNL A   1      59.884  19.187  15.359  1.00  0.00    +0.000 C 
ATOM     52  C39 UNL A   1      58.635  19.729  15.613  1.00  0.00    +0.000 C 
ATOM     53  N5  UNL A   1      57.840  19.423  14.519  1.00  0.00    +0.000 N 
ATOM     54  C40 UNL A   1      58.196  20.469  16.768  1.00  0.00    +0.000 C 
ATOM     66  C47 UNL A   1      56.951  20.981  16.935  1.00  0.00    +0.000 C 
ATOM     67  N6  UNL A   1      55.863  20.925  16.076  1.00  0.00    +0.000 N 
ATOM     68  C48 UNL A   1      54.889  21.554  16.685  1.00  0.00    +0.000 C 
ATOM     69  C49 UNL A   1      53.488  21.826  16.209  1.00  0.00    +0.000 C 
ATOM     81  C56 UNL A   1      53.113  21.401  14.988  1.00  0.00    +0.000 C 
ATOM     82  C57 UNL A   1      51.791  21.592  14.395  1.00  0.00    +0.000 C 
ATOM     83  C58 UNL A   1      51.762  20.999  13.191  1.00  0.00    +0.000 C 
ATOM     84  C59 UNL A   1      53.075  20.415  12.912  1.00  0.00    +0.000 C 
ATOM     85  N7  UNL A   1      53.814  20.709  14.031  1.00  0.00    +0.000 N 
ATOM     86  C60 UNL A   1      55.244  22.058  18.020  1.00  0.00    +0.000 C 
ATOM     87  C61 UNL A   1      56.522  21.716  18.106  1.00  0.00    +0.000 C 
ATOM     88  C62 UNL A   1      56.281  17.965  10.625  1.00  0.00    +0.000 C 
ATOM     89  C63 UNL A   1      55.061  18.432  10.399  1.00  0.00    +0.000 C 
ATOM    118  H27 UNL A   1      60.650  18.117  13.632  1.00  0.00    +0.000 H 
ATOM    119  H28 UNL A   1      60.698  19.224  15.992  1.00  0.00    +0.000 H 
ATOM    120  H29 UNL A   1      56.895  19.678  14.418  1.00  0.00    +0.000 H 
ATOM    121  H30 UNL A   1      51.007  22.102  14.831  1.00  0.00    +0.000 H 
ATOM    122  H31 UNL A   1      50.945  20.961  12.562  1.00  0.00    +0.000 H 
ATOM    123  H32 UNL A   1      54.757  20.449  14.137  1.00  0.00    +0.000 H 
ATOM    124  H33 UNL A   1      54.653  22.548  18.709  1.00  0.00    +0.000 H 
ATOM    125  H34 UNL A   1      57.132  21.944  18.906  1.00  0.00    +0.000 H 
ATOM    126  H35 UNL A   1      56.796  17.344   9.981  1.00  0.00    +0.000 H 
ATOM    127  H36 UNL A   1      54.465  18.319   9.565  1.00  0.00    +0.000 H 
ENDROOT
BRANCH   33   32
ATOM    129  H38 UNL A   1      51.011  21.095   8.100  1.00  0.00    +0.000 H 
ATOM    128  H37 UNL A   1      52.705  21.400   9.808  1.00  0.00    +0.000 H 
ATOM    116  H25 UNL A   1      50.205  17.240   9.580  1.00  0.00    +0.000 H 
ATOM    117  H26 UNL A   1      51.754  17.623  11.411  1.00  0.00    +0.000 H 
ATOM     90  C64 UNL A   1      52.164  20.522   9.771  1.00  0.00    +0.000 C 
ATOM     91  C65 UNL A   1      51.218  20.332   8.764  1.00  0.00    +0.000 C 
ATOM     29  C22 UNL A   1      50.552  19.109   8.657  1.00  0.00    +0.000 C 
ATOM     30  C23 UNL A   1      50.736  18.124   9.633  1.00  0.00    +0.000 C 
ATOM     31  C24 UNL A   1      51.637  18.340  10.677  1.00  0.00    +0.000 C 
ATOM     32  C25 UNL A   1      52.384  19.527  10.737  1.00  0.00    +0.000 C 
BRANCH   29   27
ATOM     27  C21 UNL A   1      49.636  18.830   7.528  1.00  0.00    +0.000 C 
ATOM     28  O2  UNL A   1      48.550  19.402   7.473  1.00  0.00    +0.000 O 
BRANCH   27   26
ATOM     26  N3  UNL A   1      49.983  17.917   6.564  1.00  0.00    +0.000 N 
ATOM    115  H24 UNL A   1      49.402  17.125   6.506  1.00  0.00    +0.000 H 
BRANCH   26   25
ATOM     25  C20 UNL A   1      51.085  17.947   5.615  1.00  0.00    +0.000 C 
ATOM    114  H23 UNL A   1      51.737  18.745   5.904  1.00  0.00    +0.000 H 
ATOM    113  H22 UNL A   1      50.687  18.095   4.633  1.00  0.00    +0.000 H 
BRANCH   25   24
ATOM    112  H21 UNL A   1      51.565  16.095   6.461  1.00  0.00    +0.000 H 
ATOM    111  H20 UNL A   1      52.941  16.929   5.673  1.00  0.00    +0.000 H 
ATOM     24  C19 UNL A   1      51.906  16.660   5.619  1.00  0.00    +0.000 C 
BRANCH   24   23
ATOM    109  H18 UNL A   1      51.520  16.381   3.553  1.00  0.00    +0.000 H 
ATOM    110  H19 UNL A   1      52.615  15.184   4.314  1.00  0.00    +0.000 H 
ATOM     23  C18 UNL A   1      51.715  15.757   4.399  1.00  0.00    +0.000 C 
BRANCH   23   22
ATOM    107  H16 UNL A   1      50.854  13.873   3.939  1.00  0.00    +0.000 H 
ATOM    108  H17 UNL A   1      50.451  14.548   5.551  1.00  0.00    +0.000 H 
ATOM     22  C17 UNL A   1      50.576  14.738   4.505  1.00  0.00    +0.000 C 
BRANCH   22   21
ATOM    105  H14 UNL A   1      49.243  16.283   3.910  1.00  0.00    +0.000 H 
ATOM    106  H15 UNL A   1      49.044  14.720   3.065  1.00  0.00    +0.000 H 
ATOM     21  C16 UNL A   1      49.210  15.217   3.998  1.00  0.00    +0.000 C 
BRANCH   21   20
ATOM     20  C15 UNL A   1      48.028  14.852   4.896  1.00  0.00    +0.000 C 
ATOM    103  H12 UNL A   1      47.900  13.790   4.891  1.00  0.00    +0.000 H 
ATOM    104  H13 UNL A   1      48.236  15.204   5.886  1.00  0.00    +0.000 H 
BRANCH   20   19
ATOM     19  N2  UNL A   1      46.806  15.478   4.436  1.00  0.00    +0.000 N 
ATOM    102  H11 UNL A   1      46.870  16.189   3.759  1.00  0.00    +0.000 H 
BRANCH   19    2
ATOM      1  O1  UNL A   1      45.284  14.006   5.326  1.00  0.00    +0.000 O 
ATOM      2  C1  UNL A   1      45.560  15.125   4.901  1.00  0.00    +0.000 C 
BRANCH    2    3
ATOM      3  C2  UNL A   1      44.522  16.233   4.836  1.00  0.00    +0.000 C 
ATOM     92  H1  UNL A   1      44.003  16.272   5.771  1.00  0.00    +0.000 H 
ATOM     93  H2  UNL A   1      43.861  16.010   4.025  1.00  0.00    +0.000 H 
BRANCH    3    4
ATOM     97  H6  UNL A   1      44.788  20.401   2.771  1.00  0.00    +0.000 H 
ATOM      4  C3  UNL A   1      45.136  17.592   4.565  1.00  0.00    +0.000 C 
ATOM      5  C4  UNL A   1      46.270  17.975   5.306  1.00  0.00    +0.000 C 
ATOM      6  C5  UNL A   1      46.848  19.228   5.126  1.00  0.00    +0.000 C 
ATOM      7  C6  UNL A   1      46.300  20.111   4.205  1.00  0.00    +0.000 C 
ATOM      8  C7  UNL A   1      45.180  19.738   3.457  1.00  0.00    +0.000 C 
ATOM      9  C8  UNL A   1      44.577  18.481   3.618  1.00  0.00    +0.000 C 
ATOM     94  H3  UNL A   1      46.678  17.318   5.990  1.00  0.00    +0.000 H 
ATOM     95  H4  UNL A   1      47.679  19.500   5.673  1.00  0.00    +0.000 H 
ATOM     96  H5  UNL A   1      46.719  21.045   4.073  1.00  0.00    +0.000 H 
BRANCH    9   10
ATOM     10  N1  UNL A   1      43.482  18.063   2.818  1.00  0.00    +0.000 N 
ATOM     98  H7  UNL A   1      43.632  17.257   2.272  1.00  0.00    +0.000 H 
BRANCH   10   11
ATOM     99  H8  UNL A   1      40.502  20.741   0.643  1.00  0.00    +0.000 H 
ATOM    100  H9  UNL A   1      38.695  20.204   2.171  1.00  0.00    +0.000 H 
ATOM    101  H10 UNL A   1      39.103  18.723   4.046  1.00  0.00    +0.000 H 
ATOM     11  C9  UNL A   1      42.197  18.661   2.702  1.00  0.00    +0.000 C 
ATOM     12  C10 UNL A   1      41.933  19.534   1.625  1.00  0.00    +0.000 C 
ATOM     13 Cl1  UNL A   1      43.174  19.934   0.484  1.00  0.00    +0.000 Cl
ATOM     14  C11 UNL A   1      40.668  20.100   1.435  1.00  0.00    +0.000 C 
ATOM     15  C12 UNL A   1      39.633  19.799   2.314  1.00  0.00    +0.000 C 
ATOM     16  C13 UNL A   1      39.868  18.944   3.391  1.00  0.00    +0.000 C 
ATOM     17  C14 UNL A   1      41.137  18.384   3.588  1.00  0.00    +0.000 C 
ATOM     18 Cl2  UNL A   1      41.350  17.413   5.007  1.00  0.00    +0.000 Cl
ENDBRANCH   10   11
ENDBRANCH    9   10
ENDBRANCH    3    4
ENDBRANCH    2    3
ENDBRANCH   19    2
ENDBRANCH   20   19
ENDBRANCH   21   20
ENDBRANCH   22   21
ENDBRANCH   23   22
ENDBRANCH   24   23
ENDBRANCH   25   24
ENDBRANCH   26   25
ENDBRANCH   27   26
ENDBRANCH   29   27
ENDBRANCH   33   32
BRANCH   37   38
ATOM     38  C30 UNL A   1      58.958  17.382  11.473  1.00  0.00    +0.000 C 
ATOM     39  C31 UNL A   1      59.786  17.970  10.505  1.00  0.00    +0.000 C 
ATOM     40  F1  UNL A   1      59.755  19.297  10.306  1.00  0.00    +0.000 F 
ATOM     41  C32 UNL A   1      60.623  17.191   9.710  1.00  0.00    +0.000 C 
ATOM     42  F2  UNL A   1      61.369  17.770   8.758  1.00  0.00    +0.000 F 
ATOM     43  C33 UNL A   1      60.674  15.817   9.889  1.00  0.00    +0.000 C 
ATOM     44  F3  UNL A   1      61.482  15.070   9.125  1.00  0.00    +0.000 F 
ATOM     45  C34 UNL A   1      59.881  15.217  10.855  1.00  0.00    +0.000 C 
ATOM     46  F4  UNL A   1      59.938  13.891  11.038  1.00  0.00    +0.000 F 
ATOM     47  C35 UNL A   1      59.022  15.990  11.633  1.00  0.00    +0.000 C 
ATOM     48  F5  UNL A   1      58.256  15.378  12.549  1.00  0.00    +0.000 F 
ENDBRANCH   37   38
BRANCH   54   55
ATOM     65  F10 UNL A   1      58.651  18.643  18.897  1.00  0.00    +0.000 F 
ATOM     55  C41 UNL A   1      59.193  20.717  17.861  1.00  0.00    +0.000 C 
ATOM     56  C42 UNL A   1      59.955  21.893  17.908  1.00  0.00    +0.000 C 
ATOM     57  F6  UNL A   1      59.843  22.808  16.934  1.00  0.00    +0.000 F 
ATOM     58  C43 UNL A   1      60.865  22.114  18.938  1.00  0.00    +0.000 C 
ATOM     59  F7  UNL A   1      61.614  23.225  18.940  1.00  0.00    +0.000 F 
ATOM     60  C44 UNL A   1      61.007  21.181  19.955  1.00  0.00    +0.000 C 
ATOM     61  F8  UNL A   1      61.879  21.399  20.949  1.00  0.00    +0.000 F 
ATOM     62  C45 UNL A   1      60.252  20.019  19.936  1.00  0.00    +0.000 C 
ATOM     63  F9  UNL A   1      60.380  19.121  20.924  1.00  0.00    +0.000 F 
ATOM     64  C46 UNL A   1      59.360  19.782  18.894  1.00  0.00    +0.000 C 
ENDBRANCH   54   55
BRANCH   69   70
ATOM     70  C50 UNL A   1      52.532  22.581  17.058  1.00  0.00    +0.000 C 
ATOM     71  C51 UNL A   1      52.388  23.968  16.913  1.00  0.00    +0.000 C 
ATOM     72  F11 UNL A   1      53.133  24.628  16.014  1.00  0.00    +0.000 F 
ATOM     73  C52 UNL A   1      51.508  24.688  17.719  1.00  0.00    +0.000 C 
ATOM     74  F12 UNL A   1      51.421  26.019  17.588  1.00  0.00    +0.000 F 
ATOM     75  C53 UNL A   1      50.736  24.032  18.664  1.00  0.00    +0.000 C 
ATOM     76  F13 UNL A   1      49.887  24.724  19.436  1.00  0.00    +0.000 F 
ATOM     77  C54 UNL A   1      50.850  22.658  18.814  1.00  0.00    +0.000 C 
ATOM     78  F14 UNL A   1      50.096  22.019  19.719  1.00  0.00    +0.000 F 
ATOM     79  C55 UNL A   1      51.748  21.941  18.027  1.00  0.00    +0.000 C 
ATOM     80  F15 UNL A   1      51.846  20.614  18.201  1.00  0.00    +0.000 F 
ENDBRANCH   69   70
TORSDOF 18
ENDMDL
MODEL 10
REMARK VINA RESULT:     -10.7     30.402     35.682
ROOT
ATOM     33  C26 UNL A   1      19.330  21.715   4.143  1.00  0.00    +0.000 C 
ATOM     34  C27 UNL A   1      19.870  20.360   4.504  1.00  0.00    +0.000 C 
ATOM     35  N4  UNL A   1      19.340  19.431   5.260  1.00  0.00    +0.000 N 
ATOM     36  C28 UNL A   1      20.226  18.365   5.225  1.00  0.00    +0.000 C 
ATOM     37  C29 UNL A   1      20.157  17.185   5.889  1.00  0.00    +0.000 C 
ATOM     49  C36 UNL A   1      19.097  16.823   6.794  1.00  0.00    +0.000 C 
ATOM     50  C37 UNL A   1      18.971  15.678   7.562  1.00  0.00    +0.000 C 
ATOM     51  C38 UNL A   1      17.756  15.747   8.254  1.00  0.00    +0.000 C 
ATOM     52  C39 UNL A   1      17.147  16.953   7.950  1.00  0.00    +0.000 C 
ATOM     53  N5  UNL A   1      17.978  17.602   7.050  1.00  0.00    +0.000 N 
ATOM     54  C40 UNL A   1      15.898  17.476   8.440  1.00  0.00    +0.000 C 
ATOM     66  C47 UNL A   1      15.373  18.680   8.101  1.00  0.00    +0.000 C 
ATOM     67  N6  UNL A   1      15.891  19.649   7.253  1.00  0.00    +0.000 N 
ATOM     68  C48 UNL A   1      15.016  20.623   7.243  1.00  0.00    +0.000 C 
ATOM     69  C49 UNL A   1      15.070  21.941   6.518  1.00  0.00    +0.000 C 
ATOM     81  C56 UNL A   1      16.145  22.235   5.762  1.00  0.00    +0.000 C 
ATOM     82  C57 UNL A   1      16.335  23.470   5.006  1.00  0.00    +0.000 C 
ATOM     83  C58 UNL A   1      17.495  23.397   4.335  1.00  0.00    +0.000 C 
ATOM     84  C59 UNL A   1      18.148  22.124   4.642  1.00  0.00    +0.000 C 
ATOM     85  N7  UNL A   1      17.277  21.503   5.502  1.00  0.00    +0.000 N 
ATOM     86  C60 UNL A   1      13.825  20.368   8.065  1.00  0.00    +0.000 C 
ATOM     87  C61 UNL A   1      14.111  19.188   8.596  1.00  0.00    +0.000 C 
ATOM     88  C62 UNL A   1      21.306  18.740   4.338  1.00  0.00    +0.000 C 
ATOM     89  C63 UNL A   1      21.166  19.989   3.917  1.00  0.00    +0.000 C 
ATOM    118  H27 UNL A   1      19.654  14.908   7.616  1.00  0.00    +0.000 H 
ATOM    119  H28 UNL A   1      17.379  15.022   8.883  1.00  0.00    +0.000 H 
ATOM    120  H29 UNL A   1      17.801  18.485   6.653  1.00  0.00    +0.000 H 
ATOM    121  H30 UNL A   1      15.682  24.270   4.991  1.00  0.00    +0.000 H 
ATOM    122  H31 UNL A   1      17.868  24.124   3.704  1.00  0.00    +0.000 H 
ATOM    123  H32 UNL A   1      17.448  20.617   5.895  1.00  0.00    +0.000 H 
ATOM    124  H33 UNL A   1      12.984  20.954   8.194  1.00  0.00    +0.000 H 
ATOM    125  H34 UNL A   1      13.511  18.695   9.276  1.00  0.00    +0.000 H 
ATOM    126  H35 UNL A   1      22.084  18.118   4.069  1.00  0.00    +0.000 H 
ATOM    127  H36 UNL A   1      21.800  20.553   3.330  1.00  0.00    +0.000 H 
ENDROOT
BRANCH   33   32
ATOM    129  H38 UNL A   1      20.156  23.296  -0.102  1.00  0.00    +0.000 H 
ATOM    128  H37 UNL A   1      18.953  21.930   1.499  1.00  0.00    +0.000 H 
ATOM    116  H25 UNL A   1      22.456  24.935   3.017  1.00  0.00    +0.000 H 
ATOM    117  H26 UNL A   1      21.393  23.422   4.590  1.00  0.00    +0.000 H 
ATOM     90  C64 UNL A   1      19.707  22.555   1.821  1.00  0.00    +0.000 C 
ATOM     91  C65 UNL A   1      20.372  23.370   0.905  1.00  0.00    +0.000 C 
ATOM     29  C22 UNL A   1      21.328  24.285   1.352  1.00  0.00    +0.000 C 
ATOM     30  C23 UNL A   1      21.713  24.293   2.696  1.00  0.00    +0.000 C 
ATOM     31  C24 UNL A   1      21.092  23.432   3.603  1.00  0.00    +0.000 C 
ATOM     32  C25 UNL A   1      20.059  22.580   3.180  1.00  0.00    +0.000 C 
BRANCH   29   27
ATOM     27  C21 UNL A   1      21.961  25.250   0.424  1.00  0.00    +0.000 C 
ATOM     28  O2  UNL A   1      21.882  25.066  -0.788  1.00  0.00    +0.000 O 
BRANCH   27   26
ATOM     26  N3  UNL A   1      22.656  26.327   0.914  1.00  0.00    +0.000 N 
ATOM    115  H24 UNL A   1      23.159  26.160   1.744  1.00  0.00    +0.000 H 
BRANCH   26   25
ATOM     25  C20 UNL A   1      22.760  27.679   0.388  1.00  0.00    +0.000 C 
ATOM    114  H23 UNL A   1      22.748  28.350   1.222  1.00  0.00    +0.000 H 
ATOM    113  H22 UNL A   1      21.937  27.853  -0.273  1.00  0.00    +0.000 H 
BRANCH   25   24
ATOM    112  H21 UNL A   1      24.682  27.074  -0.172  1.00  0.00    +0.000 H 
ATOM    111  H20 UNL A   1      24.472  28.849  -0.040  1.00  0.00    +0.000 H 
ATOM     24  C19 UNL A   1      24.058  27.920  -0.375  1.00  0.00    +0.000 C 
BRANCH   24   23
ATOM    109  H18 UNL A   1      24.648  28.681  -2.265  1.00  0.00    +0.000 H 
ATOM    110  H19 UNL A   1      24.064  26.986  -2.250  1.00  0.00    +0.000 H 
ATOM     23  C18 UNL A   1      23.921  27.987  -1.897  1.00  0.00    +0.000 C 
BRANCH   23   22
ATOM    107  H16 UNL A   1      21.933  28.651  -1.571  1.00  0.00    +0.000 H 
ATOM    108  H17 UNL A   1      22.730  29.263  -3.056  1.00  0.00    +0.000 H 
ATOM     22  C17 UNL A   1      22.548  28.424  -2.417  1.00  0.00    +0.000 C 
BRANCH   22   21
ATOM    105  H14 UNL A   1      22.148  27.495  -4.286  1.00  0.00    +0.000 H 
ATOM    106  H15 UNL A   1      22.024  26.435  -2.853  1.00  0.00    +0.000 H 
ATOM     21  C16 UNL A   1      21.807  27.393  -3.277  1.00  0.00    +0.000 C 
BRANCH   21   20
ATOM     20  C15 UNL A   1      20.285  27.529  -3.275  1.00  0.00    +0.000 C 
ATOM    103  H12 UNL A   1      20.025  28.555  -3.427  1.00  0.00    +0.000 H 
ATOM    104  H13 UNL A   1      19.891  26.918  -4.062  1.00  0.00    +0.000 H 
BRANCH   20   19
ATOM     19  N2  UNL A   1      19.718  27.079  -2.021  1.00  0.00    +0.000 N 
ATOM    102  H11 UNL A   1      19.650  26.110  -1.859  1.00  0.00    +0.000 H 
BRANCH   19    2
ATOM      1  O1  UNL A   1      19.511  27.797   0.151  1.00  0.00    +0.000 O 
ATOM      2  C1  UNL A   1      19.272  27.941  -1.045  1.00  0.00    +0.000 C 
BRANCH    2    3
ATOM      3  C2  UNL A   1      18.433  29.099  -1.560  1.00  0.00    +0.000 C 
ATOM     92  H1  UNL A   1      17.475  29.065  -1.085  1.00  0.00    +0.000 H 
ATOM     93  H2  UNL A   1      18.353  28.994  -2.621  1.00  0.00    +0.000 H 
BRANCH    3    4
ATOM     97  H6  UNL A   1      18.925  33.129   0.726  1.00  0.00    +0.000 H 
ATOM      4  C3  UNL A   1      19.065  30.447  -1.280  1.00  0.00    +0.000 C 
ATOM      5  C4  UNL A   1      20.170  30.844  -2.056  1.00  0.00    +0.000 C 
ATOM      6  C5  UNL A   1      20.813  32.054  -1.813  1.00  0.00    +0.000 C 
ATOM      7  C6  UNL A   1      20.359  32.881  -0.794  1.00  0.00    +0.000 C 
ATOM      8  C7  UNL A   1      19.257  32.502  -0.023  1.00  0.00    +0.000 C 
ATOM      9  C8  UNL A   1      18.590  31.287  -0.246  1.00  0.00    +0.000 C 
ATOM     94  H3  UNL A   1      20.507  30.231  -2.815  1.00  0.00    +0.000 H 
ATOM     95  H4  UNL A   1      21.622  32.337  -2.388  1.00  0.00    +0.000 H 
ATOM     96  H5  UNL A   1      20.837  33.775  -0.604  1.00  0.00    +0.000 H 
BRANCH    9   10
ATOM     10  N1  UNL A   1      17.428  30.921   0.482  1.00  0.00    +0.000 N 
ATOM     98  H7  UNL A   1      17.446  30.031   0.901  1.00  0.00    +0.000 H 
BRANCH   10   11
ATOM     99  H8  UNL A   1      13.089  31.890  -0.523  1.00  0.00    +0.000 H 
ATOM    100  H9  UNL A   1      12.900  33.534   1.252  1.00  0.00    +0.000 H 
ATOM    101  H10 UNL A   1      14.821  34.029   2.644  1.00  0.00    +0.000 H 
ATOM     11  C9  UNL A   1      16.241  31.678   0.683  1.00  0.00    +0.000 C 
ATOM     12  C10 UNL A   1      15.108  31.418  -0.118  1.00  0.00    +0.000 C 
ATOM     13 Cl1  UNL A   1      15.172  30.235  -1.383  1.00  0.00    +0.000 Cl
ATOM     14  C11 UNL A   1      13.900  32.094   0.081  1.00  0.00    +0.000 C 
ATOM     15  C12 UNL A   1      13.793  33.042   1.093  1.00  0.00    +0.000 C 
ATOM     16  C13 UNL A   1      14.898  33.323   1.895  1.00  0.00    +0.000 C 
ATOM     17  C14 UNL A   1      16.112  32.654   1.691  1.00  0.00    +0.000 C 
ATOM     18 Cl2  UNL A   1      17.449  33.145   2.677  1.00  0.00    +0.000 Cl
ENDBRANCH   10   11
ENDBRANCH    9   10
ENDBRANCH    3    4
ENDBRANCH    2    3
ENDBRANCH   19    2
ENDBRANCH   20   19
ENDBRANCH   21   20
ENDBRANCH   22   21
ENDBRANCH   23   22
ENDBRANCH   24   23
ENDBRANCH   25   24
ENDBRANCH   26   25
ENDBRANCH   27   26
ENDBRANCH   29   27
ENDBRANCH   33   32
BRANCH   37   38
ATOM     38  C30 UNL A   1      21.264  16.197   5.662  1.00  0.00    +0.000 C 
ATOM     39  C31 UNL A   1      22.412  16.183   6.468  1.00  0.00    +0.000 C 
ATOM     40  F1  UNL A   1      22.563  17.092   7.445  1.00  0.00    +0.000 F 
ATOM     41  C32 UNL A   1      23.430  15.259   6.250  1.00  0.00    +0.000 C 
ATOM     42  F2  UNL A   1      24.539  15.296   7.001  1.00  0.00    +0.000 F 
ATOM     43  C33 UNL A   1      23.305  14.310   5.246  1.00  0.00    +0.000 C 
ATOM     44  F3  UNL A   1      24.284  13.419   5.039  1.00  0.00    +0.000 F 
ATOM     45  C34 UNL A   1      22.169  14.291   4.451  1.00  0.00    +0.000 C 
ATOM     46  F4  UNL A   1      22.042  13.368   3.489  1.00  0.00    +0.000 F 
ATOM     47  C35 UNL A   1      21.161  15.232   4.649  1.00  0.00    +0.000 C 
ATOM     48  F5  UNL A   1      20.081  15.197   3.854  1.00  0.00    +0.000 F 
ENDBRANCH   37   38
BRANCH   54   55
ATOM     65  F10 UNL A   1      16.133  17.769  11.256  1.00  0.00    +0.000 F 
ATOM     55  C41 UNL A   1      15.125  16.641   9.418  1.00  0.00    +0.000 C 
ATOM     56  C42 UNL A   1      14.243  15.637   8.993  1.00  0.00    +0.000 C 
ATOM     57  F6  UNL A   1      14.032  15.436   7.684  1.00  0.00    +0.000 F 
ATOM     58  C43 UNL A   1      13.546  14.861   9.915  1.00  0.00    +0.000 C 
ATOM     59  F7  UNL A   1      12.677  13.936   9.486  1.00  0.00    +0.000 F 
ATOM     60  C44 UNL A   1      13.740  15.052  11.274  1.00  0.00    +0.000 C 
ATOM     61  F8  UNL A   1      13.072  14.299  12.159  1.00  0.00    +0.000 F 
ATOM     62  C45 UNL A   1      14.619  16.029  11.717  1.00  0.00    +0.000 C 
ATOM     63  F9  UNL A   1      14.815  16.207  13.031  1.00  0.00    +0.000 F 
ATOM     64  C46 UNL A   1      15.298  16.825  10.799  1.00  0.00    +0.000 C 
ENDBRANCH   54   55
BRANCH   69   70
ATOM     70  C50 UNL A   1      13.967  22.927   6.655  1.00  0.00    +0.000 C 
ATOM     71  C51 UNL A   1      13.037  23.108   5.622  1.00  0.00    +0.000 C 
ATOM     72  F11 UNL A   1      13.151  22.402   4.487  1.00  0.00    +0.000 F 
ATOM     73  C52 UNL A   1      12.013  24.046   5.733  1.00  0.00    +0.000 C 
ATOM     74  F12 UNL A   1      11.162  24.229   4.714  1.00  0.00    +0.000 F 
ATOM     75  C53 UNL A   1      11.881  24.798   6.890  1.00  0.00    +0.000 C 
ATOM     76  F13 UNL A   1      10.892  25.696   6.998  1.00  0.00    +0.000 F 
ATOM     77  C54 UNL A   1      12.779  24.624   7.931  1.00  0.00    +0.000 C 
ATOM     78  F14 UNL A   1      12.648  25.341   9.056  1.00  0.00    +0.000 F 
ATOM     79  C55 UNL A   1      13.820  23.706   7.811  1.00  0.00    +0.000 C 
ATOM     80  F15 UNL A   1      14.682  23.566   8.829  1.00  0.00    +0.000 F 
ENDBRANCH   69   70
TORSDOF 18
ENDMDL
