MODEL 1
REMARK VINA RESULT:      -7.9      0.000      0.000
ROOT
ATOM    129  H37 UNL A   1      32.326  39.271  45.737  1.00  0.00    +0.000 H 
ATOM    130  H38 UNL A   1      32.401  37.266  44.149  1.00  0.00    +0.000 H 
ATOM    131  H39 UNL A   1      23.217  34.469  47.113  1.00  0.00    +0.000 H 
ATOM    132  H40 UNL A   1      22.938  36.695  48.346  1.00  0.00    +0.000 H 
ATOM     31  C26 UNL A   1      25.286  38.313  48.337  1.00  0.00    +0.000 C 
ATOM     32  C27 UNL A   1      25.061  37.012  47.616  1.00  0.00    +0.000 C 
ATOM     33  N3  UNL A   1      25.877  36.346  46.838  1.00  0.00    +0.000 N 
ATOM     34  C28 UNL A   1      25.195  35.192  46.473  1.00  0.00    +0.000 C 
ATOM     35  C29 UNL A   1      25.594  34.205  45.636  1.00  0.00    +0.000 C 
ATOM     47  C36 UNL A   1      26.852  34.191  44.938  1.00  0.00    +0.000 C 
ATOM     48  C37 UNL A   1      27.316  33.272  44.012  1.00  0.00    +0.000 C 
ATOM     49  C38 UNL A   1      28.610  33.647  43.632  1.00  0.00    +0.000 C 
ATOM     50  C39 UNL A   1      28.936  34.822  44.289  1.00  0.00    +0.000 C 
ATOM     51  N4  UNL A   1      27.850  35.143  45.090  1.00  0.00    +0.000 N 
ATOM     52  C40 UNL A   1      30.146  35.595  44.196  1.00  0.00    +0.000 C 
ATOM     64  C47 UNL A   1      30.386  36.748  44.867  1.00  0.00    +0.000 C 
ATOM     65  N5  UNL A   1      29.562  37.427  45.755  1.00  0.00    +0.000 N 
ATOM     66  C48 UNL A   1      30.243  38.477  46.146  1.00  0.00    +0.000 C 
ATOM     67  C49 UNL A   1      29.834  39.576  47.087  1.00  0.00    +0.000 C 
ATOM     79  C56 UNL A   1      28.596  39.563  47.618  1.00  0.00    +0.000 C 
ATOM     80  C57 UNL A   1      28.058  40.564  48.534  1.00  0.00    +0.000 C 
ATOM     81  C58 UNL A   1      26.814  40.205  48.892  1.00  0.00    +0.000 C 
ATOM     82  C59 UNL A   1      26.457  38.963  48.206  1.00  0.00    +0.000 C 
ATOM     83  N6  UNL A   1      27.571  38.661  47.463  1.00  0.00    +0.000 N 
ATOM     84  C60 UNL A   1      31.590  38.568  45.566  1.00  0.00    +0.000 C 
ATOM     85  C61 UNL A   1      31.612  37.513  44.766  1.00  0.00    +0.000 C 
ATOM     86  C62 UNL A   1      23.916  35.227  47.148  1.00  0.00    +0.000 C 
ATOM     87  C63 UNL A   1      23.759  36.360  47.819  1.00  0.00    +0.000 C 
ATOM    123  H31 UNL A   1      26.797  32.452  43.661  1.00  0.00    +0.000 H 
ATOM    124  H32 UNL A   1      29.217  33.134  42.974  1.00  0.00    +0.000 H 
ATOM    125  H33 UNL A   1      27.795  35.930  45.678  1.00  0.00    +0.000 H 
ATOM    126  H34 UNL A   1      28.552  41.411  48.853  1.00  0.00    +0.000 H 
ATOM    127  H35 UNL A   1      26.207  40.723  49.547  1.00  0.00    +0.000 H 
ATOM    128  H36 UNL A   1      27.630  37.874  46.875  1.00  0.00    +0.000 H 
ENDROOT
BRANCH   31   30
ATOM    133  H41 UNL A   1      23.159  39.826  47.723  1.00  0.00    +0.000 H 
ATOM    134  H42 UNL A   1      21.487  40.765  49.205  1.00  0.00    +0.000 H 
ATOM     29  C24 UNL A   1      24.290  38.591  50.631  1.00  0.00    +0.000 C 
ATOM     88  C64 UNL A   1      23.200  39.629  48.735  1.00  0.00    +0.000 C 
ATOM     89  C65 UNL A   1      22.216  40.139  49.581  1.00  0.00    +0.000 C 
ATOM    122  H30 UNL A   1      25.078  38.057  51.028  1.00  0.00    +0.000 H 
ATOM     27  C22 UNL A   1      22.217  39.801  50.937  1.00  0.00    +0.000 C 
ATOM     28  C23 UNL A   1      23.270  39.051  51.467  1.00  0.00    +0.000 C 
ATOM    121  H29 UNL A   1      23.294  38.835  52.477  1.00  0.00    +0.000 H 
ATOM     30  C25 UNL A   1      24.248  38.853  49.252  1.00  0.00    +0.000 C 
BRANCH   27   25
ATOM     25  C21 UNL A   1      21.147  40.270  51.848  1.00  0.00    +0.000 C 
ATOM     26  O2  UNL A   1      21.442  40.731  52.943  1.00  0.00    +0.000 O 
BRANCH   25   24
ATOM    120  H28 UNL A   1      19.477  40.986  51.003  1.00  0.00    +0.000 H 
ATOM     24  N2  UNL A   1      19.828  40.193  51.471  1.00  0.00    +0.000 N 
BRANCH   24   23
ATOM    119  H27 UNL A   1      18.296  39.332  52.536  1.00  0.00    +0.000 H 
ATOM    118  H26 UNL A   1      19.408  38.194  51.771  1.00  0.00    +0.000 H 
ATOM     23  C20 UNL A   1      18.872  39.112  51.661  1.00  0.00    +0.000 C 
BRANCH   23   22
ATOM    116  H24 UNL A   1      17.444  39.936  50.328  1.00  0.00    +0.000 H 
ATOM    117  H25 UNL A   1      18.497  38.659  49.649  1.00  0.00    +0.000 H 
ATOM     22  C19 UNL A   1      17.908  38.984  50.482  1.00  0.00    +0.000 C 
BRANCH   22   21
ATOM    114  H22 UNL A   1      16.958  37.452  51.601  1.00  0.00    +0.000 H 
ATOM    115  H23 UNL A   1      15.880  38.477  50.598  1.00  0.00    +0.000 H 
ATOM     21  C18 UNL A   1      16.802  37.939  50.661  1.00  0.00    +0.000 C 
BRANCH   21   20
ATOM    113  H21 UNL A   1      16.077  36.097  49.960  1.00  0.00    +0.000 H 
ATOM     20  C17 UNL A   1      16.728  36.855  49.577  1.00  0.00    +0.000 C 
ATOM    112  H20 UNL A   1      17.722  36.510  49.385  1.00  0.00    +0.000 H 
BRANCH   20   19
ATOM     19  C16 UNL A   1      16.116  37.302  48.243  1.00  0.00    +0.000 C 
ATOM    110  H18 UNL A   1      15.149  37.713  48.438  1.00  0.00    +0.000 H 
ATOM    111  H19 UNL A   1      16.790  38.016  47.819  1.00  0.00    +0.000 H 
BRANCH   19   18
ATOM     18  C15 UNL A   1      15.964  36.174  47.221  1.00  0.00    +0.000 C 
ATOM    108  H16 UNL A   1      16.363  35.273  47.639  1.00  0.00    +0.000 H 
ATOM    109  H17 UNL A   1      14.923  36.068  46.997  1.00  0.00    +0.000 H 
BRANCH   18   17
ATOM     17  N1  UNL A   1      16.660  36.465  45.986  1.00  0.00    +0.000 N 
ATOM    107  H15 UNL A   1      16.076  36.546  45.198  1.00  0.00    +0.000 H 
BRANCH   17   15
ATOM     15  C14 UNL A   1      17.984  36.648  45.728  1.00  0.00    +0.000 C 
ATOM     16  O1  UNL A   1      18.305  37.741  45.247  1.00  0.00    +0.000 O 
BRANCH   15   13
ATOM     13  C12 UNL A   1      19.056  35.576  45.980  1.00  0.00    +0.000 C 
ATOM    103  H11 UNL A   1      19.867  35.822  45.326  1.00  0.00    +0.000 H 
BRANCH   13   12
ATOM    101  H9  UNL A   1      20.794  37.804  49.697  1.00  0.00    +0.000 H 
ATOM    102  H10 UNL A   1      19.605  37.750  47.601  1.00  0.00    +0.000 H 
ATOM    135  H43 UNL A   1      19.889  33.570  47.553  1.00  0.00    +0.000 H 
ATOM    136  H44 UNL A   1      20.932  33.616  49.726  1.00  0.00    +0.000 H 
ATOM      9  C8  UNL A   1      20.997  35.717  49.907  1.00  0.00    +0.000 C 
ATOM     10  C9  UNL A   1      20.593  36.893  49.255  1.00  0.00    +0.000 C 
ATOM     11  C10 UNL A   1      19.924  36.866  48.024  1.00  0.00    +0.000 C 
ATOM     12  C11 UNL A   1      19.682  35.660  47.362  1.00  0.00    +0.000 C 
ATOM     90  C66 UNL A   1      20.068  34.478  48.009  1.00  0.00    +0.000 C 
ATOM     91  C67 UNL A   1      20.691  34.506  49.263  1.00  0.00    +0.000 C 
BRANCH    9    8
ATOM     98  H6  UNL A   1      23.673  35.923  54.537  1.00  0.00    +0.000 H 
ATOM     99  H7  UNL A   1      21.367  36.661  54.431  1.00  0.00    +0.000 H 
ATOM      4  C3  UNL A   1      23.782  35.388  52.499  1.00  0.00    +0.000 C 
ATOM      5  C4  UNL A   1      23.155  35.875  53.646  1.00  0.00    +0.000 C 
ATOM      6  C5  UNL A   1      21.830  36.298  53.584  1.00  0.00    +0.000 C 
ATOM      7  C6  UNL A   1      21.127  36.231  52.377  1.00  0.00    +0.000 C 
ATOM      8  C7  UNL A   1      21.730  35.756  51.198  1.00  0.00    +0.000 C 
ATOM    137  H45 UNL A   1      23.539  34.964  50.452  1.00  0.00    +0.000 H 
ATOM    100  H8  UNL A   1      20.143  36.538  52.351  1.00  0.00    +0.000 H 
ATOM     92  C68 UNL A   1      23.069  35.330  51.294  1.00  0.00    +0.000 C 
BRANCH    4    3
ATOM      3  S1  UNL A   1      25.449  34.765  52.588  1.00  0.00    +0.000 S 
BRANCH    3    2
ATOM     97  H5  UNL A   1      25.285  35.752  50.430  1.00  0.00    +0.000 H 
ATOM      2  C2  UNL A   1      26.091  35.292  50.963  1.00  0.00    +0.000 C 
ATOM     96  H4  UNL A   1      26.466  34.432  50.448  1.00  0.00    +0.000 H 
BRANCH    2    1
ATOM      1  C1  UNL A   1      27.208  36.314  51.080  1.00  0.00    +0.000 C 
ATOM     93  H1  UNL A   1      27.481  36.428  52.109  1.00  0.00    +0.000 H 
ATOM     94  H2  UNL A   1      26.872  37.255  50.695  1.00  0.00    +0.000 H 
ATOM     95  H3  UNL A   1      28.056  35.982  50.520  1.00  0.00    +0.000 H 
ENDBRANCH    2    1
ENDBRANCH    3    2
ENDBRANCH    4    3
ENDBRANCH    9    8
ENDBRANCH   13   12
BRANCH   13   14
ATOM    105  H13 UNL A   1      17.689  34.199  45.081  1.00  0.00    +0.000 H 
ATOM    106  H14 UNL A   1      18.697  33.495  46.322  1.00  0.00    +0.000 H 
ATOM     14  C13 UNL A   1      18.674  34.175  45.497  1.00  0.00    +0.000 C 
ATOM    104  H12 UNL A   1      19.369  33.854  44.750  1.00  0.00    +0.000 H 
ENDBRANCH   13   14
ENDBRANCH   15   13
ENDBRANCH   17   15
ENDBRANCH   18   17
ENDBRANCH   19   18
ENDBRANCH   20   19
ENDBRANCH   21   20
ENDBRANCH   22   21
ENDBRANCH   23   22
ENDBRANCH   24   23
ENDBRANCH   25   24
ENDBRANCH   27   25
ENDBRANCH   31   30
BRANCH   35   36
ATOM     36  C30 UNL A   1      24.656  33.053  45.422  1.00  0.00    +0.000 C 
ATOM     37  C31 UNL A   1      24.799  31.849  46.125  1.00  0.00    +0.000 C 
ATOM     38  F1  UNL A   1      25.823  31.680  46.974  1.00  0.00    +0.000 F 
ATOM     39  C32 UNL A   1      23.907  30.797  45.933  1.00  0.00    +0.000 C 
ATOM     40  F2  UNL A   1      24.087  29.640  46.586  1.00  0.00    +0.000 F 
ATOM     41  C33 UNL A   1      22.838  30.940  45.061  1.00  0.00    +0.000 C 
ATOM     42  F3  UNL A   1      21.975  29.930  44.883  1.00  0.00    +0.000 F 
ATOM     43  C34 UNL A   1      22.667  32.130  44.368  1.00  0.00    +0.000 C 
ATOM     44  F4  UNL A   1      21.629  32.273  43.533  1.00  0.00    +0.000 F 
ATOM     45  C35 UNL A   1      23.573  33.174  44.537  1.00  0.00    +0.000 C 
ATOM     46  F5  UNL A   1      23.388  34.307  43.844  1.00  0.00    +0.000 F 
ENDBRANCH   35   36
BRANCH   52   53
ATOM     53  C41 UNL A   1      31.222  35.104  43.274  1.00  0.00    +0.000 C 
ATOM     54  C42 UNL A   1      32.139  34.122  43.674  1.00  0.00    +0.000 C 
ATOM     55  F6  UNL A   1      32.103  33.634  44.923  1.00  0.00    +0.000 F 
ATOM     56  C43 UNL A   1      33.122  33.664  42.801  1.00  0.00    +0.000 C 
ATOM     57  F7  UNL A   1      34.016  32.756  43.218  1.00  0.00    +0.000 F 
ATOM     58  C44 UNL A   1      33.187  34.156  41.505  1.00  0.00    +0.000 C 
ATOM     59  F8  UNL A   1      34.131  33.709  40.666  1.00  0.00    +0.000 F 
ATOM     60  C45 UNL A   1      32.280  35.114  41.084  1.00  0.00    +0.000 C 
ATOM     61  F9  UNL A   1      32.334  35.583  39.829  1.00  0.00    +0.000 F 
ATOM     62  C46 UNL A   1      31.311  35.594  41.962  1.00  0.00    +0.000 C 
ATOM     63  F10 UNL A   1      30.454  36.530  41.530  1.00  0.00    +0.000 F 
ENDBRANCH   52   53
BRANCH   67   68
ATOM     68  C50 UNL A   1      30.765  40.684  47.414  1.00  0.00    +0.000 C 
ATOM     69  C51 UNL A   1      31.697  40.556  48.453  1.00  0.00    +0.000 C 
ATOM     70  F11 UNL A   1      31.738  39.430  49.180  1.00  0.00    +0.000 F 
ATOM     71  C52 UNL A   1      32.563  41.599  48.775  1.00  0.00    +0.000 C 
ATOM     72  F12 UNL A   1      33.417  41.465  49.801  1.00  0.00    +0.000 F 
ATOM     73  C53 UNL A   1      32.535  42.778  48.047  1.00  0.00    +0.000 C 
ATOM     74  F13 UNL A   1      33.371  43.778  48.354  1.00  0.00    +0.000 F 
ATOM     75  C54 UNL A   1      31.632  42.921  47.003  1.00  0.00    +0.000 C 
ATOM     76  F14 UNL A   1      31.610  44.054  46.288  1.00  0.00    +0.000 F 
ATOM     77  C55 UNL A   1      30.748  41.889  46.696  1.00  0.00    +0.000 C 
ATOM     78  F15 UNL A   1      29.879  42.058  45.689  1.00  0.00    +0.000 F 
ENDBRANCH   67   68
TORSDOF 21
ENDMDL
MODEL 2
REMARK VINA RESULT:      -7.8     17.300     25.454
ROOT
ATOM    129  H37 UNL A   1      39.073  28.761  27.013  1.00  0.00    +0.000 H 
ATOM    130  H38 UNL A   1      37.335  30.534  27.629  1.00  0.00    +0.000 H 
ATOM    131  H39 UNL A   1      40.777  30.748  37.067  1.00  0.00    +0.000 H 
ATOM    132  H40 UNL A   1      42.795  29.337  36.362  1.00  0.00    +0.000 H 
ATOM     31  C26 UNL A   1      42.679  28.442  33.657  1.00  0.00    +0.000 C 
ATOM     32  C27 UNL A   1      41.732  29.378  34.358  1.00  0.00    +0.000 C 
ATOM     33  N3  UNL A   1      40.666  29.979  33.892  1.00  0.00    +0.000 N 
ATOM     34  C28 UNL A   1      40.133  30.686  34.962  1.00  0.00    +0.000 C 
ATOM     35  C29 UNL A   1      39.056  31.508  34.978  1.00  0.00    +0.000 C 
ATOM     47  C36 UNL A   1      38.250  31.813  33.825  1.00  0.00    +0.000 C 
ATOM     48  C37 UNL A   1      37.185  32.691  33.725  1.00  0.00    +0.000 C 
ATOM     49  C38 UNL A   1      36.687  32.628  32.418  1.00  0.00    +0.000 C 
ATOM     50  C39 UNL A   1      37.468  31.742  31.694  1.00  0.00    +0.000 C 
ATOM     51  N4  UNL A   1      38.421  31.247  32.571  1.00  0.00    +0.000 N 
ATOM     52  C40 UNL A   1      37.355  31.373  30.308  1.00  0.00    +0.000 C 
ATOM     64  C47 UNL A   1      38.171  30.503  29.665  1.00  0.00    +0.000 C 
ATOM     65  N5  UNL A   1      39.259  29.798  30.164  1.00  0.00    +0.000 N 
ATOM     66  C48 UNL A   1      39.711  29.081  29.164  1.00  0.00    +0.000 C 
ATOM     67  C49 UNL A   1      40.889  28.148  29.123  1.00  0.00    +0.000 C 
ATOM     79  C56 UNL A   1      41.651  27.999  30.224  1.00  0.00    +0.000 C 
ATOM     80  C57 UNL A   1      42.826  27.140  30.330  1.00  0.00    +0.000 C 
ATOM     81  C58 UNL A   1      43.306  27.207  31.582  1.00  0.00    +0.000 C 
ATOM     82  C59 UNL A   1      42.488  28.138  32.359  1.00  0.00    +0.000 C 
ATOM     83  N6  UNL A   1      41.536  28.568  31.469  1.00  0.00    +0.000 N 
ATOM     84  C60 UNL A   1      38.943  29.234  27.920  1.00  0.00    +0.000 C 
ATOM     85  C61 UNL A   1      38.041  30.139  28.269  1.00  0.00    +0.000 C 
ATOM     86  C62 UNL A   1      40.966  30.406  36.111  1.00  0.00    +0.000 C 
ATOM     87  C63 UNL A   1      42.004  29.651  35.777  1.00  0.00    +0.000 C 
ATOM    123  H31 UNL A   1      36.821  33.290  34.482  1.00  0.00    +0.000 H 
ATOM    124  H32 UNL A   1      35.875  33.153  32.057  1.00  0.00    +0.000 H 
ATOM    125  H33 UNL A   1      39.117  30.591  32.336  1.00  0.00    +0.000 H 
ATOM    126  H34 UNL A   1      43.225  26.574  29.565  1.00  0.00    +0.000 H 
ATOM    127  H35 UNL A   1      44.121  26.684  31.939  1.00  0.00    +0.000 H 
ATOM    128  H36 UNL A   1      40.838  29.223  31.700  1.00  0.00    +0.000 H 
ENDROOT
BRANCH   31   30
ATOM    133  H41 UNL A   1      45.123  29.415  34.178  1.00  0.00    +0.000 H 
ATOM    134  H42 UNL A   1      46.961  28.352  35.346  1.00  0.00    +0.000 H 
ATOM     29  C24 UNL A   1      43.632  26.510  34.956  1.00  0.00    +0.000 C 
ATOM     88  C64 UNL A   1      45.001  28.471  34.577  1.00  0.00    +0.000 C 
ATOM     89  C65 UNL A   1      46.047  27.876  35.282  1.00  0.00    +0.000 C 
ATOM    122  H30 UNL A   1      42.758  25.986  34.800  1.00  0.00    +0.000 H 
ATOM     27  C22 UNL A   1      45.857  26.638  35.900  1.00  0.00    +0.000 C 
ATOM     28  C23 UNL A   1      44.659  25.942  35.713  1.00  0.00    +0.000 C 
ATOM    121  H29 UNL A   1      44.533  25.008  36.136  1.00  0.00    +0.000 H 
ATOM     30  C25 UNL A   1      43.785  27.793  34.405  1.00  0.00    +0.000 C 
BRANCH   27   25
ATOM     25  C21 UNL A   1      46.926  26.012  36.713  1.00  0.00    +0.000 C 
ATOM     26  O2  UNL A   1      46.930  26.163  37.928  1.00  0.00    +0.000 O 
BRANCH   25   24
ATOM    120  H28 UNL A   1      48.780  25.269  36.572  1.00  0.00    +0.000 H 
ATOM     24  N2  UNL A   1      47.909  25.262  36.113  1.00  0.00    +0.000 N 
BRANCH   24   23
ATOM    119  H27 UNL A   1      46.842  24.468  34.548  1.00  0.00    +0.000 H 
ATOM    118  H26 UNL A   1      48.177  23.468  35.129  1.00  0.00    +0.000 H 
ATOM     23  C20 UNL A   1      47.852  24.461  34.901  1.00  0.00    +0.000 C 
BRANCH   23   22
ATOM    116  H24 UNL A   1      49.574  25.516  34.257  1.00  0.00    +0.000 H 
ATOM    117  H25 UNL A   1      49.023  24.197  33.182  1.00  0.00    +0.000 H 
ATOM     22  C19 UNL A   1      48.741  25.028  33.795  1.00  0.00    +0.000 C 
BRANCH   22   21
ATOM    114  H22 UNL A   1      48.033  26.981  33.365  1.00  0.00    +0.000 H 
ATOM    115  H23 UNL A   1      48.628  26.034  31.962  1.00  0.00    +0.000 H 
ATOM     21  C18 UNL A   1      48.055  26.036  32.865  1.00  0.00    +0.000 C 
BRANCH   21   20
ATOM    113  H21 UNL A   1      46.003  26.478  32.826  1.00  0.00    +0.000 H 
ATOM     20  C17 UNL A   1      46.619  25.688  32.450  1.00  0.00    +0.000 C 
ATOM    112  H20 UNL A   1      46.380  24.728  32.857  1.00  0.00    +0.000 H 
BRANCH   20   19
ATOM     19  C16 UNL A   1      46.367  25.638  30.939  1.00  0.00    +0.000 C 
ATOM    110  H18 UNL A   1      46.066  24.644  30.681  1.00  0.00    +0.000 H 
ATOM    111  H19 UNL A   1      45.611  26.365  30.727  1.00  0.00    +0.000 H 
BRANCH   19   18
ATOM     18  C15 UNL A   1      47.586  26.007  30.093  1.00  0.00    +0.000 C 
ATOM    108  H16 UNL A   1      48.038  26.887  30.502  1.00  0.00    +0.000 H 
ATOM    109  H17 UNL A   1      48.265  25.180  30.111  1.00  0.00    +0.000 H 
BRANCH   18   17
ATOM     17  N1  UNL A   1      47.231  26.263  28.713  1.00  0.00    +0.000 N 
ATOM    107  H15 UNL A   1      47.738  25.736  28.056  1.00  0.00    +0.000 H 
BRANCH   17   15
ATOM     15  C14 UNL A   1      46.312  27.109  28.169  1.00  0.00    +0.000 C 
ATOM     16  O1  UNL A   1      45.292  26.587  27.703  1.00  0.00    +0.000 O 
BRANCH   15   13
ATOM     13  C12 UNL A   1      46.499  28.632  28.092  1.00  0.00    +0.000 C 
ATOM    103  H11 UNL A   1      46.044  28.930  27.171  1.00  0.00    +0.000 H 
BRANCH   13   12
ATOM    101  H9  UNL A   1      43.016  31.363  29.579  1.00  0.00    +0.000 H 
ATOM    102  H10 UNL A   1      44.105  30.008  27.910  1.00  0.00    +0.000 H 
ATOM    135  H43 UNL A   1      47.045  28.943  30.700  1.00  0.00    +0.000 H 
ATOM    136  H44 UNL A   1      45.864  30.166  32.410  1.00  0.00    +0.000 H 
ATOM      9  C8  UNL A   1      44.344  30.913  31.153  1.00  0.00    +0.000 C 
ATOM     10  C9  UNL A   1      43.868  30.839  29.834  1.00  0.00    +0.000 C 
ATOM     11  C10 UNL A   1      44.513  30.072  28.855  1.00  0.00    +0.000 C 
ATOM     12  C11 UNL A   1      45.700  29.392  29.138  1.00  0.00    +0.000 C 
ATOM     90  C66 UNL A   1      46.178  29.447  30.454  1.00  0.00    +0.000 C 
ATOM     91  C67 UNL A   1      45.502  30.174  31.444  1.00  0.00    +0.000 C 
BRANCH    9    8
ATOM     98  H6  UNL A   1      41.960  33.986  34.828  1.00  0.00    +0.000 H 
ATOM     99  H7  UNL A   1      40.968  33.725  32.633  1.00  0.00    +0.000 H 
ATOM      4  C3  UNL A   1      43.606  32.728  34.431  1.00  0.00    +0.000 C 
ATOM      5  C4  UNL A   1      42.417  33.387  34.123  1.00  0.00    +0.000 C 
ATOM      6  C5  UNL A   1      41.846  33.236  32.862  1.00  0.00    +0.000 C 
ATOM      7  C6  UNL A   1      42.462  32.422  31.906  1.00  0.00    +0.000 C 
ATOM      8  C7  UNL A   1      43.669  31.750  32.177  1.00  0.00    +0.000 C 
ATOM    137  H45 UNL A   1      45.095  31.431  33.701  1.00  0.00    +0.000 H 
ATOM    100  H8  UNL A   1      42.022  32.311  30.980  1.00  0.00    +0.000 H 
ATOM     92  C68 UNL A   1      44.217  31.918  33.464  1.00  0.00    +0.000 C 
BRANCH    4    3
ATOM      3  S1  UNL A   1      44.297  32.848  36.069  1.00  0.00    +0.000 S 
BRANCH    3    2
ATOM     97  H5  UNL A   1      42.734  34.636  35.941  1.00  0.00    +0.000 H 
ATOM      2  C2  UNL A   1      43.347  34.256  36.733  1.00  0.00    +0.000 C 
ATOM     96  H4  UNL A   1      44.034  34.996  37.088  1.00  0.00    +0.000 H 
BRANCH    2    1
ATOM      1  C1  UNL A   1      42.429  33.856  37.874  1.00  0.00    +0.000 C 
ATOM     93  H1  UNL A   1      41.464  33.604  37.484  1.00  0.00    +0.000 H 
ATOM     94  H2  UNL A   1      42.334  34.674  38.559  1.00  0.00    +0.000 H 
ATOM     95  H3  UNL A   1      42.840  33.010  38.384  1.00  0.00    +0.000 H 
ENDBRANCH    2    1
ENDBRANCH    3    2
ENDBRANCH    4    3
ENDBRANCH    9    8
ENDBRANCH   13   12
BRANCH   13   14
ATOM    105  H13 UNL A   1      47.969  29.928  27.238  1.00  0.00    +0.000 H 
ATOM    106  H14 UNL A   1      48.513  28.283  27.461  1.00  0.00    +0.000 H 
ATOM     14  C13 UNL A   1      47.947  29.082  27.892  1.00  0.00    +0.000 C 
ATOM    104  H12 UNL A   1      48.371  29.350  28.837  1.00  0.00    +0.000 H 
ENDBRANCH   13   14
ENDBRANCH   15   13
ENDBRANCH   17   15
ENDBRANCH   18   17
ENDBRANCH   19   18
ENDBRANCH   20   19
ENDBRANCH   21   20
ENDBRANCH   22   21
ENDBRANCH   23   22
ENDBRANCH   24   23
ENDBRANCH   25   24
ENDBRANCH   27   25
ENDBRANCH   31   30
BRANCH   35   36
ATOM     36  C30 UNL A   1      38.687  32.145  36.286  1.00  0.00    +0.000 C 
ATOM     37  C31 UNL A   1      39.040  33.469  36.583  1.00  0.00    +0.000 C 
ATOM     38  F1  UNL A   1      39.773  34.183  35.716  1.00  0.00    +0.000 F 
ATOM     39  C32 UNL A   1      38.671  34.056  37.791  1.00  0.00    +0.000 C 
ATOM     40  F2  UNL A   1      39.056  35.308  38.072  1.00  0.00    +0.000 F 
ATOM     41  C33 UNL A   1      37.914  33.342  38.708  1.00  0.00    +0.000 C 
ATOM     42  F3  UNL A   1      37.551  33.910  39.867  1.00  0.00    +0.000 F 
ATOM     43  C34 UNL A   1      37.537  32.037  38.427  1.00  0.00    +0.000 C 
ATOM     44  F4  UNL A   1      36.797  31.350  39.308  1.00  0.00    +0.000 F 
ATOM     45  C35 UNL A   1      37.929  31.439  37.232  1.00  0.00    +0.000 C 
ATOM     46  F5  UNL A   1      37.559  30.172  36.994  1.00  0.00    +0.000 F 
ENDBRANCH   35   36
BRANCH   52   53
ATOM     53  C41 UNL A   1      36.264  32.012  29.500  1.00  0.00    +0.000 C 
ATOM     54  C42 UNL A   1      35.183  31.266  29.010  1.00  0.00    +0.000 C 
ATOM     55  F6  UNL A   1      35.129  29.941  29.212  1.00  0.00    +0.000 F 
ATOM     56  C43 UNL A   1      34.169  31.876  28.275  1.00  0.00    +0.000 C 
ATOM     57  F7  UNL A   1      33.167  31.138  27.778  1.00  0.00    +0.000 F 
ATOM     58  C44 UNL A   1      34.201  33.244  28.044  1.00  0.00    +0.000 C 
ATOM     59  F8  UNL A   1      33.222  33.829  27.342  1.00  0.00    +0.000 F 
ATOM     60  C45 UNL A   1      35.253  34.002  28.535  1.00  0.00    +0.000 C 
ATOM     61  F9  UNL A   1      35.280  35.325  28.323  1.00  0.00    +0.000 F 
ATOM     62  C46 UNL A   1      36.282  33.392  29.248  1.00  0.00    +0.000 C 
ATOM     63  F10 UNL A   1      37.291  34.149  29.701  1.00  0.00    +0.000 F 
ENDBRANCH   52   53
BRANCH   67   68
ATOM     68  C50 UNL A   1      41.235  27.412  27.881  1.00  0.00    +0.000 C 
ATOM     69  C51 UNL A   1      40.907  26.057  27.735  1.00  0.00    +0.000 C 
ATOM     70  F11 UNL A   1      40.295  25.405  28.734  1.00  0.00    +0.000 F 
ATOM     71  C52 UNL A   1      41.243  25.357  26.578  1.00  0.00    +0.000 C 
ATOM     72  F12 UNL A   1      40.955  24.051  26.481  1.00  0.00    +0.000 F 
ATOM     73  C53 UNL A   1      41.887  26.004  25.535  1.00  0.00    +0.000 C 
ATOM     74  F13 UNL A   1      42.206  25.332  24.421  1.00  0.00    +0.000 F 
ATOM     75  C54 UNL A   1      42.206  27.349  25.651  1.00  0.00    +0.000 C 
ATOM     76  F14 UNL A   1      42.816  27.982  24.640  1.00  0.00    +0.000 F 
ATOM     77  C55 UNL A   1      41.893  28.044  26.817  1.00  0.00    +0.000 C 
ATOM     78  F15 UNL A   1      42.222  29.341  26.907  1.00  0.00    +0.000 F 
ENDBRANCH   67   68
TORSDOF 21
ENDMDL
MODEL 3
REMARK VINA RESULT:      -7.7     44.728     49.583
ROOT
ATOM    129  H37 UNL A   1      10.111  22.751   7.892  1.00  0.00    +0.000 H 
ATOM    130  H38 UNL A   1      11.643  20.842   7.150  1.00  0.00    +0.000 H 
ATOM    131  H39 UNL A   1      13.469  25.570  -1.527  1.00  0.00    +0.000 H 
ATOM    132  H40 UNL A   1      12.325  27.674  -0.620  1.00  0.00    +0.000 H 
ATOM     31  C26 UNL A   1      11.123  27.311   1.940  1.00  0.00    +0.000 C 
ATOM     32  C27 UNL A   1      11.969  26.332   1.174  1.00  0.00    +0.000 C 
ATOM     33  N3  UNL A   1      12.337  25.120   1.506  1.00  0.00    +0.000 N 
ATOM     34  C28 UNL A   1      13.067  24.638   0.427  1.00  0.00    +0.000 C 
ATOM     35  C29 UNL A   1      13.704  23.449   0.303  1.00  0.00    +0.000 C 
ATOM     47  C36 UNL A   1      13.745  22.439   1.327  1.00  0.00    +0.000 C 
ATOM     48  C37 UNL A   1      14.426  21.233   1.324  1.00  0.00    +0.000 C 
ATOM     49  C38 UNL A   1      14.137  20.564   2.519  1.00  0.00    +0.000 C 
ATOM     50  C39 UNL A   1      13.311  21.370   3.284  1.00  0.00    +0.000 C 
ATOM     51  N4  UNL A   1      13.075  22.515   2.539  1.00  0.00    +0.000 N 
ATOM     52  C40 UNL A   1      12.774  21.116   4.595  1.00  0.00    +0.000 C 
ATOM     64  C47 UNL A   1      11.977  21.966   5.287  1.00  0.00    +0.000 C 
ATOM     65  N5  UNL A   1      11.514  23.223   4.918  1.00  0.00    +0.000 N 
ATOM     66  C48 UNL A   1      10.770  23.638   5.913  1.00  0.00    +0.000 C 
ATOM     67  C49 UNL A   1      10.036  24.942   6.069  1.00  0.00    +0.000 C 
ATOM     79  C56 UNL A   1      10.136  25.874   5.102  1.00  0.00    +0.000 C 
ATOM     80  C57 UNL A   1       9.492  27.184   5.120  1.00  0.00    +0.000 C 
ATOM     81  C58 UNL A   1       9.776  27.827   3.976  1.00  0.00    +0.000 C 
ATOM     82  C59 UNL A   1      10.647  26.984   3.156  1.00  0.00    +0.000 C 
ATOM     83  N6  UNL A   1      10.817  25.849   3.910  1.00  0.00    +0.000 N 
ATOM     84  C60 UNL A   1      10.657  22.678   7.020  1.00  0.00    +0.000 C 
ATOM     85  C61 UNL A   1      11.441  21.694   6.604  1.00  0.00    +0.000 C 
ATOM     86  C62 UNL A   1      13.055  25.670  -0.586  1.00  0.00    +0.000 C 
ATOM     87  C63 UNL A   1      12.441  26.761  -0.150  1.00  0.00    +0.000 C 
ATOM    123  H31 UNL A   1      15.042  20.888   0.571  1.00  0.00    +0.000 H 
ATOM    124  H32 UNL A   1      14.482  19.628   2.784  1.00  0.00    +0.000 H 
ATOM    125  H33 UNL A   1      12.516  23.272   2.829  1.00  0.00    +0.000 H 
ATOM    126  H34 UNL A   1       8.913  27.556   5.889  1.00  0.00    +0.000 H 
ATOM    127  H35 UNL A   1       9.433  28.765   3.716  1.00  0.00    +0.000 H 
ATOM    128  H36 UNL A   1      11.375  25.091   3.623  1.00  0.00    +0.000 H 
ENDROOT
BRANCH   31   30
ATOM    133  H41 UNL A   1       9.018  27.862   0.372  1.00  0.00    +0.000 H 
ATOM    134  H42 UNL A   1       8.415  29.964  -0.674  1.00  0.00    +0.000 H 
ATOM     29  C24 UNL A   1      11.518  29.765   1.551  1.00  0.00    +0.000 C 
ATOM     88  C64 UNL A   1       9.594  28.702   0.537  1.00  0.00    +0.000 C 
ATOM     89  C65 UNL A   1       9.224  29.919  -0.035  1.00  0.00    +0.000 C 
ATOM    122  H30 UNL A   1      12.390  29.703   2.100  1.00  0.00    +0.000 H 
ATOM     27  C22 UNL A   1       9.949  31.078   0.258  1.00  0.00    +0.000 C 
ATOM     28  C23 UNL A   1      11.113  30.996   1.028  1.00  0.00    +0.000 C 
ATOM    121  H29 UNL A   1      11.672  31.844   1.211  1.00  0.00    +0.000 H 
ATOM     30  C25 UNL A   1      10.746  28.613   1.334  1.00  0.00    +0.000 C 
BRANCH   27   25
ATOM     25  C21 UNL A   1       9.541  32.397  -0.278  1.00  0.00    +0.000 C 
ATOM     26  O2  UNL A   1       8.669  33.040   0.293  1.00  0.00    +0.000 O 
BRANCH   25   24
ATOM    120  H28 UNL A   1       9.537  33.402  -2.010  1.00  0.00    +0.000 H 
ATOM     24  N2  UNL A   1      10.136  32.904  -1.409  1.00  0.00    +0.000 N 
BRANCH   24   23
ATOM    119  H27 UNL A   1      11.531  32.873  -2.916  1.00  0.00    +0.000 H 
ATOM    118  H26 UNL A   1      11.926  31.882  -1.509  1.00  0.00    +0.000 H 
ATOM     23  C20 UNL A   1      11.520  32.811  -1.848  1.00  0.00    +0.000 C 
BRANCH   23   22
ATOM    116  H24 UNL A   1      13.251  34.032  -1.907  1.00  0.00    +0.000 H 
ATOM    117  H25 UNL A   1      11.757  34.828  -1.329  1.00  0.00    +0.000 H 
ATOM     22  C19 UNL A   1      12.374  33.953  -1.299  1.00  0.00    +0.000 C 
BRANCH   22   21
ATOM    114  H22 UNL A   1      12.586  34.695   0.677  1.00  0.00    +0.000 H 
ATOM    115  H23 UNL A   1      12.294  32.931   0.526  1.00  0.00    +0.000 H 
ATOM     21  C18 UNL A   1      12.817  33.788   0.158  1.00  0.00    +0.000 C 
BRANCH   21   20
ATOM    113  H21 UNL A   1      14.817  34.423   0.246  1.00  0.00    +0.000 H 
ATOM     20  C17 UNL A   1      14.307  33.491   0.372  1.00  0.00    +0.000 C 
ATOM    112  H20 UNL A   1      14.600  32.743  -0.336  1.00  0.00    +0.000 H 
BRANCH   20   19
ATOM     19  C16 UNL A   1      14.683  32.989   1.771  1.00  0.00    +0.000 C 
ATOM    110  H18 UNL A   1      14.257  33.654   2.492  1.00  0.00    +0.000 H 
ATOM    111  H19 UNL A   1      14.304  31.993   1.855  1.00  0.00    +0.000 H 
BRANCH   19   18
ATOM     18  C15 UNL A   1      16.190  32.912   2.019  1.00  0.00    +0.000 C 
ATOM    108  H16 UNL A   1      16.662  33.749   1.547  1.00  0.00    +0.000 H 
ATOM    109  H17 UNL A   1      16.354  32.924   3.077  1.00  0.00    +0.000 H 
BRANCH   18   17
ATOM     17  N1  UNL A   1      16.764  31.693   1.492  1.00  0.00    +0.000 N 
ATOM    107  H15 UNL A   1      16.368  30.867   1.849  1.00  0.00    +0.000 H 
BRANCH   17   15
ATOM     15  C14 UNL A   1      17.759  31.494   0.584  1.00  0.00    +0.000 C 
ATOM     16  O1  UNL A   1      18.597  32.399   0.477  1.00  0.00    +0.000 O 
BRANCH   15   13
ATOM     13  C12 UNL A   1      17.865  30.243  -0.301  1.00  0.00    +0.000 C 
ATOM    103  H11 UNL A   1      17.939  29.417   0.376  1.00  0.00    +0.000 H 
BRANCH   13   12
ATOM    101  H9  UNL A   1      13.461  31.011  -1.648  1.00  0.00    +0.000 H 
ATOM    102  H10 UNL A   1      15.506  31.666  -0.553  1.00  0.00    +0.000 H 
ATOM    135  H43 UNL A   1      17.344  28.146  -1.891  1.00  0.00    +0.000 H 
ATOM    136  H44 UNL A   1      15.351  27.573  -3.120  1.00  0.00    +0.000 H 
ATOM      9  C8  UNL A   1      14.199  29.219  -2.475  1.00  0.00    +0.000 C 
ATOM     10  C9  UNL A   1      14.289  30.398  -1.719  1.00  0.00    +0.000 C 
ATOM     11  C10 UNL A   1      15.469  30.769  -1.061  1.00  0.00    +0.000 C 
ATOM     12  C11 UNL A   1      16.595  29.944  -1.081  1.00  0.00    +0.000 C 
ATOM     90  C66 UNL A   1      16.523  28.770  -1.843  1.00  0.00    +0.000 C 
ATOM     91  C67 UNL A   1      15.358  28.427  -2.541  1.00  0.00    +0.000 C 
BRANCH    9    8
ATOM     98  H6  UNL A   1       9.653  27.712  -4.863  1.00  0.00    +0.000 H 
ATOM     99  H7  UNL A   1       9.581  29.085  -2.866  1.00  0.00    +0.000 H 
ATOM      4  C3  UNL A   1      11.759  27.619  -4.939  1.00  0.00    +0.000 C 
ATOM      5  C4  UNL A   1      10.531  28.009  -4.408  1.00  0.00    +0.000 C 
ATOM      6  C5  UNL A   1      10.490  28.798  -3.261  1.00  0.00    +0.000 C 
ATOM      7  C6  UNL A   1      11.678  29.203  -2.645  1.00  0.00    +0.000 C 
ATOM      8  C7  UNL A   1      12.936  28.820  -3.146  1.00  0.00    +0.000 C 
ATOM    137  H45 UNL A   1      13.849  27.737  -4.713  1.00  0.00    +0.000 H 
ATOM    100  H8  UNL A   1      11.632  29.797  -1.803  1.00  0.00    +0.000 H 
ATOM     92  C68 UNL A   1      12.944  28.026  -4.311  1.00  0.00    +0.000 C 
BRANCH    4    3
ATOM      3  S1  UNL A   1      11.822  26.681  -6.452  1.00  0.00    +0.000 S 
BRANCH    3    2
ATOM     97  H5  UNL A   1      12.424  28.890  -7.097  1.00  0.00    +0.000 H 
ATOM      2  C2  UNL A   1      12.197  28.003  -7.652  1.00  0.00    +0.000 C 
ATOM     96  H4  UNL A   1      11.347  28.142  -8.286  1.00  0.00    +0.000 H 
BRANCH    2    1
ATOM      1  C1  UNL A   1      13.403  27.682  -8.518  1.00  0.00    +0.000 C 
ATOM     93  H1  UNL A   1      13.927  28.586  -8.749  1.00  0.00    +0.000 H 
ATOM     94  H2  UNL A   1      13.077  27.218  -9.425  1.00  0.00    +0.000 H 
ATOM     95  H3  UNL A   1      14.054  27.016  -7.991  1.00  0.00    +0.000 H 
ENDBRANCH    2    1
ENDBRANCH    3    2
ENDBRANCH    4    3
ENDBRANCH    9    8
ENDBRANCH   13   12
BRANCH   13   14
ATOM    105  H13 UNL A   1      19.005  30.386  -2.106  1.00  0.00    +0.000 H 
ATOM    106  H14 UNL A   1      19.542  29.126  -1.021  1.00  0.00    +0.000 H 
ATOM     14  C13 UNL A   1      19.177  30.130  -1.081  1.00  0.00    +0.000 C 
ATOM    104  H12 UNL A   1      19.899  30.798  -0.663  1.00  0.00    +0.000 H 
ENDBRANCH   13   14
ENDBRANCH   15   13
ENDBRANCH   17   15
ENDBRANCH   18   17
ENDBRANCH   19   18
ENDBRANCH   20   19
ENDBRANCH   21   20
ENDBRANCH   22   21
ENDBRANCH   23   22
ENDBRANCH   24   23
ENDBRANCH   25   24
ENDBRANCH   27   25
ENDBRANCH   31   30
BRANCH   35   36
ATOM     36  C30 UNL A   1      14.419  23.174  -0.988  1.00  0.00    +0.000 C 
ATOM     37  C31 UNL A   1      13.761  22.594  -2.082  1.00  0.00    +0.000 C 
ATOM     38  F1  UNL A   1      12.478  22.219  -1.977  1.00  0.00    +0.000 F 
ATOM     39  C32 UNL A   1      14.430  22.366  -3.282  1.00  0.00    +0.000 C 
ATOM     40  F2  UNL A   1      13.793  21.773  -4.301  1.00  0.00    +0.000 F 
ATOM     41  C33 UNL A   1      15.758  22.742  -3.421  1.00  0.00    +0.000 C 
ATOM     42  F3  UNL A   1      16.399  22.530  -4.578  1.00  0.00    +0.000 F 
ATOM     43  C34 UNL A   1      16.424  23.334  -2.357  1.00  0.00    +0.000 C 
ATOM     44  F4  UNL A   1      17.703  23.708  -2.493  1.00  0.00    +0.000 F 
ATOM     45  C35 UNL A   1      15.765  23.538  -1.147  1.00  0.00    +0.000 C 
ATOM     46  F5  UNL A   1      16.438  24.102  -0.134  1.00  0.00    +0.000 F 
ENDBRANCH   35   36
BRANCH   52   53
ATOM     53  C41 UNL A   1      13.135  19.822   5.261  1.00  0.00    +0.000 C 
ATOM     54  C42 UNL A   1      14.257  19.715   6.095  1.00  0.00    +0.000 C 
ATOM     55  F6  UNL A   1      15.069  20.768   6.273  1.00  0.00    +0.000 F 
ATOM     56  C43 UNL A   1      14.571  18.510   6.719  1.00  0.00    +0.000 C 
ATOM     57  F7  UNL A   1      15.673  18.417   7.477  1.00  0.00    +0.000 F 
ATOM     58  C44 UNL A   1      13.753  17.402   6.547  1.00  0.00    +0.000 C 
ATOM     59  F8  UNL A   1      14.055  16.247   7.154  1.00  0.00    +0.000 F 
ATOM     60  C45 UNL A   1      12.630  17.492   5.741  1.00  0.00    +0.000 C 
ATOM     61  F9  UNL A   1      11.832  16.426   5.583  1.00  0.00    +0.000 F 
ATOM     62  C46 UNL A   1      12.327  18.687   5.094  1.00  0.00    +0.000 C 
ATOM     63  F10 UNL A   1      11.240  18.741   4.312  1.00  0.00    +0.000 F 
ENDBRANCH   52   53
BRANCH   67   68
ATOM     68  C50 UNL A   1       9.229  25.220   7.283  1.00  0.00    +0.000 C 
ATOM     69  C51 UNL A   1       7.836  25.062   7.271  1.00  0.00    +0.000 C 
ATOM     70  F11 UNL A   1       7.217  24.676   6.146  1.00  0.00    +0.000 F 
ATOM     71  C52 UNL A   1       7.071  25.337   8.402  1.00  0.00    +0.000 C 
ATOM     72  F12 UNL A   1       5.737  25.217   8.351  1.00  0.00    +0.000 F 
ATOM     73  C53 UNL A   1       7.686  25.748   9.575  1.00  0.00    +0.000 C 
ATOM     74  F13 UNL A   1       6.950  26.009  10.663  1.00  0.00    +0.000 F 
ATOM     75  C54 UNL A   1       9.065  25.896   9.615  1.00  0.00    +0.000 C 
ATOM     76  F14 UNL A   1       9.664  26.281  10.750  1.00  0.00    +0.000 F 
ATOM     77  C55 UNL A   1       9.828  25.645   8.477  1.00  0.00    +0.000 C 
ATOM     78  F15 UNL A   1      11.158  25.806   8.541  1.00  0.00    +0.000 F 
ENDBRANCH   67   68
TORSDOF 21
ENDMDL
MODEL 4
REMARK VINA RESULT:      -7.5     44.581     49.420
ROOT
ATOM    129  H37 UNL A   1      10.075  22.773   7.776  1.00  0.00    +0.000 H 
ATOM    130  H38 UNL A   1      11.651  20.892   7.051  1.00  0.00    +0.000 H 
ATOM    131  H39 UNL A   1      13.632  25.742  -1.524  1.00  0.00    +0.000 H 
ATOM    132  H40 UNL A   1      12.439  27.820  -0.622  1.00  0.00    +0.000 H 
ATOM     31  C26 UNL A   1      11.178  27.414   1.902  1.00  0.00    +0.000 C 
ATOM     32  C27 UNL A   1      12.056  26.454   1.147  1.00  0.00    +0.000 C 
ATOM     33  N3  UNL A   1      12.431  25.243   1.474  1.00  0.00    +0.000 N 
ATOM     34  C28 UNL A   1      13.194  24.782   0.409  1.00  0.00    +0.000 C 
ATOM     35  C29 UNL A   1      13.849  23.603   0.288  1.00  0.00    +0.000 C 
ATOM     47  C36 UNL A   1      13.877  22.581   1.301  1.00  0.00    +0.000 C 
ATOM     48  C37 UNL A   1      14.573  21.385   1.302  1.00  0.00    +0.000 C 
ATOM     49  C38 UNL A   1      14.263  20.698   2.481  1.00  0.00    +0.000 C 
ATOM     50  C39 UNL A   1      13.407  21.485   3.234  1.00  0.00    +0.000 C 
ATOM     51  N4  UNL A   1      13.176  22.636   2.497  1.00  0.00    +0.000 N 
ATOM     52  C40 UNL A   1      12.841  21.210   4.529  1.00  0.00    +0.000 C 
ATOM     64  C47 UNL A   1      12.016  22.042   5.210  1.00  0.00    +0.000 C 
ATOM     65  N5  UNL A   1      11.547  23.297   4.843  1.00  0.00    +0.000 N 
ATOM     66  C48 UNL A   1      10.773  23.691   5.824  1.00  0.00    +0.000 C 
ATOM     67  C49 UNL A   1      10.019  24.984   5.976  1.00  0.00    +0.000 C 
ATOM     79  C56 UNL A   1      10.131  25.928   5.023  1.00  0.00    +0.000 C 
ATOM     80  C57 UNL A   1       9.470  27.230   5.039  1.00  0.00    +0.000 C 
ATOM     81  C58 UNL A   1       9.774  27.889   3.909  1.00  0.00    +0.000 C 
ATOM     82  C59 UNL A   1      10.676  27.067   3.102  1.00  0.00    +0.000 C 
ATOM     83  N6  UNL A   1      10.842  25.926   3.847  1.00  0.00    +0.000 N 
ATOM     84  C60 UNL A   1      10.644  22.717   6.917  1.00  0.00    +0.000 C 
ATOM     85  C61 UNL A   1      11.451  21.748   6.510  1.00  0.00    +0.000 C 
ATOM     86  C62 UNL A   1      13.193  25.825  -0.593  1.00  0.00    +0.000 C 
ATOM     87  C63 UNL A   1      12.555  26.904  -0.161  1.00  0.00    +0.000 C 
ATOM    123  H31 UNL A   1      15.211  21.056   0.561  1.00  0.00    +0.000 H 
ATOM    124  H32 UNL A   1      14.613  19.764   2.745  1.00  0.00    +0.000 H 
ATOM    125  H33 UNL A   1      12.600  23.383   2.781  1.00  0.00    +0.000 H 
ATOM    126  H34 UNL A   1       8.868  27.586   5.797  1.00  0.00    +0.000 H 
ATOM    127  H35 UNL A   1       9.426  28.826   3.651  1.00  0.00    +0.000 H 
ATOM    128  H36 UNL A   1      11.416  25.177   3.566  1.00  0.00    +0.000 H 
ENDROOT
BRANCH   31   30
ATOM    133  H41 UNL A   1       9.305  27.903   0.046  1.00  0.00    +0.000 H 
ATOM    134  H42 UNL A   1       8.710  30.011  -0.990  1.00  0.00    +0.000 H 
ATOM     29  C24 UNL A   1      11.438  29.907   1.689  1.00  0.00    +0.000 C 
ATOM     88  C64 UNL A   1       9.782  28.770   0.337  1.00  0.00    +0.000 C 
ATOM     89  C65 UNL A   1       9.412  29.988  -0.233  1.00  0.00    +0.000 C 
ATOM    122  H30 UNL A   1      12.216  29.875   2.365  1.00  0.00    +0.000 H 
ATOM     27  C22 UNL A   1       9.990  31.176   0.221  1.00  0.00    +0.000 C 
ATOM     28  C23 UNL A   1      11.024  31.133   1.162  1.00  0.00    +0.000 C 
ATOM    121  H29 UNL A   1      11.481  32.007   1.468  1.00  0.00    +0.000 H 
ATOM     30  C25 UNL A   1      10.800  28.718   1.301  1.00  0.00    +0.000 C 
BRANCH   27   25
ATOM     25  C21 UNL A   1       9.570  32.492  -0.315  1.00  0.00    +0.000 C 
ATOM     26  O2  UNL A   1       8.678  33.117   0.245  1.00  0.00    +0.000 O 
BRANCH   25   24
ATOM    120  H28 UNL A   1       9.601  33.588  -1.991  1.00  0.00    +0.000 H 
ATOM     24  N2  UNL A   1      10.174  33.014  -1.433  1.00  0.00    +0.000 N 
BRANCH   24   23
ATOM    119  H27 UNL A   1      11.515  32.879  -2.983  1.00  0.00    +0.000 H 
ATOM    118  H26 UNL A   1      11.910  31.904  -1.565  1.00  0.00    +0.000 H 
ATOM     23  C20 UNL A   1      11.537  32.844  -1.914  1.00  0.00    +0.000 C 
BRANCH   23   22
ATOM    116  H24 UNL A   1      13.378  33.893  -1.974  1.00  0.00    +0.000 H 
ATOM    117  H25 UNL A   1      11.935  34.874  -1.581  1.00  0.00    +0.000 H 
ATOM     22  C19 UNL A   1      12.462  33.956  -1.424  1.00  0.00    +0.000 C 
BRANCH   22   21
ATOM    114  H22 UNL A   1      12.587  34.867   0.488  1.00  0.00    +0.000 H 
ATOM    115  H23 UNL A   1      12.208  33.113   0.476  1.00  0.00    +0.000 H 
ATOM     21  C18 UNL A   1      12.800  33.906   0.070  1.00  0.00    +0.000 C 
BRANCH   21   20
ATOM    113  H21 UNL A   1      14.854  34.335  -0.011  1.00  0.00    +0.000 H 
ATOM     20  C17 UNL A   1      14.255  33.556   0.412  1.00  0.00    +0.000 C 
ATOM    112  H20 UNL A   1      14.465  32.587   0.011  1.00  0.00    +0.000 H 
BRANCH   20   19
ATOM     19  C16 UNL A   1      14.590  33.532   1.909  1.00  0.00    +0.000 C 
ATOM    110  H18 UNL A   1      14.181  34.411   2.359  1.00  0.00    +0.000 H 
ATOM    111  H19 UNL A   1      14.169  32.632   2.305  1.00  0.00    +0.000 H 
BRANCH   19   18
ATOM     18  C15 UNL A   1      16.089  33.490   2.209  1.00  0.00    +0.000 C 
ATOM    108  H16 UNL A   1      16.581  34.233   1.616  1.00  0.00    +0.000 H 
ATOM    109  H17 UNL A   1      16.224  33.678   3.254  1.00  0.00    +0.000 H 
BRANCH   18   17
ATOM     17  N1  UNL A   1      16.665  32.197   1.909  1.00  0.00    +0.000 N 
ATOM    107  H15 UNL A   1      16.323  31.459   2.463  1.00  0.00    +0.000 H 
BRANCH   17   15
ATOM     15  C14 UNL A   1      17.600  31.826   0.991  1.00  0.00    +0.000 C 
ATOM     16  O1  UNL A   1      18.432  32.685   0.675  1.00  0.00    +0.000 O 
BRANCH   15   13
ATOM     13  C12 UNL A   1      17.643  30.437   0.335  1.00  0.00    +0.000 C 
ATOM    103  H11 UNL A   1      17.512  29.738   1.134  1.00  0.00    +0.000 H 
BRANCH   13   12
ATOM    101  H9  UNL A   1      15.587  29.026  -3.613  1.00  0.00    +0.000 H 
ATOM    102  H10 UNL A   1      17.495  29.238  -2.155  1.00  0.00    +0.000 H 
ATOM    135  H43 UNL A   1      15.050  30.953   0.786  1.00  0.00    +0.000 H 
ATOM    136  H44 UNL A   1      13.118  30.590  -0.610  1.00  0.00    +0.000 H 
ATOM      9  C8  UNL A   1      14.169  29.805  -2.262  1.00  0.00    +0.000 C 
ATOM     10  C9  UNL A   1      15.458  29.426  -2.670  1.00  0.00    +0.000 C 
ATOM     11  C10 UNL A   1      16.573  29.571  -1.833  1.00  0.00    +0.000 C 
ATOM     12  C11 UNL A   1      16.456  30.159  -0.572  1.00  0.00    +0.000 C 
ATOM     90  C66 UNL A   1      15.172  30.529  -0.148  1.00  0.00    +0.000 C 
ATOM     91  C67 UNL A   1      14.052  30.336  -0.967  1.00  0.00    +0.000 C 
BRANCH    9    8
ATOM     98  H6  UNL A   1       9.907  29.372  -5.469  1.00  0.00    +0.000 H 
ATOM     99  H7  UNL A   1      11.672  30.947  -5.998  1.00  0.00    +0.000 H 
ATOM      4  C3  UNL A   1      10.833  28.649  -3.717  1.00  0.00    +0.000 C 
ATOM      5  C4  UNL A   1      10.732  29.449  -4.854  1.00  0.00    +0.000 C 
ATOM      6  C5  UNL A   1      11.747  30.353  -5.158  1.00  0.00    +0.000 C 
ATOM      7  C6  UNL A   1      12.867  30.456  -4.327  1.00  0.00    +0.000 C 
ATOM      8  C7  UNL A   1      12.998  29.673  -3.165  1.00  0.00    +0.000 C 
ATOM    137  H45 UNL A   1      12.026  28.165  -2.051  1.00  0.00    +0.000 H 
ATOM    100  H8  UNL A   1      13.616  31.122  -4.572  1.00  0.00    +0.000 H 
ATOM     92  C68 UNL A   1      11.958  28.764  -2.888  1.00  0.00    +0.000 C 
BRANCH    4    3
ATOM      3  S1  UNL A   1       9.581  27.431  -3.367  1.00  0.00    +0.000 S 
BRANCH    3    2
ATOM     97  H5  UNL A   1       9.918  25.080  -3.239  1.00  0.00    +0.000 H 
ATOM      2  C2  UNL A   1      10.586  25.909  -3.356  1.00  0.00    +0.000 C 
ATOM     96  H4  UNL A   1      11.287  25.967  -2.550  1.00  0.00    +0.000 H 
BRANCH    2    1
ATOM      1  C1  UNL A   1      11.349  25.704  -4.653  1.00  0.00    +0.000 C 
ATOM     93  H1  UNL A   1      10.906  26.298  -5.425  1.00  0.00    +0.000 H 
ATOM     94  H2  UNL A   1      11.310  24.671  -4.931  1.00  0.00    +0.000 H 
ATOM     95  H3  UNL A   1      12.369  25.998  -4.517  1.00  0.00    +0.000 H 
ENDBRANCH    2    1
ENDBRANCH    3    2
ENDBRANCH    4    3
ENDBRANCH    9    8
ENDBRANCH   13   12
BRANCH   13   14
ATOM    105  H13 UNL A   1      19.031  28.987  -0.403  1.00  0.00    +0.000 H 
ATOM    106  H14 UNL A   1      19.770  30.282   0.507  1.00  0.00    +0.000 H 
ATOM     14  C13 UNL A   1      19.016  30.040  -0.211  1.00  0.00    +0.000 C 
ATOM    104  H12 UNL A   1      19.205  30.570  -1.121  1.00  0.00    +0.000 H 
ENDBRANCH   13   14
ENDBRANCH   15   13
ENDBRANCH   17   15
ENDBRANCH   18   17
ENDBRANCH   19   18
ENDBRANCH   20   19
ENDBRANCH   21   20
ENDBRANCH   22   21
ENDBRANCH   23   22
ENDBRANCH   24   23
ENDBRANCH   25   24
ENDBRANCH   27   25
ENDBRANCH   31   30
BRANCH   35   36
ATOM     36  C30 UNL A   1      14.599  23.352  -0.988  1.00  0.00    +0.000 C 
ATOM     37  C31 UNL A   1      15.974  23.607  -1.093  1.00  0.00    +0.000 C 
ATOM     38  F1  UNL A   1      16.643  24.139  -0.060  1.00  0.00    +0.000 F 
ATOM     39  C32 UNL A   1      16.662  23.347  -2.276  1.00  0.00    +0.000 C 
ATOM     40  F2  UNL A   1      17.967  23.638  -2.368  1.00  0.00    +0.000 F 
ATOM     41  C33 UNL A   1      15.997  22.798  -3.362  1.00  0.00    +0.000 C 
ATOM     42  F3  UNL A   1      16.662  22.541  -4.497  1.00  0.00    +0.000 F 
ATOM     43  C34 UNL A   1      14.641  22.521  -3.274  1.00  0.00    +0.000 C 
ATOM     44  F4  UNL A   1      13.999  21.980  -4.319  1.00  0.00    +0.000 F 
ATOM     45  C35 UNL A   1      13.944  22.805  -2.101  1.00  0.00    +0.000 C 
ATOM     46  F5  UNL A   1      12.631  22.536  -2.051  1.00  0.00    +0.000 F 
ENDBRANCH   35   36
BRANCH   52   53
ATOM     53  C41 UNL A   1      13.202  19.913   5.189  1.00  0.00    +0.000 C 
ATOM     54  C42 UNL A   1      12.465  18.743   4.960  1.00  0.00    +0.000 C 
ATOM     55  F6  UNL A   1      11.378  18.773   4.175  1.00  0.00    +0.000 F 
ATOM     56  C43 UNL A   1      12.823  17.542   5.568  1.00  0.00    +0.000 C 
ATOM     57  F7  UNL A   1      12.078  16.445   5.369  1.00  0.00    +0.000 F 
ATOM     58  C44 UNL A   1      13.939  17.482   6.390  1.00  0.00    +0.000 C 
ATOM     59  F8  UNL A   1      14.283  16.325   6.969  1.00  0.00    +0.000 F 
ATOM     60  C45 UNL A   1      14.691  18.624   6.616  1.00  0.00    +0.000 C 
ATOM     61  F9  UNL A   1      15.776  18.566   7.401  1.00  0.00    +0.000 F 
ATOM     62  C46 UNL A   1      14.322  19.832   6.031  1.00  0.00    +0.000 C 
ATOM     63  F10 UNL A   1      15.062  20.922   6.277  1.00  0.00    +0.000 F 
ENDBRANCH   52   53
BRANCH   67   68
ATOM     68  C50 UNL A   1       9.178  25.238   7.172  1.00  0.00    +0.000 C 
ATOM     69  C51 UNL A   1       9.747  25.711   8.363  1.00  0.00    +0.000 C 
ATOM     70  F11 UNL A   1      11.070  25.917   8.436  1.00  0.00    +0.000 F 
ATOM     71  C52 UNL A   1       8.965  25.937   9.493  1.00  0.00    +0.000 C 
ATOM     72  F12 UNL A   1       9.542  26.350  10.632  1.00  0.00    +0.000 F 
ATOM     73  C53 UNL A   1       7.597  25.722   9.448  1.00  0.00    +0.000 C 
ATOM     74  F13 UNL A   1       6.845  25.943  10.534  1.00  0.00    +0.000 F 
ATOM     75  C54 UNL A   1       7.009  25.269   8.275  1.00  0.00    +0.000 C 
ATOM     76  F14 UNL A   1       5.685  25.073   8.223  1.00  0.00    +0.000 F 
ATOM     77  C55 UNL A   1       7.793  25.020   7.151  1.00  0.00    +0.000 C 
ATOM     78  F15 UNL A   1       7.200  24.573   6.034  1.00  0.00    +0.000 F 
ENDBRANCH   67   68
TORSDOF 21
ENDMDL
MODEL 5
REMARK VINA RESULT:      -7.4      5.315     11.830
ROOT
ATOM    129  H37 UNL A   1      19.124  42.276  50.458  1.00  0.00    +0.000 H 
ATOM    130  H38 UNL A   1      17.514  40.297  50.650  1.00  0.00    +0.000 H 
ATOM    131  H39 UNL A   1      23.891  34.499  45.486  1.00  0.00    +0.000 H 
ATOM    132  H40 UNL A   1      25.693  36.307  45.682  1.00  0.00    +0.000 H 
ATOM     31  C26 UNL A   1      24.770  38.718  46.892  1.00  0.00    +0.000 C 
ATOM     32  C27 UNL A   1      24.020  37.425  46.728  1.00  0.00    +0.000 C 
ATOM     33  N3  UNL A   1      22.801  37.123  47.099  1.00  0.00    +0.000 N 
ATOM     34  C28 UNL A   1      22.586  35.820  46.667  1.00  0.00    +0.000 C 
ATOM     35  C29 UNL A   1      21.496  35.039  46.854  1.00  0.00    +0.000 C 
ATOM     47  C36 UNL A   1      20.320  35.443  47.579  1.00  0.00    +0.000 C 
ATOM     48  C37 UNL A   1      19.195  34.697  47.885  1.00  0.00    +0.000 C 
ATOM     49  C38 UNL A   1      18.296  35.522  48.571  1.00  0.00    +0.000 C 
ATOM     50  C39 UNL A   1      18.878  36.769  48.729  1.00  0.00    +0.000 C 
ATOM     51  N4  UNL A   1      20.118  36.708  48.113  1.00  0.00    +0.000 N 
ATOM     52  C40 UNL A   1      18.345  37.930  49.391  1.00  0.00    +0.000 C 
ATOM     64  C47 UNL A   1      18.986  39.117  49.516  1.00  0.00    +0.000 C 
ATOM     65  N5  UNL A   1      20.248  39.478  49.061  1.00  0.00    +0.000 N 
ATOM     66  C48 UNL A   1      20.411  40.730  49.412  1.00  0.00    +0.000 C 
ATOM     67  C49 UNL A   1      21.600  41.626  49.203  1.00  0.00    +0.000 C 
ATOM     79  C56 UNL A   1      22.700  41.133  48.602  1.00  0.00    +0.000 C 
ATOM     80  C57 UNL A   1      23.928  41.878  48.341  1.00  0.00    +0.000 C 
ATOM     81  C58 UNL A   1      24.791  41.083  47.688  1.00  0.00    +0.000 C 
ATOM     82  C59 UNL A   1      24.187  39.762  47.511  1.00  0.00    +0.000 C 
ATOM     83  N6  UNL A   1      22.950  39.881  48.094  1.00  0.00    +0.000 N 
ATOM     84  C60 UNL A   1      19.258  41.314  50.112  1.00  0.00    +0.000 C 
ATOM     85  C61 UNL A   1      18.433  40.279  50.182  1.00  0.00    +0.000 C 
ATOM     86  C62 UNL A   1      23.783  35.404  45.970  1.00  0.00    +0.000 C 
ATOM     87  C63 UNL A   1      24.722  36.337  46.032  1.00  0.00    +0.000 C 
ATOM    123  H31 UNL A   1      19.045  33.704  47.648  1.00  0.00    +0.000 H 
ATOM    124  H32 UNL A   1      17.358  35.247  48.902  1.00  0.00    +0.000 H 
ATOM    125  H33 UNL A   1      20.762  37.452  48.063  1.00  0.00    +0.000 H 
ATOM    126  H34 UNL A   1      24.104  42.856  48.614  1.00  0.00    +0.000 H 
ATOM    127  H35 UNL A   1      25.731  41.360  47.362  1.00  0.00    +0.000 H 
ATOM    128  H36 UNL A   1      22.305  39.139  48.145  1.00  0.00    +0.000 H 
ENDROOT
BRANCH   31   30
ATOM    133  H41 UNL A   1      26.783  36.947  46.868  1.00  0.00    +0.000 H 
ATOM    134  H42 UNL A   1      29.021  37.206  45.976  1.00  0.00    +0.000 H 
ATOM     29  C24 UNL A   1      26.503  40.066  45.663  1.00  0.00    +0.000 C 
ATOM     88  C64 UNL A   1      27.050  37.824  46.396  1.00  0.00    +0.000 C 
ATOM     89  C65 UNL A   1      28.326  37.958  45.850  1.00  0.00    +0.000 C 
ATOM    122  H30 UNL A   1      25.848  40.862  45.630  1.00  0.00    +0.000 H 
ATOM     27  C22 UNL A   1      28.662  39.109  45.133  1.00  0.00    +0.000 C 
ATOM     28  C23 UNL A   1      27.760  40.175  45.063  1.00  0.00    +0.000 C 
ATOM    121  H29 UNL A   1      28.023  41.042  44.568  1.00  0.00    +0.000 H 
ATOM     30  C25 UNL A   1      26.127  38.878  46.310  1.00  0.00    +0.000 C 
BRANCH   27   25
ATOM     25  C21 UNL A   1      29.985  39.251  44.482  1.00  0.00    +0.000 C 
ATOM     26  O2  UNL A   1      30.333  38.441  43.632  1.00  0.00    +0.000 O 
BRANCH   25   24
ATOM    120  H28 UNL A   1      30.409  41.180  44.813  1.00  0.00    +0.000 H 
ATOM     24  N2  UNL A   1      30.822  40.286  44.824  1.00  0.00    +0.000 N 
BRANCH   24   23
ATOM    119  H27 UNL A   1      32.804  40.133  44.305  1.00  0.00    +0.000 H 
ATOM    118  H26 UNL A   1      32.385  39.444  45.876  1.00  0.00    +0.000 H 
ATOM     23  C20 UNL A   1      32.227  40.256  45.199  1.00  0.00    +0.000 C 
BRANCH   23   22
ATOM    116  H24 UNL A   1      33.206  41.300  46.762  1.00  0.00    +0.000 H 
ATOM    117  H25 UNL A   1      33.268  42.074  45.151  1.00  0.00    +0.000 H 
ATOM     22  C19 UNL A   1      32.670  41.553  45.871  1.00  0.00    +0.000 C 
BRANCH   22   21
ATOM    114  H22 UNL A   1      30.870  42.580  45.419  1.00  0.00    +0.000 H 
ATOM    115  H23 UNL A   1      31.084  42.084  47.130  1.00  0.00    +0.000 H 
ATOM     21  C18 UNL A   1      31.533  42.506  46.255  1.00  0.00    +0.000 C 
BRANCH   21   20
ATOM    113  H21 UNL A   1      31.772  44.539  45.790  1.00  0.00    +0.000 H 
ATOM     20  C17 UNL A   1      31.957  43.927  46.648  1.00  0.00    +0.000 C 
ATOM    112  H20 UNL A   1      32.987  43.896  46.939  1.00  0.00    +0.000 H 
BRANCH   20   19
ATOM     19  C16 UNL A   1      31.160  44.557  47.796  1.00  0.00    +0.000 C 
ATOM    110  H18 UNL A   1      31.155  45.618  47.660  1.00  0.00    +0.000 H 
ATOM    111  H19 UNL A   1      30.179  44.132  47.761  1.00  0.00    +0.000 H 
BRANCH   19   18
ATOM     18  C15 UNL A   1      31.725  44.253  49.185  1.00  0.00    +0.000 C 
ATOM    108  H16 UNL A   1      32.700  43.826  49.075  1.00  0.00    +0.000 H 
ATOM    109  H17 UNL A   1      31.764  45.169  49.736  1.00  0.00    +0.000 H 
BRANCH   18   17
ATOM     17  N1  UNL A   1      30.889  43.326  49.918  1.00  0.00    +0.000 N 
ATOM    107  H15 UNL A   1      30.482  43.699  50.732  1.00  0.00    +0.000 H 
BRANCH   17   15
ATOM     15  C14 UNL A   1      30.569  42.025  49.673  1.00  0.00    +0.000 C 
ATOM     16  O1  UNL A   1      31.510  41.223  49.645  1.00  0.00    +0.000 O 
BRANCH   15   13
ATOM     13  C12 UNL A   1      29.136  41.536  49.415  1.00  0.00    +0.000 C 
ATOM    103  H11 UNL A   1      28.772  41.201  50.364  1.00  0.00    +0.000 H 
BRANCH   13   12
ATOM    101  H9  UNL A   1      25.904  44.787  50.301  1.00  0.00    +0.000 H 
ATOM    102  H10 UNL A   1      27.562  43.179  50.990  1.00  0.00    +0.000 H 
ATOM    135  H43 UNL A   1      28.552  42.489  46.977  1.00  0.00    +0.000 H 
ATOM    136  H44 UNL A   1      27.010  44.215  46.301  1.00  0.00    +0.000 H 
ATOM      9  C8  UNL A   1      26.281  44.645  48.233  1.00  0.00    +0.000 C 
ATOM     10  C9  UNL A   1      26.474  44.313  49.583  1.00  0.00    +0.000 C 
ATOM     11  C10 UNL A   1      27.420  43.360  49.985  1.00  0.00    +0.000 C 
ATOM     12  C11 UNL A   1      28.173  42.652  49.045  1.00  0.00    +0.000 C 
ATOM     90  C66 UNL A   1      27.999  42.983  47.695  1.00  0.00    +0.000 C 
ATOM     91  C67 UNL A   1      27.089  43.973  47.300  1.00  0.00    +0.000 C 
BRANCH    9    8
ATOM     98  H6  UNL A   1      22.643  48.247  46.677  1.00  0.00    +0.000 H 
ATOM     99  H7  UNL A   1      22.569  45.988  45.801  1.00  0.00    +0.000 H 
ATOM      4  C3  UNL A   1      24.327  47.909  47.901  1.00  0.00    +0.000 C 
ATOM      5  C4  UNL A   1      23.340  47.551  46.984  1.00  0.00    +0.000 C 
ATOM      6  C5  UNL A   1      23.297  46.253  46.482  1.00  0.00    +0.000 C 
ATOM      7  C6  UNL A   1      24.240  45.308  46.899  1.00  0.00    +0.000 C 
ATOM      8  C7  UNL A   1      25.258  45.636  47.815  1.00  0.00    +0.000 C 
ATOM    137  H45 UNL A   1      25.994  47.227  48.991  1.00  0.00    +0.000 H 
ATOM    100  H8  UNL A   1      24.189  44.348  46.527  1.00  0.00    +0.000 H 
ATOM     92  C68 UNL A   1      25.270  46.955  48.309  1.00  0.00    +0.000 C 
BRANCH    4    3
ATOM      3  S1  UNL A   1      24.337  49.542  48.612  1.00  0.00    +0.000 S 
BRANCH    3    2
ATOM     97  H5  UNL A   1      26.288  48.608  49.602  1.00  0.00    +0.000 H 
ATOM      2  C2  UNL A   1      26.027  49.601  49.296  1.00  0.00    +0.000 C 
ATOM     96  H4  UNL A   1      26.040  50.283  50.121  1.00  0.00    +0.000 H 
BRANCH    2    1
ATOM      1  C1  UNL A   1      27.056  50.053  48.275  1.00  0.00    +0.000 C 
ATOM     93  H1  UNL A   1      26.578  50.657  47.532  1.00  0.00    +0.000 H 
ATOM     94  H2  UNL A   1      27.496  49.196  47.809  1.00  0.00    +0.000 H 
ATOM     95  H3  UNL A   1      27.817  50.624  48.764  1.00  0.00    +0.000 H 
ENDBRANCH    2    1
ENDBRANCH    3    2
ENDBRANCH    4    3
ENDBRANCH    9    8
ENDBRANCH   13   12
BRANCH   13   14
ATOM    105  H13 UNL A   1      29.855  40.238  47.875  1.00  0.00    +0.000 H 
ATOM    106  H14 UNL A   1      28.117  40.249  48.043  1.00  0.00    +0.000 H 
ATOM     14  C13 UNL A   1      29.045  40.261  48.573  1.00  0.00    +0.000 C 
ATOM    104  H12 UNL A   1      29.102  39.406  49.213  1.00  0.00    +0.000 H 
ENDBRANCH   13   14
ENDBRANCH   15   13
ENDBRANCH   17   15
ENDBRANCH   18   17
ENDBRANCH   19   18
ENDBRANCH   20   19
ENDBRANCH   21   20
ENDBRANCH   22   21
ENDBRANCH   23   22
ENDBRANCH   24   23
ENDBRANCH   25   24
ENDBRANCH   27   25
ENDBRANCH   31   30
BRANCH   35   36
ATOM     36  C30 UNL A   1      21.522  33.657  46.267  1.00  0.00    +0.000 C 
ATOM     37  C31 UNL A   1      22.043  32.568  46.978  1.00  0.00    +0.000 C 
ATOM     38  F1  UNL A   1      22.587  32.750  48.190  1.00  0.00    +0.000 F 
ATOM     39  C32 UNL A   1      22.040  31.287  46.431  1.00  0.00    +0.000 C 
ATOM     40  F2  UNL A   1      22.582  30.267  47.112  1.00  0.00    +0.000 F 
ATOM     41  C33 UNL A   1      21.486  31.067  45.179  1.00  0.00    +0.000 C 
ATOM     42  F3  UNL A   1      21.476  29.832  44.656  1.00  0.00    +0.000 F 
ATOM     43  C34 UNL A   1      20.948  32.127  44.465  1.00  0.00    +0.000 C 
ATOM     44  F4  UNL A   1      20.403  31.914  43.260  1.00  0.00    +0.000 F 
ATOM     45  C35 UNL A   1      20.974  33.414  44.998  1.00  0.00    +0.000 C 
ATOM     46  F5  UNL A   1      20.457  34.420  44.279  1.00  0.00    +0.000 F 
ENDBRANCH   35   36
BRANCH   52   53
ATOM     53  C41 UNL A   1      16.983  37.819  50.011  1.00  0.00    +0.000 C 
ATOM     54  C42 UNL A   1      15.822  37.781  49.227  1.00  0.00    +0.000 C 
ATOM     55  F6  UNL A   1      15.904  37.895  47.893  1.00  0.00    +0.000 F 
ATOM     56  C43 UNL A   1      14.566  37.661  49.816  1.00  0.00    +0.000 C 
ATOM     57  F7  UNL A   1      13.465  37.671  49.050  1.00  0.00    +0.000 F 
ATOM     58  C44 UNL A   1      14.450  37.548  51.194  1.00  0.00    +0.000 C 
ATOM     59  F8  UNL A   1      13.241  37.428  51.757  1.00  0.00    +0.000 F 
ATOM     60  C45 UNL A   1      15.587  37.567  51.986  1.00  0.00    +0.000 C 
ATOM     61  F9  UNL A   1      15.478  37.446  53.316  1.00  0.00    +0.000 F 
ATOM     62  C46 UNL A   1      16.843  37.712  51.403  1.00  0.00    +0.000 C 
ATOM     63  F10 UNL A   1      17.924  37.738  52.195  1.00  0.00    +0.000 F 
ENDBRANCH   52   53
BRANCH   67   68
ATOM     68  C50 UNL A   1      21.585  43.035  49.672  1.00  0.00    +0.000 C 
ATOM     69  C51 UNL A   1      21.072  44.056  48.860  1.00  0.00    +0.000 C 
ATOM     70  F11 UNL A   1      20.609  43.769  47.635  1.00  0.00    +0.000 F 
ATOM     71  C52 UNL A   1      21.070  45.382  49.289  1.00  0.00    +0.000 C 
ATOM     72  F12 UNL A   1      20.611  46.345  48.476  1.00  0.00    +0.000 F 
ATOM     73  C53 UNL A   1      21.552  45.708  50.547  1.00  0.00    +0.000 C 
ATOM     74  F13 UNL A   1      21.546  46.982  50.960  1.00  0.00    +0.000 F 
ATOM     75  C54 UNL A   1      22.050  44.711  51.374  1.00  0.00    +0.000 C 
ATOM     76  F14 UNL A   1      22.505  45.020  52.595  1.00  0.00    +0.000 F 
ATOM     77  C55 UNL A   1      22.076  43.389  50.936  1.00  0.00    +0.000 C 
ATOM     78  F15 UNL A   1      22.571  42.446  51.752  1.00  0.00    +0.000 F 
ENDBRANCH   67   68
TORSDOF 21
ENDMDL
MODEL 6
REMARK VINA RESULT:      -7.3     51.259     54.336
ROOT
ATOM    129  H37 UNL A   1      31.115  65.766   2.270  1.00  0.00    +0.000 H 
ATOM    130  H38 UNL A   1      29.876  67.204   3.985  1.00  0.00    +0.000 H 
ATOM    131  H39 UNL A   1      21.197  62.752   1.573  1.00  0.00    +0.000 H 
ATOM    132  H40 UNL A   1      22.474  61.006   0.204  1.00  0.00    +0.000 H 
ATOM     31  C26 UNL A   1      25.272  61.521   0.013  1.00  0.00    +0.000 C 
ATOM     32  C27 UNL A   1      24.252  62.268   0.828  1.00  0.00    +0.000 C 
ATOM     33  N3  UNL A   1      24.418  63.299   1.618  1.00  0.00    +0.000 N 
ATOM     34  C28 UNL A   1      23.152  63.625   2.086  1.00  0.00    +0.000 C 
ATOM     35  C29 UNL A   1      22.801  64.588   2.971  1.00  0.00    +0.000 C 
ATOM     47  C36 UNL A   1      23.733  65.473   3.620  1.00  0.00    +0.000 C 
ATOM     48  C37 UNL A   1      23.482  66.431   4.588  1.00  0.00    +0.000 C 
ATOM     49  C38 UNL A   1      24.689  67.073   4.891  1.00  0.00    +0.000 C 
ATOM     50  C39 UNL A   1      25.697  66.486   4.144  1.00  0.00    +0.000 C 
ATOM     51  N4  UNL A   1      25.096  65.509   3.366  1.00  0.00    +0.000 N 
ATOM     52  C40 UNL A   1      27.103  66.793   4.138  1.00  0.00    +0.000 C 
ATOM     64  C47 UNL A   1      28.034  66.161   3.382  1.00  0.00    +0.000 C 
ATOM     65  N5  UNL A   1      27.863  65.116   2.483  1.00  0.00    +0.000 N 
ATOM     66  C48 UNL A   1      29.053  64.864   1.995  1.00  0.00    +0.000 C 
ATOM     67  C49 UNL A   1      29.468  63.817   0.999  1.00  0.00    +0.000 C 
ATOM     79  C56 UNL A   1      28.544  62.963   0.518  1.00  0.00    +0.000 C 
ATOM     80  C57 UNL A   1      28.800  61.893  -0.442  1.00  0.00    +0.000 C 
ATOM     81  C58 UNL A   1      27.642  61.275  -0.726  1.00  0.00    +0.000 C 
ATOM     82  C59 UNL A   1      26.567  61.887   0.054  1.00  0.00    +0.000 C 
ATOM     83  N6  UNL A   1      27.197  62.873   0.773  1.00  0.00    +0.000 N 
ATOM     84  C60 UNL A   1      30.113  65.739   2.516  1.00  0.00    +0.000 C 
ATOM     85  C61 UNL A   1      29.445  66.485   3.384  1.00  0.00    +0.000 C 
ATOM     86  C62 UNL A   1      22.222  62.711   1.459  1.00  0.00    +0.000 C 
ATOM     87  C63 UNL A   1      22.858  61.813   0.720  1.00  0.00    +0.000 C 
ATOM    123  H31 UNL A   1      22.565  66.637   5.013  1.00  0.00    +0.000 H 
ATOM    124  H32 UNL A   1      24.806  67.851   5.559  1.00  0.00    +0.000 H 
ATOM    125  H33 UNL A   1      25.567  64.925   2.729  1.00  0.00    +0.000 H 
ATOM    126  H34 UNL A   1      29.721  61.650  -0.836  1.00  0.00    +0.000 H 
ATOM    127  H35 UNL A   1      27.529  60.493  -1.392  1.00  0.00    +0.000 H 
ATOM    128  H36 UNL A   1      26.729  63.458   1.410  1.00  0.00    +0.000 H 
ENDROOT
BRANCH   31   30
ATOM    133  H41 UNL A   1      24.749  58.965   0.631  1.00  0.00    +0.000 H 
ATOM    134  H42 UNL A   1      24.116  57.148  -0.843  1.00  0.00    +0.000 H 
ATOM     29  C24 UNL A   1      24.668  60.652  -2.269  1.00  0.00    +0.000 C 
ATOM     88  C64 UNL A   1      24.620  59.142  -0.378  1.00  0.00    +0.000 C 
ATOM     89  C65 UNL A   1      24.219  58.104  -1.218  1.00  0.00    +0.000 C 
ATOM    122  H30 UNL A   1      24.875  61.581  -2.668  1.00  0.00    +0.000 H 
ATOM     27  C22 UNL A   1      23.955  58.358  -2.566  1.00  0.00    +0.000 C 
ATOM     28  C23 UNL A   1      24.207  59.626  -3.098  1.00  0.00    +0.000 C 
ATOM    121  H29 UNL A   1      24.052  59.805  -4.103  1.00  0.00    +0.000 H 
ATOM     30  C25 UNL A   1      24.851  60.425  -0.896  1.00  0.00    +0.000 C 
BRANCH   27   25
ATOM     25  C21 UNL A   1      23.461  57.292  -3.469  1.00  0.00    +0.000 C 
ATOM     26  O2  UNL A   1      24.036  57.082  -4.529  1.00  0.00    +0.000 O 
BRANCH   25   24
ATOM    120  H28 UNL A   1      22.446  55.574  -3.306  1.00  0.00    +0.000 H 
ATOM     24  N2  UNL A   1      22.366  56.538  -3.122  1.00  0.00    +0.000 N 
BRANCH   24   23
ATOM    119  H27 UNL A   1      21.312  57.306  -1.535  1.00  0.00    +0.000 H 
ATOM    118  H26 UNL A   1      20.441  56.117  -2.509  1.00  0.00    +0.000 H 
ATOM     23  C20 UNL A   1      21.107  56.954  -2.525  1.00  0.00    +0.000 C 
BRANCH   23   22
ATOM    116  H24 UNL A   1      20.983  58.216  -4.224  1.00  0.00    +0.000 H 
ATOM    117  H25 UNL A   1      19.427  57.810  -3.440  1.00  0.00    +0.000 H 
ATOM     22  C19 UNL A   1      20.450  58.093  -3.303  1.00  0.00    +0.000 C 
BRANCH   22   21
ATOM    114  H22 UNL A   1      21.175  60.068  -3.029  1.00  0.00    +0.000 H 
ATOM    115  H23 UNL A   1      19.432  59.815  -2.686  1.00  0.00    +0.000 H 
ATOM     21  C18 UNL A   1      20.430  59.444  -2.581  1.00  0.00    +0.000 C 
BRANCH   21   20
ATOM    113  H21 UNL A   1      21.294  60.260  -0.850  1.00  0.00    +0.000 H 
ATOM     20  C17 UNL A   1      20.701  59.397  -1.072  1.00  0.00    +0.000 C 
ATOM    112  H20 UNL A   1      21.191  58.471  -0.852  1.00  0.00    +0.000 H 
BRANCH   20   19
ATOM     19  C16 UNL A   1      19.459  59.497  -0.178  1.00  0.00    +0.000 C 
ATOM    110  H18 UNL A   1      18.615  59.146  -0.734  1.00  0.00    +0.000 H 
ATOM    111  H19 UNL A   1      19.655  58.905   0.691  1.00  0.00    +0.000 H 
BRANCH   19   18
ATOM     18  C15 UNL A   1      19.157  60.915   0.310  1.00  0.00    +0.000 C 
ATOM    108  H16 UNL A   1      18.658  60.856   1.255  1.00  0.00    +0.000 H 
ATOM    109  H17 UNL A   1      20.085  61.441   0.395  1.00  0.00    +0.000 H 
BRANCH   18   17
ATOM     17  N1  UNL A   1      18.316  61.640  -0.619  1.00  0.00    +0.000 N 
ATOM    107  H15 UNL A   1      17.593  61.105  -1.018  1.00  0.00    +0.000 H 
BRANCH   17   15
ATOM     15  C14 UNL A   1      18.354  62.936  -1.034  1.00  0.00    +0.000 C 
ATOM     16  O1  UNL A   1      17.765  63.759  -0.321  1.00  0.00    +0.000 O 
BRANCH   15   13
ATOM     13  C12 UNL A   1      19.054  63.398  -2.321  1.00  0.00    +0.000 C 
ATOM    103  H11 UNL A   1      18.619  64.346  -2.560  1.00  0.00    +0.000 H 
BRANCH   13   12
ATOM    101  H9  UNL A   1      22.636  65.917  -0.701  1.00  0.00    +0.000 H 
ATOM    102  H10 UNL A   1      20.298  65.335  -0.787  1.00  0.00    +0.000 H 
ATOM    135  H43 UNL A   1      21.189  62.160  -3.372  1.00  0.00    +0.000 H 
ATOM    136  H44 UNL A   1      23.540  62.642  -3.153  1.00  0.00    +0.000 H 
ATOM      9  C8  UNL A   1      23.315  64.349  -1.934  1.00  0.00    +0.000 C 
ATOM     10  C9  UNL A   1      22.340  65.103  -1.263  1.00  0.00    +0.000 C 
ATOM     11  C10 UNL A   1      20.977  64.783  -1.331  1.00  0.00    +0.000 C 
ATOM     12  C11 UNL A   1      20.525  63.726  -2.125  1.00  0.00    +0.000 C 
ATOM     90  C66 UNL A   1      21.489  62.957  -2.790  1.00  0.00    +0.000 C 
ATOM     91  C67 UNL A   1      22.855  63.249  -2.678  1.00  0.00    +0.000 C 
BRANCH    9    8
ATOM     98  H6  UNL A   1      28.489  65.707  -1.789  1.00  0.00    +0.000 H 
ATOM     99  H7  UNL A   1      26.937  66.658  -0.189  1.00  0.00    +0.000 H 
ATOM      4  C3  UNL A   1      27.038  64.529  -2.766  1.00  0.00    +0.000 C 
ATOM      5  C4  UNL A   1      27.493  65.438  -1.813  1.00  0.00    +0.000 C 
ATOM      6  C5  UNL A   1      26.601  65.984  -0.893  1.00  0.00    +0.000 C 
ATOM      7  C6  UNL A   1      25.252  65.618  -0.923  1.00  0.00    +0.000 C 
ATOM      8  C7  UNL A   1      24.754  64.712  -1.878  1.00  0.00    +0.000 C 
ATOM    137  H45 UNL A   1      25.355  63.496  -3.496  1.00  0.00    +0.000 H 
ATOM    100  H8  UNL A   1      24.605  66.023  -0.228  1.00  0.00    +0.000 H 
ATOM     92  C68 UNL A   1      25.682  64.173  -2.790  1.00  0.00    +0.000 C 
BRANCH    4    3
ATOM      3  S1  UNL A   1      28.187  63.761  -3.891  1.00  0.00    +0.000 S 
BRANCH    3    2
ATOM     97  H5  UNL A   1      26.933  62.563  -5.518  1.00  0.00    +0.000 H 
ATOM      2  C2  UNL A   1      27.183  62.364  -4.497  1.00  0.00    +0.000 C 
ATOM     96  H4  UNL A   1      26.308  62.280  -3.886  1.00  0.00    +0.000 H 
BRANCH    2    1
ATOM      1  C1  UNL A   1      27.933  61.044  -4.456  1.00  0.00    +0.000 C 
ATOM     93  H1  UNL A   1      27.260  60.245  -4.690  1.00  0.00    +0.000 H 
ATOM     94  H2  UNL A   1      28.338  60.894  -3.477  1.00  0.00    +0.000 H 
ATOM     95  H3  UNL A   1      28.727  61.063  -5.172  1.00  0.00    +0.000 H 
ENDBRANCH    2    1
ENDBRANCH    3    2
ENDBRANCH    4    3
ENDBRANCH    9    8
ENDBRANCH   13   12
BRANCH   13   14
ATOM    105  H13 UNL A   1      19.500  62.649  -4.274  1.00  0.00    +0.000 H 
ATOM    106  H14 UNL A   1      17.800  62.936  -3.992  1.00  0.00    +0.000 H 
ATOM     14  C13 UNL A   1      18.707  62.570  -3.560  1.00  0.00    +0.000 C 
ATOM    104  H12 UNL A   1      18.581  61.545  -3.280  1.00  0.00    +0.000 H 
ENDBRANCH   13   14
ENDBRANCH   15   13
ENDBRANCH   17   15
ENDBRANCH   18   17
ENDBRANCH   19   18
ENDBRANCH   20   19
ENDBRANCH   21   20
ENDBRANCH   22   21
ENDBRANCH   23   22
ENDBRANCH   24   23
ENDBRANCH   25   24
ENDBRANCH   27   25
ENDBRANCH   31   30
BRANCH   35   36
ATOM     36  C30 UNL A   1      21.344  64.735   3.299  1.00  0.00    +0.000 C 
ATOM     37  C31 UNL A   1      20.766  64.070   4.390  1.00  0.00    +0.000 C 
ATOM     38  F1  UNL A   1      21.502  63.235   5.139  1.00  0.00    +0.000 F 
ATOM     39  C32 UNL A   1      19.417  64.233   4.697  1.00  0.00    +0.000 C 
ATOM     40  F2  UNL A   1      18.877  63.555   5.719  1.00  0.00    +0.000 F 
ATOM     41  C33 UNL A   1      18.631  65.088   3.940  1.00  0.00    +0.000 C 
ATOM     42  F3  UNL A   1      17.335  65.251   4.240  1.00  0.00    +0.000 F 
ATOM     43  C34 UNL A   1      19.185  65.771   2.867  1.00  0.00    +0.000 C 
ATOM     44  F4  UNL A   1      18.428  66.605   2.142  1.00  0.00    +0.000 F 
ATOM     45  C35 UNL A   1      20.527  65.588   2.542  1.00  0.00    +0.000 C 
ATOM     46  F5  UNL A   1      21.032  66.252   1.492  1.00  0.00    +0.000 F 
ENDBRANCH   35   36
BRANCH   52   53
ATOM     53  C41 UNL A   1      27.586  67.882   5.049  1.00  0.00    +0.000 C 
ATOM     54  C42 UNL A   1      27.833  69.178   4.576  1.00  0.00    +0.000 C 
ATOM     55  F6  UNL A   1      27.688  69.460   3.273  1.00  0.00    +0.000 F 
ATOM     56  C43 UNL A   1      28.265  70.183   5.438  1.00  0.00    +0.000 C 
ATOM     57  F7  UNL A   1      28.537  71.405   4.957  1.00  0.00    +0.000 F 
ATOM     58  C44 UNL A   1      28.430  69.919   6.790  1.00  0.00    +0.000 C 
ATOM     59  F8  UNL A   1      28.841  70.888   7.617  1.00  0.00    +0.000 F 
ATOM     60  C45 UNL A   1      28.175  68.648   7.281  1.00  0.00    +0.000 C 
ATOM     61  F9  UNL A   1      28.323  68.393   8.589  1.00  0.00    +0.000 F 
ATOM     62  C46 UNL A   1      27.767  67.634   6.418  1.00  0.00    +0.000 C 
ATOM     63  F10 UNL A   1      27.540  66.411   6.920  1.00  0.00    +0.000 F 
ENDBRANCH   52   53
BRANCH   67   68
ATOM     68  C50 UNL A   1      30.882  63.698   0.562  1.00  0.00    +0.000 C 
ATOM     69  C51 UNL A   1      31.752  62.792   1.185  1.00  0.00    +0.000 C 
ATOM     70  F11 UNL A   1      31.315  62.037   2.202  1.00  0.00    +0.000 F 
ATOM     71  C52 UNL A   1      33.084  62.689   0.790  1.00  0.00    +0.000 C 
ATOM     72  F12 UNL A   1      33.905  61.843   1.430  1.00  0.00    +0.000 F 
ATOM     73  C53 UNL A   1      33.564  63.466  -0.252  1.00  0.00    +0.000 C 
ATOM     74  F13 UNL A   1      34.843  63.362  -0.634  1.00  0.00    +0.000 F 
ATOM     75  C54 UNL A   1      32.716  64.358  -0.894  1.00  0.00    +0.000 C 
ATOM     76  F14 UNL A   1      33.173  65.102  -1.910  1.00  0.00    +0.000 F 
ATOM     77  C55 UNL A   1      31.391  64.481  -0.483  1.00  0.00    +0.000 C 
ATOM     78  F15 UNL A   1      30.596  65.358  -1.115  1.00  0.00    +0.000 F 
ENDBRANCH   67   68
TORSDOF 21
ENDMDL
MODEL 7
REMARK VINA RESULT:      -7.2     22.002     29.586
ROOT
ATOM    129  H37 UNL A   1      38.669  26.708  29.479  1.00  0.00    +0.000 H 
ATOM    130  H38 UNL A   1      39.634  24.606  28.386  1.00  0.00    +0.000 H 
ATOM    131  H39 UNL A   1      47.882  29.683  25.711  1.00  0.00    +0.000 H 
ATOM    132  H40 UNL A   1      47.149  31.647  27.182  1.00  0.00    +0.000 H 
ATOM     31  C26 UNL A   1      44.565  31.310  28.338  1.00  0.00    +0.000 C 
ATOM     32  C27 UNL A   1      45.347  30.314  27.527  1.00  0.00    +0.000 C 
ATOM     33  N3  UNL A   1      45.022  29.095  27.178  1.00  0.00    +0.000 N 
ATOM     34  C28 UNL A   1      46.073  28.632  26.396  1.00  0.00    +0.000 C 
ATOM     35  C29 UNL A   1      46.235  27.409  25.838  1.00  0.00    +0.000 C 
ATOM     47  C36 UNL A   1      45.303  26.322  25.980  1.00  0.00    +0.000 C 
ATOM     48  C37 UNL A   1      45.414  25.023  25.514  1.00  0.00    +0.000 C 
ATOM     49  C38 UNL A   1      44.246  24.332  25.857  1.00  0.00    +0.000 C 
ATOM     50  C39 UNL A   1      43.426  25.188  26.573  1.00  0.00    +0.000 C 
ATOM     51  N4  UNL A   1      44.084  26.407  26.637  1.00  0.00    +0.000 N 
ATOM     52  C40 UNL A   1      42.137  24.919  27.154  1.00  0.00    +0.000 C 
ATOM     64  C47 UNL A   1      41.397  25.812  27.855  1.00  0.00    +0.000 C 
ATOM     65  N5  UNL A   1      41.692  27.133  28.168  1.00  0.00    +0.000 N 
ATOM     66  C48 UNL A   1      40.663  27.580  28.845  1.00  0.00    +0.000 C 
ATOM     67  C49 UNL A   1      40.448  28.936  29.459  1.00  0.00    +0.000 C 
ATOM     79  C56 UNL A   1      41.419  29.863  29.364  1.00  0.00    +0.000 C 
ATOM     80  C57 UNL A   1      41.357  31.213  29.916  1.00  0.00    +0.000 C 
ATOM     81  C58 UNL A   1      42.481  31.871  29.591  1.00  0.00    +0.000 C 
ATOM     82  C59 UNL A   1      43.357  30.979  28.831  1.00  0.00    +0.000 C 
ATOM     83  N6  UNL A   1      42.649  29.805  28.755  1.00  0.00    +0.000 N 
ATOM     84  C60 UNL A   1      39.585  26.596  29.019  1.00  0.00    +0.000 C 
ATOM     85  C61 UNL A   1      40.099  25.526  28.430  1.00  0.00    +0.000 C 
ATOM     86  C62 UNL A   1      47.025  29.716  26.285  1.00  0.00    +0.000 C 
ATOM     87  C63 UNL A   1      46.652  30.757  27.016  1.00  0.00    +0.000 C 
ATOM    123  H31 UNL A   1      46.220  24.630  25.002  1.00  0.00    +0.000 H 
ATOM    124  H32 UNL A   1      44.033  23.351  25.617  1.00  0.00    +0.000 H 
ATOM    125  H33 UNL A   1      43.739  27.213  27.086  1.00  0.00    +0.000 H 
ATOM    126  H34 UNL A   1      40.576  31.599  30.468  1.00  0.00    +0.000 H 
ATOM    127  H35 UNL A   1      42.693  32.852  29.837  1.00  0.00    +0.000 H 
ATOM    128  H36 UNL A   1      42.991  28.998  28.307  1.00  0.00    +0.000 H 
ENDROOT
BRANCH   31   30
ATOM    133  H41 UNL A   1      46.030  32.244  30.381  1.00  0.00    +0.000 H 
ATOM    134  H42 UNL A   1      46.840  34.496  30.762  1.00  0.00    +0.000 H 
ATOM     29  C24 UNL A   1      44.840  33.700  27.602  1.00  0.00    +0.000 C 
ATOM     88  C64 UNL A   1      45.842  32.982  29.685  1.00  0.00    +0.000 C 
ATOM     89  C65 UNL A   1      46.342  34.269  29.888  1.00  0.00    +0.000 C 
ATOM    122  H30 UNL A   1      44.249  33.505  26.779  1.00  0.00    +0.000 H 
ATOM     27  C22 UNL A   1      46.168  35.248  28.906  1.00  0.00    +0.000 C 
ATOM     28  C23 UNL A   1      45.392  34.972  27.776  1.00  0.00    +0.000 C 
ATOM    121  H29 UNL A   1      45.229  35.707  27.069  1.00  0.00    +0.000 H 
ATOM     30  C25 UNL A   1      45.085  32.687  28.542  1.00  0.00    +0.000 C 
BRANCH   27   25
ATOM     25  C21 UNL A   1      46.745  36.603  29.060  1.00  0.00    +0.000 C 
ATOM     26  O2  UNL A   1      46.063  37.586  28.799  1.00  0.00    +0.000 O 
BRANCH   25   24
ATOM    120  H28 UNL A   1      48.178  36.612  30.459  1.00  0.00    +0.000 H 
ATOM     24  N2  UNL A   1      48.038  36.764  29.496  1.00  0.00    +0.000 N 
BRANCH   24   23
ATOM    119  H27 UNL A   1      50.065  37.094  29.415  1.00  0.00    +0.000 H 
ATOM    118  H26 UNL A   1      49.097  38.107  28.340  1.00  0.00    +0.000 H 
ATOM     23  C20 UNL A   1      49.230  37.127  28.746  1.00  0.00    +0.000 C 
BRANCH   23   22
ATOM    116  H24 UNL A   1      48.692  36.212  26.911  1.00  0.00    +0.000 H 
ATOM    117  H25 UNL A   1      50.444  36.448  27.178  1.00  0.00    +0.000 H 
ATOM     22  C19 UNL A   1      49.507  36.153  27.601  1.00  0.00    +0.000 C 
BRANCH   22   21
ATOM    114  H22 UNL A   1      50.713  34.462  28.034  1.00  0.00    +0.000 H 
ATOM    115  H23 UNL A   1      49.193  34.606  28.977  1.00  0.00    +0.000 H 
ATOM     21  C18 UNL A   1      49.667  34.688  28.022  1.00  0.00    +0.000 C 
BRANCH   21   20
ATOM    113  H21 UNL A   1      48.689  34.182  26.234  1.00  0.00    +0.000 H 
ATOM     20  C17 UNL A   1      48.973  33.657  27.122  1.00  0.00    +0.000 C 
ATOM    112  H20 UNL A   1      48.144  33.250  27.664  1.00  0.00    +0.000 H 
BRANCH   20   19
ATOM     19  C16 UNL A   1      49.854  32.490  26.659  1.00  0.00    +0.000 C 
ATOM    110  H18 UNL A   1      49.279  31.590  26.718  1.00  0.00    +0.000 H 
ATOM    111  H19 UNL A   1      50.166  32.715  25.661  1.00  0.00    +0.000 H 
BRANCH   19   18
ATOM     18  C15 UNL A   1      51.125  32.304  27.489  1.00  0.00    +0.000 C 
ATOM    108  H16 UNL A   1      51.972  32.323  26.834  1.00  0.00    +0.000 H 
ATOM    109  H17 UNL A   1      51.173  33.098  28.206  1.00  0.00    +0.000 H 
BRANCH   18   17
ATOM     17  N1  UNL A   1      51.122  31.050  28.212  1.00  0.00    +0.000 N 
ATOM    107  H15 UNL A   1      51.557  30.305  27.739  1.00  0.00    +0.000 H 
BRANCH   17   15
ATOM     15  C14 UNL A   1      50.621  30.725  29.436  1.00  0.00    +0.000 C 
ATOM     16  O1  UNL A   1      51.351  30.044  30.166  1.00  0.00    +0.000 O 
BRANCH   15   13
ATOM     13  C12 UNL A   1      49.221  31.136  29.918  1.00  0.00    +0.000 C 
ATOM    103  H11 UNL A   1      48.772  31.649  29.093  1.00  0.00    +0.000 H 
BRANCH   13   12
ATOM    101  H9  UNL A   1      45.718  28.868  32.012  1.00  0.00    +0.000 H 
ATOM    102  H10 UNL A   1      47.014  30.850  31.562  1.00  0.00    +0.000 H 
ATOM    135  H43 UNL A   1      49.268  28.727  28.738  1.00  0.00    +0.000 H 
ATOM    136  H44 UNL A   1      47.866  26.795  29.072  1.00  0.00    +0.000 H 
ATOM      9  C8  UNL A   1      46.678  27.631  30.601  1.00  0.00    +0.000 C 
ATOM     10  C9  UNL A   1      46.464  28.830  31.300  1.00  0.00    +0.000 C 
ATOM     11  C10 UNL A   1      47.232  29.977  31.058  1.00  0.00    +0.000 C 
ATOM     12  C11 UNL A   1      48.290  29.956  30.146  1.00  0.00    +0.000 C 
ATOM     90  C66 UNL A   1      48.504  28.770  29.431  1.00  0.00    +0.000 C 
ATOM     91  C67 UNL A   1      47.702  27.641  29.639  1.00  0.00    +0.000 C 
BRANCH    9    8
ATOM     98  H6  UNL A   1      43.738  23.285  31.651  1.00  0.00    +0.000 H 
ATOM     99  H7  UNL A   1      43.726  24.253  29.430  1.00  0.00    +0.000 H 
ATOM      4  C3  UNL A   1      45.093  24.690  32.451  1.00  0.00    +0.000 C 
ATOM      5  C4  UNL A   1      44.312  24.118  31.448  1.00  0.00    +0.000 C 
ATOM      6  C5  UNL A   1      44.306  24.674  30.171  1.00  0.00    +0.000 C 
ATOM      7  C6  UNL A   1      45.085  25.802  29.894  1.00  0.00    +0.000 C 
ATOM      8  C7  UNL A   1      45.877  26.414  30.883  1.00  0.00    +0.000 C 
ATOM    137  H45 UNL A   1      46.445  26.238  32.909  1.00  0.00    +0.000 H 
ATOM    100  H8  UNL A   1      45.078  26.196  28.940  1.00  0.00    +0.000 H 
ATOM     92  C68 UNL A   1      45.866  25.824  32.162  1.00  0.00    +0.000 C 
BRANCH    4    3
ATOM      3  S1  UNL A   1      45.173  23.935  34.063  1.00  0.00    +0.000 S 
BRANCH    3    2
ATOM     97  H5  UNL A   1      43.644  22.141  34.383  1.00  0.00    +0.000 H 
ATOM      2  C2  UNL A   1      43.515  23.181  34.163  1.00  0.00    +0.000 C 
ATOM     96  H4  UNL A   1      43.014  23.328  33.229  1.00  0.00    +0.000 H 
BRANCH    2    1
ATOM      1  C1  UNL A   1      42.666  23.782  35.270  1.00  0.00    +0.000 C 
ATOM     93  H1  UNL A   1      42.386  24.780  35.002  1.00  0.00    +0.000 H 
ATOM     94  H2  UNL A   1      43.228  23.802  36.180  1.00  0.00    +0.000 H 
ATOM     95  H3  UNL A   1      41.785  23.190  35.406  1.00  0.00    +0.000 H 
ENDBRANCH    2    1
ENDBRANCH    3    2
ENDBRANCH    4    3
ENDBRANCH    9    8
ENDBRANCH   13   12
BRANCH   13   14
ATOM    105  H13 UNL A   1      48.224  32.341  31.377  1.00  0.00    +0.000 H 
ATOM    106  H14 UNL A   1      49.562  33.139  30.587  1.00  0.00    +0.000 H 
ATOM     14  C13 UNL A   1      49.218  32.215  31.002  1.00  0.00    +0.000 C 
ATOM    104  H12 UNL A   1      49.865  31.920  31.801  1.00  0.00    +0.000 H 
ENDBRANCH   13   14
ENDBRANCH   15   13
ENDBRANCH   17   15
ENDBRANCH   18   17
ENDBRANCH   19   18
ENDBRANCH   20   19
ENDBRANCH   21   20
ENDBRANCH   22   21
ENDBRANCH   23   22
ENDBRANCH   24   23
ENDBRANCH   25   24
ENDBRANCH   27   25
ENDBRANCH   31   30
BRANCH   35   36
ATOM     36  C30 UNL A   1      47.473  27.175  25.022  1.00  0.00    +0.000 C 
ATOM     37  C31 UNL A   1      47.585  27.645  23.706  1.00  0.00    +0.000 C 
ATOM     38  F1  UNL A   1      46.553  28.273  23.123  1.00  0.00    +0.000 F 
ATOM     39  C32 UNL A   1      48.749  27.441  22.969  1.00  0.00    +0.000 C 
ATOM     40  F2  UNL A   1      48.818  27.862  21.698  1.00  0.00    +0.000 F 
ATOM     41  C33 UNL A   1      49.832  26.794  23.544  1.00  0.00    +0.000 C 
ATOM     42  F3  UNL A   1      50.955  26.604  22.836  1.00  0.00    +0.000 F 
ATOM     43  C34 UNL A   1      49.750  26.336  24.850  1.00  0.00    +0.000 C 
ATOM     44  F4  UNL A   1      50.800  25.719  25.410  1.00  0.00    +0.000 F 
ATOM     45  C35 UNL A   1      48.577  26.514  25.581  1.00  0.00    +0.000 C 
ATOM     46  F5  UNL A   1      48.524  26.050  26.838  1.00  0.00    +0.000 F 
ENDBRANCH   35   36
BRANCH   52   53
ATOM     53  C41 UNL A   1      41.571  23.539  26.992  1.00  0.00    +0.000 C 
ATOM     54  C42 UNL A   1      42.192  22.420  27.564  1.00  0.00    +0.000 C 
ATOM     55  F6  UNL A   1      43.347  22.557  28.232  1.00  0.00    +0.000 F 
ATOM     56  C43 UNL A   1      41.645  21.148  27.419  1.00  0.00    +0.000 C 
ATOM     57  F7  UNL A   1      42.279  20.085  27.936  1.00  0.00    +0.000 F 
ATOM     58  C44 UNL A   1      40.455  20.975  26.727  1.00  0.00    +0.000 C 
ATOM     59  F8  UNL A   1      39.929  19.751  26.594  1.00  0.00    +0.000 F 
ATOM     60  C45 UNL A   1      39.815  22.071  26.169  1.00  0.00    +0.000 C 
ATOM     61  F9  UNL A   1      38.659  21.908  25.510  1.00  0.00    +0.000 F 
ATOM     62  C46 UNL A   1      40.372  23.342  26.290  1.00  0.00    +0.000 C 
ATOM     63  F10 UNL A   1      39.737  24.381  25.730  1.00  0.00    +0.000 F 
ENDBRANCH   52   53
BRANCH   67   68
ATOM     68  C50 UNL A   1      39.194  29.252  30.187  1.00  0.00    +0.000 C 
ATOM     69  C51 UNL A   1      38.130  29.894  29.538  1.00  0.00    +0.000 C 
ATOM     70  F11 UNL A   1      38.247  30.249  28.251  1.00  0.00    +0.000 F 
ATOM     71  C52 UNL A   1      36.956  30.207  30.221  1.00  0.00    +0.000 C 
ATOM     72  F12 UNL A   1      35.969  30.858  29.587  1.00  0.00    +0.000 F 
ATOM     73  C53 UNL A   1      36.812  29.860  31.555  1.00  0.00    +0.000 C 
ATOM     74  F13 UNL A   1      35.682  30.158  32.209  1.00  0.00    +0.000 F 
ATOM     75  C54 UNL A   1      37.846  29.210  32.213  1.00  0.00    +0.000 C 
ATOM     76  F14 UNL A   1      37.707  28.861  33.499  1.00  0.00    +0.000 F 
ATOM     77  C55 UNL A   1      39.030  28.918  31.539  1.00  0.00    +0.000 C 
ATOM     78  F15 UNL A   1      40.017  28.297  32.201  1.00  0.00    +0.000 F 
ENDBRANCH   67   68
TORSDOF 21
ENDMDL
MODEL 8
REMARK VINA RESULT:      -7.2      4.186     12.698
ROOT
ATOM    129  H37 UNL A   1      19.218  34.430  46.927  1.00  0.00    +0.000 H 
ATOM    130  H38 UNL A   1      18.899  36.338  48.602  1.00  0.00    +0.000 H 
ATOM    131  H39 UNL A   1      28.662  38.631  47.981  1.00  0.00    +0.000 H 
ATOM    132  H40 UNL A   1      28.905  37.049  45.983  1.00  0.00    +0.000 H 
ATOM     31  C26 UNL A   1      26.543  35.561  45.405  1.00  0.00    +0.000 C 
ATOM     32  C27 UNL A   1      26.716  36.654  46.423  1.00  0.00    +0.000 C 
ATOM     33  N3  UNL A   1      25.838  37.157  47.254  1.00  0.00    +0.000 N 
ATOM     34  C28 UNL A   1      26.525  38.103  48.004  1.00  0.00    +0.000 C 
ATOM     35  C29 UNL A   1      26.045  38.932  48.961  1.00  0.00    +0.000 C 
ATOM     47  C36 UNL A   1      24.667  38.983  49.375  1.00  0.00    +0.000 C 
ATOM     48  C37 UNL A   1      24.070  39.839  50.285  1.00  0.00    +0.000 C 
ATOM     49  C38 UNL A   1      22.719  39.490  50.394  1.00  0.00    +0.000 C 
ATOM     50  C39 UNL A   1      22.466  38.444  49.523  1.00  0.00    +0.000 C 
ATOM     51  N4  UNL A   1      23.670  38.140  48.907  1.00  0.00    +0.000 N 
ATOM     52  C40 UNL A   1      21.220  37.769  49.269  1.00  0.00    +0.000 C 
ATOM     64  C47 UNL A   1      21.049  36.755  48.386  1.00  0.00    +0.000 C 
ATOM     65  N5  UNL A   1      21.987  36.158  47.553  1.00  0.00    +0.000 N 
ATOM     66  C48 UNL A   1      21.343  35.221  46.902  1.00  0.00    +0.000 C 
ATOM     67  C49 UNL A   1      21.854  34.276  45.850  1.00  0.00    +0.000 C 
ATOM     79  C56 UNL A   1      23.136  34.366  45.449  1.00  0.00    +0.000 C 
ATOM     80  C57 UNL A   1      23.766  33.527  44.435  1.00  0.00    +0.000 C 
ATOM     81  C58 UNL A   1      25.061  33.868  44.327  1.00  0.00    +0.000 C 
ATOM     82  C59 UNL A   1      25.343  34.971  45.245  1.00  0.00    +0.000 C 
ATOM     83  N6  UNL A   1      24.140  35.208  45.861  1.00  0.00    +0.000 N 
ATOM     84  C60 UNL A   1      19.924  35.102  47.267  1.00  0.00    +0.000 C 
ATOM     85  C61 UNL A   1      19.789  36.084  48.146  1.00  0.00    +0.000 C 
ATOM     86  C62 UNL A   1      27.901  38.074  47.561  1.00  0.00    +0.000 C 
ATOM     87  C63 UNL A   1      28.059  37.239  46.543  1.00  0.00    +0.000 C 
ATOM    123  H31 UNL A   1      24.540  40.604  50.794  1.00  0.00    +0.000 H 
ATOM    124  H32 UNL A   1      22.030  39.936  51.019  1.00  0.00    +0.000 H 
ATOM    125  H33 UNL A   1      23.798  37.432  48.234  1.00  0.00    +0.000 H 
ATOM    126  H34 UNL A   1      23.293  32.791  43.888  1.00  0.00    +0.000 H 
ATOM    127  H35 UNL A   1      25.747  33.422  43.697  1.00  0.00    +0.000 H 
ATOM    128  H36 UNL A   1      24.009  35.915  46.534  1.00  0.00    +0.000 H 
ENDROOT
BRANCH   31   30
ATOM    133  H41 UNL A   1      27.739  36.735  43.311  1.00  0.00    +0.000 H 
ATOM    134  H42 UNL A   1      29.600  35.934  41.982  1.00  0.00    +0.000 H 
ATOM     29  C24 UNL A   1      28.338  33.861  44.936  1.00  0.00    +0.000 C 
ATOM     88  C64 UNL A   1      28.194  35.841  43.551  1.00  0.00    +0.000 C 
ATOM     89  C65 UNL A   1      29.289  35.400  42.808  1.00  0.00    +0.000 C 
ATOM    122  H30 UNL A   1      27.963  33.269  45.693  1.00  0.00    +0.000 H 
ATOM     27  C22 UNL A   1      29.964  34.236  43.184  1.00  0.00    +0.000 C 
ATOM     28  C23 UNL A   1      29.472  33.451  44.231  1.00  0.00    +0.000 C 
ATOM    121  H29 UNL A   1      29.946  32.569  44.483  1.00  0.00    +0.000 H 
ATOM     30  C25 UNL A   1      27.707  35.074  44.620  1.00  0.00    +0.000 C 
BRANCH   27   25
ATOM     25  C21 UNL A   1      31.172  33.779  42.457  1.00  0.00    +0.000 C 
ATOM     26  O2  UNL A   1      32.143  33.380  43.088  1.00  0.00    +0.000 O 
BRANCH   25   24
ATOM    120  H28 UNL A   1      30.634  33.129  40.641  1.00  0.00    +0.000 H 
ATOM     24  N2  UNL A   1      31.207  33.796  41.084  1.00  0.00    +0.000 N 
BRANCH   24   23
ATOM    119  H27 UNL A   1      31.376  34.822  39.312  1.00  0.00    +0.000 H 
ATOM    118  H26 UNL A   1      32.889  34.167  39.946  1.00  0.00    +0.000 H 
ATOM     23  C20 UNL A   1      31.968  34.654  40.188  1.00  0.00    +0.000 C 
BRANCH   23   22
ATOM    116  H24 UNL A   1      32.005  35.967  41.851  1.00  0.00    +0.000 H 
ATOM    117  H25 UNL A   1      33.321  36.183  40.659  1.00  0.00    +0.000 H 
ATOM     22  C19 UNL A   1      32.276  36.011  40.817  1.00  0.00    +0.000 C 
BRANCH   22   21
ATOM    114  H22 UNL A   1      32.003  37.401  39.238  1.00  0.00    +0.000 H 
ATOM    115  H23 UNL A   1      30.518  36.907  40.116  1.00  0.00    +0.000 H 
ATOM     21  C18 UNL A   1      31.545  37.200  40.183  1.00  0.00    +0.000 C 
BRANCH   21   20
ATOM    113  H21 UNL A   1      30.596  38.951  40.850  1.00  0.00    +0.000 H 
ATOM     20  C17 UNL A   1      31.555  38.500  40.999  1.00  0.00    +0.000 C 
ATOM    112  H20 UNL A   1      32.370  39.101  40.653  1.00  0.00    +0.000 H 
BRANCH   20   19
ATOM     19  C16 UNL A   1      31.708  38.323  42.515  1.00  0.00    +0.000 C 
ATOM    110  H18 UNL A   1      31.745  37.275  42.729  1.00  0.00    +0.000 H 
ATOM    111  H19 UNL A   1      32.604  38.833  42.797  1.00  0.00    +0.000 H 
BRANCH   19   18
ATOM     18  C15 UNL A   1      30.571  38.940  43.330  1.00  0.00    +0.000 C 
ATOM    108  H16 UNL A   1      29.891  39.427  42.661  1.00  0.00    +0.000 H 
ATOM    109  H17 UNL A   1      30.085  38.155  43.871  1.00  0.00    +0.000 H 
BRANCH   18   17
ATOM     17  N1  UNL A   1      31.057  39.910  44.288  1.00  0.00    +0.000 N 
ATOM    107  H15 UNL A   1      31.305  40.779  43.900  1.00  0.00    +0.000 H 
BRANCH   17   15
ATOM     15  C14 UNL A   1      31.227  39.825  45.637  1.00  0.00    +0.000 C 
ATOM     16  O1  UNL A   1      30.416  40.447  46.334  1.00  0.00    +0.000 O 
BRANCH   15   13
ATOM     13  C12 UNL A   1      32.363  39.035  46.303  1.00  0.00    +0.000 C 
ATOM    103  H11 UNL A   1      32.526  39.507  47.249  1.00  0.00    +0.000 H 
BRANCH   13   12
ATOM    101  H9  UNL A   1      31.564  34.510  45.471  1.00  0.00    +0.000 H 
ATOM    102  H10 UNL A   1      32.402  36.682  44.847  1.00  0.00    +0.000 H 
ATOM    135  H43 UNL A   1      31.478  38.132  48.668  1.00  0.00    +0.000 H 
ATOM    136  H44 UNL A   1      30.792  35.920  49.341  1.00  0.00    +0.000 H 
ATOM      9  C8  UNL A   1      31.077  35.007  47.461  1.00  0.00    +0.000 C 
ATOM     10  C9  UNL A   1      31.554  35.272  46.167  1.00  0.00    +0.000 C 
ATOM     11  C10 UNL A   1      32.019  36.541  45.794  1.00  0.00    +0.000 C 
ATOM     12  C11 UNL A   1      31.971  37.616  46.683  1.00  0.00    +0.000 C 
ATOM     90  C66 UNL A   1      31.511  37.361  47.982  1.00  0.00    +0.000 C 
ATOM     91  C67 UNL A   1      31.094  36.080  48.367  1.00  0.00    +0.000 C 
BRANCH    9    8
ATOM     98  H6  UNL A   1      29.259  30.181  48.889  1.00  0.00    +0.000 H 
ATOM     99  H7  UNL A   1      27.898  32.152  49.259  1.00  0.00    +0.000 H 
ATOM      4  C3  UNL A   1      30.862  31.234  48.011  1.00  0.00    +0.000 C 
ATOM      5  C4  UNL A   1      29.607  31.110  48.606  1.00  0.00    +0.000 C 
ATOM      6  C5  UNL A   1      28.825  32.243  48.817  1.00  0.00    +0.000 C 
ATOM      7  C6  UNL A   1      29.295  33.502  48.432  1.00  0.00    +0.000 C 
ATOM      8  C7  UNL A   1      30.561  33.668  47.839  1.00  0.00    +0.000 C 
ATOM    137  H45 UNL A   1      32.253  32.584  47.189  1.00  0.00    +0.000 H 
ATOM    100  H8  UNL A   1      28.700  34.330  48.585  1.00  0.00    +0.000 H 
ATOM     92  C68 UNL A   1      31.325  32.502  47.633  1.00  0.00    +0.000 C 
BRANCH    4    3
ATOM      3  S1  UNL A   1      31.832  29.782  47.659  1.00  0.00    +0.000 S 
BRANCH    3    2
ATOM     97  H5  UNL A   1      30.185  28.147  47.138  1.00  0.00    +0.000 H 
ATOM      2  C2  UNL A   1      30.630  28.469  48.057  1.00  0.00    +0.000 C 
ATOM     96  H4  UNL A   1      29.899  28.866  48.730  1.00  0.00    +0.000 H 
BRANCH    2    1
ATOM      1  C1  UNL A   1      31.279  27.258  48.702  1.00  0.00    +0.000 C 
ATOM     93  H1  UNL A   1      31.501  26.529  47.950  1.00  0.00    +0.000 H 
ATOM     94  H2  UNL A   1      30.609  26.835  49.422  1.00  0.00    +0.000 H 
ATOM     95  H3  UNL A   1      32.184  27.554  49.189  1.00  0.00    +0.000 H 
ENDBRANCH    2    1
ENDBRANCH    3    2
ENDBRANCH    4    3
ENDBRANCH    9    8
ENDBRANCH   13   12
BRANCH   13   14
ATOM    105  H13 UNL A   1      33.603  39.178  44.566  1.00  0.00    +0.000 H 
ATOM    106  H14 UNL A   1      34.372  38.400  45.928  1.00  0.00    +0.000 H 
ATOM     14  C13 UNL A   1      33.727  39.199  45.629  1.00  0.00    +0.000 C 
ATOM    104  H12 UNL A   1      34.158  40.134  45.920  1.00  0.00    +0.000 H 
ENDBRANCH   13   14
ENDBRANCH   15   13
ENDBRANCH   17   15
ENDBRANCH   18   17
ENDBRANCH   19   18
ENDBRANCH   20   19
ENDBRANCH   21   20
ENDBRANCH   22   21
ENDBRANCH   23   22
ENDBRANCH   24   23
ENDBRANCH   25   24
ENDBRANCH   27   25
ENDBRANCH   31   30
BRANCH   35   36
ATOM     36  C30 UNL A   1      27.017  39.861  49.629  1.00  0.00    +0.000 C 
ATOM     37  C31 UNL A   1      27.682  39.502  50.810  1.00  0.00    +0.000 C 
ATOM     38  F1  UNL A   1      27.419  38.329  51.404  1.00  0.00    +0.000 F 
ATOM     39  C32 UNL A   1      28.599  40.364  51.406  1.00  0.00    +0.000 C 
ATOM     40  F2  UNL A   1      29.192  40.018  52.557  1.00  0.00    +0.000 F 
ATOM     41  C33 UNL A   1      28.892  41.584  50.816  1.00  0.00    +0.000 C 
ATOM     42  F3  UNL A   1      29.780  42.411  51.385  1.00  0.00    +0.000 F 
ATOM     43  C34 UNL A   1      28.258  41.953  49.638  1.00  0.00    +0.000 C 
ATOM     44  F4  UNL A   1      28.548  43.127  49.061  1.00  0.00    +0.000 F 
ATOM     45  C35 UNL A   1      27.321  41.104  49.054  1.00  0.00    +0.000 C 
ATOM     46  F5  UNL A   1      26.716  41.492  47.922  1.00  0.00    +0.000 F 
ENDBRANCH   35   36
BRANCH   52   53
ATOM     53  C41 UNL A   1      20.008  38.230  50.024  1.00  0.00    +0.000 C 
ATOM     54  C42 UNL A   1      19.571  37.573  51.182  1.00  0.00    +0.000 C 
ATOM     55  F6  UNL A   1      20.206  36.474  51.615  1.00  0.00    +0.000 F 
ATOM     56  C43 UNL A   1      18.454  38.023  51.880  1.00  0.00    +0.000 C 
ATOM     57  F7  UNL A   1      18.027  37.354  52.961  1.00  0.00    +0.000 F 
ATOM     58  C44 UNL A   1      17.773  39.154  51.452  1.00  0.00    +0.000 C 
ATOM     59  F8  UNL A   1      16.702  39.587  52.129  1.00  0.00    +0.000 F 
ATOM     60  C45 UNL A   1      18.199  39.828  50.319  1.00  0.00    +0.000 C 
ATOM     61  F9  UNL A   1      17.549  40.927  49.910  1.00  0.00    +0.000 F 
ATOM     62  C46 UNL A   1      19.300  39.366  49.603  1.00  0.00    +0.000 C 
ATOM     63  F10 UNL A   1      19.682  40.033  48.504  1.00  0.00    +0.000 F 
ENDBRANCH   52   53
BRANCH   67   68
ATOM     68  C50 UNL A   1      20.956  33.266  45.233  1.00  0.00    +0.000 C 
ATOM     69  C51 UNL A   1      20.042  33.633  44.236  1.00  0.00    +0.000 C 
ATOM     70  F11 UNL A   1      19.955  34.913  43.846  1.00  0.00    +0.000 F 
ATOM     71  C52 UNL A   1      19.186  32.694  43.665  1.00  0.00    +0.000 C 
ATOM     72  F12 UNL A   1      18.292  33.079  42.742  1.00  0.00    +0.000 F 
ATOM     73  C53 UNL A   1      19.248  31.366  44.058  1.00  0.00    +0.000 C 
ATOM     74  F13 UNL A   1      18.428  30.462  43.505  1.00  0.00    +0.000 F 
ATOM     75  C54 UNL A   1      20.157  30.977  45.031  1.00  0.00    +0.000 C 
ATOM     76  F14 UNL A   1      20.229  29.692  45.405  1.00  0.00    +0.000 F 
ATOM     77  C55 UNL A   1      20.995  31.920  45.621  1.00  0.00    +0.000 C 
ATOM     78  F15 UNL A   1      21.858  31.519  46.567  1.00  0.00    +0.000 F 
ENDBRANCH   67   68
TORSDOF 21
ENDMDL
MODEL 9
REMARK VINA RESULT:      -7.1     20.652     26.675
ROOT
ATOM    129  H37 UNL A   1      47.842  24.631  28.724  1.00  0.00    +0.000 H 
ATOM    130  H38 UNL A   1      45.817  23.472  27.676  1.00  0.00    +0.000 H 
ATOM    131  H39 UNL A   1      39.954  31.223  30.226  1.00  0.00    +0.000 H 
ATOM    132  H40 UNL A   1      42.029  32.584  30.857  1.00  0.00    +0.000 H 
ATOM     31  C26 UNL A   1      44.460  31.100  30.714  1.00  0.00    +0.000 C 
ATOM     32  C27 UNL A   1      43.084  30.654  30.303  1.00  0.00    +0.000 C 
ATOM     33  N3  UNL A   1      42.702  29.508  29.797  1.00  0.00    +0.000 N 
ATOM     34  C28 UNL A   1      41.324  29.601  29.646  1.00  0.00    +0.000 C 
ATOM     35  C29 UNL A   1      40.471  28.693  29.115  1.00  0.00    +0.000 C 
ATOM     47  C36 UNL A   1      40.870  27.419  28.578  1.00  0.00    +0.000 C 
ATOM     48  C37 UNL A   1      40.089  26.463  27.952  1.00  0.00    +0.000 C 
ATOM     49  C38 UNL A   1      40.904  25.371  27.634  1.00  0.00    +0.000 C 
ATOM     50  C39 UNL A   1      42.201  25.664  28.023  1.00  0.00    +0.000 C 
ATOM     51  N4  UNL A   1      42.165  26.922  28.605  1.00  0.00    +0.000 N 
ATOM     52  C40 UNL A   1      43.385  24.858  27.879  1.00  0.00    +0.000 C 
ATOM     64  C47 UNL A   1      44.628  25.224  28.277  1.00  0.00    +0.000 C 
ATOM     65  N5  UNL A   1      45.036  26.403  28.886  1.00  0.00    +0.000 N 
ATOM     66  C48 UNL A   1      46.325  26.276  29.087  1.00  0.00    +0.000 C 
ATOM     67  C49 UNL A   1      47.292  27.257  29.690  1.00  0.00    +0.000 C 
ATOM     79  C56 UNL A   1      46.848  28.468  30.074  1.00  0.00    +0.000 C 
ATOM     80  C57 UNL A   1      47.669  29.522  30.663  1.00  0.00    +0.000 C 
ATOM     81  C58 UNL A   1      46.885  30.571  30.962  1.00  0.00    +0.000 C 
ATOM     82  C59 UNL A   1      45.511  30.274  30.558  1.00  0.00    +0.000 C 
ATOM     83  N6  UNL A   1      45.586  29.009  30.030  1.00  0.00    +0.000 N 
ATOM     84  C60 UNL A   1      46.877  24.986  28.648  1.00  0.00    +0.000 C 
ATOM     85  C61 UNL A   1      45.809  24.399  28.128  1.00  0.00    +0.000 C 
ATOM     86  C62 UNL A   1      40.931  30.897  30.154  1.00  0.00    +0.000 C 
ATOM     87  C63 UNL A   1      41.988  31.611  30.516  1.00  0.00    +0.000 C 
ATOM    123  H31 UNL A   1      39.079  26.542  27.753  1.00  0.00    +0.000 H 
ATOM    124  H32 UNL A   1      40.592  24.496  27.185  1.00  0.00    +0.000 H 
ATOM    125  H33 UNL A   1      42.944  27.394  28.980  1.00  0.00    +0.000 H 
ATOM    126  H34 UNL A   1      48.687  29.470  30.823  1.00  0.00    +0.000 H 
ATOM    127  H35 UNL A   1      47.202  31.447  31.407  1.00  0.00    +0.000 H 
ATOM    128  H36 UNL A   1      44.809  28.534  29.655  1.00  0.00    +0.000 H 
ENDROOT
BRANCH   31   30
ATOM    133  H41 UNL A   1      44.868  33.474  29.536  1.00  0.00    +0.000 H 
ATOM    134  H42 UNL A   1      45.251  35.633  30.567  1.00  0.00    +0.000 H 
ATOM     29  C24 UNL A   1      44.643  32.558  32.756  1.00  0.00    +0.000 C 
ATOM     88  C64 UNL A   1      44.856  33.562  30.563  1.00  0.00    +0.000 C 
ATOM     89  C65 UNL A   1      45.040  34.812  31.155  1.00  0.00    +0.000 C 
ATOM    122  H30 UNL A   1      44.541  31.722  33.351  1.00  0.00    +0.000 H 
ATOM     27  C22 UNL A   1      44.936  34.951  32.541  1.00  0.00    +0.000 C 
ATOM     28  C23 UNL A   1      44.766  33.819  33.344  1.00  0.00    +0.000 C 
ATOM    121  H29 UNL A   1      44.730  33.915  34.372  1.00  0.00    +0.000 H 
ATOM     30  C25 UNL A   1      44.659  32.423  31.359  1.00  0.00    +0.000 C 
BRANCH   27   25
ATOM     25  C21 UNL A   1      45.057  36.276  33.193  1.00  0.00    +0.000 C 
ATOM     26  O2  UNL A   1      45.832  37.106  32.738  1.00  0.00    +0.000 O 
BRANCH   25   24
ATOM    120  H28 UNL A   1      44.814  36.718  35.131  1.00  0.00    +0.000 H 
ATOM     24  N2  UNL A   1      44.303  36.578  34.301  1.00  0.00    +0.000 N 
BRANCH   24   23
ATOM    119  H27 UNL A   1      42.432  36.628  33.453  1.00  0.00    +0.000 H 
ATOM    118  H26 UNL A   1      42.646  37.677  34.858  1.00  0.00    +0.000 H 
ATOM     23  C20 UNL A   1      42.861  36.721  34.430  1.00  0.00    +0.000 C 
BRANCH   23   22
ATOM    116  H24 UNL A   1      43.052  35.127  35.814  1.00  0.00    +0.000 H 
ATOM    117  H25 UNL A   1      41.586  36.136  35.987  1.00  0.00    +0.000 H 
ATOM     22  C19 UNL A   1      42.253  35.635  35.316  1.00  0.00    +0.000 C 
BRANCH   22   21
ATOM    114  H22 UNL A   1      40.388  34.895  34.627  1.00  0.00    +0.000 H 
ATOM    115  H23 UNL A   1      41.806  34.550  33.582  1.00  0.00    +0.000 H 
ATOM     21  C18 UNL A   1      41.412  34.589  34.576  1.00  0.00    +0.000 C 
BRANCH   21   20
ATOM    113  H21 UNL A   1      40.728  33.066  35.849  1.00  0.00    +0.000 H 
ATOM     20  C17 UNL A   1      41.504  33.156  35.118  1.00  0.00    +0.000 C 
ATOM    112  H20 UNL A   1      42.487  33.016  35.516  1.00  0.00    +0.000 H 
BRANCH   20   19
ATOM     19  C16 UNL A   1      41.247  32.048  34.089  1.00  0.00    +0.000 C 
ATOM    110  H18 UNL A   1      41.310  32.476  33.111  1.00  0.00    +0.000 H 
ATOM    111  H19 UNL A   1      41.987  31.294  34.257  1.00  0.00    +0.000 H 
BRANCH   19   18
ATOM     18  C15 UNL A   1      39.884  31.371  34.233  1.00  0.00    +0.000 C 
ATOM    108  H16 UNL A   1      40.006  30.316  34.105  1.00  0.00    +0.000 H 
ATOM    109  H17 UNL A   1      39.500  31.600  35.205  1.00  0.00    +0.000 H 
BRANCH   18   17
ATOM     17  N1  UNL A   1      38.934  31.853  33.252  1.00  0.00    +0.000 N 
ATOM    107  H15 UNL A   1      38.718  31.208  32.542  1.00  0.00    +0.000 H 
BRANCH   17   15
ATOM     15  C14 UNL A   1      38.288  33.047  33.146  1.00  0.00    +0.000 C 
ATOM     16  O1  UNL A   1      37.986  33.606  34.207  1.00  0.00    +0.000 O 
BRANCH   15   13
ATOM     13  C12 UNL A   1      37.909  33.692  31.804  1.00  0.00    +0.000 C 
ATOM    103  H11 UNL A   1      37.431  34.616  32.055  1.00  0.00    +0.000 H 
BRANCH   13   12
ATOM    101  H9  UNL A   1      42.294  35.184  31.207  1.00  0.00    +0.000 H 
ATOM    102  H10 UNL A   1      40.504  34.291  32.554  1.00  0.00    +0.000 H 
ATOM    135  H43 UNL A   1      38.073  34.043  29.150  1.00  0.00    +0.000 H 
ATOM    136  H44 UNL A   1      39.916  34.780  27.781  1.00  0.00    +0.000 H 
ATOM      9  C8  UNL A   1      41.274  35.088  29.365  1.00  0.00    +0.000 C 
ATOM     10  C9  UNL A   1      41.401  34.930  30.754  1.00  0.00    +0.000 C 
ATOM     11  C10 UNL A   1      40.354  34.435  31.544  1.00  0.00    +0.000 C 
ATOM     12  C11 UNL A   1      39.111  34.132  30.984  1.00  0.00    +0.000 C 
ATOM     90  C66 UNL A   1      38.975  34.273  29.596  1.00  0.00    +0.000 C 
ATOM     91  C67 UNL A   1      40.040  34.720  28.803  1.00  0.00    +0.000 C 
BRANCH    9    8
ATOM     98  H6  UNL A   1      45.305  37.066  26.454  1.00  0.00    +0.000 H 
ATOM     99  H7  UNL A   1      44.638  34.751  26.193  1.00  0.00    +0.000 H 
ATOM      4  C3  UNL A   1      43.848  37.507  27.914  1.00  0.00    +0.000 C 
ATOM      5  C4  UNL A   1      44.522  36.688  27.010  1.00  0.00    +0.000 C 
ATOM      6  C5  UNL A   1      44.138  35.358  26.860  1.00  0.00    +0.000 C 
ATOM      7  C6  UNL A   1      43.075  34.845  27.611  1.00  0.00    +0.000 C 
ATOM      8  C7  UNL A   1      42.379  35.639  28.541  1.00  0.00    +0.000 C 
ATOM    137  H45 UNL A   1      42.291  37.596  29.329  1.00  0.00    +0.000 H 
ATOM    100  H8  UNL A   1      42.796  33.861  27.480  1.00  0.00    +0.000 H 
ATOM     92  C68 UNL A   1      42.787  36.982  28.666  1.00  0.00    +0.000 C 
BRANCH    4    3
ATOM      3  S1  UNL A   1      44.277  39.231  28.051  1.00  0.00    +0.000 S 
BRANCH    3    2
ATOM     97  H5  UNL A   1      43.313  39.089  25.882  1.00  0.00    +0.000 H 
ATOM      2  C2  UNL A   1      43.460  39.901  26.564  1.00  0.00    +0.000 C 
ATOM     96  H4  UNL A   1      44.084  40.661  26.143  1.00  0.00    +0.000 H 
BRANCH    2    1
ATOM      1  C1  UNL A   1      42.098  40.500  26.865  1.00  0.00    +0.000 C 
ATOM     93  H1  UNL A   1      41.521  39.804  27.440  1.00  0.00    +0.000 H 
ATOM     94  H2  UNL A   1      41.589  40.710  25.947  1.00  0.00    +0.000 H 
ATOM     95  H3  UNL A   1      42.220  41.406  27.420  1.00  0.00    +0.000 H 
ENDBRANCH    2    1
ENDBRANCH    3    2
ENDBRANCH    4    3
ENDBRANCH    9    8
ENDBRANCH   13   12
BRANCH   13   14
ATOM    105  H13 UNL A   1      36.828  33.254  30.011  1.00  0.00    +0.000 H 
ATOM    106  H14 UNL A   1      35.853  33.212  31.460  1.00  0.00    +0.000 H 
ATOM     14  C13 UNL A   1      36.804  32.961  31.040  1.00  0.00    +0.000 C 
ATOM    104  H12 UNL A   1      36.959  31.905  31.114  1.00  0.00    +0.000 H 
ENDBRANCH   13   14
ENDBRANCH   15   13
ENDBRANCH   17   15
ENDBRANCH   18   17
ENDBRANCH   19   18
ENDBRANCH   20   19
ENDBRANCH   21   20
ENDBRANCH   22   21
ENDBRANCH   23   22
ENDBRANCH   24   23
ENDBRANCH   25   24
ENDBRANCH   27   25
ENDBRANCH   31   30
BRANCH   35   36
ATOM     36  C30 UNL A   1      39.012  29.046  29.082  1.00  0.00    +0.000 C 
ATOM     37  C31 UNL A   1      38.222  29.012  30.240  1.00  0.00    +0.000 C 
ATOM     38  F1  UNL A   1      38.748  28.603  31.405  1.00  0.00    +0.000 F 
ATOM     39  C32 UNL A   1      36.875  29.364  30.200  1.00  0.00    +0.000 C 
ATOM     40  F2  UNL A   1      36.129  29.284  31.310  1.00  0.00    +0.000 F 
ATOM     41  C33 UNL A   1      36.303  29.789  29.010  1.00  0.00    +0.000 C 
ATOM     42  F3  UNL A   1      35.009  30.137  28.973  1.00  0.00    +0.000 F 
ATOM     43  C34 UNL A   1      37.070  29.849  27.856  1.00  0.00    +0.000 C 
ATOM     44  F4  UNL A   1      36.521  30.269  26.709  1.00  0.00    +0.000 F 
ATOM     45  C35 UNL A   1      38.410  29.470  27.888  1.00  0.00    +0.000 C 
ATOM     46  F5  UNL A   1      39.123  29.527  26.754  1.00  0.00    +0.000 F 
ENDBRANCH   35   36
BRANCH   52   53
ATOM     53  C41 UNL A   1      43.244  23.518  27.220  1.00  0.00    +0.000 C 
ATOM     54  C42 UNL A   1      42.660  22.432  27.885  1.00  0.00    +0.000 C 
ATOM     55  F6  UNL A   1      42.259  22.556  29.159  1.00  0.00    +0.000 F 
ATOM     56  C43 UNL A   1      42.522  21.198  27.254  1.00  0.00    +0.000 C 
ATOM     57  F7  UNL A   1      42.001  20.159  27.924  1.00  0.00    +0.000 F 
ATOM     58  C44 UNL A   1      42.934  21.038  25.939  1.00  0.00    +0.000 C 
ATOM     59  F8  UNL A   1      42.794  19.851  25.333  1.00  0.00    +0.000 F 
ATOM     60  C45 UNL A   1      43.498  22.104  25.257  1.00  0.00    +0.000 C 
ATOM     61  F9  UNL A   1      43.886  21.955  23.983  1.00  0.00    +0.000 F 
ATOM     62  C46 UNL A   1      43.662  23.332  25.893  1.00  0.00    +0.000 C 
ATOM     63  F10 UNL A   1      44.221  24.343  25.212  1.00  0.00    +0.000 F 
ENDBRANCH   52   53
BRANCH   67   68
ATOM     68  C50 UNL A   1      48.729  26.914  29.841  1.00  0.00    +0.000 C 
ATOM     69  C51 UNL A   1      49.664  27.296  28.869  1.00  0.00    +0.000 C 
ATOM     70  F11 UNL A   1      49.260  27.959  27.777  1.00  0.00    +0.000 F 
ATOM     71  C52 UNL A   1      51.011  26.964  28.998  1.00  0.00    +0.000 C 
ATOM     72  F12 UNL A   1      51.878  27.306  28.033  1.00  0.00    +0.000 F 
ATOM     73  C53 UNL A   1      51.453  26.269  30.113  1.00  0.00    +0.000 C 
ATOM     74  F13 UNL A   1      52.749  25.954  30.238  1.00  0.00    +0.000 F 
ATOM     75  C54 UNL A   1      50.548  25.895  31.096  1.00  0.00    +0.000 C 
ATOM     76  F14 UNL A   1      50.973  25.235  32.181  1.00  0.00    +0.000 F 
ATOM     77  C55 UNL A   1      49.197  26.205  30.956  1.00  0.00    +0.000 C 
ATOM     78  F15 UNL A   1      48.342  25.823  31.916  1.00  0.00    +0.000 F 
ENDBRANCH   67   68
TORSDOF 21
ENDMDL
MODEL 10
REMARK VINA RESULT:      -7.1     20.275     26.333
ROOT
ATOM    129  H37 UNL A   1      47.630  24.484  29.246  1.00  0.00    +0.000 H 
ATOM    130  H38 UNL A   1      45.671  23.454  27.963  1.00  0.00    +0.000 H 
ATOM    131  H39 UNL A   1      39.800  31.185  30.556  1.00  0.00    +0.000 H 
ATOM    132  H40 UNL A   1      41.847  32.442  31.442  1.00  0.00    +0.000 H 
ATOM     31  C26 UNL A   1      44.247  30.902  31.393  1.00  0.00    +0.000 C 
ATOM     32  C27 UNL A   1      42.899  30.523  30.844  1.00  0.00    +0.000 C 
ATOM     33  N3  UNL A   1      42.534  29.424  30.232  1.00  0.00    +0.000 N 
ATOM     34  C28 UNL A   1      41.175  29.566  29.979  1.00  0.00    +0.000 C 
ATOM     35  C29 UNL A   1      40.347  28.720  29.321  1.00  0.00    +0.000 C 
ATOM     47  C36 UNL A   1      40.759  27.473  28.732  1.00  0.00    +0.000 C 
ATOM     48  C37 UNL A   1      40.010  26.583  27.982  1.00  0.00    +0.000 C 
ATOM     49  C38 UNL A   1      40.823  25.491  27.657  1.00  0.00    +0.000 C 
ATOM     50  C39 UNL A   1      42.090  25.721  28.168  1.00  0.00    +0.000 C 
ATOM     51  N4  UNL A   1      42.036  26.939  28.829  1.00  0.00    +0.000 N 
ATOM     52  C40 UNL A   1      43.263  24.893  28.065  1.00  0.00    +0.000 C 
ATOM     64  C47 UNL A   1      44.477  25.196  28.585  1.00  0.00    +0.000 C 
ATOM     65  N5  UNL A   1      44.862  26.321  29.303  1.00  0.00    +0.000 N 
ATOM     66  C48 UNL A   1      46.127  26.144  29.597  1.00  0.00    +0.000 C 
ATOM     67  C49 UNL A   1      47.064  27.055  30.341  1.00  0.00    +0.000 C 
ATOM     79  C56 UNL A   1      46.618  28.251  30.770  1.00  0.00    +0.000 C 
ATOM     80  C57 UNL A   1      47.412  29.240  31.492  1.00  0.00    +0.000 C 
ATOM     81  C58 UNL A   1      46.631  30.289  31.798  1.00  0.00    +0.000 C 
ATOM     82  C59 UNL A   1      45.288  30.058  31.266  1.00  0.00    +0.000 C 
ATOM     83  N6  UNL A   1      45.376  28.829  30.661  1.00  0.00    +0.000 N 
ATOM     84  C60 UNL A   1      46.682  24.871  29.117  1.00  0.00    +0.000 C 
ATOM     85  C61 UNL A   1      45.647  24.349  28.475  1.00  0.00    +0.000 C 
ATOM     86  C62 UNL A   1      40.771  30.836  30.540  1.00  0.00    +0.000 C 
ATOM     87  C63 UNL A   1      41.811  31.495  31.033  1.00  0.00    +0.000 C 
ATOM    123  H31 UNL A   1      39.022  26.703  27.709  1.00  0.00    +0.000 H 
ATOM    124  H32 UNL A   1      40.529  24.657  27.126  1.00  0.00    +0.000 H 
ATOM    125  H33 UNL A   1      42.792  27.362  29.296  1.00  0.00    +0.000 H 
ATOM    126  H34 UNL A   1      48.412  29.149  31.729  1.00  0.00    +0.000 H 
ATOM    127  H35 UNL A   1      46.931  31.125  32.325  1.00  0.00    +0.000 H 
ATOM    128  H36 UNL A   1      44.622  28.402  30.194  1.00  0.00    +0.000 H 
ENDROOT
BRANCH   31   30
ATOM    133  H41 UNL A   1      44.965  33.301  30.435  1.00  0.00    +0.000 H 
ATOM    134  H42 UNL A   1      45.314  35.374  31.642  1.00  0.00    +0.000 H 
ATOM     29  C24 UNL A   1      44.204  32.236  33.525  1.00  0.00    +0.000 C 
ATOM     88  C64 UNL A   1      44.804  33.337  31.453  1.00  0.00    +0.000 C 
ATOM     89  C65 UNL A   1      44.968  34.539  32.140  1.00  0.00    +0.000 C 
ATOM    122  H30 UNL A   1      43.965  31.379  34.047  1.00  0.00    +0.000 H 
ATOM     27  C22 UNL A   1      44.665  34.613  33.502  1.00  0.00    +0.000 C 
ATOM     28  C23 UNL A   1      44.310  33.455  34.201  1.00  0.00    +0.000 C 
ATOM    121  H29 UNL A   1      44.125  33.500  35.216  1.00  0.00    +0.000 H 
ATOM     30  C25 UNL A   1      44.423  32.173  32.140  1.00  0.00    +0.000 C 
BRANCH   27   25
ATOM     25  C21 UNL A   1      44.763  35.891  34.245  1.00  0.00    +0.000 C 
ATOM     26  O2  UNL A   1      45.664  36.677  33.981  1.00  0.00    +0.000 O 
BRANCH   25   24
ATOM    120  H28 UNL A   1      44.216  36.268  36.134  1.00  0.00    +0.000 H 
ATOM     24  N2  UNL A   1      43.849  36.200  35.223  1.00  0.00    +0.000 N 
BRANCH   24   23
ATOM    119  H27 UNL A   1      42.158  36.401  34.074  1.00  0.00    +0.000 H 
ATOM    118  H26 UNL A   1      42.197  37.399  35.531  1.00  0.00    +0.000 H 
ATOM     23  C20 UNL A   1      42.419  36.441  35.112  1.00  0.00    +0.000 C 
BRANCH   23   22
ATOM    116  H24 UNL A   1      42.270  34.794  36.438  1.00  0.00    +0.000 H 
ATOM    117  H25 UNL A   1      40.873  35.911  36.425  1.00  0.00    +0.000 H 
ATOM     22  C19 UNL A   1      41.599  35.380  35.844  1.00  0.00    +0.000 C 
BRANCH   22   21
ATOM    114  H22 UNL A   1      39.854  34.869  34.751  1.00  0.00    +0.000 H 
ATOM    115  H23 UNL A   1      41.409  34.301  34.060  1.00  0.00    +0.000 H 
ATOM     21  C18 UNL A   1      40.811  34.429  34.937  1.00  0.00    +0.000 C 
BRANCH   21   20
ATOM    113  H21 UNL A   1      39.687  33.072  36.080  1.00  0.00    +0.000 H 
ATOM     20  C17 UNL A   1      40.580  33.017  35.493  1.00  0.00    +0.000 C 
ATOM    112  H20 UNL A   1      41.446  32.737  36.056  1.00  0.00    +0.000 H 
BRANCH   20   19
ATOM     19  C16 UNL A   1      40.328  31.930  34.441  1.00  0.00    +0.000 C 
ATOM    110  H18 UNL A   1      40.564  32.332  33.479  1.00  0.00    +0.000 H 
ATOM    111  H19 UNL A   1      40.946  31.098  34.703  1.00  0.00    +0.000 H 
BRANCH   19   18
ATOM     18  C15 UNL A   1      38.886  31.420  34.409  1.00  0.00    +0.000 C 
ATOM    108  H16 UNL A   1      38.900  30.353  34.326  1.00  0.00    +0.000 H 
ATOM    109  H17 UNL A   1      38.403  31.731  35.311  1.00  0.00    +0.000 H 
BRANCH   18   17
ATOM     17  N1  UNL A   1      38.143  31.966  33.293  1.00  0.00    +0.000 N 
ATOM    107  H15 UNL A   1      37.963  31.324  32.570  1.00  0.00    +0.000 H 
BRANCH   17   15
ATOM     15  C14 UNL A   1      37.650  33.216  33.074  1.00  0.00    +0.000 C 
ATOM     16  O1  UNL A   1      37.355  33.875  34.079  1.00  0.00    +0.000 O 
BRANCH   15   13
ATOM     13  C12 UNL A   1      37.429  33.810  31.675  1.00  0.00    +0.000 C 
ATOM    103  H11 UNL A   1      36.944  34.751  31.836  1.00  0.00    +0.000 H 
BRANCH   13   12
ATOM    101  H9  UNL A   1      40.090  34.756  27.956  1.00  0.00    +0.000 H 
ATOM    102  H10 UNL A   1      37.962  34.351  29.014  1.00  0.00    +0.000 H 
ATOM    135  H43 UNL A   1      39.852  34.216  32.752  1.00  0.00    +0.000 H 
ATOM    136  H44 UNL A   1      41.951  34.784  31.711  1.00  0.00    +0.000 H 
ATOM      9  C8  UNL A   1      41.232  34.790  29.727  1.00  0.00    +0.000 C 
ATOM     10  C9  UNL A   1      40.049  34.657  28.983  1.00  0.00    +0.000 C 
ATOM     11  C10 UNL A   1      38.815  34.397  29.593  1.00  0.00    +0.000 C 
ATOM     12  C11 UNL A   1      38.720  34.198  30.972  1.00  0.00    +0.000 C 
ATOM     90  C66 UNL A   1      39.891  34.342  31.728  1.00  0.00    +0.000 C 
ATOM     91  C67 UNL A   1      41.115  34.653  31.121  1.00  0.00    +0.000 C 
BRANCH    9    8
ATOM     98  H6  UNL A   1      45.910  35.696  27.292  1.00  0.00    +0.000 H 
ATOM     99  H7  UNL A   1      44.830  37.465  28.547  1.00  0.00    +0.000 H 
ATOM      4  C3  UNL A   1      44.417  34.260  27.689  1.00  0.00    +0.000 C 
ATOM      5  C4  UNL A   1      45.012  35.518  27.768  1.00  0.00    +0.000 C 
ATOM      6  C5  UNL A   1      44.392  36.534  28.490  1.00  0.00    +0.000 C 
ATOM      7  C6  UNL A   1      43.176  36.293  29.138  1.00  0.00    +0.000 C 
ATOM      8  C7  UNL A   1      42.540  35.039  29.070  1.00  0.00    +0.000 C 
ATOM    137  H45 UNL A   1      42.765  33.095  28.277  1.00  0.00    +0.000 H 
ATOM    100  H8  UNL A   1      42.734  37.052  29.678  1.00  0.00    +0.000 H 
ATOM     92  C68 UNL A   1      43.196  34.030  28.338  1.00  0.00    +0.000 C 
BRANCH    4    3
ATOM      3  S1  UNL A   1      45.245  32.930  26.839  1.00  0.00    +0.000 S 
BRANCH    3    2
ATOM     97  H5  UNL A   1      45.508  32.064  29.038  1.00  0.00    +0.000 H 
ATOM      2  C2  UNL A   1      46.182  32.183  28.215  1.00  0.00    +0.000 C 
ATOM     96  H4  UNL A   1      46.998  32.829  28.464  1.00  0.00    +0.000 H 
BRANCH    2    1
ATOM      1  C1  UNL A   1      46.734  30.812  27.869  1.00  0.00    +0.000 C 
ATOM     93  H1  UNL A   1      45.944  30.194  27.493  1.00  0.00    +0.000 H 
ATOM     94  H2  UNL A   1      47.150  30.363  28.747  1.00  0.00    +0.000 H 
ATOM     95  H3  UNL A   1      47.495  30.910  27.124  1.00  0.00    +0.000 H 
ENDBRANCH    2    1
ENDBRANCH    3    2
ENDBRANCH    4    3
ENDBRANCH    9    8
ENDBRANCH   13   12
BRANCH   13   14
ATOM    105  H13 UNL A   1      36.762  32.971  29.825  1.00  0.00    +0.000 H 
ATOM    106  H14 UNL A   1      35.477  33.608  30.823  1.00  0.00    +0.000 H 
ATOM     14  C13 UNL A   1      36.398  33.064  30.826  1.00  0.00    +0.000 C 
ATOM    104  H12 UNL A   1      36.236  32.090  31.238  1.00  0.00    +0.000 H 
ENDBRANCH   13   14
ENDBRANCH   15   13
ENDBRANCH   17   15
ENDBRANCH   18   17
ENDBRANCH   19   18
ENDBRANCH   20   19
ENDBRANCH   21   20
ENDBRANCH   22   21
ENDBRANCH   23   22
ENDBRANCH   24   23
ENDBRANCH   25   24
ENDBRANCH   27   25
ENDBRANCH   31   30
BRANCH   35   36
ATOM     36  C30 UNL A   1      38.905  29.116  29.195  1.00  0.00    +0.000 C 
ATOM     37  C31 UNL A   1      38.341  29.454  27.957  1.00  0.00    +0.000 C 
ATOM     38  F1  UNL A   1      39.104  29.483  26.854  1.00  0.00    +0.000 F 
ATOM     39  C32 UNL A   1      36.996  29.797  27.851  1.00  0.00    +0.000 C 
ATOM     40  F2  UNL A   1      36.488  30.157  26.663  1.00  0.00    +0.000 F 
ATOM     41  C33 UNL A   1      36.182  29.777  28.974  1.00  0.00    +0.000 C 
ATOM     42  F3  UNL A   1      34.885  30.099  28.870  1.00  0.00    +0.000 F 
ATOM     43  C34 UNL A   1      36.714  29.429  30.207  1.00  0.00    +0.000 C 
ATOM     44  F4  UNL A   1      35.927  29.398  31.290  1.00  0.00    +0.000 F 
ATOM     45  C35 UNL A   1      38.066  29.111  30.320  1.00  0.00    +0.000 C 
ATOM     46  F5  UNL A   1      38.553  28.790  31.527  1.00  0.00    +0.000 F 
ENDBRANCH   35   36
BRANCH   52   53
ATOM     53  C41 UNL A   1      43.146  23.604  27.307  1.00  0.00    +0.000 C 
ATOM     54  C42 UNL A   1      42.632  22.445  27.906  1.00  0.00    +0.000 C 
ATOM     55  F6  UNL A   1      42.280  22.454  29.200  1.00  0.00    +0.000 F 
ATOM     56  C43 UNL A   1      42.514  21.260  27.185  1.00  0.00    +0.000 C 
ATOM     57  F7  UNL A   1      42.062  20.152  27.789  1.00  0.00    +0.000 F 
ATOM     58  C44 UNL A   1      42.877  21.220  25.846  1.00  0.00    +0.000 C 
ATOM     59  F8  UNL A   1      42.757  20.080  25.154  1.00  0.00    +0.000 F 
ATOM     60  C45 UNL A   1      43.370  22.359  25.230  1.00  0.00    +0.000 C 
ATOM     61  F9  UNL A   1      43.711  22.325  23.934  1.00  0.00    +0.000 F 
ATOM     62  C46 UNL A   1      43.515  23.539  25.955  1.00  0.00    +0.000 C 
ATOM     63  F10 UNL A   1      44.005  24.622  25.335  1.00  0.00    +0.000 F 
ENDBRANCH   52   53
BRANCH   67   68
ATOM     68  C50 UNL A   1      48.475  26.663  30.583  1.00  0.00    +0.000 C 
ATOM     69  C51 UNL A   1      48.820  25.868  31.685  1.00  0.00    +0.000 C 
ATOM     70  F11 UNL A   1      47.873  25.472  32.547  1.00  0.00    +0.000 F 
ATOM     71  C52 UNL A   1      50.144  25.510  31.926  1.00  0.00    +0.000 C 
ATOM     72  F12 UNL A   1      50.453  24.783  33.010  1.00  0.00    +0.000 F 
ATOM     73  C53 UNL A   1      51.145  25.915  31.056  1.00  0.00    +0.000 C 
ATOM     74  F13 UNL A   1      52.417  25.567  31.286  1.00  0.00    +0.000 F 
ATOM     75  C54 UNL A   1      50.824  26.688  29.950  1.00  0.00    +0.000 C 
ATOM     76  F14 UNL A   1      51.786  27.071  29.099  1.00  0.00    +0.000 F 
ATOM     77  C55 UNL A   1      49.504  27.068  29.721  1.00  0.00    +0.000 C 
ATOM     78  F15 UNL A   1      49.223  27.824  28.649  1.00  0.00    +0.000 F 
ENDBRANCH   67   68
TORSDOF 21
ENDMDL
