MODEL 1
REMARK VINA RESULT:      -9.3      0.000      0.000
ROOT
ATOM    129  H31 UNL A   1      29.243  33.400  43.143  1.00  0.00    +0.000 H 
ATOM    130  H32 UNL A   1      28.690  41.612  48.900  1.00  0.00    +0.000 H 
ATOM    131  H33 UNL A   1      26.542  40.714  49.965  1.00  0.00    +0.000 H 
ATOM     30  C22 UNL A   1      25.565  38.334  48.736  1.00  0.00    +0.000 C 
ATOM     31  C23 UNL A   1      26.863  39.044  48.463  1.00  0.00    +0.000 C 
ATOM     32  N3  UNL A   1      27.816  38.735  47.621  1.00  0.00    +0.000 N 
ATOM     33  C24 UNL A   1      28.762  39.746  47.735  1.00  0.00    +0.000 C 
ATOM     34  C25 UNL A   1      29.968  39.847  47.126  1.00  0.00    +0.000 C 
ATOM     46  C32 UNL A   1      30.491  38.873  46.205  1.00  0.00    +0.000 C 
ATOM     47  C33 UNL A   1      31.722  38.857  45.572  1.00  0.00    +0.000 C 
ATOM     48  C34 UNL A   1      31.763  37.747  44.723  1.00  0.00    +0.000 C 
ATOM     49  C35 UNL A   1      30.585  37.033  44.877  1.00  0.00    +0.000 C 
ATOM     50  N4  UNL A   1      29.810  37.740  45.783  1.00  0.00    +0.000 N 
ATOM     51  C36 UNL A   1      30.197  35.796  44.245  1.00  0.00    +0.000 C 
ATOM     63  C43 UNL A   1      29.019  35.158  44.448  1.00  0.00    +0.000 C 
ATOM     64  N5  UNL A   1      27.965  35.512  45.280  1.00  0.00    +0.000 N 
ATOM     65  C44 UNL A   1      27.053  34.582  45.122  1.00  0.00    +0.000 C 
ATOM     66  C45 UNL A   1      25.718  34.432  45.803  1.00  0.00    +0.000 C 
ATOM     78  C52 UNL A   1      25.348  35.341  46.727  1.00  0.00    +0.000 C 
ATOM     79  C53 UNL A   1      24.091  35.332  47.468  1.00  0.00    +0.000 C 
ATOM     80  C54 UNL A   1      24.036  36.421  48.250  1.00  0.00    +0.000 C 
ATOM     81  C55 UNL A   1      25.276  37.184  48.099  1.00  0.00    +0.000 C 
ATOM     82  N6  UNL A   1      25.999  36.461  47.183  1.00  0.00    +0.000 N 
ATOM     83  C56 UNL A   1      27.413  33.551  44.139  1.00  0.00    +0.000 C 
ATOM     84  C57 UNL A   1      28.637  33.923  43.794  1.00  0.00    +0.000 C 
ATOM     85  C58 UNL A   1      28.239  40.711  48.676  1.00  0.00    +0.000 C 
ATOM     86  C59 UNL A   1      27.106  40.286  49.214  1.00  0.00    +0.000 C 
ATOM    122  H24 UNL A   1      32.478  39.546  45.705  1.00  0.00    +0.000 H 
ATOM    123  H25 UNL A   1      32.539  37.502  44.089  1.00  0.00    +0.000 H 
ATOM    124  H26 UNL A   1      28.909  37.477  46.082  1.00  0.00    +0.000 H 
ATOM    125  H27 UNL A   1      23.362  34.605  47.403  1.00  0.00    +0.000 H 
ATOM    126  H28 UNL A   1      23.245  36.681  48.860  1.00  0.00    +0.000 H 
ATOM    127  H29 UNL A   1      26.900  36.721  46.882  1.00  0.00    +0.000 H 
ATOM    128  H30 UNL A   1      26.858  32.749  43.804  1.00  0.00    +0.000 H 
ENDROOT
BRANCH   30   29
ATOM    132  H34 UNL A   1      23.640  40.096  48.154  1.00  0.00    +0.000 H 
ATOM    133  H35 UNL A   1      22.101  41.209  49.659  1.00  0.00    +0.000 H 
ATOM    120  H22 UNL A   1      23.545  38.896  52.862  1.00  0.00    +0.000 H 
ATOM     87  C60 UNL A   1      23.642  39.862  49.159  1.00  0.00    +0.000 C 
ATOM     88  C61 UNL A   1      22.723  40.467  50.012  1.00  0.00    +0.000 C 
ATOM    121  H23 UNL A   1      25.262  37.975  51.412  1.00  0.00    +0.000 H 
ATOM     26  C18 UNL A   1      22.648  40.064  51.347  1.00  0.00    +0.000 C 
ATOM     27  C19 UNL A   1      23.578  39.160  51.865  1.00  0.00    +0.000 C 
ATOM     28  C20 UNL A   1      24.553  38.616  51.026  1.00  0.00    +0.000 C 
ATOM     29  C21 UNL A   1      24.571  38.938  49.659  1.00  0.00    +0.000 C 
BRANCH   26   24
ATOM     25  O6  UNL A   1      20.677  41.265  51.769  1.00  0.00    +0.000 O 
ATOM     24  C17 UNL A   1      21.585  40.584  52.233  1.00  0.00    +0.000 C 
BRANCH   24   23
ATOM    119  H21 UNL A   1      22.356  40.751  54.077  1.00  0.00    +0.000 H 
ATOM     23  N2  UNL A   1      21.630  40.311  53.577  1.00  0.00    +0.000 N 
BRANCH   23   22
ATOM    118  H20 UNL A   1      19.742  39.706  54.108  1.00  0.00    +0.000 H 
ATOM    117  H19 UNL A   1      20.944  39.638  55.403  1.00  0.00    +0.000 H 
ATOM     22  C16 UNL A   1      20.752  39.462  54.366  1.00  0.00    +0.000 C 
BRANCH   22   21
ATOM    115  H17 UNL A   1      21.958  37.858  53.691  1.00  0.00    +0.000 H 
ATOM    116  H18 UNL A   1      20.798  37.463  54.992  1.00  0.00    +0.000 H 
ATOM     21  C15 UNL A   1      20.965  37.982  54.071  1.00  0.00    +0.000 C 
BRANCH   21   20
ATOM    113  H15 UNL A   1      19.543  36.517  53.496  1.00  0.00    +0.000 H 
ATOM    114  H16 UNL A   1      19.286  38.161  52.830  1.00  0.00    +0.000 H 
ATOM     20  C14 UNL A   1      19.988  37.386  53.055  1.00  0.00    +0.000 C 
BRANCH   20   19
ATOM     19  C13 UNL A   1      20.605  36.972  51.715  1.00  0.00    +0.000 C 
ATOM    111  H13 UNL A   1      19.810  36.816  51.018  1.00  0.00    +0.000 H 
ATOM    112  H14 UNL A   1      21.268  37.764  51.435  1.00  0.00    +0.000 H 
BRANCH   19   18
ATOM     18  C12 UNL A   1      21.455  35.702  51.758  1.00  0.00    +0.000 C 
ATOM    109  H11 UNL A   1      22.311  35.893  52.371  1.00  0.00    +0.000 H 
ATOM    110  H12 UNL A   1      20.828  34.928  52.147  1.00  0.00    +0.000 H 
BRANCH   18   17
ATOM     17  C11 UNL A   1      21.942  35.225  50.398  1.00  0.00    +0.000 C 
ATOM    107  H9  UNL A   1      22.035  36.074  49.753  1.00  0.00    +0.000 H 
ATOM    108  H10 UNL A   1      22.879  34.731  50.551  1.00  0.00    +0.000 H 
BRANCH   17   16
ATOM    106  H8  UNL A   1      20.595  33.660  50.400  1.00  0.00    +0.000 H 
ATOM     16  N1  UNL A   1      21.050  34.271  49.776  1.00  0.00    +0.000 N 
BRANCH   16   14
ATOM     14  C10 UNL A   1      20.742  34.084  48.457  1.00  0.00    +0.000 C 
ATOM     15  O5  UNL A   1      21.384  33.220  47.858  1.00  0.00    +0.000 O 
BRANCH   14   13
ATOM      1  O1  UNL A   1      20.988  37.329  45.651  1.00  0.00    +0.000 O 
ATOM      2  C1  UNL A   1      20.416  36.696  46.522  1.00  0.00    +0.000 C 
ATOM      3  O2  UNL A   1      20.082  37.173  47.745  1.00  0.00    +0.000 O 
ATOM      4  C2  UNL A   1      19.320  36.201  48.482  1.00  0.00    +0.000 C 
ATOM     99  H1  UNL A   1      19.624  36.139  49.507  1.00  0.00    +0.000 H 
ATOM    105  H7  UNL A   1      18.756  34.178  47.876  1.00  0.00    +0.000 H 
ATOM     13  C9  UNL A   1      19.582  34.855  47.813  1.00  0.00    +0.000 C 
ATOM     89  C62 UNL A   1      19.947  35.302  46.436  1.00  0.00    +0.000 C 
BRANCH    4    5
ATOM    100  H2  UNL A   1      17.126  35.191  47.176  1.00  0.00    +0.000 H 
ATOM      5  C3  UNL A   1      17.844  36.599  48.585  1.00  0.00    +0.000 C 
ATOM      6  C4  UNL A   1      16.844  35.914  47.856  1.00  0.00    +0.000 C 
ATOM      7  C5  UNL A   1      15.483  36.188  48.029  1.00  0.00    +0.000 C 
ATOM    104  H6  UNL A   1      18.126  38.116  50.034  1.00  0.00    +0.000 H 
ATOM    101  H3  UNL A   1      14.771  35.663  47.499  1.00  0.00    +0.000 H 
ATOM     10  C7  UNL A   1      16.073  37.878  49.633  1.00  0.00    +0.000 C 
ATOM      8  C6  UNL A   1      15.105  37.175  48.924  1.00  0.00    +0.000 C 
ATOM     12  C8  UNL A   1      17.426  37.594  49.484  1.00  0.00    +0.000 C 
BRANCH    8    9
ATOM      9  O3  UNL A   1      13.794  37.486  49.145  1.00  0.00    +0.000 O 
ATOM    102  H4  UNL A   1      13.566  38.305  49.538  1.00  0.00    +0.000 H 
ENDBRANCH    8    9
BRANCH   10   11
ATOM     11  O4  UNL A   1      15.693  38.859  50.505  1.00  0.00    +0.000 O 
ATOM    103  H5  UNL A   1      16.277  39.131  51.187  1.00  0.00    +0.000 H 
ENDBRANCH   10   11
ENDBRANCH    4    5
BRANCH   89   90
ATOM     90  C63 UNL A   1      19.893  34.679  45.250  1.00  0.00    +0.000 C 
ATOM    134  H36 UNL A   1      20.560  34.975  44.519  1.00  0.00    +0.000 H 
BRANCH   90   91
ATOM     98  C69 UNL A   1      19.385  32.280  44.970  1.00  0.00    +0.000 C 
ATOM    135  H37 UNL A   1      17.323  34.881  44.474  1.00  0.00    +0.000 H 
ATOM    136  H38 UNL A   1      15.776  33.083  43.932  1.00  0.00    +0.000 H 
ATOM    139  H41 UNL A   1      20.355  32.057  45.246  1.00  0.00    +0.000 H 
ATOM     91  C64 UNL A   1      18.952  33.609  44.924  1.00  0.00    +0.000 C 
ATOM     92  C65 UNL A   1      17.636  33.899  44.529  1.00  0.00    +0.000 C 
ATOM     93  C66 UNL A   1      16.747  32.869  44.209  1.00  0.00    +0.000 C 
ATOM     94  C67 UNL A   1      17.188  31.553  44.270  1.00  0.00    +0.000 C 
ATOM     96  C68 UNL A   1      18.498  31.265  44.642  1.00  0.00    +0.000 C 
BRANCH   94   95
ATOM    137  H39 UNL A   1      15.481  30.659  43.706  1.00  0.00    +0.000 H 
ATOM     95  O7  UNL A   1      16.367  30.501  43.967  1.00  0.00    +0.000 O 
ENDBRANCH   94   95
BRANCH   96   97
ATOM     97  O8  UNL A   1      18.925  29.968  44.683  1.00  0.00    +0.000 O 
ATOM    138  H40 UNL A   1      18.668  29.369  44.010  1.00  0.00    +0.000 H 
ENDBRANCH   96   97
ENDBRANCH   90   91
ENDBRANCH   89   90
ENDBRANCH   14   13
ENDBRANCH   16   14
ENDBRANCH   17   16
ENDBRANCH   18   17
ENDBRANCH   19   18
ENDBRANCH   20   19
ENDBRANCH   21   20
ENDBRANCH   22   21
ENDBRANCH   23   22
ENDBRANCH   24   23
ENDBRANCH   26   24
ENDBRANCH   30   29
BRANCH   34   35
ATOM     35  C26 UNL A   1      30.803  41.057  47.435  1.00  0.00    +0.000 C 
ATOM     36  C27 UNL A   1      30.536  42.307  46.854  1.00  0.00    +0.000 C 
ATOM     37  F1  UNL A   1      29.540  42.440  45.965  1.00  0.00    +0.000 F 
ATOM     38  C28 UNL A   1      31.320  43.420  47.151  1.00  0.00    +0.000 C 
ATOM     39  F2  UNL A   1      31.081  44.587  46.540  1.00  0.00    +0.000 F 
ATOM     40  C29 UNL A   1      32.358  43.315  48.064  1.00  0.00    +0.000 C 
ATOM     41  F3  UNL A   1      33.107  44.388  48.355  1.00  0.00    +0.000 F 
ATOM     42  C30 UNL A   1      32.624  42.097  48.671  1.00  0.00    +0.000 C 
ATOM     43  F4  UNL A   1      33.617  41.997  49.565  1.00  0.00    +0.000 F 
ATOM     44  C31 UNL A   1      31.866  40.975  48.349  1.00  0.00    +0.000 C 
ATOM     45  F5  UNL A   1      32.163  39.806  48.937  1.00  0.00    +0.000 F 
ENDBRANCH   34   35
BRANCH   51   52
ATOM     52  C37 UNL A   1      31.186  35.149  43.319  1.00  0.00    +0.000 C 
ATOM     53  C38 UNL A   1      32.037  34.119  43.744  1.00  0.00    +0.000 C 
ATOM     54  F6  UNL A   1      32.027  33.721  45.026  1.00  0.00    +0.000 F 
ATOM     55  C39 UNL A   1      32.932  33.519  42.862  1.00  0.00    +0.000 C 
ATOM     56  F7  UNL A   1      33.771  32.571  43.303  1.00  0.00    +0.000 F 
ATOM     57  C40 UNL A   1      32.966  33.908  41.532  1.00  0.00    +0.000 C 
ATOM     58  F8  UNL A   1      33.819  33.321  40.681  1.00  0.00    +0.000 F 
ATOM     59  C41 UNL A   1      32.120  34.911  41.083  1.00  0.00    +0.000 C 
ATOM     60  F9  UNL A   1      32.137  35.276  39.794  1.00  0.00    +0.000 F 
ATOM     61  C42 UNL A   1      31.249  35.537  41.970  1.00  0.00    +0.000 C 
ATOM     62  F10 UNL A   1      30.451  36.511  41.509  1.00  0.00    +0.000 F 
ENDBRANCH   51   52
BRANCH   66   67
ATOM     67  C46 UNL A   1      24.824  33.288  45.484  1.00  0.00    +0.000 C 
ATOM     68  C47 UNL A   1      24.927  32.077  46.185  1.00  0.00    +0.000 C 
ATOM     69  F11 UNL A   1      25.844  31.940  47.153  1.00  0.00    +0.000 F 
ATOM     70  C48 UNL A   1      24.120  30.987  45.863  1.00  0.00    +0.000 C 
ATOM     71  F12 UNL A   1      24.278  29.826  46.512  1.00  0.00    +0.000 F 
ATOM     72  C49 UNL A   1      23.170  31.097  44.859  1.00  0.00    +0.000 C 
ATOM     73  F13 UNL A   1      22.394  30.049  44.550  1.00  0.00    +0.000 F 
ATOM     74  C50 UNL A   1      23.033  32.292  44.169  1.00  0.00    +0.000 C 
ATOM     75  F14 UNL A   1      22.106  32.409  43.209  1.00  0.00    +0.000 F 
ATOM     76  C51 UNL A   1      23.862  33.372  44.468  1.00  0.00    +0.000 C 
ATOM     77  F15 UNL A   1      23.717  34.508  43.771  1.00  0.00    +0.000 F 
ENDBRANCH   66   67
TORSDOF 22
ENDMDL
MODEL 2
REMARK VINA RESULT:      -9.3     42.987     45.731
ROOT
ATOM    129  H31 UNL A   1      15.146  46.858   0.629  1.00  0.00    +0.000 H 
ATOM    130  H32 UNL A   1      16.586  56.607   2.569  1.00  0.00    +0.000 H 
ATOM    131  H33 UNL A   1      15.303  56.353   4.769  1.00  0.00    +0.000 H 
ATOM     30  C22 UNL A   1      14.101  53.790   5.102  1.00  0.00    +0.000 C 
ATOM     31  C23 UNL A   1      15.035  54.232   4.010  1.00  0.00    +0.000 C 
ATOM     32  N3  UNL A   1      15.499  53.555   2.990  1.00  0.00    +0.000 N 
ATOM     33  C24 UNL A   1      16.280  54.449   2.268  1.00  0.00    +0.000 C 
ATOM     34  C25 UNL A   1      17.035  54.213   1.169  1.00  0.00    +0.000 C 
ATOM     46  C32 UNL A   1      17.151  52.929   0.529  1.00  0.00    +0.000 C 
ATOM     47  C33 UNL A   1      17.928  52.574  -0.560  1.00  0.00    +0.000 C 
ATOM     48  C34 UNL A   1      17.670  51.234  -0.862  1.00  0.00    +0.000 C 
ATOM     49  C35 UNL A   1      16.784  50.733   0.078  1.00  0.00    +0.000 C 
ATOM     50  N4  UNL A   1      16.467  51.787   0.922  1.00  0.00    +0.000 N 
ATOM     51  C36 UNL A   1      16.267  49.393   0.200  1.00  0.00    +0.000 C 
ATOM     63  C43 UNL A   1      15.396  48.981   1.153  1.00  0.00    +0.000 C 
ATOM     64  N5  UNL A   1      14.835  49.705   2.197  1.00  0.00    +0.000 N 
ATOM     65  C44 UNL A   1      14.055  48.869   2.838  1.00  0.00    +0.000 C 
ATOM     66  C45 UNL A   1      13.226  49.097   4.075  1.00  0.00    +0.000 C 
ATOM     78  C52 UNL A   1      13.251  50.307   4.666  1.00  0.00    +0.000 C 
ATOM     79  C53 UNL A   1      12.506  50.680   5.864  1.00  0.00    +0.000 C 
ATOM     80  C54 UNL A   1      12.721  51.979   6.127  1.00  0.00    +0.000 C 
ATOM     81  C55 UNL A   1      13.658  52.519   5.141  1.00  0.00    +0.000 C 
ATOM     82  N6  UNL A   1      13.927  51.452   4.320  1.00  0.00    +0.000 N 
ATOM     83  C56 UNL A   1      14.005  47.524   2.246  1.00  0.00    +0.000 C 
ATOM     84  C57 UNL A   1      14.874  47.634   1.253  1.00  0.00    +0.000 C 
ATOM     85  C58 UNL A   1      16.175  55.731   2.927  1.00  0.00    +0.000 C 
ATOM     86  C59 UNL A   1      15.482  55.634   4.051  1.00  0.00    +0.000 C 
ATOM    122  H24 UNL A   1      18.585  53.192  -1.061  1.00  0.00    +0.000 H 
ATOM    123  H25 UNL A   1      18.072  50.706  -1.653  1.00  0.00    +0.000 H 
ATOM    124  H26 UNL A   1      15.848  51.733   1.685  1.00  0.00    +0.000 H 
ATOM    125  H27 UNL A   1      11.909  50.048   6.420  1.00  0.00    +0.000 H 
ATOM    126  H28 UNL A   1      12.294  52.511   6.901  1.00  0.00    +0.000 H 
ATOM    127  H29 UNL A   1      14.546  51.502   3.556  1.00  0.00    +0.000 H 
ATOM    128  H30 UNL A   1      13.439  46.709   2.530  1.00  0.00    +0.000 H 
ENDROOT
BRANCH   30   29
ATOM    132  H34 UNL A   1      11.963  55.386   4.923  1.00  0.00    +0.000 H 
ATOM    133  H35 UNL A   1      11.221  57.102   6.466  1.00  0.00    +0.000 H 
ATOM    120  H22 UNL A   1      14.243  55.988   9.173  1.00  0.00    +0.000 H 
ATOM     87  C60 UNL A   1      12.466  55.534   5.811  1.00  0.00    +0.000 C 
ATOM     88  C61 UNL A   1      12.009  56.486   6.717  1.00  0.00    +0.000 C 
ATOM    121  H23 UNL A   1      15.146  54.454   7.520  1.00  0.00    +0.000 H 
ATOM     26  C18 UNL A   1      12.619  56.603   7.969  1.00  0.00    +0.000 C 
ATOM     27  C19 UNL A   1      13.770  55.869   8.263  1.00  0.00    +0.000 C 
ATOM     28  C20 UNL A   1      14.277  54.972   7.320  1.00  0.00    +0.000 C 
ATOM     29  C21 UNL A   1      13.610  54.774   6.100  1.00  0.00    +0.000 C 
BRANCH   26   24
ATOM     25  O6  UNL A   1      11.987  58.708   8.789  1.00  0.00    +0.000 O 
ATOM     24  C17 UNL A   1      12.060  57.502   8.999  1.00  0.00    +0.000 C 
BRANCH   24   23
ATOM    119  H21 UNL A   1      11.843  57.520  10.993  1.00  0.00    +0.000 H 
ATOM     23  N2  UNL A   1      11.635  56.980  10.196  1.00  0.00    +0.000 N 
BRANCH   23   22
ATOM    118  H20 UNL A   1      10.969  55.147   9.559  1.00  0.00    +0.000 H 
ATOM    117  H19 UNL A   1       9.909  55.972  10.708  1.00  0.00    +0.000 H 
ATOM     22  C16 UNL A   1      10.921  55.740  10.449  1.00  0.00    +0.000 C 
BRANCH   22   21
ATOM    115  H17 UNL A   1      11.829  53.978  11.192  1.00  0.00    +0.000 H 
ATOM    116  H18 UNL A   1      12.377  55.507  11.936  1.00  0.00    +0.000 H 
ATOM     21  C15 UNL A   1      11.546  54.935  11.581  1.00  0.00    +0.000 C 
BRANCH   21   20
ATOM    113  H15 UNL A   1       9.694  55.186  12.584  1.00  0.00    +0.000 H 
ATOM    114  H16 UNL A   1      10.554  53.646  12.902  1.00  0.00    +0.000 H 
ATOM     20  C14 UNL A   1      10.630  54.707  12.785  1.00  0.00    +0.000 C 
BRANCH   20   19
ATOM     19  C13 UNL A   1      11.156  55.241  14.121  1.00  0.00    +0.000 C 
ATOM    111  H13 UNL A   1      12.143  55.622  13.961  1.00  0.00    +0.000 H 
ATOM    112  H14 UNL A   1      10.458  55.987  14.440  1.00  0.00    +0.000 H 
BRANCH   19   18
ATOM     18  C12 UNL A   1      11.224  54.212  15.250  1.00  0.00    +0.000 C 
ATOM    109  H11 UNL A   1      12.169  54.316  15.741  1.00  0.00    +0.000 H 
ATOM    110  H12 UNL A   1      10.395  54.412  15.895  1.00  0.00    +0.000 H 
BRANCH   18   17
ATOM     17  C11 UNL A   1      11.082  52.768  14.794  1.00  0.00    +0.000 C 
ATOM    107  H9  UNL A   1      10.494  52.239  15.516  1.00  0.00    +0.000 H 
ATOM    108  H10 UNL A   1      10.616  52.783  13.831  1.00  0.00    +0.000 H 
BRANCH   17   16
ATOM    106  H8  UNL A   1      12.603  51.513  15.407  1.00  0.00    +0.000 H 
ATOM     16  N1  UNL A   1      12.350  52.088  14.648  1.00  0.00    +0.000 N 
BRANCH   16   14
ATOM     14  C10 UNL A   1      13.254  52.120  13.622  1.00  0.00    +0.000 C 
ATOM     15  O5  UNL A   1      14.013  53.089  13.587  1.00  0.00    +0.000 O 
BRANCH   14   13
ATOM      1  O1  UNL A   1      12.076  52.042   9.490  1.00  0.00    +0.000 O 
ATOM      2  C1  UNL A   1      12.308  51.500  10.557  1.00  0.00    +0.000 C 
ATOM      3  O2  UNL A   1      11.401  50.824  11.304  1.00  0.00    +0.000 O 
ATOM      4  C2  UNL A   1      12.030  50.216  12.445  1.00  0.00    +0.000 C 
ATOM     99  H1  UNL A   1      11.446  50.323  13.336  1.00  0.00    +0.000 H 
ATOM    105  H7  UNL A   1      14.126  50.329  13.057  1.00  0.00    +0.000 H 
ATOM     13  C9  UNL A   1      13.356  50.944  12.641  1.00  0.00    +0.000 C 
ATOM     89  C62 UNL A   1      13.604  51.437  11.254  1.00  0.00    +0.000 C 
BRANCH    4    5
ATOM    100  H2  UNL A   1      13.092  48.339  14.146  1.00  0.00    +0.000 H 
ATOM      5  C3  UNL A   1      12.141  48.696  12.288  1.00  0.00    +0.000 C 
ATOM      6  C4  UNL A   1      12.683  47.887  13.313  1.00  0.00    +0.000 C 
ATOM      7  C5  UNL A   1      12.682  46.490  13.233  1.00  0.00    +0.000 C 
ATOM    104  H6  UNL A   1      11.211  48.604  10.388  1.00  0.00    +0.000 H 
ATOM    101  H3  UNL A   1      13.068  45.920  14.001  1.00  0.00    +0.000 H 
ATOM     10  C7  UNL A   1      11.640  46.660  11.074  1.00  0.00    +0.000 C 
ATOM      8  C6  UNL A   1      12.156  45.883  12.105  1.00  0.00    +0.000 C 
ATOM     12  C8  UNL A   1      11.616  48.048  11.158  1.00  0.00    +0.000 C 
BRANCH    8    9
ATOM      9  O3  UNL A   1      12.119  44.525  11.967  1.00  0.00    +0.000 O 
ATOM    102  H4  UNL A   1      12.311  44.132  11.138  1.00  0.00    +0.000 H 
ENDBRANCH    8    9
BRANCH   10   11
ATOM     11  O4  UNL A   1      11.134  46.054   9.959  1.00  0.00    +0.000 O 
ATOM    103  H5  UNL A   1      11.583  45.324   9.579  1.00  0.00    +0.000 H 
ENDBRANCH   10   11
ENDBRANCH    4    5
BRANCH   89   90
ATOM     90  C63 UNL A   1      14.731  51.776  10.613  1.00  0.00    +0.000 C 
ATOM    134  H36 UNL A   1      15.254  52.598  10.958  1.00  0.00    +0.000 H 
BRANCH   90   91
ATOM     98  C69 UNL A   1      15.461  49.676   9.539  1.00  0.00    +0.000 C 
ATOM    135  H37 UNL A   1      15.514  52.768   8.235  1.00  0.00    +0.000 H 
ATOM    136  H38 UNL A   1      16.413  51.555   6.328  1.00  0.00    +0.000 H 
ATOM    139  H41 UNL A   1      15.209  49.165  10.401  1.00  0.00    +0.000 H 
ATOM     91  C64 UNL A   1      15.271  51.060   9.458  1.00  0.00    +0.000 C 
ATOM     92  C65 UNL A   1      15.634  51.745   8.288  1.00  0.00    +0.000 C 
ATOM     93  C66 UNL A   1      16.159  51.052   7.193  1.00  0.00    +0.000 C 
ATOM     94  C67 UNL A   1      16.331  49.676   7.283  1.00  0.00    +0.000 C 
ATOM     96  C68 UNL A   1      15.989  48.998   8.451  1.00  0.00    +0.000 C 
BRANCH   94   95
ATOM    137  H39 UNL A   1      16.748  49.248   5.367  1.00  0.00    +0.000 H 
ATOM     95  O7  UNL A   1      16.841  48.942   6.248  1.00  0.00    +0.000 O 
ENDBRANCH   94   95
BRANCH   96   97
ATOM     97  O8  UNL A   1      16.180  47.649   8.535  1.00  0.00    +0.000 O 
ATOM    138  H40 UNL A   1      15.562  47.063   8.143  1.00  0.00    +0.000 H 
ENDBRANCH   96   97
ENDBRANCH   90   91
ENDBRANCH   89   90
ENDBRANCH   14   13
ENDBRANCH   16   14
ENDBRANCH   17   16
ENDBRANCH   18   17
ENDBRANCH   19   18
ENDBRANCH   20   19
ENDBRANCH   21   20
ENDBRANCH   22   21
ENDBRANCH   23   22
ENDBRANCH   24   23
ENDBRANCH   26   24
ENDBRANCH   30   29
BRANCH   34   35
ATOM     35  C26 UNL A   1      17.793  55.371   0.584  1.00  0.00    +0.000 C 
ATOM     36  C27 UNL A   1      17.267  56.145  -0.462  1.00  0.00    +0.000 C 
ATOM     37  F1  UNL A   1      16.077  55.837  -0.999  1.00  0.00    +0.000 F 
ATOM     38  C28 UNL A   1      17.982  57.216  -0.993  1.00  0.00    +0.000 C 
ATOM     39  F2  UNL A   1      17.484  57.903  -2.030  1.00  0.00    +0.000 F 
ATOM     40  C29 UNL A   1      19.216  57.561  -0.462  1.00  0.00    +0.000 C 
ATOM     41  F3  UNL A   1      19.899  58.596  -0.969  1.00  0.00    +0.000 F 
ATOM     42  C30 UNL A   1      19.743  56.827   0.590  1.00  0.00    +0.000 C 
ATOM     43  F4  UNL A   1      20.929  57.168   1.114  1.00  0.00    +0.000 F 
ATOM     44  C31 UNL A   1      19.048  55.734   1.098  1.00  0.00    +0.000 C 
ATOM     45  F5  UNL A   1      19.596  55.032   2.101  1.00  0.00    +0.000 F 
ENDBRANCH   34   35
BRANCH   51   52
ATOM     52  C37 UNL A   1      16.756  48.368  -0.783  1.00  0.00    +0.000 C 
ATOM     53  C38 UNL A   1      15.998  47.990  -1.900  1.00  0.00    +0.000 C 
ATOM     54  F6  UNL A   1      14.772  48.502  -2.088  1.00  0.00    +0.000 F 
ATOM     55  C39 UNL A   1      16.481  47.052  -2.810  1.00  0.00    +0.000 C 
ATOM     56  F7  UNL A   1      15.717  46.668  -3.842  1.00  0.00    +0.000 F 
ATOM     57  C40 UNL A   1      17.744  46.506  -2.642  1.00  0.00    +0.000 C 
ATOM     58  F8  UNL A   1      18.212  45.613  -3.525  1.00  0.00    +0.000 F 
ATOM     59  C41 UNL A   1      18.520  46.879  -1.556  1.00  0.00    +0.000 C 
ATOM     60  F9  UNL A   1      19.749  46.367  -1.402  1.00  0.00    +0.000 F 
ATOM     61  C42 UNL A   1      18.026  47.790  -0.626  1.00  0.00    +0.000 C 
ATOM     62  F10 UNL A   1      18.796  48.123   0.420  1.00  0.00    +0.000 F 
ENDBRANCH   51   52
BRANCH   66   67
ATOM     67  C46 UNL A   1      12.406  48.001   4.655  1.00  0.00    +0.000 C 
ATOM     68  C47 UNL A   1      11.112  47.740   4.178  1.00  0.00    +0.000 C 
ATOM     69  F11 UNL A   1      10.600  48.489   3.192  1.00  0.00    +0.000 F 
ATOM     70  C48 UNL A   1      10.323  46.741   4.746  1.00  0.00    +0.000 C 
ATOM     71  F12 UNL A   1       9.072  46.552   4.308  1.00  0.00    +0.000 F 
ATOM     72  C49 UNL A   1      10.824  45.959   5.775  1.00  0.00    +0.000 C 
ATOM     73  F13 UNL A   1      10.065  44.998   6.319  1.00  0.00    +0.000 F 
ATOM     74  C50 UNL A   1      12.109  46.181   6.246  1.00  0.00    +0.000 C 
ATOM     75  F14 UNL A   1      12.603  45.418   7.229  1.00  0.00    +0.000 F 
ATOM     76  C51 UNL A   1      12.887  47.202   5.702  1.00  0.00    +0.000 C 
ATOM     77  F15 UNL A   1      14.119  47.404   6.190  1.00  0.00    +0.000 F 
ENDBRANCH   66   67
TORSDOF 22
ENDMDL
MODEL 3
REMARK VINA RESULT:      -8.6     27.921     31.565
ROOT
ATOM    129  H31 UNL A   1      45.052  16.695  41.784  1.00  0.00    +0.000 H 
ATOM    130  H32 UNL A   1      51.337  15.512  49.529  1.00  0.00    +0.000 H 
ATOM    131  H33 UNL A   1      50.276  13.238  50.035  1.00  0.00    +0.000 H 
ATOM     30  C22 UNL A   1      47.980  12.668  48.445  1.00  0.00    +0.000 C 
ATOM     31  C23 UNL A   1      48.921  13.833  48.315  1.00  0.00    +0.000 C 
ATOM     32  N3  UNL A   1      48.902  14.826  47.462  1.00  0.00    +0.000 N 
ATOM     33  C24 UNL A   1      49.966  15.646  47.812  1.00  0.00    +0.000 C 
ATOM     34  C25 UNL A   1      50.413  16.763  47.189  1.00  0.00    +0.000 C 
ATOM     46  C32 UNL A   1      49.818  17.316  46.001  1.00  0.00    +0.000 C 
ATOM     47  C33 UNL A   1      50.225  18.415  45.264  1.00  0.00    +0.000 C 
ATOM     48  C34 UNL A   1      49.306  18.611  44.228  1.00  0.00    +0.000 C 
ATOM     49  C35 UNL A   1      48.365  17.595  44.278  1.00  0.00    +0.000 C 
ATOM     50  N4  UNL A   1      48.687  16.812  45.376  1.00  0.00    +0.000 N 
ATOM     51  C36 UNL A   1      47.256  17.355  43.388  1.00  0.00    +0.000 C 
ATOM     63  C43 UNL A   1      46.373  16.333  43.506  1.00  0.00    +0.000 C 
ATOM     64  N5  UNL A   1      46.335  15.316  44.451  1.00  0.00    +0.000 N 
ATOM     65  C44 UNL A   1      45.294  14.580  44.146  1.00  0.00    +0.000 C 
ATOM     66  C45 UNL A   1      44.791  13.322  44.805  1.00  0.00    +0.000 C 
ATOM     78  C52 UNL A   1      45.466  12.818  45.856  1.00  0.00    +0.000 C 
ATOM     79  C53 UNL A   1      45.104  11.614  46.597  1.00  0.00    +0.000 C 
ATOM     80  C54 UNL A   1      45.962  11.453  47.616  1.00  0.00    +0.000 C 
ATOM     81  C55 UNL A   1      46.964  12.520  47.574  1.00  0.00    +0.000 C 
ATOM     82  N6  UNL A   1      46.596  13.276  46.490  1.00  0.00    +0.000 N 
ATOM     83  C56 UNL A   1      44.529  15.073  42.992  1.00  0.00    +0.000 C 
ATOM     84  C57 UNL A   1      45.256  16.114  42.612  1.00  0.00    +0.000 C 
ATOM     85  C58 UNL A   1      50.571  15.073  48.994  1.00  0.00    +0.000 C 
ATOM     86  C59 UNL A   1      50.013  13.912  49.300  1.00  0.00    +0.000 C 
ATOM    122  H24 UNL A   1      51.061  18.990  45.448  1.00  0.00    +0.000 H 
ATOM    123  H25 UNL A   1      49.325  19.382  43.543  1.00  0.00    +0.000 H 
ATOM    124  H26 UNL A   1      48.186  16.017  45.669  1.00  0.00    +0.000 H 
ATOM    125  H27 UNL A   1      44.316  10.986  46.372  1.00  0.00    +0.000 H 
ATOM    126  H28 UNL A   1      45.922  10.698  48.318  1.00  0.00    +0.000 H 
ATOM    127  H29 UNL A   1      47.095  14.072  46.193  1.00  0.00    +0.000 H 
ATOM    128  H30 UNL A   1      43.656  14.706  42.585  1.00  0.00    +0.000 H 
ENDROOT
BRANCH   30   29
ATOM    132  H34 UNL A   1      46.754  12.735  50.820  1.00  0.00    +0.000 H 
ATOM    133  H35 UNL A   1      47.085  11.288  52.736  1.00  0.00    +0.000 H 
ATOM    120  H22 UNL A   1      49.695   8.881  50.478  1.00  0.00    +0.000 H 
ATOM     87  C60 UNL A   1      47.402  11.935  50.756  1.00  0.00    +0.000 C 
ATOM     88  C61 UNL A   1      47.552  11.077  51.841  1.00  0.00    +0.000 C 
ATOM    121  H23 UNL A   1      49.570  10.476  48.650  1.00  0.00    +0.000 H 
ATOM     26  C18 UNL A   1      48.338   9.928  51.714  1.00  0.00    +0.000 C 
ATOM     27  C19 UNL A   1      49.083   9.709  50.554  1.00  0.00    +0.000 C 
ATOM     28  C20 UNL A   1      48.996  10.616  49.495  1.00  0.00    +0.000 C 
ATOM     29  C21 UNL A   1      48.129  11.718  49.576  1.00  0.00    +0.000 C 
BRANCH   26   24
ATOM     25  O6  UNL A   1      49.143   7.962  52.708  1.00  0.00    +0.000 O 
ATOM     24  C17 UNL A   1      48.394   8.929  52.801  1.00  0.00    +0.000 C 
BRANCH   24   23
ATOM    119  H21 UNL A   1      47.976   9.628  54.633  1.00  0.00    +0.000 H 
ATOM     23  N2  UNL A   1      47.595   9.083  53.906  1.00  0.00    +0.000 N 
BRANCH   23   22
ATOM    118  H20 UNL A   1      46.362   7.705  54.794  1.00  0.00    +0.000 H 
ATOM    117  H19 UNL A   1      45.823   8.285  53.214  1.00  0.00    +0.000 H 
ATOM     22  C16 UNL A   1      46.264   8.554  54.151  1.00  0.00    +0.000 C 
BRANCH   22   21
ATOM    115  H17 UNL A   1      44.367   9.441  54.467  1.00  0.00    +0.000 H 
ATOM    116  H18 UNL A   1      45.438   9.369  55.895  1.00  0.00    +0.000 H 
ATOM     21  C15 UNL A   1      45.361   9.565  54.846  1.00  0.00    +0.000 C 
BRANCH   21   20
ATOM    113  H15 UNL A   1      46.814  11.110  54.851  1.00  0.00    +0.000 H 
ATOM    114  H16 UNL A   1      45.503  11.273  53.641  1.00  0.00    +0.000 H 
ATOM     20  C14 UNL A   1      45.766  11.028  54.648  1.00  0.00    +0.000 C 
BRANCH   20   19
ATOM     19  C13 UNL A   1      45.032  12.039  55.534  1.00  0.00    +0.000 C 
ATOM    111  H13 UNL A   1      43.983  11.842  55.463  1.00  0.00    +0.000 H 
ATOM    112  H14 UNL A   1      45.424  11.910  56.522  1.00  0.00    +0.000 H 
BRANCH   19   18
ATOM     18  C12 UNL A   1      45.264  13.506  55.173  1.00  0.00    +0.000 C 
ATOM    109  H11 UNL A   1      44.375  13.881  54.711  1.00  0.00    +0.000 H 
ATOM    110  H12 UNL A   1      45.504  14.011  56.085  1.00  0.00    +0.000 H 
BRANCH   18   17
ATOM     17  C11 UNL A   1      46.429  13.744  54.225  1.00  0.00    +0.000 C 
ATOM    107  H9  UNL A   1      47.161  14.343  54.728  1.00  0.00    +0.000 H 
ATOM    108  H10 UNL A   1      46.816  12.785  53.950  1.00  0.00    +0.000 H 
BRANCH   17   16
ATOM    106  H8  UNL A   1      46.784  14.845  52.515  1.00  0.00    +0.000 H 
ATOM     16  N1  UNL A   1      46.044  14.419  53.006  1.00  0.00    +0.000 N 
BRANCH   16   14
ATOM     14  C10 UNL A   1      44.812  14.560  52.428  1.00  0.00    +0.000 C 
ATOM     15  O5  UNL A   1      44.350  15.701  52.390  1.00  0.00    +0.000 O 
BRANCH   14   13
ATOM      1  O1  UNL A   1      41.307  14.583  49.944  1.00  0.00    +0.000 O 
ATOM      2  C1  UNL A   1      42.080  14.041  50.716  1.00  0.00    +0.000 C 
ATOM      3  O2  UNL A   1      41.760  13.588  51.952  1.00  0.00    +0.000 O 
ATOM      4  C2  UNL A   1      42.876  12.904  52.549  1.00  0.00    +0.000 C 
ATOM     99  H1  UNL A   1      43.002  13.157  53.582  1.00  0.00    +0.000 H 
ATOM    105  H7  UNL A   1      44.882  12.612  51.731  1.00  0.00    +0.000 H 
ATOM     13  C9  UNL A   1      44.115  13.356  51.782  1.00  0.00    +0.000 C 
ATOM     89  C62 UNL A   1      43.501  13.742  50.477  1.00  0.00    +0.000 C 
BRANCH    4    5
ATOM    100  H2  UNL A   1      41.014  11.431  53.928  1.00  0.00    +0.000 H 
ATOM      5  C3  UNL A   1      42.655  11.388  52.591  1.00  0.00    +0.000 C 
ATOM      6  C4  UNL A   1      41.595  10.819  53.334  1.00  0.00    +0.000 C 
ATOM      7  C5  UNL A   1      41.309   9.450  53.286  1.00  0.00    +0.000 C 
ATOM    104  H6  UNL A   1      44.223  10.901  51.255  1.00  0.00    +0.000 H 
ATOM    101  H3  UNL A   1      40.519   9.061  53.823  1.00  0.00    +0.000 H 
ATOM     10  C7  UNL A   1      43.165   9.160  51.788  1.00  0.00    +0.000 C 
ATOM      8  C6  UNL A   1      42.102   8.625  52.507  1.00  0.00    +0.000 C 
ATOM     12  C8  UNL A   1      43.440  10.524  51.811  1.00  0.00    +0.000 C 
BRANCH    8    9
ATOM      9  O3  UNL A   1      41.873   7.283  52.412  1.00  0.00    +0.000 O 
ATOM    102  H4  UNL A   1      42.478   6.735  51.953  1.00  0.00    +0.000 H 
ENDBRANCH    8    9
BRANCH   10   11
ATOM     11  O4  UNL A   1      43.952   8.338  51.032  1.00  0.00    +0.000 O 
ATOM    103  H5  UNL A   1      43.567   7.619  50.569  1.00  0.00    +0.000 H 
ENDBRANCH   10   11
ENDBRANCH    4    5
BRANCH   89   90
ATOM     90  C63 UNL A   1      44.010  13.825  49.239  1.00  0.00    +0.000 C 
ATOM    134  H36 UNL A   1      44.049  12.961  48.674  1.00  0.00    +0.000 H 
BRANCH   90   91
ATOM     98  C69 UNL A   1      45.679  15.641  49.142  1.00  0.00    +0.000 C 
ATOM    135  H37 UNL A   1      42.948  15.265  47.228  1.00  0.00    +0.000 H 
ATOM    136  H38 UNL A   1      43.801  17.321  46.243  1.00  0.00    +0.000 H 
ATOM    139  H41 UNL A   1      46.188  15.196  49.923  1.00  0.00    +0.000 H 
ATOM     91  C64 UNL A   1      44.513  15.059  48.636  1.00  0.00    +0.000 C 
ATOM     92  C65 UNL A   1      43.821  15.684  47.587  1.00  0.00    +0.000 C 
ATOM     93  C66 UNL A   1      44.304  16.869  47.024  1.00  0.00    +0.000 C 
ATOM     94  C67 UNL A   1      45.470  17.430  47.529  1.00  0.00    +0.000 C 
ATOM     96  C68 UNL A   1      46.146  16.822  48.583  1.00  0.00    +0.000 C 
BRANCH   94   95
ATOM    137  H39 UNL A   1      45.496  19.382  47.064  1.00  0.00    +0.000 H 
ATOM     95  O7  UNL A   1      45.992  18.589  47.023  1.00  0.00    +0.000 O 
ENDBRANCH   94   95
BRANCH   96   97
ATOM     97  O8  UNL A   1      47.283  17.392  49.082  1.00  0.00    +0.000 O 
ATOM    138  H40 UNL A   1      48.039  17.486  48.536  1.00  0.00    +0.000 H 
ENDBRANCH   96   97
ENDBRANCH   90   91
ENDBRANCH   89   90
ENDBRANCH   14   13
ENDBRANCH   16   14
ENDBRANCH   17   16
ENDBRANCH   18   17
ENDBRANCH   19   18
ENDBRANCH   20   19
ENDBRANCH   21   20
ENDBRANCH   22   21
ENDBRANCH   23   22
ENDBRANCH   24   23
ENDBRANCH   26   24
ENDBRANCH   30   29
BRANCH   34   35
ATOM     35  C26 UNL A   1      51.601  17.463  47.784  1.00  0.00    +0.000 C 
ATOM     36  C27 UNL A   1      51.456  18.488  48.733  1.00  0.00    +0.000 C 
ATOM     37  F1  UNL A   1      50.234  18.898  49.102  1.00  0.00    +0.000 F 
ATOM     38  C28 UNL A   1      52.568  19.127  49.276  1.00  0.00    +0.000 C 
ATOM     39  F2  UNL A   1      52.402  20.141  50.136  1.00  0.00    +0.000 F 
ATOM     40  C29 UNL A   1      53.846  18.728  48.913  1.00  0.00    +0.000 C 
ATOM     41  F3  UNL A   1      54.915  19.339  49.443  1.00  0.00    +0.000 F 
ATOM     42  C30 UNL A   1      54.014  17.701  47.998  1.00  0.00    +0.000 C 
ATOM     43  F4  UNL A   1      55.248  17.303  47.658  1.00  0.00    +0.000 F 
ATOM     44  C31 UNL A   1      52.904  17.084  47.426  1.00  0.00    +0.000 C 
ATOM     45  F5  UNL A   1      53.103  16.108  46.528  1.00  0.00    +0.000 F 
ENDBRANCH   34   35
BRANCH   51   52
ATOM     52  C37 UNL A   1      47.086  18.287  42.222  1.00  0.00    +0.000 C 
ATOM     53  C38 UNL A   1      47.801  18.120  41.028  1.00  0.00    +0.000 C 
ATOM     54  F6  UNL A   1      48.712  17.141  40.918  1.00  0.00    +0.000 F 
ATOM     55  C39 UNL A   1      47.612  18.985  39.953  1.00  0.00    +0.000 C 
ATOM     56  F7  UNL A   1      48.343  18.837  38.840  1.00  0.00    +0.000 F 
ATOM     57  C40 UNL A   1      46.677  20.006  40.037  1.00  0.00    +0.000 C 
ATOM     58  F8  UNL A   1      46.487  20.830  38.997  1.00  0.00    +0.000 F 
ATOM     59  C41 UNL A   1      45.944  20.178  41.200  1.00  0.00    +0.000 C 
ATOM     60  F9  UNL A   1      45.026  21.152  41.277  1.00  0.00    +0.000 F 
ATOM     61  C42 UNL A   1      46.156  19.337  42.289  1.00  0.00    +0.000 C 
ATOM     62  F10 UNL A   1      45.439  19.536  43.405  1.00  0.00    +0.000 F 
ENDBRANCH   51   52
BRANCH   66   67
ATOM     67  C46 UNL A   1      43.579  12.627  44.295  1.00  0.00    +0.000 C 
ATOM     68  C47 UNL A   1      43.676  11.371  43.678  1.00  0.00    +0.000 C 
ATOM     69  F11 UNL A   1      44.874  10.785  43.538  1.00  0.00    +0.000 F 
ATOM     70  C48 UNL A   1      42.550  10.733  43.161  1.00  0.00    +0.000 C 
ATOM     71  F12 UNL A   1      42.681   9.560  42.528  1.00  0.00    +0.000 F 
ATOM     72  C49 UNL A   1      41.301  11.320  43.282  1.00  0.00    +0.000 C 
ATOM     73  F13 UNL A   1      40.218  10.706  42.786  1.00  0.00    +0.000 F 
ATOM     74  C50 UNL A   1      41.176  12.550  43.910  1.00  0.00    +0.000 C 
ATOM     75  F14 UNL A   1      39.969  13.115  44.044  1.00  0.00    +0.000 F 
ATOM     76  C51 UNL A   1      42.306  13.205  44.398  1.00  0.00    +0.000 C 
ATOM     77  F15 UNL A   1      42.156  14.401  44.985  1.00  0.00    +0.000 F 
ENDBRANCH   66   67
TORSDOF 22
ENDMDL
MODEL 4
REMARK VINA RESULT:      -8.5     49.453     54.420
ROOT
ATOM    129  H31 UNL A   1      14.051  26.680  -0.438  1.00  0.00    +0.000 H 
ATOM    130  H32 UNL A   1       9.722  27.357  -9.476  1.00  0.00    +0.000 H 
ATOM    131  H33 UNL A   1       9.601  29.901  -9.221  1.00  0.00    +0.000 H 
ATOM     30  C22 UNL A   1      10.391  30.831  -6.645  1.00  0.00    +0.000 C 
ATOM     31  C23 UNL A   1      10.475  29.429  -7.182  1.00  0.00    +0.000 C 
ATOM     32  N3  UNL A   1      10.922  28.344  -6.602  1.00  0.00    +0.000 N 
ATOM     33  C24 UNL A   1      10.728  27.319  -7.519  1.00  0.00    +0.000 C 
ATOM     34  C25 UNL A   1      11.094  26.018  -7.422  1.00  0.00    +0.000 C 
ATOM     46  C32 UNL A   1      11.772  25.453  -6.285  1.00  0.00    +0.000 C 
ATOM     47  C33 UNL A   1      12.230  24.159  -6.109  1.00  0.00    +0.000 C 
ATOM     48  C34 UNL A   1      12.770  24.058  -4.823  1.00  0.00    +0.000 C 
ATOM     49  C35 UNL A   1      12.712  25.306  -4.223  1.00  0.00    +0.000 C 
ATOM     50  N4  UNL A   1      12.089  26.151  -5.128  1.00  0.00    +0.000 N 
ATOM     51  C36 UNL A   1      13.190  25.698  -2.921  1.00  0.00    +0.000 C 
ATOM     63  C43 UNL A   1      13.093  26.946  -2.401  1.00  0.00    +0.000 C 
ATOM     64  N5  UNL A   1      12.553  28.091  -2.973  1.00  0.00    +0.000 N 
ATOM     65  C44 UNL A   1      12.688  29.039  -2.078  1.00  0.00    +0.000 C 
ATOM     66  C45 UNL A   1      12.315  30.495  -2.169  1.00  0.00    +0.000 C 
ATOM     78  C52 UNL A   1      11.770  30.962  -3.310  1.00  0.00    +0.000 C 
ATOM     79  C53 UNL A   1      11.357  32.341  -3.550  1.00  0.00    +0.000 C 
ATOM     80  C54 UNL A   1      10.799  32.425  -4.767  1.00  0.00    +0.000 C 
ATOM     81  C55 UNL A   1      10.857  31.113  -5.414  1.00  0.00    +0.000 C 
ATOM     82  N6  UNL A   1      11.459  30.310  -4.478  1.00  0.00    +0.000 N 
ATOM     83  C56 UNL A   1      13.296  28.590  -0.817  1.00  0.00    +0.000 C 
ATOM     84  C57 UNL A   1      13.565  27.321  -1.085  1.00  0.00    +0.000 C 
ATOM     85  C58 UNL A   1      10.065  27.897  -8.666  1.00  0.00    +0.000 C 
ATOM     86  C59 UNL A   1       9.956  29.211  -8.542  1.00  0.00    +0.000 C 
ATOM    122  H24 UNL A   1      12.181  23.400  -6.806  1.00  0.00    +0.000 H 
ATOM    123  H25 UNL A   1      13.149  23.199  -4.394  1.00  0.00    +0.000 H 
ATOM    124  H26 UNL A   1      11.899  27.104  -4.973  1.00  0.00    +0.000 H 
ATOM    125  H27 UNL A   1      11.475  33.125  -2.889  1.00  0.00    +0.000 H 
ATOM    126  H28 UNL A   1      10.394  33.279  -5.182  1.00  0.00    +0.000 H 
ATOM    127  H29 UNL A   1      11.652  29.356  -4.631  1.00  0.00    +0.000 H 
ATOM    128  H30 UNL A   1      13.467  29.123   0.049  1.00  0.00    +0.000 H 
ENDROOT
BRANCH   30   29
ATOM    132  H34 UNL A   1      11.484  32.401  -8.514  1.00  0.00    +0.000 H 
ATOM    133  H35 UNL A   1      10.472  34.236  -9.731  1.00  0.00    +0.000 H 
ATOM    120  H22 UNL A   1       6.750  33.358  -7.978  1.00  0.00    +0.000 H 
ATOM     87  C60 UNL A   1      10.486  32.622  -8.377  1.00  0.00    +0.000 C 
ATOM     88  C61 UNL A   1       9.896  33.644  -9.113  1.00  0.00    +0.000 C 
ATOM    121  H23 UNL A   1       7.817  31.695  -6.565  1.00  0.00    +0.000 H 
ATOM     26  C18 UNL A   1       8.520  33.867  -9.013  1.00  0.00    +0.000 C 
ATOM     27  C19 UNL A   1       7.758  33.163  -8.078  1.00  0.00    +0.000 C 
ATOM     28  C20 UNL A   1       8.369  32.193  -7.280  1.00  0.00    +0.000 C 
ATOM     29  C21 UNL A   1       9.731  31.892  -7.446  1.00  0.00    +0.000 C 
BRANCH   26   24
ATOM     25  O6  UNL A   1       8.432  35.291 -10.875  1.00  0.00    +0.000 O 
ATOM     24  C17 UNL A   1       7.848  34.846  -9.893  1.00  0.00    +0.000 C 
BRANCH   24   23
ATOM    119  H21 UNL A   1       5.909  34.545  -9.482  1.00  0.00    +0.000 H 
ATOM     23  N2  UNL A   1       6.574  35.262  -9.595  1.00  0.00    +0.000 N 
BRANCH   23   22
ATOM    118  H20 UNL A   1       5.196  36.718 -10.030  1.00  0.00    +0.000 H 
ATOM    117  H19 UNL A   1       6.835  37.304  -9.722  1.00  0.00    +0.000 H 
ATOM     22  C16 UNL A   1       6.073  36.615  -9.425  1.00  0.00    +0.000 C 
BRANCH   22   21
ATOM    115  H17 UNL A   1       5.538  37.964  -7.883  1.00  0.00    +0.000 H 
ATOM    116  H18 UNL A   1       4.794  36.343  -7.789  1.00  0.00    +0.000 H 
ATOM     21  C15 UNL A   1       5.681  36.907  -7.982  1.00  0.00    +0.000 C 
BRANCH   21   20
ATOM    113  H15 UNL A   1       6.759  35.397  -6.953  1.00  0.00    +0.000 H 
ATOM    114  H16 UNL A   1       7.630  36.942  -7.211  1.00  0.00    +0.000 H 
ATOM     20  C14 UNL A   1       6.711  36.467  -6.938  1.00  0.00    +0.000 C 
BRANCH   20   19
ATOM     19  C13 UNL A   1       6.418  36.907  -5.501  1.00  0.00    +0.000 C 
ATOM    111  H13 UNL A   1       6.368  37.975  -5.485  1.00  0.00    +0.000 H 
ATOM    112  H14 UNL A   1       5.500  36.433  -5.224  1.00  0.00    +0.000 H 
BRANCH   19   18
ATOM     18  C12 UNL A   1       7.452  36.466  -4.464  1.00  0.00    +0.000 C 
ATOM    109  H11 UNL A   1       8.270  37.156  -4.494  1.00  0.00    +0.000 H 
ATOM    110  H12 UNL A   1       6.952  36.454  -3.519  1.00  0.00    +0.000 H 
BRANCH   18   17
ATOM     17  C11 UNL A   1       8.004  35.066  -4.682  1.00  0.00    +0.000 C 
ATOM    107  H9  UNL A   1       7.768  34.758  -5.680  1.00  0.00    +0.000 H 
ATOM    108  H10 UNL A   1       9.061  35.111  -4.516  1.00  0.00    +0.000 H 
BRANCH   17   16
ATOM    106  H8  UNL A   1       6.558  33.774  -3.975  1.00  0.00    +0.000 H 
ATOM     16  N1  UNL A   1       7.466  34.090  -3.761  1.00  0.00    +0.000 N 
BRANCH   16   14
ATOM     14  C10 UNL A   1       8.018  33.539  -2.638  1.00  0.00    +0.000 C 
ATOM     15  O5  UNL A   1       8.719  34.281  -1.949  1.00  0.00    +0.000 O 
BRANCH   14   13
ATOM      1  O1  UNL A   1       4.591  31.223  -3.801  1.00  0.00    +0.000 O 
ATOM      2  C1  UNL A   1       5.507  31.489  -3.042  1.00  0.00    +0.000 C 
ATOM      3  O2  UNL A   1       5.364  31.905  -1.759  1.00  0.00    +0.000 O 
ATOM      4  C2  UNL A   1       6.645  32.022  -1.116  1.00  0.00    +0.000 C 
ATOM     99  H1  UNL A   1       6.720  32.907  -0.518  1.00  0.00    +0.000 H 
ATOM    105  H7  UNL A   1       8.628  31.677  -1.969  1.00  0.00    +0.000 H 
ATOM     13  C9  UNL A   1       7.681  32.098  -2.233  1.00  0.00    +0.000 C 
ATOM     89  C62 UNL A   1       6.948  31.401  -3.331  1.00  0.00    +0.000 C 
BRANCH    4    5
ATOM    100  H2  UNL A   1       6.678  32.113   1.629  1.00  0.00    +0.000 H 
ATOM      5  C3  UNL A   1       6.871  30.900  -0.096  1.00  0.00    +0.000 C 
ATOM      6  C4  UNL A   1       6.799  31.144   1.295  1.00  0.00    +0.000 C 
ATOM      7  C5  UNL A   1       6.885  30.109   2.233  1.00  0.00    +0.000 C 
ATOM    104  H6  UNL A   1       7.118  29.355  -1.522  1.00  0.00    +0.000 H 
ATOM    101  H3  UNL A   1       6.812  30.310   3.243  1.00  0.00    +0.000 H 
ATOM     10  C7  UNL A   1       7.169  28.553   0.424  1.00  0.00    +0.000 C 
ATOM      8  C6  UNL A   1       7.070  28.812   1.787  1.00  0.00    +0.000 C 
ATOM     12  C8  UNL A   1       7.059  29.573  -0.515  1.00  0.00    +0.000 C 
BRANCH    8    9
ATOM      9  O3  UNL A   1       7.155  27.757   2.650  1.00  0.00    +0.000 O 
ATOM    102  H4  UNL A   1       6.505  27.641   3.314  1.00  0.00    +0.000 H 
ENDBRANCH    8    9
BRANCH   10   11
ATOM     11  O4  UNL A   1       7.364  27.272  -0.008  1.00  0.00    +0.000 O 
ATOM    103  H5  UNL A   1       6.776  26.894  -0.632  1.00  0.00    +0.000 H 
ENDBRANCH   10   11
ENDBRANCH    4    5
BRANCH   89   90
ATOM     90  C63 UNL A   1       7.379  30.754  -4.424  1.00  0.00    +0.000 C 
ATOM    134  H36 UNL A   1       7.477  31.295  -5.298  1.00  0.00    +0.000 H 
BRANCH   90   91
ATOM     98  C69 UNL A   1       8.491  28.788  -3.427  1.00  0.00    +0.000 C 
ATOM    135  H37 UNL A   1       6.763  28.925  -6.301  1.00  0.00    +0.000 H 
ATOM    136  H38 UNL A   1       7.344  26.562  -6.339  1.00  0.00    +0.000 H 
ATOM    139  H41 UNL A   1       8.804  29.381  -2.642  1.00  0.00    +0.000 H 
ATOM     91  C64 UNL A   1       7.719  29.332  -4.459  1.00  0.00    +0.000 C 
ATOM     92  C65 UNL A   1       7.314  28.518  -5.529  1.00  0.00    +0.000 C 
ATOM     93  C66 UNL A   1       7.653  27.163  -5.558  1.00  0.00    +0.000 C 
ATOM     94  C67 UNL A   1       8.411  26.633  -4.521  1.00  0.00    +0.000 C 
ATOM     96  C68 UNL A   1       8.829  27.443  -3.469  1.00  0.00    +0.000 C 
BRANCH   94   95
ATOM    137  H39 UNL A   1       8.179  24.671  -4.168  1.00  0.00    +0.000 H 
ATOM     95  O7  UNL A   1       8.776  25.315  -4.493  1.00  0.00    +0.000 O 
ENDBRANCH   94   95
BRANCH   96   97
ATOM     97  O8  UNL A   1       9.588  26.916  -2.464  1.00  0.00    +0.000 O 
ATOM    138  H40 UNL A   1       9.503  27.244  -1.590  1.00  0.00    +0.000 H 
ENDBRANCH   96   97
ENDBRANCH   90   91
ENDBRANCH   89   90
ENDBRANCH   14   13
ENDBRANCH   16   14
ENDBRANCH   17   16
ENDBRANCH   18   17
ENDBRANCH   19   18
ENDBRANCH   20   19
ENDBRANCH   21   20
ENDBRANCH   22   21
ENDBRANCH   23   22
ENDBRANCH   24   23
ENDBRANCH   26   24
ENDBRANCH   30   29
BRANCH   34   35
ATOM     35  C26 UNL A   1      10.764  25.115  -8.576  1.00  0.00    +0.000 C 
ATOM     36  C27 UNL A   1      11.675  24.887  -9.620  1.00  0.00    +0.000 C 
ATOM     37  F1  UNL A   1      12.860  25.514  -9.631  1.00  0.00    +0.000 F 
ATOM     38  C28 UNL A   1      11.354  24.046 -10.683  1.00  0.00    +0.000 C 
ATOM     39  F2  UNL A   1      12.217  23.891 -11.696  1.00  0.00    +0.000 F 
ATOM     40  C29 UNL A   1      10.136  23.384 -10.703  1.00  0.00    +0.000 C 
ATOM     41  F3  UNL A   1       9.832  22.569 -11.722  1.00  0.00    +0.000 F 
ATOM     42  C30 UNL A   1       9.231  23.572  -9.669  1.00  0.00    +0.000 C 
ATOM     43  F4  UNL A   1       8.059  22.921  -9.679  1.00  0.00    +0.000 F 
ATOM     44  C31 UNL A   1       9.534  24.440  -8.624  1.00  0.00    +0.000 C 
ATOM     45  F5  UNL A   1       8.627  24.616  -7.650  1.00  0.00    +0.000 F 
ENDBRANCH   34   35
BRANCH   51   52
ATOM     52  C37 UNL A   1      13.880  24.653  -2.090  1.00  0.00    +0.000 C 
ATOM     53  C38 UNL A   1      15.262  24.435  -2.170  1.00  0.00    +0.000 C 
ATOM     54  F6  UNL A   1      16.005  25.126  -3.048  1.00  0.00    +0.000 F 
ATOM     55  C39 UNL A   1      15.883  23.474  -1.375  1.00  0.00    +0.000 C 
ATOM     56  F7  UNL A   1      17.197  23.247  -1.504  1.00  0.00    +0.000 F 
ATOM     57  C40 UNL A   1      15.141  22.744  -0.458  1.00  0.00    +0.000 C 
ATOM     58  F8  UNL A   1      15.742  21.830   0.315  1.00  0.00    +0.000 F 
ATOM     59  C41 UNL A   1      13.776  22.957  -0.347  1.00  0.00    +0.000 C 
ATOM     60  F9  UNL A   1      13.061  22.267   0.552  1.00  0.00    +0.000 F 
ATOM     61  C42 UNL A   1      13.147  23.891  -1.165  1.00  0.00    +0.000 C 
ATOM     62  F10 UNL A   1      11.823  24.066  -1.042  1.00  0.00    +0.000 F 
ENDBRANCH   51   52
BRANCH   66   67
ATOM     67  C46 UNL A   1      12.560  31.418  -1.029  1.00  0.00    +0.000 C 
ATOM     68  C47 UNL A   1      11.502  31.866  -0.225  1.00  0.00    +0.000 C 
ATOM     69  F11 UNL A   1      10.249  31.466  -0.485  1.00  0.00    +0.000 F 
ATOM     70  C48 UNL A   1      11.720  32.763   0.820  1.00  0.00    +0.000 C 
ATOM     71  F12 UNL A   1      10.683  33.216   1.536  1.00  0.00    +0.000 F 
ATOM     72  C49 UNL A   1      13.004  33.201   1.104  1.00  0.00    +0.000 C 
ATOM     73  F13 UNL A   1      13.213  34.063   2.109  1.00  0.00    +0.000 F 
ATOM     74  C50 UNL A   1      14.069  32.753   0.338  1.00  0.00    +0.000 C 
ATOM     75  F14 UNL A   1      15.314  33.160   0.619  1.00  0.00    +0.000 F 
ATOM     76  C51 UNL A   1      13.848  31.881  -0.727  1.00  0.00    +0.000 C 
ATOM     77  F15 UNL A   1      14.897  31.479  -1.460  1.00  0.00    +0.000 F 
ENDBRANCH   66   67
TORSDOF 22
ENDMDL
MODEL 5
REMARK VINA RESULT:      -8.5      1.460      2.141
ROOT
ATOM    129  H31 UNL A   1      29.439  33.435  42.878  1.00  0.00    +0.000 H 
ATOM    130  H32 UNL A   1      29.552  41.349  49.062  1.00  0.00    +0.000 H 
ATOM    131  H33 UNL A   1      27.486  40.432  50.264  1.00  0.00    +0.000 H 
ATOM     30  C22 UNL A   1      26.359  38.135  49.009  1.00  0.00    +0.000 C 
ATOM     31  C23 UNL A   1      27.643  38.836  48.659  1.00  0.00    +0.000 C 
ATOM     32  N3  UNL A   1      28.513  38.556  47.723  1.00  0.00    +0.000 N 
ATOM     33  C24 UNL A   1      29.486  39.545  47.803  1.00  0.00    +0.000 C 
ATOM     34  C25 UNL A   1      30.636  39.657  47.098  1.00  0.00    +0.000 C 
ATOM     46  C32 UNL A   1      31.058  38.723  46.087  1.00  0.00    +0.000 C 
ATOM     47  C33 UNL A   1      32.229  38.720  45.350  1.00  0.00    +0.000 C 
ATOM     48  C34 UNL A   1      32.174  37.654  44.446  1.00  0.00    +0.000 C 
ATOM     49  C35 UNL A   1      31.000  36.953  44.666  1.00  0.00    +0.000 C 
ATOM     50  N4  UNL A   1      30.320  37.624  45.671  1.00  0.00    +0.000 N 
ATOM     51  C36 UNL A   1      30.533  35.756  44.010  1.00  0.00    +0.000 C 
ATOM     63  C43 UNL A   1      29.364  35.127  44.283  1.00  0.00    +0.000 C 
ATOM     64  N5  UNL A   1      28.393  35.455  45.220  1.00  0.00    +0.000 N 
ATOM     65  C44 UNL A   1      27.453  34.549  45.097  1.00  0.00    +0.000 C 
ATOM     66  C45 UNL A   1      26.178  34.386  45.883  1.00  0.00    +0.000 C 
ATOM     78  C52 UNL A   1      25.908  35.252  46.879  1.00  0.00    +0.000 C 
ATOM     79  C53 UNL A   1      24.720  35.225  47.726  1.00  0.00    +0.000 C 
ATOM     80  C54 UNL A   1      24.755  36.274  48.563  1.00  0.00    +0.000 C 
ATOM     81  C55 UNL A   1      25.992  37.024  48.342  1.00  0.00    +0.000 C 
ATOM     82  N6  UNL A   1      26.619  36.337  47.332  1.00  0.00    +0.000 N 
ATOM     83  C56 UNL A   1      27.706  33.564  44.035  1.00  0.00    +0.000 C 
ATOM     84  C57 UNL A   1      28.903  33.934  43.604  1.00  0.00    +0.000 C 
ATOM     85  C58 UNL A   1      29.066  40.468  48.834  1.00  0.00    +0.000 C 
ATOM     86  C59 UNL A   1      27.975  40.034  49.446  1.00  0.00    +0.000 C 
ATOM    122  H24 UNL A   1      33.008  39.389  45.450  1.00  0.00    +0.000 H 
ATOM    123  H25 UNL A   1      32.887  37.429  43.735  1.00  0.00    +0.000 H 
ATOM    124  H26 UNL A   1      29.444  37.361  46.034  1.00  0.00    +0.000 H 
ATOM    125  H27 UNL A   1      23.973  34.514  47.688  1.00  0.00    +0.000 H 
ATOM    126  H28 UNL A   1      24.025  36.515  49.252  1.00  0.00    +0.000 H 
ATOM    127  H29 UNL A   1      27.496  36.597  46.967  1.00  0.00    +0.000 H 
ATOM    128  H30 UNL A   1      27.107  32.789  43.711  1.00  0.00    +0.000 H 
ENDROOT
BRANCH   30   29
ATOM    132  H34 UNL A   1      24.589  40.119  48.733  1.00  0.00    +0.000 H 
ATOM    133  H35 UNL A   1      23.217  41.171  50.432  1.00  0.00    +0.000 H 
ATOM    120  H22 UNL A   1      24.554  38.361  53.264  1.00  0.00    +0.000 H 
ATOM     87  C60 UNL A   1      24.605  39.764  49.702  1.00  0.00    +0.000 C 
ATOM     88  C61 UNL A   1      23.780  40.338  50.664  1.00  0.00    +0.000 C 
ATOM    121  H23 UNL A   1      26.122  37.476  51.633  1.00  0.00    +0.000 H 
ATOM     26  C18 UNL A   1      23.715  39.782  51.944  1.00  0.00    +0.000 C 
ATOM     27  C19 UNL A   1      24.574  38.743  52.305  1.00  0.00    +0.000 C 
ATOM     28  C20 UNL A   1      25.462  38.221  51.361  1.00  0.00    +0.000 C 
ATOM     29  C21 UNL A   1      25.461  38.706  50.043  1.00  0.00    +0.000 C 
BRANCH   26   24
ATOM     25  O6  UNL A   1      21.821  41.012  52.579  1.00  0.00    +0.000 O 
ATOM     24  C17 UNL A   1      22.740  40.282  52.935  1.00  0.00    +0.000 C 
BRANCH   24   23
ATOM    119  H21 UNL A   1      23.676  40.289  54.709  1.00  0.00    +0.000 H 
ATOM     23  N2  UNL A   1      22.877  39.933  54.256  1.00  0.00    +0.000 N 
BRANCH   23   22
ATOM    118  H20 UNL A   1      21.018  39.525  55.024  1.00  0.00    +0.000 H 
ATOM    117  H19 UNL A   1      22.374  39.116  56.082  1.00  0.00    +0.000 H 
ATOM     22  C16 UNL A   1      22.004  39.112  55.078  1.00  0.00    +0.000 C 
BRANCH   22   21
ATOM    115  H17 UNL A   1      22.821  37.472  54.018  1.00  0.00    +0.000 H 
ATOM    116  H18 UNL A   1      21.846  37.058  55.457  1.00  0.00    +0.000 H 
ATOM     21  C15 UNL A   1      21.935  37.672  54.586  1.00  0.00    +0.000 C 
BRANCH   21   20
ATOM    113  H15 UNL A   1      20.204  36.528  54.146  1.00  0.00    +0.000 H 
ATOM    114  H16 UNL A   1      20.145  38.253  53.665  1.00  0.00    +0.000 H 
ATOM     20  C14 UNL A   1      20.724  37.354  53.706  1.00  0.00    +0.000 C 
BRANCH   20   19
ATOM     19  C13 UNL A   1      21.045  36.992  52.253  1.00  0.00    +0.000 C 
ATOM    111  H13 UNL A   1      20.172  37.177  51.664  1.00  0.00    +0.000 H 
ATOM    112  H14 UNL A   1      21.883  37.596  51.973  1.00  0.00    +0.000 H 
BRANCH   19   18
ATOM     18  C12 UNL A   1      21.472  35.541  52.025  1.00  0.00    +0.000 C 
ATOM    109  H11 UNL A   1      22.193  35.284  52.772  1.00  0.00    +0.000 H 
ATOM    110  H12 UNL A   1      20.583  34.949  52.083  1.00  0.00    +0.000 H 
BRANCH   18   17
ATOM     17  C11 UNL A   1      22.085  35.272  50.660  1.00  0.00    +0.000 C 
ATOM    107  H9  UNL A   1      22.647  36.134  50.363  1.00  0.00    +0.000 H 
ATOM    108  H10 UNL A   1      22.702  34.403  50.754  1.00  0.00    +0.000 H 
BRANCH   17   16
ATOM    106  H8  UNL A   1      20.342  34.438  49.933  1.00  0.00    +0.000 H 
ATOM     16  N1  UNL A   1      21.101  34.993  49.638  1.00  0.00    +0.000 N 
BRANCH   16   14
ATOM     14  C10 UNL A   1      21.060  35.376  48.326  1.00  0.00    +0.000 C 
ATOM     15  O5  UNL A   1      21.398  34.532  47.495  1.00  0.00    +0.000 O 
BRANCH   14   13
ATOM      1  O1  UNL A   1      22.889  38.273  45.733  1.00  0.00    +0.000 O 
ATOM      2  C1  UNL A   1      22.143  37.959  46.644  1.00  0.00    +0.000 C 
ATOM      3  O2  UNL A   1      22.276  38.352  47.935  1.00  0.00    +0.000 O 
ATOM      4  C2  UNL A   1      21.165  37.893  48.725  1.00  0.00    +0.000 C 
ATOM     99  H1  UNL A   1      21.474  37.515  49.679  1.00  0.00    +0.000 H 
ATOM    105  H7  UNL A   1      19.464  36.675  48.094  1.00  0.00    +0.000 H 
ATOM     13  C9  UNL A   1      20.518  36.758  47.937  1.00  0.00    +0.000 C 
ATOM     89  C62 UNL A   1      20.938  37.117  46.550  1.00  0.00    +0.000 C 
BRANCH    4    5
ATOM    100  H2  UNL A   1      18.801  37.853  50.122  1.00  0.00    +0.000 H 
ATOM      5  C3  UNL A   1      20.224  39.043  49.100  1.00  0.00    +0.000 C 
ATOM      6  C4  UNL A   1      19.064  38.821  49.878  1.00  0.00    +0.000 C 
ATOM      7  C5  UNL A   1      18.261  39.875  50.326  1.00  0.00    +0.000 C 
ATOM    104  H6  UNL A   1      21.377  40.572  48.198  1.00  0.00    +0.000 H 
ATOM    101  H3  UNL A   1      17.428  39.689  50.907  1.00  0.00    +0.000 H 
ATOM     10  C7  UNL A   1      19.722  41.411  49.194  1.00  0.00    +0.000 C 
ATOM      8  C6  UNL A   1      18.599  41.172  49.979  1.00  0.00    +0.000 C 
ATOM     12  C8  UNL A   1      20.538  40.369  48.765  1.00  0.00    +0.000 C 
BRANCH    8    9
ATOM      9  O3  UNL A   1      17.861  42.245  50.389  1.00  0.00    +0.000 O 
ATOM    102  H4  UNL A   1      17.618  42.909  49.775  1.00  0.00    +0.000 H 
ENDBRANCH    8    9
BRANCH   10   11
ATOM     11  O4  UNL A   1      20.042  42.692  48.844  1.00  0.00    +0.000 O 
ATOM    103  H5  UNL A   1      20.890  43.035  49.051  1.00  0.00    +0.000 H 
ENDBRANCH   10   11
ENDBRANCH    4    5
BRANCH   89   90
ATOM     90  C63 UNL A   1      20.412  36.823  45.352  1.00  0.00    +0.000 C 
ATOM    134  H36 UNL A   1      20.780  37.325  44.528  1.00  0.00    +0.000 H 
BRANCH   90   91
ATOM     98  C69 UNL A   1      19.664  34.618  44.532  1.00  0.00    +0.000 C 
ATOM    135  H37 UNL A   1      17.788  37.031  45.918  1.00  0.00    +0.000 H 
ATOM    136  H38 UNL A   1      16.040  35.381  45.546  1.00  0.00    +0.000 H 
ATOM    139  H41 UNL A   1      20.637  34.407  44.255  1.00  0.00    +0.000 H 
ATOM     91  C64 UNL A   1      19.351  35.840  45.137  1.00  0.00    +0.000 C 
ATOM     92  C65 UNL A   1      18.023  36.121  45.492  1.00  0.00    +0.000 C 
ATOM     93  C66 UNL A   1      17.014  35.178  45.272  1.00  0.00    +0.000 C 
ATOM     94  C67 UNL A   1      17.341  33.964  44.681  1.00  0.00    +0.000 C 
ATOM     96  C68 UNL A   1      18.656  33.692  44.310  1.00  0.00    +0.000 C 
BRANCH   94   95
ATOM    137  H39 UNL A   1      16.452  32.483  43.660  1.00  0.00    +0.000 H 
ATOM     95  O7  UNL A   1      16.400  33.002  44.438  1.00  0.00    +0.000 O 
ENDBRANCH   94   95
BRANCH   96   97
ATOM     97  O8  UNL A   1      18.962  32.502  43.715  1.00  0.00    +0.000 O 
ATOM    138  H40 UNL A   1      18.389  32.140  43.068  1.00  0.00    +0.000 H 
ENDBRANCH   96   97
ENDBRANCH   90   91
ENDBRANCH   89   90
ENDBRANCH   14   13
ENDBRANCH   16   14
ENDBRANCH   17   16
ENDBRANCH   18   17
ENDBRANCH   19   18
ENDBRANCH   20   19
ENDBRANCH   21   20
ENDBRANCH   22   21
ENDBRANCH   23   22
ENDBRANCH   24   23
ENDBRANCH   26   24
ENDBRANCH   30   29
BRANCH   34   35
ATOM     35  C26 UNL A   1      31.520  40.836  47.392  1.00  0.00    +0.000 C 
ATOM     36  C27 UNL A   1      31.367  42.059  46.720  1.00  0.00    +0.000 C 
ATOM     37  F1  UNL A   1      30.444  42.191  45.757  1.00  0.00    +0.000 F 
ATOM     38  C28 UNL A   1      32.195  43.143  47.005  1.00  0.00    +0.000 C 
ATOM     39  F2  UNL A   1      32.068  44.281  46.309  1.00  0.00    +0.000 F 
ATOM     40  C29 UNL A   1      33.161  43.040  47.994  1.00  0.00    +0.000 C 
ATOM     41  F3  UNL A   1      33.951  44.086  48.272  1.00  0.00    +0.000 F 
ATOM     42  C30 UNL A   1      33.312  41.850  48.690  1.00  0.00    +0.000 C 
ATOM     43  F4  UNL A   1      34.235  41.753  49.656  1.00  0.00    +0.000 F 
ATOM     44  C31 UNL A   1      32.511  40.753  48.382  1.00  0.00    +0.000 C 
ATOM     45  F5  UNL A   1      32.698  39.610  49.059  1.00  0.00    +0.000 F 
ENDBRANCH   34   35
BRANCH   51   52
ATOM     52  C37 UNL A   1      31.426  35.141  42.970  1.00  0.00    +0.000 C 
ATOM     53  C38 UNL A   1      31.443  35.596  41.644  1.00  0.00    +0.000 C 
ATOM     54  F6  UNL A   1      30.606  36.570  41.254  1.00  0.00    +0.000 F 
ATOM     55  C39 UNL A   1      32.294  35.024  40.702  1.00  0.00    +0.000 C 
ATOM     56  F7  UNL A   1      32.257  35.440  39.428  1.00  0.00    +0.000 F 
ATOM     57  C40 UNL A   1      33.170  34.017  41.075  1.00  0.00    +0.000 C 
ATOM     58  F8  UNL A   1      33.997  33.476  40.170  1.00  0.00    +0.000 F 
ATOM     59  C41 UNL A   1      33.185  33.564  42.385  1.00  0.00    +0.000 C 
ATOM     60  F9  UNL A   1      34.044  32.604  42.754  1.00  0.00    +0.000 F 
ATOM     61  C42 UNL A   1      32.311  34.109  43.322  1.00  0.00    +0.000 C 
ATOM     62  F10 UNL A   1      32.342  33.643  44.579  1.00  0.00    +0.000 F 
ENDBRANCH   51   52
BRANCH   66   67
ATOM     67  C46 UNL A   1      25.237  33.274  45.587  1.00  0.00    +0.000 C 
ATOM     68  C47 UNL A   1      25.426  32.002  46.148  1.00  0.00    +0.000 C 
ATOM     69  F11 UNL A   1      26.470  31.777  46.958  1.00  0.00    +0.000 F 
ATOM     70  C48 UNL A   1      24.571  30.945  45.841  1.00  0.00    +0.000 C 
ATOM     71  F12 UNL A   1      24.808  29.728  46.348  1.00  0.00    +0.000 F 
ATOM     72  C49 UNL A   1      23.490  31.147  44.997  1.00  0.00    +0.000 C 
ATOM     73  F13 UNL A   1      22.668  30.130  44.703  1.00  0.00    +0.000 F 
ATOM     74  C50 UNL A   1      23.269  32.401  44.450  1.00  0.00    +0.000 C 
ATOM     75  F14 UNL A   1      22.216  32.606  43.647  1.00  0.00    +0.000 F 
ATOM     76  C51 UNL A   1      24.142  33.451  44.730  1.00  0.00    +0.000 C 
ATOM     77  F15 UNL A   1      23.911  34.649  44.172  1.00  0.00    +0.000 F 
ENDBRANCH   66   67
TORSDOF 22
ENDMDL
MODEL 6
REMARK VINA RESULT:      -8.4     48.134     51.613
ROOT
ATOM    129  H31 UNL A   1      20.250  60.229   1.278  1.00  0.00    +0.000 H 
ATOM    130  H32 UNL A   1      22.599  53.995  -6.240  1.00  0.00    +0.000 H 
ATOM    131  H33 UNL A   1      20.385  52.756  -5.897  1.00  0.00    +0.000 H 
ATOM     30  C22 UNL A   1      18.930  53.628  -3.606  1.00  0.00    +0.000 C 
ATOM     31  C23 UNL A   1      20.184  54.227  -4.181  1.00  0.00    +0.000 C 
ATOM     32  N3  UNL A   1      20.874  55.261  -3.771  1.00  0.00    +0.000 N 
ATOM     33  C24 UNL A   1      21.963  55.352  -4.628  1.00  0.00    +0.000 C 
ATOM     34  C25 UNL A   1      22.931  56.299  -4.666  1.00  0.00    +0.000 C 
ATOM     46  C32 UNL A   1      22.997  57.422  -3.769  1.00  0.00    +0.000 C 
ATOM     47  C33 UNL A   1      23.908  58.463  -3.755  1.00  0.00    +0.000 C 
ATOM     48  C34 UNL A   1      23.613  59.289  -2.666  1.00  0.00    +0.000 C 
ATOM     49  C35 UNL A   1      22.477  58.800  -2.040  1.00  0.00    +0.000 C 
ATOM     50  N4  UNL A   1      22.114  57.649  -2.722  1.00  0.00    +0.000 N 
ATOM     51  C36 UNL A   1      21.774  59.345  -0.905  1.00  0.00    +0.000 C 
ATOM     63  C43 UNL A   1      20.664  58.803  -0.347  1.00  0.00    +0.000 C 
ATOM     64  N5  UNL A   1      19.963  57.664  -0.723  1.00  0.00    +0.000 N 
ATOM     65  C44 UNL A   1      18.971  57.554   0.127  1.00  0.00    +0.000 C 
ATOM     66  C45 UNL A   1      17.869  56.529   0.177  1.00  0.00    +0.000 C 
ATOM     78  C52 UNL A   1      17.829  55.564  -0.763  1.00  0.00    +0.000 C 
ATOM     79  C53 UNL A   1      16.829  54.505  -0.847  1.00  0.00    +0.000 C 
ATOM     80  C54 UNL A   1      17.139  53.690  -1.867  1.00  0.00    +0.000 C 
ATOM     81  C55 UNL A   1      18.337  54.196  -2.539  1.00  0.00    +0.000 C 
ATOM     82  N6  UNL A   1      18.670  55.318  -1.821  1.00  0.00    +0.000 N 
ATOM     83  C56 UNL A   1      18.955  58.595   1.165  1.00  0.00    +0.000 C 
ATOM     84  C57 UNL A   1      19.977  59.354   0.802  1.00  0.00    +0.000 C 
ATOM     85  C58 UNL A   1      21.880  54.232  -5.539  1.00  0.00    +0.000 C 
ATOM     86  C59 UNL A   1      20.759  53.552  -5.356  1.00  0.00    +0.000 C 
ATOM    122  H24 UNL A   1      24.673  58.606  -4.433  1.00  0.00    +0.000 H 
ATOM    123  H25 UNL A   1      24.151  60.121  -2.377  1.00  0.00    +0.000 H 
ATOM    124  H26 UNL A   1      21.345  57.078  -2.497  1.00  0.00    +0.000 H 
ATOM    125  H27 UNL A   1      16.013  54.399  -0.223  1.00  0.00    +0.000 H 
ATOM    126  H28 UNL A   1      16.617  52.841  -2.135  1.00  0.00    +0.000 H 
ATOM    127  H29 UNL A   1      19.438  55.892  -2.044  1.00  0.00    +0.000 H 
ATOM    128  H30 UNL A   1      18.315  58.703   1.967  1.00  0.00    +0.000 H 
ENDROOT
BRANCH   30   29
ATOM    132  H34 UNL A   1      19.452  51.119  -2.843  1.00  0.00    +0.000 H 
ATOM    133  H35 UNL A   1      18.692  49.044  -3.839  1.00  0.00    +0.000 H 
ATOM    120  H22 UNL A   1      16.246  51.205  -6.493  1.00  0.00    +0.000 H 
ATOM     87  C60 UNL A   1      18.795  51.139  -3.637  1.00  0.00    +0.000 C 
ATOM     88  C61 UNL A   1      18.322  49.946  -4.175  1.00  0.00    +0.000 C 
ATOM    121  H23 UNL A   1      17.205  53.281  -5.675  1.00  0.00    +0.000 H 
ATOM     26  C18 UNL A   1      17.343  49.974  -5.172  1.00  0.00    +0.000 C 
ATOM     27  C19 UNL A   1      16.938  51.189  -5.728  1.00  0.00    +0.000 C 
ATOM     28  C20 UNL A   1      17.476  52.384  -5.244  1.00  0.00    +0.000 C 
ATOM     29  C21 UNL A   1      18.383  52.369  -4.172  1.00  0.00    +0.000 C 
BRANCH   26   24
ATOM     25  O6  UNL A   1      16.912  48.345  -6.804  1.00  0.00    +0.000 O 
ATOM     24  C17 UNL A   1      16.721  48.724  -5.653  1.00  0.00    +0.000 C 
BRANCH   24   23
ATOM    119  H21 UNL A   1      15.043  48.398  -4.605  1.00  0.00    +0.000 H 
ATOM     23  N2  UNL A   1      15.919  47.997  -4.809  1.00  0.00    +0.000 N 
BRANCH   23   22
ATOM    118  H20 UNL A   1      16.843  46.165  -4.813  1.00  0.00    +0.000 H 
ATOM    117  H19 UNL A   1      15.256  46.203  -4.035  1.00  0.00    +0.000 H 
ATOM     22  C16 UNL A   1      16.184  46.717  -4.175  1.00  0.00    +0.000 C 
BRANCH   22   21
ATOM    115  H17 UNL A   1      16.777  45.947  -2.294  1.00  0.00    +0.000 H 
ATOM    116  H18 UNL A   1      17.882  47.145  -3.025  1.00  0.00    +0.000 H 
ATOM     21  C15 UNL A   1      16.867  46.874  -2.822  1.00  0.00    +0.000 C 
BRANCH   21   20
ATOM    113  H15 UNL A   1      16.419  48.914  -2.453  1.00  0.00    +0.000 H 
ATOM    114  H16 UNL A   1      15.266  47.724  -1.771  1.00  0.00    +0.000 H 
ATOM     20  C14 UNL A   1      16.290  47.984  -1.940  1.00  0.00    +0.000 C 
BRANCH   20   19
ATOM     19  C13 UNL A   1      16.926  48.117  -0.552  1.00  0.00    +0.000 C 
ATOM    111  H13 UNL A   1      16.174  48.462   0.125  1.00  0.00    +0.000 H 
ATOM    112  H14 UNL A   1      17.310  47.149  -0.306  1.00  0.00    +0.000 H 
BRANCH   19   18
ATOM     18  C12 UNL A   1      18.113  49.077  -0.472  1.00  0.00    +0.000 C 
ATOM    109  H11 UNL A   1      18.806  48.693   0.246  1.00  0.00    +0.000 H 
ATOM    110  H12 UNL A   1      18.525  49.137  -1.458  1.00  0.00    +0.000 H 
BRANCH   18   17
ATOM     17  C11 UNL A   1      17.747  50.497  -0.067  1.00  0.00    +0.000 C 
ATOM    107  H9  UNL A   1      18.271  51.179  -0.705  1.00  0.00    +0.000 H 
ATOM    108  H10 UNL A   1      16.686  50.592  -0.165  1.00  0.00    +0.000 H 
BRANCH   17   16
ATOM    106  H8  UNL A   1      18.463  51.700   1.450  1.00  0.00    +0.000 H 
ATOM     16  N1  UNL A   1      18.083  50.803   1.305  1.00  0.00    +0.000 N 
BRANCH   16   14
ATOM     14  C10 UNL A   1      17.955  50.042   2.434  1.00  0.00    +0.000 C 
ATOM     15  O5  UNL A   1      18.911  49.321   2.723  1.00  0.00    +0.000 O 
BRANCH   14   13
ATOM      1  O1  UNL A   1      14.039  48.411   1.749  1.00  0.00    +0.000 O 
ATOM      2  C1  UNL A   1      14.797  49.226   2.246  1.00  0.00    +0.000 C 
ATOM      3  O2  UNL A   1      14.788  50.558   1.995  1.00  0.00    +0.000 O 
ATOM      4  C2  UNL A   1      15.739  51.241   2.830  1.00  0.00    +0.000 C 
ATOM     99  H1  UNL A   1      16.289  51.987   2.294  1.00  0.00    +0.000 H 
ATOM    105  H7  UNL A   1      17.117  50.386   4.296  1.00  0.00    +0.000 H 
ATOM     13  C9  UNL A   1      16.714  50.178   3.327  1.00  0.00    +0.000 C 
ATOM     89  C62 UNL A   1      15.860  48.958   3.230  1.00  0.00    +0.000 C 
BRANCH    4    5
ATOM    100  H2  UNL A   1      13.672  53.041   2.659  1.00  0.00    +0.000 H 
ATOM      5  C3  UNL A   1      15.046  52.052   3.931  1.00  0.00    +0.000 C 
ATOM      6  C4  UNL A   1      13.951  52.900   3.642  1.00  0.00    +0.000 C 
ATOM      7  C5  UNL A   1      13.235  53.553   4.651  1.00  0.00    +0.000 C 
ATOM    104  H6  UNL A   1      16.208  51.291   5.528  1.00  0.00    +0.000 H 
ATOM    101  H3  UNL A   1      12.429  54.153   4.416  1.00  0.00    +0.000 H 
ATOM     10  C7  UNL A   1      14.712  52.573   6.273  1.00  0.00    +0.000 C 
ATOM      8  C6  UNL A   1      13.623  53.382   5.969  1.00  0.00    +0.000 C 
ATOM     12  C8  UNL A   1      15.413  51.901   5.277  1.00  0.00    +0.000 C 
BRANCH    8    9
ATOM      9  O3  UNL A   1      12.963  53.986   7.000  1.00  0.00    +0.000 O 
ATOM    102  H4  UNL A   1      12.472  54.769   6.848  1.00  0.00    +0.000 H 
ENDBRANCH    8    9
BRANCH   10   11
ATOM     11  O4  UNL A   1      15.098  52.420   7.574  1.00  0.00    +0.000 O 
ATOM    103  H5  UNL A   1      14.453  52.274   8.240  1.00  0.00    +0.000 H 
ENDBRANCH   10   11
ENDBRANCH    4    5
BRANCH   89   90
ATOM     90  C63 UNL A   1      15.909  47.779   3.866  1.00  0.00    +0.000 C 
ATOM    134  H36 UNL A   1      16.447  47.015   3.426  1.00  0.00    +0.000 H 
BRANCH   90   91
ATOM     98  C69 UNL A   1      13.953  46.984   5.147  1.00  0.00    +0.000 C 
ATOM    135  H37 UNL A   1      16.841  48.191   6.358  1.00  0.00    +0.000 H 
ATOM    136  H38 UNL A   1      15.727  47.729   8.471  1.00  0.00    +0.000 H 
ATOM    139  H41 UNL A   1      13.470  46.784   4.257  1.00  0.00    +0.000 H 
ATOM     91  C64 UNL A   1      15.252  47.503   5.144  1.00  0.00    +0.000 C 
ATOM     92  C65 UNL A   1      15.891  47.788   6.361  1.00  0.00    +0.000 C 
ATOM     93  C66 UNL A   1      15.251  47.531   7.576  1.00  0.00    +0.000 C 
ATOM     94  C67 UNL A   1      13.965  47.005   7.564  1.00  0.00    +0.000 C 
ATOM     96  C68 UNL A   1      13.323  46.740   6.358  1.00  0.00    +0.000 C 
BRANCH   94   95
ATOM    137  H39 UNL A   1      13.681  46.203   9.382  1.00  0.00    +0.000 H 
ATOM     95  O7  UNL A   1      13.285  46.733   8.720  1.00  0.00    +0.000 O 
ENDBRANCH   94   95
BRANCH   96   97
ATOM     97  O8  UNL A   1      12.053  46.238   6.359  1.00  0.00    +0.000 O 
ATOM    138  H40 UNL A   1      11.658  45.960   5.555  1.00  0.00    +0.000 H 
ENDBRANCH   96   97
ENDBRANCH   90   91
ENDBRANCH   89   90
ENDBRANCH   14   13
ENDBRANCH   16   14
ENDBRANCH   17   16
ENDBRANCH   18   17
ENDBRANCH   19   18
ENDBRANCH   20   19
ENDBRANCH   21   20
ENDBRANCH   22   21
ENDBRANCH   23   22
ENDBRANCH   24   23
ENDBRANCH   26   24
ENDBRANCH   30   29
BRANCH   34   35
ATOM     35  C26 UNL A   1      24.001  56.158  -5.711  1.00  0.00    +0.000 C 
ATOM     36  C27 UNL A   1      23.838  56.669  -7.008  1.00  0.00    +0.000 C 
ATOM     37  F1  UNL A   1      22.689  57.265  -7.361  1.00  0.00    +0.000 F 
ATOM     38  C28 UNL A   1      24.840  56.531  -7.967  1.00  0.00    +0.000 C 
ATOM     39  F2  UNL A   1      24.637  56.975  -9.214  1.00  0.00    +0.000 F 
ATOM     40  C29 UNL A   1      26.039  55.918  -7.636  1.00  0.00    +0.000 C 
ATOM     41  F3  UNL A   1      27.005  55.792  -8.556  1.00  0.00    +0.000 F 
ATOM     42  C30 UNL A   1      26.233  55.429  -6.353  1.00  0.00    +0.000 C 
ATOM     43  F4  UNL A   1      27.397  54.849  -6.027  1.00  0.00    +0.000 F 
ATOM     44  C31 UNL A   1      25.219  55.533  -5.404  1.00  0.00    +0.000 C 
ATOM     45  F5  UNL A   1      25.432  55.030  -4.178  1.00  0.00    +0.000 F 
ENDBRANCH   34   35
BRANCH   51   52
ATOM     52  C37 UNL A   1      22.290  60.628  -0.318  1.00  0.00    +0.000 C 
ATOM     53  C38 UNL A   1      21.836  61.880  -0.756  1.00  0.00    +0.000 C 
ATOM     54  F6  UNL A   1      20.958  61.964  -1.767  1.00  0.00    +0.000 F 
ATOM     55  C39 UNL A   1      22.314  63.056  -0.182  1.00  0.00    +0.000 C 
ATOM     56  F7  UNL A   1      21.904  64.242  -0.651  1.00  0.00    +0.000 F 
ATOM     57  C40 UNL A   1      23.221  63.001   0.865  1.00  0.00    +0.000 C 
ATOM     58  F8  UNL A   1      23.670  64.133   1.424  1.00  0.00    +0.000 F 
ATOM     59  C41 UNL A   1      23.669  61.774   1.328  1.00  0.00    +0.000 C 
ATOM     60  F9  UNL A   1      24.532  61.717   2.352  1.00  0.00    +0.000 F 
ATOM     61  C42 UNL A   1      23.221  60.598   0.733  1.00  0.00    +0.000 C 
ATOM     62  F10 UNL A   1      23.681  59.426   1.196  1.00  0.00    +0.000 F 
ENDBRANCH   51   52
BRANCH   66   67
ATOM     67  C46 UNL A   1      16.823  56.586   1.232  1.00  0.00    +0.000 C 
ATOM     68  C47 UNL A   1      15.663  57.355   1.055  1.00  0.00    +0.000 C 
ATOM     69  F11 UNL A   1      15.492  58.056  -0.075  1.00  0.00    +0.000 F 
ATOM     70  C48 UNL A   1      14.698  57.446   2.056  1.00  0.00    +0.000 C 
ATOM     71  F12 UNL A   1      13.628  58.232   1.881  1.00  0.00    +0.000 F 
ATOM     72  C49 UNL A   1      14.855  56.741   3.239  1.00  0.00    +0.000 C 
ATOM     73  F13 UNL A   1      13.927  56.827   4.202  1.00  0.00    +0.000 F 
ATOM     74  C50 UNL A   1      15.981  55.954   3.427  1.00  0.00    +0.000 C 
ATOM     75  F14 UNL A   1      16.130  55.257   4.562  1.00  0.00    +0.000 F 
ATOM     76  C51 UNL A   1      16.963  55.888   2.440  1.00  0.00    +0.000 C 
ATOM     77  F15 UNL A   1      18.048  55.132   2.658  1.00  0.00    +0.000 F 
ENDBRANCH   66   67
TORSDOF 22
ENDMDL
MODEL 7
REMARK VINA RESULT:      -8.4     42.940     45.668
ROOT
ATOM    129  H31 UNL A   1      15.127  46.898   0.703  1.00  0.00    +0.000 H 
ATOM    130  H32 UNL A   1      16.426  56.649   2.736  1.00  0.00    +0.000 H 
ATOM    131  H33 UNL A   1      15.109  56.365   4.912  1.00  0.00    +0.000 H 
ATOM     30  C22 UNL A   1      13.930  53.786   5.207  1.00  0.00    +0.000 C 
ATOM     31  C23 UNL A   1      14.878  54.247   4.134  1.00  0.00    +0.000 C 
ATOM     32  N3  UNL A   1      15.366  53.582   3.117  1.00  0.00    +0.000 N 
ATOM     33  C24 UNL A   1      16.149  54.489   2.415  1.00  0.00    +0.000 C 
ATOM     34  C25 UNL A   1      16.925  54.270   1.327  1.00  0.00    +0.000 C 
ATOM     46  C32 UNL A   1      17.066  52.991   0.680  1.00  0.00    +0.000 C 
ATOM     47  C33 UNL A   1      17.866  52.653  -0.398  1.00  0.00    +0.000 C 
ATOM     48  C34 UNL A   1      17.628  51.312  -0.714  1.00  0.00    +0.000 C 
ATOM     49  C35 UNL A   1      16.732  50.796   0.208  1.00  0.00    +0.000 C 
ATOM     50  N4  UNL A   1      16.389  51.840   1.053  1.00  0.00    +0.000 N 
ATOM     51  C36 UNL A   1      16.227  49.449   0.311  1.00  0.00    +0.000 C 
ATOM     63  C43 UNL A   1      15.345  49.020   1.246  1.00  0.00    +0.000 C 
ATOM     64  N5  UNL A   1      14.758  49.731   2.285  1.00  0.00    +0.000 N 
ATOM     65  C44 UNL A   1      13.977  48.881   2.907  1.00  0.00    +0.000 C 
ATOM     66  C45 UNL A   1      13.125  49.091   4.131  1.00  0.00    +0.000 C 
ATOM     78  C52 UNL A   1      13.127  50.297   4.732  1.00  0.00    +0.000 C 
ATOM     79  C53 UNL A   1      12.357  50.654   5.919  1.00  0.00    +0.000 C 
ATOM     80  C54 UNL A   1      12.553  51.952   6.195  1.00  0.00    +0.000 C 
ATOM     81  C55 UNL A   1      13.501  52.510   5.229  1.00  0.00    +0.000 C 
ATOM     82  N6  UNL A   1      13.795  51.452   4.405  1.00  0.00    +0.000 N 
ATOM     83  C56 UNL A   1      13.951  47.540   2.305  1.00  0.00    +0.000 C 
ATOM     84  C57 UNL A   1      14.836  47.667   1.328  1.00  0.00    +0.000 C 
ATOM     85  C58 UNL A   1      16.019  55.765   3.081  1.00  0.00    +0.000 C 
ATOM     86  C59 UNL A   1      15.308  55.653   4.192  1.00  0.00    +0.000 C 
ATOM    122  H24 UNL A   1      18.524  53.282  -0.883  1.00  0.00    +0.000 H 
ATOM    123  H25 UNL A   1      18.048  50.795  -1.502  1.00  0.00    +0.000 H 
ATOM    124  H26 UNL A   1      15.757  51.773   1.805  1.00  0.00    +0.000 H 
ATOM    125  H27 UNL A   1      11.757  50.011   6.460  1.00  0.00    +0.000 H 
ATOM    126  H28 UNL A   1      12.107  52.475   6.965  1.00  0.00    +0.000 H 
ATOM    127  H29 UNL A   1      14.427  51.515   3.652  1.00  0.00    +0.000 H 
ATOM    128  H30 UNL A   1      13.391  46.717   2.574  1.00  0.00    +0.000 H 
ENDROOT
BRANCH   30   29
ATOM    132  H34 UNL A   1      14.972  54.413   7.588  1.00  0.00    +0.000 H 
ATOM    133  H35 UNL A   1      14.074  55.880   9.295  1.00  0.00    +0.000 H 
ATOM    120  H22 UNL A   1      10.946  56.989   6.709  1.00  0.00    +0.000 H 
ATOM     87  C60 UNL A   1      14.101  54.936   7.412  1.00  0.00    +0.000 C 
ATOM     88  C61 UNL A   1      13.614  55.816   8.374  1.00  0.00    +0.000 C 
ATOM    121  H23 UNL A   1      11.695  55.327   5.104  1.00  0.00    +0.000 H 
ATOM     26  C18 UNL A   1      12.501  56.610   8.089  1.00  0.00    +0.000 C 
ATOM     27  C19 UNL A   1      11.792  56.430   6.900  1.00  0.00    +0.000 C 
ATOM     28  C20 UNL A   1      12.234  55.487   5.968  1.00  0.00    +0.000 C 
ATOM     29  C21 UNL A   1      13.411  54.757   6.203  1.00  0.00    +0.000 C 
BRANCH   26   24
ATOM     25  O6  UNL A   1      12.327  58.831   8.826  1.00  0.00    +0.000 O 
ATOM     24  C17 UNL A   1      12.056  57.653   9.036  1.00  0.00    +0.000 C 
BRANCH   24   23
ATOM    119  H21 UNL A   1      11.115  58.032  10.766  1.00  0.00    +0.000 H 
ATOM     23  N2  UNL A   1      11.350  57.294  10.157  1.00  0.00    +0.000 N 
BRANCH   23   22
ATOM    118  H20 UNL A   1      11.766  55.398  10.821  1.00  0.00    +0.000 H 
ATOM    117  H19 UNL A   1      10.355  55.530   9.763  1.00  0.00    +0.000 H 
ATOM     22  C16 UNL A   1      10.900  55.975  10.569  1.00  0.00    +0.000 C 
BRANCH   22   21
ATOM    115  H17 UNL A   1       9.365  56.886  11.708  1.00  0.00    +0.000 H 
ATOM    116  H18 UNL A   1       9.464  55.106  11.822  1.00  0.00    +0.000 H 
ATOM     21  C15 UNL A   1      10.002  56.030  11.799  1.00  0.00    +0.000 C 
BRANCH   21   20
ATOM    113  H15 UNL A   1      11.000  57.159  13.291  1.00  0.00    +0.000 H 
ATOM    114  H16 UNL A   1      10.087  55.731  13.871  1.00  0.00    +0.000 H 
ATOM     20  C14 UNL A   1      10.748  56.131  13.131  1.00  0.00    +0.000 C 
BRANCH   20   19
ATOM     19  C13 UNL A   1      12.036  55.307  13.227  1.00  0.00    +0.000 C 
ATOM    111  H13 UNL A   1      12.200  54.836  12.281  1.00  0.00    +0.000 H 
ATOM    112  H14 UNL A   1      12.810  55.994  13.501  1.00  0.00    +0.000 H 
BRANCH   19   18
ATOM     18  C12 UNL A   1      12.033  54.221  14.303  1.00  0.00    +0.000 C 
ATOM    109  H11 UNL A   1      12.744  53.472  14.024  1.00  0.00    +0.000 H 
ATOM    110  H12 UNL A   1      12.276  54.703  15.225  1.00  0.00    +0.000 H 
BRANCH   18   17
ATOM     17  C11 UNL A   1      10.686  53.543  14.508  1.00  0.00    +0.000 C 
ATOM    107  H9  UNL A   1      10.192  54.012  15.334  1.00  0.00    +0.000 H 
ATOM    108  H10 UNL A   1      10.135  53.649  13.597  1.00  0.00    +0.000 H 
BRANCH   17   16
ATOM    106  H8  UNL A   1      10.022  51.733  15.246  1.00  0.00    +0.000 H 
ATOM     16  N1  UNL A   1      10.796  52.128  14.782  1.00  0.00    +0.000 N 
BRANCH   16   14
ATOM     14  C10 UNL A   1      11.807  51.251  14.499  1.00  0.00    +0.000 C 
ATOM     15  O5  UNL A   1      12.614  51.031  15.403  1.00  0.00    +0.000 O 
BRANCH   14   13
ATOM      1  O1  UNL A   1      12.711  52.912  10.641  1.00  0.00    +0.000 O 
ATOM      2  C1  UNL A   1      12.187  52.080  11.363  1.00  0.00    +0.000 C 
ATOM      3  O2  UNL A   1      10.853  51.862  11.465  1.00  0.00    +0.000 O 
ATOM      4  C2  UNL A   1      10.585  50.737  12.321  1.00  0.00    +0.000 C 
ATOM     99  H1  UNL A   1       9.764  50.918  12.984  1.00  0.00    +0.000 H 
ATOM    105  H7  UNL A   1      12.012  49.497  13.418  1.00  0.00    +0.000 H 
ATOM     13  C9  UNL A   1      11.846  50.520  13.151  1.00  0.00    +0.000 C 
ATOM     89  C62 UNL A   1      12.872  51.127  12.252  1.00  0.00    +0.000 C 
BRANCH    4    5
ATOM    100  H2  UNL A   1       8.378  50.422  10.716  1.00  0.00    +0.000 H 
ATOM      5  C3  UNL A   1      10.116  49.517  11.520  1.00  0.00    +0.000 C 
ATOM      6  C4  UNL A   1       8.962  49.572  10.703  1.00  0.00    +0.000 C 
ATOM      7  C5  UNL A   1       8.590  48.506   9.877  1.00  0.00    +0.000 C 
ATOM    104  H6  UNL A   1      11.722  48.257  12.079  1.00  0.00    +0.000 H 
ATOM    101  H3  UNL A   1       7.754  48.576   9.276  1.00  0.00    +0.000 H 
ATOM     10  C7  UNL A   1      10.483  47.271  10.691  1.00  0.00    +0.000 C 
ATOM      8  C6  UNL A   1       9.360  47.355   9.876  1.00  0.00    +0.000 C 
ATOM     12  C8  UNL A   1      10.873  48.336  11.496  1.00  0.00    +0.000 C 
BRANCH    8    9
ATOM      9  O3  UNL A   1       9.055  46.283   9.089  1.00  0.00    +0.000 O 
ATOM    102  H4  UNL A   1       8.165  46.117   8.846  1.00  0.00    +0.000 H 
ENDBRANCH    8    9
BRANCH   10   11
ATOM     11  O4  UNL A   1      11.231  46.128  10.695  1.00  0.00    +0.000 O 
ATOM    103  H5  UNL A   1      10.827  45.305  10.897  1.00  0.00    +0.000 H 
ENDBRANCH   10   11
ENDBRANCH    4    5
BRANCH   89   90
ATOM     90  C63 UNL A   1      14.193  50.929  12.142  1.00  0.00    +0.000 C 
ATOM    134  H36 UNL A   1      14.807  51.367  12.847  1.00  0.00    +0.000 H 
BRANCH   90   91
ATOM     98  C69 UNL A   1      14.218  48.941  10.678  1.00  0.00    +0.000 C 
ATOM    135  H37 UNL A   1      16.496  51.401  10.828  1.00  0.00    +0.000 H 
ATOM    136  H38 UNL A   1      17.525  50.059   9.079  1.00  0.00    +0.000 H 
ATOM    139  H41 UNL A   1      13.329  48.633  11.106  1.00  0.00    +0.000 H 
ATOM     91  C64 UNL A   1      14.822  50.134  11.088  1.00  0.00    +0.000 C 
ATOM     92  C65 UNL A   1      16.039  50.532  10.511  1.00  0.00    +0.000 C 
ATOM     93  C66 UNL A   1      16.637  49.759   9.512  1.00  0.00    +0.000 C 
ATOM     94  C67 UNL A   1      16.020  48.582   9.107  1.00  0.00    +0.000 C 
ATOM     96  C68 UNL A   1      14.823  48.177   9.692  1.00  0.00    +0.000 C 
BRANCH   94   95
ATOM    137  H39 UNL A   1      16.004  47.415   7.474  1.00  0.00    +0.000 H 
ATOM     95  O7  UNL A   1      16.556  47.782   8.136  1.00  0.00    +0.000 O 
ENDBRANCH   94   95
BRANCH   96   97
ATOM     97  O8  UNL A   1      14.234  47.010   9.298  1.00  0.00    +0.000 O 
ATOM    138  H40 UNL A   1      14.669  46.447   8.687  1.00  0.00    +0.000 H 
ENDBRANCH   96   97
ENDBRANCH   90   91
ENDBRANCH   89   90
ENDBRANCH   14   13
ENDBRANCH   16   14
ENDBRANCH   17   16
ENDBRANCH   18   17
ENDBRANCH   19   18
ENDBRANCH   20   19
ENDBRANCH   21   20
ENDBRANCH   22   21
ENDBRANCH   23   22
ENDBRANCH   24   23
ENDBRANCH   26   24
ENDBRANCH   30   29
BRANCH   34   35
ATOM     35  C26 UNL A   1      17.680  55.440   0.764  1.00  0.00    +0.000 C 
ATOM     36  C27 UNL A   1      18.970  55.771   1.210  1.00  0.00    +0.000 C 
ATOM     37  F1  UNL A   1      19.546  55.065   2.194  1.00  0.00    +0.000 F 
ATOM     38  C28 UNL A   1      19.657  56.860   0.678  1.00  0.00    +0.000 C 
ATOM     39  F2  UNL A   1      20.862  57.190   1.161  1.00  0.00    +0.000 F 
ATOM     40  C29 UNL A   1      19.088  57.612  -0.340  1.00  0.00    +0.000 C 
ATOM     41  F3  UNL A   1      19.754  58.653  -0.856  1.00  0.00    +0.000 F 
ATOM     42  C30 UNL A   1      17.827  57.287  -0.816  1.00  0.00    +0.000 C 
ATOM     43  F4  UNL A   1      17.282  58.003  -1.809  1.00  0.00    +0.000 F 
ATOM     44  C31 UNL A   1      17.122  56.222  -0.260  1.00  0.00    +0.000 C 
ATOM     45  F5  UNL A   1      15.896  55.948  -0.729  1.00  0.00    +0.000 F 
ENDBRANCH   34   35
BRANCH   51   52
ATOM     52  C37 UNL A   1      16.744  48.436  -0.671  1.00  0.00    +0.000 C 
ATOM     53  C38 UNL A   1      17.988  47.810  -0.505  1.00  0.00    +0.000 C 
ATOM     54  F6  UNL A   1      18.784  48.150   0.520  1.00  0.00    +0.000 F 
ATOM     55  C39 UNL A   1      18.437  46.858  -1.418  1.00  0.00    +0.000 C 
ATOM     56  F7  UNL A   1      19.651  46.310  -1.268  1.00  0.00    +0.000 F 
ATOM     57  C40 UNL A   1      17.637  46.486  -2.487  1.00  0.00    +0.000 C 
ATOM     58  F8  UNL A   1      18.066  45.561  -3.357  1.00  0.00    +0.000 F 
ATOM     59  C41 UNL A   1      16.395  47.077  -2.660  1.00  0.00    +0.000 C 
ATOM     60  F9  UNL A   1      15.612  46.706  -3.682  1.00  0.00    +0.000 F 
ATOM     61  C42 UNL A   1      15.958  48.054  -1.770  1.00  0.00    +0.000 C 
ATOM     62  F10 UNL A   1      14.756  48.615  -1.970  1.00  0.00    +0.000 F 
ENDBRANCH   51   52
BRANCH   66   67
ATOM     67  C46 UNL A   1      12.307  47.982   4.690  1.00  0.00    +0.000 C 
ATOM     68  C47 UNL A   1      11.036  47.693   4.171  1.00  0.00    +0.000 C 
ATOM     69  F11 UNL A   1      10.542  48.427   3.163  1.00  0.00    +0.000 F 
ATOM     70  C48 UNL A   1      10.247  46.682   4.717  1.00  0.00    +0.000 C 
ATOM     71  F12 UNL A   1       9.016  46.465   4.238  1.00  0.00    +0.000 F 
ATOM     72  C49 UNL A   1      10.728  45.915   5.767  1.00  0.00    +0.000 C 
ATOM     73  F13 UNL A   1       9.970  44.942   6.291  1.00  0.00    +0.000 F 
ATOM     74  C50 UNL A   1      11.992  46.165   6.280  1.00  0.00    +0.000 C 
ATOM     75  F14 UNL A   1      12.468  45.417   7.284  1.00  0.00    +0.000 F 
ATOM     76  C51 UNL A   1      12.768  47.198   5.757  1.00  0.00    +0.000 C 
ATOM     77  F15 UNL A   1      13.979  47.427   6.285  1.00  0.00    +0.000 F 
ENDBRANCH   66   67
TORSDOF 22
ENDMDL
MODEL 8
REMARK VINA RESULT:      -8.4     27.370     31.470
ROOT
ATOM    129  H31 UNL A   1      45.120  16.790  41.604  1.00  0.00    +0.000 H 
ATOM    130  H32 UNL A   1      51.381  15.855  49.402  1.00  0.00    +0.000 H 
ATOM    131  H33 UNL A   1      50.319  13.598  49.977  1.00  0.00    +0.000 H 
ATOM     30  C22 UNL A   1      48.029  12.977  48.398  1.00  0.00    +0.000 C 
ATOM     31  C23 UNL A   1      48.970  14.138  48.235  1.00  0.00    +0.000 C 
ATOM     32  N3  UNL A   1      48.953  15.102  47.350  1.00  0.00    +0.000 N 
ATOM     33  C24 UNL A   1      50.016  15.935  47.678  1.00  0.00    +0.000 C 
ATOM     34  C25 UNL A   1      50.464  17.031  47.021  1.00  0.00    +0.000 C 
ATOM     46  C32 UNL A   1      49.873  17.547  45.814  1.00  0.00    +0.000 C 
ATOM     47  C33 UNL A   1      50.281  18.622  45.045  1.00  0.00    +0.000 C 
ATOM     48  C34 UNL A   1      49.366  18.785  44.001  1.00  0.00    +0.000 C 
ATOM     49  C35 UNL A   1      48.425  17.770  44.079  1.00  0.00    +0.000 C 
ATOM     50  N4  UNL A   1      48.744  17.022  45.202  1.00  0.00    +0.000 N 
ATOM     51  C36 UNL A   1      47.319  17.501  43.193  1.00  0.00    +0.000 C 
ATOM     63  C43 UNL A   1      46.437  16.483  43.341  1.00  0.00    +0.000 C 
ATOM     64  N5  UNL A   1      46.396  15.496  44.317  1.00  0.00    +0.000 N 
ATOM     65  C44 UNL A   1      45.356  14.750  44.032  1.00  0.00    +0.000 C 
ATOM     66  C45 UNL A   1      44.851  13.514  44.728  1.00  0.00    +0.000 C 
ATOM     78  C52 UNL A   1      45.524  13.044  45.798  1.00  0.00    +0.000 C 
ATOM     79  C53 UNL A   1      45.160  11.863  46.575  1.00  0.00    +0.000 C 
ATOM     80  C54 UNL A   1      46.015  11.734  47.601  1.00  0.00    +0.000 C 
ATOM     81  C55 UNL A   1      47.016  12.800  47.529  1.00  0.00    +0.000 C 
ATOM     82  N6  UNL A   1      46.651  13.522  46.420  1.00  0.00    +0.000 N 
ATOM     83  C56 UNL A   1      44.595  15.207  42.860  1.00  0.00    +0.000 C 
ATOM     84  C57 UNL A   1      45.322  16.235  42.450  1.00  0.00    +0.000 C 
ATOM     85  C58 UNL A   1      50.617  15.400  48.879  1.00  0.00    +0.000 C 
ATOM     86  C59 UNL A   1      50.059  14.248  49.219  1.00  0.00    +0.000 C 
ATOM    122  H24 UNL A   1      51.117  19.203  45.213  1.00  0.00    +0.000 H 
ATOM    123  H25 UNL A   1      49.387  19.534  43.291  1.00  0.00    +0.000 H 
ATOM    124  H26 UNL A   1      48.242  16.236  45.518  1.00  0.00    +0.000 H 
ATOM    125  H27 UNL A   1      44.373  11.228  46.368  1.00  0.00    +0.000 H 
ATOM    126  H28 UNL A   1      45.973  11.002  48.327  1.00  0.00    +0.000 H 
ATOM    127  H29 UNL A   1      47.150  14.308  46.100  1.00  0.00    +0.000 H 
ATOM    128  H30 UNL A   1      43.723  14.826  42.462  1.00  0.00    +0.000 H 
ENDROOT
BRANCH   30   29
ATOM    132  H34 UNL A   1      47.286  13.404  50.931  1.00  0.00    +0.000 H 
ATOM    133  H35 UNL A   1      47.642  11.997  52.871  1.00  0.00    +0.000 H 
ATOM    120  H22 UNL A   1      49.250   8.990  50.406  1.00  0.00    +0.000 H 
ATOM     87  C60 UNL A   1      47.731  12.480  50.822  1.00  0.00    +0.000 C 
ATOM     88  C61 UNL A   1      47.889  11.653  51.930  1.00  0.00    +0.000 C 
ATOM    121  H23 UNL A   1      49.137  10.499  48.506  1.00  0.00    +0.000 H 
ATOM     26  C18 UNL A   1      48.383  10.357  51.765  1.00  0.00    +0.000 C 
ATOM     27  C19 UNL A   1      48.847   9.934  50.518  1.00  0.00    +0.000 C 
ATOM     28  C20 UNL A   1      48.764  10.795  49.421  1.00  0.00    +0.000 C 
ATOM     29  C21 UNL A   1      48.175  12.063  49.559  1.00  0.00    +0.000 C 
BRANCH   26   24
ATOM     25  O6  UNL A   1      49.251   8.511  52.922  1.00  0.00    +0.000 O 
ATOM     24  C17 UNL A   1      48.421   9.413  52.901  1.00  0.00    +0.000 C 
BRANCH   24   23
ATOM    119  H21 UNL A   1      47.759  10.192  54.626  1.00  0.00    +0.000 H 
ATOM     23  N2  UNL A   1      47.515   9.546  53.923  1.00  0.00    +0.000 N 
BRANCH   23   22
ATOM    118  H20 UNL A   1      46.422   8.007  54.727  1.00  0.00    +0.000 H 
ATOM    117  H19 UNL A   1      45.859   8.586  53.154  1.00  0.00    +0.000 H 
ATOM     22  C16 UNL A   1      46.245   8.865  54.112  1.00  0.00    +0.000 C 
BRANCH   22   21
ATOM    115  H17 UNL A   1      44.260   9.548  54.386  1.00  0.00    +0.000 H 
ATOM    116  H18 UNL A   1      45.271   9.492  55.857  1.00  0.00    +0.000 H 
ATOM     21  C15 UNL A   1      45.220   9.743  54.819  1.00  0.00    +0.000 C 
BRANCH   21   20
ATOM    113  H15 UNL A   1      46.403  11.383  54.181  1.00  0.00    +0.000 H 
ATOM    114  H16 UNL A   1      44.635  11.669  54.236  1.00  0.00    +0.000 H 
ATOM     20  C14 UNL A   1      45.490  11.246  54.722  1.00  0.00    +0.000 C 
BRANCH   20   19
ATOM     19  C13 UNL A   1      45.619  11.978  56.062  1.00  0.00    +0.000 C 
ATOM    111  H13 UNL A   1      45.979  11.280  56.787  1.00  0.00    +0.000 H 
ATOM    112  H14 UNL A   1      46.286  12.797  55.891  1.00  0.00    +0.000 H 
BRANCH   19   18
ATOM     18  C12 UNL A   1      44.323  12.589  56.594  1.00  0.00    +0.000 C 
ATOM    109  H11 UNL A   1      43.529  11.892  56.422  1.00  0.00    +0.000 H 
ATOM    110  H12 UNL A   1      44.484  12.789  57.633  1.00  0.00    +0.000 H 
BRANCH   18   17
ATOM     17  C11 UNL A   1      43.940  13.913  55.951  1.00  0.00    +0.000 C 
ATOM    107  H9  UNL A   1      43.908  14.665  56.712  1.00  0.00    +0.000 H 
ATOM    108  H10 UNL A   1      44.677  14.128  55.205  1.00  0.00    +0.000 H 
BRANCH   17   16
ATOM    106  H8  UNL A   1      42.215  14.750  55.186  1.00  0.00    +0.000 H 
ATOM     16  N1  UNL A   1      42.655  13.875  55.289  1.00  0.00    +0.000 N 
BRANCH   16   14
ATOM     14  C10 UNL A   1      41.955  12.815  54.783  1.00  0.00    +0.000 C 
ATOM     15  O5  UNL A   1      41.103  12.317  55.519  1.00  0.00    +0.000 O 
BRANCH   14   13
ATOM      1  O1  UNL A   1      38.963  12.009  51.806  1.00  0.00    +0.000 O 
ATOM      2  C1  UNL A   1      40.075  11.867  52.285  1.00  0.00    +0.000 C 
ATOM      3  O2  UNL A   1      40.583  10.700  52.751  1.00  0.00    +0.000 O 
ATOM      4  C2  UNL A   1      41.957  10.861  53.143  1.00  0.00    +0.000 C 
ATOM     99  H1  UNL A   1      42.178  10.363  54.065  1.00  0.00    +0.000 H 
ATOM    105  H7  UNL A   1      43.171  12.679  53.112  1.00  0.00    +0.000 H 
ATOM     13  C9  UNL A   1      42.175  12.359  53.334  1.00  0.00    +0.000 C 
ATOM     89  C62 UNL A   1      41.108  12.905  52.444  1.00  0.00    +0.000 C 
BRANCH    4    5
ATOM    100  H2  UNL A   1      43.925  11.953  51.570  1.00  0.00    +0.000 H 
ATOM      5  C3  UNL A   1      42.912  10.187  52.152  1.00  0.00    +0.000 C 
ATOM      6  C4  UNL A   1      43.903  10.927  51.466  1.00  0.00    +0.000 C 
ATOM      7  C5  UNL A   1      44.856  10.307  50.649  1.00  0.00    +0.000 C 
ATOM    104  H6  UNL A   1      42.187   8.221  52.451  1.00  0.00    +0.000 H 
ATOM    101  H3  UNL A   1      45.580  10.866  50.172  1.00  0.00    +0.000 H 
ATOM     10  C7  UNL A   1      43.830   8.189  51.135  1.00  0.00    +0.000 C 
ATOM      8  C6  UNL A   1      44.812   8.933  50.490  1.00  0.00    +0.000 C 
ATOM     12  C8  UNL A   1      42.895   8.796  51.968  1.00  0.00    +0.000 C 
BRANCH    8    9
ATOM      9  O3  UNL A   1      45.716   8.267  49.713  1.00  0.00    +0.000 O 
ATOM    102  H4  UNL A   1      45.488   7.443  49.330  1.00  0.00    +0.000 H 
ENDBRANCH    8    9
BRANCH   10   11
ATOM     11  O4  UNL A   1      43.785   6.835  50.963  1.00  0.00    +0.000 O 
ATOM    103  H5  UNL A   1      44.421   6.411  50.419  1.00  0.00    +0.000 H 
ENDBRANCH   10   11
ENDBRANCH    4    5
BRANCH   89   90
ATOM     90  C63 UNL A   1      40.983  14.083  51.816  1.00  0.00    +0.000 C 
ATOM    134  H36 UNL A   1      40.303  14.761  52.194  1.00  0.00    +0.000 H 
BRANCH   90   91
ATOM     98  C69 UNL A   1      41.906  15.828  50.333  1.00  0.00    +0.000 C 
ATOM    135  H37 UNL A   1      42.155  12.499  49.981  1.00  0.00    +0.000 H 
ATOM    136  H38 UNL A   1      43.420  13.168  48.013  1.00  0.00    +0.000 H 
ATOM    139  H41 UNL A   1      41.500  16.548  50.951  1.00  0.00    +0.000 H 
ATOM     91  C64 UNL A   1      41.748  14.470  50.631  1.00  0.00    +0.000 C 
ATOM     92  C65 UNL A   1      42.290  13.501  49.772  1.00  0.00    +0.000 C 
ATOM     93  C66 UNL A   1      43.011  13.881  48.637  1.00  0.00    +0.000 C 
ATOM     94  C67 UNL A   1      43.170  15.233  48.359  1.00  0.00    +0.000 C 
ATOM     96  C68 UNL A   1      42.616  16.195  49.199  1.00  0.00    +0.000 C 
BRANCH   94   95
ATOM    137  H39 UNL A   1      43.537  16.389  46.760  1.00  0.00    +0.000 H 
ATOM     95  O7  UNL A   1      43.863  15.669  47.263  1.00  0.00    +0.000 O 
ENDBRANCH   94   95
BRANCH   96   97
ATOM     97  O8  UNL A   1      42.765  17.521  48.907  1.00  0.00    +0.000 O 
ATOM    138  H40 UNL A   1      43.514  17.989  49.220  1.00  0.00    +0.000 H 
ENDBRANCH   96   97
ENDBRANCH   90   91
ENDBRANCH   89   90
ENDBRANCH   14   13
ENDBRANCH   16   14
ENDBRANCH   17   16
ENDBRANCH   18   17
ENDBRANCH   19   18
ENDBRANCH   20   19
ENDBRANCH   21   20
ENDBRANCH   22   21
ENDBRANCH   23   22
ENDBRANCH   24   23
ENDBRANCH   26   24
ENDBRANCH   30   29
BRANCH   34   35
ATOM     35  C26 UNL A   1      51.650  17.751  47.598  1.00  0.00    +0.000 C 
ATOM     36  C27 UNL A   1      52.965  17.404  47.248  1.00  0.00    +0.000 C 
ATOM     37  F1  UNL A   1      53.195  16.380  46.414  1.00  0.00    +0.000 F 
ATOM     38  C28 UNL A   1      54.055  18.081  47.791  1.00  0.00    +0.000 C 
ATOM     39  F2  UNL A   1      55.301  17.694  47.488  1.00  0.00    +0.000 F 
ATOM     40  C29 UNL A   1      53.852  19.144  48.659  1.00  0.00    +0.000 C 
ATOM     41  F3  UNL A   1      54.901  19.799  49.174  1.00  0.00    +0.000 F 
ATOM     42  C30 UNL A   1      52.561  19.522  48.997  1.00  0.00    +0.000 C 
ATOM     43  F4  UNL A   1      52.362  20.558  49.824  1.00  0.00    +0.000 F 
ATOM     44  C31 UNL A   1      51.471  18.823  48.485  1.00  0.00    +0.000 C 
ATOM     45  F5  UNL A   1      50.236  19.201  48.850  1.00  0.00    +0.000 F 
ENDBRANCH   34   35
BRANCH   51   52
ATOM     52  C37 UNL A   1      47.153  18.397  41.999  1.00  0.00    +0.000 C 
ATOM     53  C38 UNL A   1      47.869  18.190  40.811  1.00  0.00    +0.000 C 
ATOM     54  F6  UNL A   1      48.778  17.206  40.733  1.00  0.00    +0.000 F 
ATOM     55  C39 UNL A   1      47.682  19.021  39.709  1.00  0.00    +0.000 C 
ATOM     56  F7  UNL A   1      48.415  18.836  38.602  1.00  0.00    +0.000 F 
ATOM     57  C40 UNL A   1      46.750  20.045  39.759  1.00  0.00    +0.000 C 
ATOM     58  F8  UNL A   1      46.563  20.836  38.693  1.00  0.00    +0.000 F 
ATOM     59  C41 UNL A   1      46.015  20.256  40.915  1.00  0.00    +0.000 C 
ATOM     60  F9  UNL A   1      45.100  21.234  40.960  1.00  0.00    +0.000 F 
ATOM     61  C42 UNL A   1      46.225  19.450  42.031  1.00  0.00    +0.000 C 
ATOM     62  F10 UNL A   1      45.507  19.686  43.139  1.00  0.00    +0.000 F 
ENDBRANCH   51   52
BRANCH   66   67
ATOM     67  C46 UNL A   1      43.642  12.802  44.237  1.00  0.00    +0.000 C 
ATOM     68  C47 UNL A   1      42.371  13.387  44.339  1.00  0.00    +0.000 C 
ATOM     69  F11 UNL A   1      42.236  14.601  44.893  1.00  0.00    +0.000 F 
ATOM     70  C48 UNL A   1      41.229  12.708  43.918  1.00  0.00    +0.000 C 
ATOM     71  F12 UNL A   1      40.023  13.269  44.079  1.00  0.00    +0.000 F 
ATOM     72  C49 UNL A   1      41.338  11.448  43.352  1.00  0.00    +0.000 C 
ATOM     73  F13 UNL A   1      40.240  10.796  42.946  1.00  0.00    +0.000 F 
ATOM     74  C50 UNL A   1      42.586  10.859  43.217  1.00  0.00    +0.000 C 
ATOM     75  F14 UNL A   1      42.699   9.648  42.656  1.00  0.00    +0.000 F 
ATOM     76  C51 UNL A   1      43.726  11.523  43.668  1.00  0.00    +0.000 C 
ATOM     77  F15 UNL A   1      44.917  10.921  43.540  1.00  0.00    +0.000 F 
ENDBRANCH   66   67
TORSDOF 22
ENDMDL
MODEL 9
REMARK VINA RESULT:      -8.3     46.870     53.850
ROOT
ATOM    129  H31 UNL A   1      53.124  32.383   4.436  1.00  0.00    +0.000 H 
ATOM    130  H32 UNL A   1      58.959  24.601   1.927  1.00  0.00    +0.000 H 
ATOM    131  H33 UNL A   1      58.552  23.561   4.230  1.00  0.00    +0.000 H 
ATOM     30  C22 UNL A   1      57.108  25.254   6.011  1.00  0.00    +0.000 C 
ATOM     31  C23 UNL A   1      57.394  25.484   4.553  1.00  0.00    +0.000 C 
ATOM     32  N3  UNL A   1      57.051  26.490   3.788  1.00  0.00    +0.000 N 
ATOM     33  C24 UNL A   1      57.609  26.226   2.544  1.00  0.00    +0.000 C 
ATOM     34  C25 UNL A   1      57.480  26.930   1.394  1.00  0.00    +0.000 C 
ATOM     46  C32 UNL A   1      56.707  28.137   1.269  1.00  0.00    +0.000 C 
ATOM     47  C33 UNL A   1      56.472  28.898   0.137  1.00  0.00    +0.000 C 
ATOM     48  C34 UNL A   1      55.715  30.013   0.509  1.00  0.00    +0.000 C 
ATOM     49  C35 UNL A   1      55.421  29.913   1.859  1.00  0.00    +0.000 C 
ATOM     50  N4  UNL A   1      56.042  28.761   2.315  1.00  0.00    +0.000 N 
ATOM     51  C36 UNL A   1      54.628  30.802   2.673  1.00  0.00    +0.000 C 
ATOM     63  C43 UNL A   1      54.387  30.635   3.996  1.00  0.00    +0.000 C 
ATOM     64  N5  UNL A   1      54.807  29.614   4.839  1.00  0.00    +0.000 N 
ATOM     65  C44 UNL A   1      54.324  29.902   6.023  1.00  0.00    +0.000 C 
ATOM     66  C45 UNL A   1      54.430  29.126   7.310  1.00  0.00    +0.000 C 
ATOM     78  C52 UNL A   1      55.094  27.954   7.315  1.00  0.00    +0.000 C 
ATOM     79  C53 UNL A   1      55.283  27.092   8.478  1.00  0.00    +0.000 C 
ATOM     80  C54 UNL A   1      56.046  26.045   8.128  1.00  0.00    +0.000 C 
ATOM     81  C55 UNL A   1      56.363  26.138   6.702  1.00  0.00    +0.000 C 
ATOM     82  N6  UNL A   1      55.746  27.297   6.300  1.00  0.00    +0.000 N 
ATOM     83  C56 UNL A   1      53.572  31.164   6.072  1.00  0.00    +0.000 C 
ATOM     84  C57 UNL A   1      53.601  31.544   4.803  1.00  0.00    +0.000 C 
ATOM     85  C58 UNL A   1      58.368  25.002   2.672  1.00  0.00    +0.000 C 
ATOM     86  C59 UNL A   1      58.204  24.463   3.870  1.00  0.00    +0.000 C 
ATOM    122  H24 UNL A   1      56.798  28.680  -0.817  1.00  0.00    +0.000 H 
ATOM    123  H25 UNL A   1      55.425  30.781  -0.116  1.00  0.00    +0.000 H 
ATOM    124  H26 UNL A   1      56.017  28.435   3.244  1.00  0.00    +0.000 H 
ATOM    125  H27 UNL A   1      54.892  27.261   9.418  1.00  0.00    +0.000 H 
ATOM    126  H28 UNL A   1      56.359  25.294   8.762  1.00  0.00    +0.000 H 
ATOM    127  H29 UNL A   1      55.769  27.626   5.372  1.00  0.00    +0.000 H 
ATOM    128  H30 UNL A   1      53.136  31.631   6.882  1.00  0.00    +0.000 H 
ENDROOT
BRANCH   30   29
ATOM    132  H34 UNL A   1      59.601  24.995   6.941  1.00  0.00    +0.000 H 
ATOM    133  H35 UNL A   1      60.647  23.054   7.948  1.00  0.00    +0.000 H 
ATOM    120  H22 UNL A   1      56.966  21.018   7.868  1.00  0.00    +0.000 H 
ATOM     87  C60 UNL A   1      59.048  24.140   7.110  1.00  0.00    +0.000 C 
ATOM     88  C61 UNL A   1      59.638  23.045   7.733  1.00  0.00    +0.000 C 
ATOM    121  H23 UNL A   1      55.985  22.858   6.622  1.00  0.00    +0.000 H 
ATOM     26  C18 UNL A   1      58.860  21.934   8.067  1.00  0.00    +0.000 C 
ATOM     27  C19 UNL A   1      57.528  21.858   7.656  1.00  0.00    +0.000 C 
ATOM     28  C20 UNL A   1      56.958  22.924   6.957  1.00  0.00    +0.000 C 
ATOM     29  C21 UNL A   1      57.705  24.087   6.707  1.00  0.00    +0.000 C 
BRANCH   26   24
ATOM     25  O6  UNL A   1      59.260  20.784  10.072  1.00  0.00    +0.000 O 
ATOM     24  C17 UNL A   1      59.430  20.824   8.858  1.00  0.00    +0.000 C 
BRANCH   24   23
ATOM    119  H21 UNL A   1      61.131  20.009   8.177  1.00  0.00    +0.000 H 
ATOM     23  N2  UNL A   1      60.160  19.847   8.228  1.00  0.00    +0.000 N 
BRANCH   23   22
ATOM    118  H20 UNL A   1      58.656  18.507   7.842  1.00  0.00    +0.000 H 
ATOM    117  H19 UNL A   1      60.263  17.796   8.035  1.00  0.00    +0.000 H 
ATOM     22  C16 UNL A   1      59.699  18.608   7.626  1.00  0.00    +0.000 C 
BRANCH   22   21
ATOM    115  H17 UNL A   1      60.835  18.995   5.882  1.00  0.00    +0.000 H 
ATOM    116  H18 UNL A   1      59.729  17.595   5.793  1.00  0.00    +0.000 H 
ATOM     21  C15 UNL A   1      59.864  18.607   6.111  1.00  0.00    +0.000 C 
BRANCH   21   20
ATOM    113  H15 UNL A   1      58.881  20.446   5.720  1.00  0.00    +0.000 H 
ATOM    114  H16 UNL A   1      59.073  19.347   4.318  1.00  0.00    +0.000 H 
ATOM     20  C14 UNL A   1      58.827  19.441   5.355  1.00  0.00    +0.000 C 
BRANCH   20   19
ATOM     19  C13 UNL A   1      57.377  18.966   5.490  1.00  0.00    +0.000 C 
ATOM    111  H13 UNL A   1      57.350  17.918   5.277  1.00  0.00    +0.000 H 
ATOM    112  H14 UNL A   1      57.076  19.207   6.488  1.00  0.00    +0.000 H 
BRANCH   19   18
ATOM     18  C12 UNL A   1      56.378  19.663   4.565  1.00  0.00    +0.000 C 
ATOM    109  H11 UNL A   1      56.762  20.633   4.329  1.00  0.00    +0.000 H 
ATOM    110  H12 UNL A   1      56.270  19.037   3.705  1.00  0.00    +0.000 H 
BRANCH   18   17
ATOM     17  C11 UNL A   1      54.987  19.833   5.156  1.00  0.00    +0.000 C 
ATOM    107  H9  UNL A   1      54.594  20.777   4.837  1.00  0.00    +0.000 H 
ATOM    108  H10 UNL A   1      54.392  19.013   4.810  1.00  0.00    +0.000 H 
BRANCH   17   16
ATOM    106  H8  UNL A   1      55.628  20.386   7.039  1.00  0.00    +0.000 H 
ATOM     16  N1  UNL A   1      54.972  19.795   6.602  1.00  0.00    +0.000 N 
BRANCH   16   14
ATOM     14  C10 UNL A   1      54.192  19.067   7.457  1.00  0.00    +0.000 C 
ATOM     15  O5  UNL A   1      54.330  19.296   8.659  1.00  0.00    +0.000 O 
BRANCH   14   13
ATOM      1  O1  UNL A   1      51.933  16.142   9.648  1.00  0.00    +0.000 O 
ATOM      2  C1  UNL A   1      52.431  16.575   8.623  1.00  0.00    +0.000 C 
ATOM      3  O2  UNL A   1      53.402  15.959   7.904  1.00  0.00    +0.000 O 
ATOM      4  C2  UNL A   1      53.682  16.686   6.696  1.00  0.00    +0.000 C 
ATOM     99  H1  UNL A   1      54.732  16.751   6.495  1.00  0.00    +0.000 H 
ATOM    105  H7  UNL A   1      52.799  18.565   6.009  1.00  0.00    +0.000 H 
ATOM     13  C9  UNL A   1      53.138  18.096   6.909  1.00  0.00    +0.000 C 
ATOM     89  C62 UNL A   1      52.085  17.829   7.933  1.00  0.00    +0.000 C 
BRANCH    4    5
ATOM    100  H2  UNL A   1      51.790  14.706   6.502  1.00  0.00    +0.000 H 
ATOM      5  C3  UNL A   1      53.140  15.961   5.460  1.00  0.00    +0.000 C 
ATOM      6  C4  UNL A   1      52.116  14.991   5.565  1.00  0.00    +0.000 C 
ATOM      7  C5  UNL A   1      51.530  14.408   4.437  1.00  0.00    +0.000 C 
ATOM    104  H6  UNL A   1      54.322  17.011   4.053  1.00  0.00    +0.000 H 
ATOM    101  H3  UNL A   1      50.772  13.715   4.539  1.00  0.00    +0.000 H 
ATOM     10  C7  UNL A   1      53.006  15.706   3.055  1.00  0.00    +0.000 C 
ATOM      8  C6  UNL A   1      51.983  14.773   3.180  1.00  0.00    +0.000 C 
ATOM     12  C8  UNL A   1      53.576  16.308   4.171  1.00  0.00    +0.000 C 
BRANCH    8    9
ATOM      9  O3  UNL A   1      51.449  14.246   2.039  1.00  0.00    +0.000 O 
ATOM    102  H4  UNL A   1      51.127  13.366   2.035  1.00  0.00    +0.000 H 
ENDBRANCH    8    9
BRANCH   10   11
ATOM     11  O4  UNL A   1      53.457  16.051   1.812  1.00  0.00    +0.000 O 
ATOM    103  H5  UNL A   1      54.179  15.590   1.431  1.00  0.00    +0.000 H 
ENDBRANCH   10   11
ENDBRANCH    4    5
BRANCH   89   90
ATOM     90  C63 UNL A   1      50.971  18.496   8.265  1.00  0.00    +0.000 C 
ATOM    134  H36 UNL A   1      50.995  19.084   9.114  1.00  0.00    +0.000 H 
BRANCH   90   91
ATOM     98  C69 UNL A   1      49.416  17.298   6.768  1.00  0.00    +0.000 C 
ATOM    135  H37 UNL A   1      49.091  20.405   7.995  1.00  0.00    +0.000 H 
ATOM    136  H38 UNL A   1      47.023  20.301   6.717  1.00  0.00    +0.000 H 
ATOM    139  H41 UNL A   1      50.056  16.487   6.776  1.00  0.00    +0.000 H 
ATOM     91  C64 UNL A   1      49.723  18.447   7.504  1.00  0.00    +0.000 C 
ATOM     92  C65 UNL A   1      48.854  19.548   7.470  1.00  0.00    +0.000 C 
ATOM     93  C66 UNL A   1      47.669  19.496   6.730  1.00  0.00    +0.000 C 
ATOM     94  C67 UNL A   1      47.370  18.343   6.014  1.00  0.00    +0.000 C 
ATOM     96  C68 UNL A   1      48.242  17.257   6.030  1.00  0.00    +0.000 C 
BRANCH   94   95
ATOM    137  H39 UNL A   1      46.075  17.458   4.762  1.00  0.00    +0.000 H 
ATOM     95  O7  UNL A   1      46.229  18.230   5.269  1.00  0.00    +0.000 O 
ENDBRANCH   94   95
BRANCH   96   97
ATOM     97  O8  UNL A   1      47.947  16.136   5.309  1.00  0.00    +0.000 O 
ATOM    138  H40 UNL A   1      47.061  15.959   5.059  1.00  0.00    +0.000 H 
ENDBRANCH   96   97
ENDBRANCH   90   91
ENDBRANCH   89   90
ENDBRANCH   14   13
ENDBRANCH   16   14
ENDBRANCH   17   16
ENDBRANCH   18   17
ENDBRANCH   19   18
ENDBRANCH   20   19
ENDBRANCH   21   20
ENDBRANCH   22   21
ENDBRANCH   23   22
ENDBRANCH   24   23
ENDBRANCH   26   24
ENDBRANCH   30   29
BRANCH   34   35
ATOM     35  C26 UNL A   1      58.195  26.412   0.178  1.00  0.00    +0.000 C 
ATOM     36  C27 UNL A   1      57.573  25.539  -0.729  1.00  0.00    +0.000 C 
ATOM     37  F1  UNL A   1      56.323  25.108  -0.503  1.00  0.00    +0.000 F 
ATOM     38  C28 UNL A   1      58.249  25.068  -1.852  1.00  0.00    +0.000 C 
ATOM     39  F2  UNL A   1      57.654  24.190  -2.670  1.00  0.00    +0.000 F 
ATOM     40  C29 UNL A   1      59.543  25.493  -2.114  1.00  0.00    +0.000 C 
ATOM     41  F3  UNL A   1      60.189  25.045  -3.199  1.00  0.00    +0.000 F 
ATOM     42  C30 UNL A   1      60.168  26.376  -1.247  1.00  0.00    +0.000 C 
ATOM     43  F4  UNL A   1      61.413  26.800  -1.506  1.00  0.00    +0.000 F 
ATOM     44  C31 UNL A   1      59.508  26.820  -0.104  1.00  0.00    +0.000 C 
ATOM     45  F5  UNL A   1      60.149  27.657   0.725  1.00  0.00    +0.000 F 
ENDBRANCH   34   35
BRANCH   51   52
ATOM     52  C37 UNL A   1      53.994  31.984   1.996  1.00  0.00    +0.000 C 
ATOM     53  C38 UNL A   1      54.727  33.135   1.674  1.00  0.00    +0.000 C 
ATOM     54  F6  UNL A   1      56.019  33.232   2.021  1.00  0.00    +0.000 F 
ATOM     55  C39 UNL A   1      54.122  34.211   1.028  1.00  0.00    +0.000 C 
ATOM     56  F7  UNL A   1      54.829  35.321   0.776  1.00  0.00    +0.000 F 
ATOM     57  C40 UNL A   1      52.788  34.140   0.657  1.00  0.00    +0.000 C 
ATOM     58  F8  UNL A   1      52.212  35.171   0.024  1.00  0.00    +0.000 F 
ATOM     59  C41 UNL A   1      52.050  33.004   0.946  1.00  0.00    +0.000 C 
ATOM     60  F9  UNL A   1      50.765  32.924   0.572  1.00  0.00    +0.000 F 
ATOM     61  C42 UNL A   1      52.641  31.941   1.624  1.00  0.00    +0.000 C 
ATOM     62  F10 UNL A   1      51.897  30.860   1.900  1.00  0.00    +0.000 F 
ENDBRANCH   51   52
BRANCH   66   67
ATOM     67  C46 UNL A   1      53.796  29.629   8.557  1.00  0.00    +0.000 C 
ATOM     68  C47 UNL A   1      54.510  30.443   9.450  1.00  0.00    +0.000 C 
ATOM     69  F11 UNL A   1      55.782  30.771   9.185  1.00  0.00    +0.000 F 
ATOM     70  C48 UNL A   1      53.934  30.884  10.641  1.00  0.00    +0.000 C 
ATOM     71  F12 UNL A   1      54.658  31.613  11.500  1.00  0.00    +0.000 F 
ATOM     72  C49 UNL A   1      52.624  30.551  10.945  1.00  0.00    +0.000 C 
ATOM     73  F13 UNL A   1      52.071  30.975  12.090  1.00  0.00    +0.000 F 
ATOM     74  C50 UNL A   1      51.890  29.768  10.067  1.00  0.00    +0.000 C 
ATOM     75  F14 UNL A   1      50.618  29.457  10.348  1.00  0.00    +0.000 F 
ATOM     76  C51 UNL A   1      52.475  29.299   8.891  1.00  0.00    +0.000 C 
ATOM     77  F15 UNL A   1      51.746  28.530   8.070  1.00  0.00    +0.000 F 
ENDBRANCH   66   67
TORSDOF 22
ENDMDL
MODEL 10
REMARK VINA RESULT:      -8.3     18.597     27.120
ROOT
ATOM    129  H31 UNL A   1      37.341  30.486  27.603  1.00  0.00    +0.000 H 
ATOM    130  H32 UNL A   1      40.668  30.723  37.077  1.00  0.00    +0.000 H 
ATOM    131  H33 UNL A   1      42.721  29.358  36.384  1.00  0.00    +0.000 H 
ATOM     30  C22 UNL A   1      42.622  28.433  33.690  1.00  0.00    +0.000 C 
ATOM     31  C23 UNL A   1      41.667  29.370  34.375  1.00  0.00    +0.000 C 
ATOM     32  N3  UNL A   1      40.600  29.962  33.901  1.00  0.00    +0.000 N 
ATOM     33  C24 UNL A   1      40.059  30.676  34.963  1.00  0.00    +0.000 C 
ATOM     34  C25 UNL A   1      38.993  31.511  34.963  1.00  0.00    +0.000 C 
ATOM     46  C32 UNL A   1      38.196  31.804  33.801  1.00  0.00    +0.000 C 
ATOM     47  C33 UNL A   1      37.126  32.673  33.685  1.00  0.00    +0.000 C 
ATOM     48  C34 UNL A   1      36.629  32.583  32.382  1.00  0.00    +0.000 C 
ATOM     49  C35 UNL A   1      37.430  31.709  31.665  1.00  0.00    +0.000 C 
ATOM     50  N4  UNL A   1      38.384  31.231  32.551  1.00  0.00    +0.000 N 
ATOM     51  C36 UNL A   1      37.334  31.339  30.275  1.00  0.00    +0.000 C 
ATOM     63  C43 UNL A   1      38.161  30.469  29.645  1.00  0.00    +0.000 C 
ATOM     64  N5  UNL A   1      39.252  29.775  30.153  1.00  0.00    +0.000 N 
ATOM     65  C44 UNL A   1      39.719  29.059  29.159  1.00  0.00    +0.000 C 
ATOM     66  C45 UNL A   1      40.915  28.145  29.123  1.00  0.00    +0.000 C 
ATOM     78  C52 UNL A   1      41.664  28.003  30.234  1.00  0.00    +0.000 C 
ATOM     79  C53 UNL A   1      42.847  27.156  30.356  1.00  0.00    +0.000 C 
ATOM     80  C54 UNL A   1      43.296  27.211  31.620  1.00  0.00    +0.000 C 
ATOM     81  C55 UNL A   1      42.459  28.134  32.388  1.00  0.00    +0.000 C 
ATOM     82  N6  UNL A   1      41.523  28.564  31.480  1.00  0.00    +0.000 N 
ATOM     83  C56 UNL A   1      38.950  29.191  27.913  1.00  0.00    +0.000 C 
ATOM     84  C57 UNL A   1      38.043  30.096  28.251  1.00  0.00    +0.000 C 
ATOM     85  C58 UNL A   1      40.876  30.393  36.121  1.00  0.00    +0.000 C 
ATOM     86  C59 UNL A   1      41.926  29.655  35.796  1.00  0.00    +0.000 C 
ATOM    122  H24 UNL A   1      36.759  33.283  34.432  1.00  0.00    +0.000 H 
ATOM    123  H25 UNL A   1      35.804  33.083  32.015  1.00  0.00    +0.000 H 
ATOM    124  H26 UNL A   1      39.088  30.581  32.326  1.00  0.00    +0.000 H 
ATOM    125  H27 UNL A   1      43.270  26.604  29.594  1.00  0.00    +0.000 H 
ATOM    126  H28 UNL A   1      44.103  26.686  31.991  1.00  0.00    +0.000 H 
ATOM    127  H29 UNL A   1      40.817  29.214  31.701  1.00  0.00    +0.000 H 
ATOM    128  H30 UNL A   1      39.082  28.706  27.013  1.00  0.00    +0.000 H 
ENDROOT
BRANCH   30   29
ATOM    132  H34 UNL A   1      42.454  26.273  35.257  1.00  0.00    +0.000 H 
ATOM    133  H35 UNL A   1      44.168  25.276  36.651  1.00  0.00    +0.000 H 
ATOM    120  H22 UNL A   1      47.003  27.977  35.111  1.00  0.00    +0.000 H 
ATOM     87  C60 UNL A   1      43.412  26.655  35.248  1.00  0.00    +0.000 C 
ATOM     88  C61 UNL A   1      44.406  26.050  36.011  1.00  0.00    +0.000 C 
ATOM    121  H23 UNL A   1      45.235  29.140  33.919  1.00  0.00    +0.000 H 
ATOM     26  C18 UNL A   1      45.727  26.494  35.909  1.00  0.00    +0.000 C 
ATOM     27  C19 UNL A   1      46.033  27.626  35.153  1.00  0.00    +0.000 C 
ATOM     28  C20 UNL A   1      45.019  28.283  34.451  1.00  0.00    +0.000 C 
ATOM     29  C21 UNL A   1      43.707  27.783  34.467  1.00  0.00    +0.000 C 
BRANCH   26   24
ATOM     25  O6  UNL A   1      47.423  26.310  37.519  1.00  0.00    +0.000 O 
ATOM     24  C17 UNL A   1      46.819  25.774  36.595  1.00  0.00    +0.000 C 
BRANCH   24   23
ATOM    119  H21 UNL A   1      47.686  23.981  36.829  1.00  0.00    +0.000 H 
ATOM     23  N2  UNL A   1      47.162  24.510  36.184  1.00  0.00    +0.000 N 
BRANCH   23   22
ATOM    118  H20 UNL A   1      47.751  23.363  34.589  1.00  0.00    +0.000 H 
ATOM    117  H19 UNL A   1      46.517  24.575  34.226  1.00  0.00    +0.000 H 
ATOM     22  C16 UNL A   1      46.858  23.845  34.929  1.00  0.00    +0.000 C 
BRANCH   22   21
ATOM    115  H17 UNL A   1      45.538  22.704  36.128  1.00  0.00    +0.000 H 
ATOM    116  H18 UNL A   1      44.958  23.084  34.482  1.00  0.00    +0.000 H 
ATOM     21  C15 UNL A   1      45.783  22.777  35.088  1.00  0.00    +0.000 C 
BRANCH   21   20
ATOM    113  H15 UNL A   1      45.318  20.916  34.182  1.00  0.00    +0.000 H 
ATOM    114  H16 UNL A   1      46.972  21.539  33.886  1.00  0.00    +0.000 H 
ATOM     20  C14 UNL A   1      46.187  21.385  34.596  1.00  0.00    +0.000 C 
BRANCH   20   19
ATOM     19  C13 UNL A   1      46.763  20.451  35.666  1.00  0.00    +0.000 C 
ATOM    111  H13 UNL A   1      46.370  20.751  36.614  1.00  0.00    +0.000 H 
ATOM    112  H14 UNL A   1      46.478  19.460  35.381  1.00  0.00    +0.000 H 
BRANCH   19   18
ATOM     18  C12 UNL A   1      48.289  20.443  35.766  1.00  0.00    +0.000 C 
ATOM    109  H11 UNL A   1      48.638  19.480  35.457  1.00  0.00    +0.000 H 
ATOM    110  H12 UNL A   1      48.640  21.234  35.138  1.00  0.00    +0.000 H 
BRANCH   18   17
ATOM     17  C11 UNL A   1      48.829  20.721  37.160  1.00  0.00    +0.000 C 
ATOM    107  H9  UNL A   1      49.793  21.178  37.066  1.00  0.00    +0.000 H 
ATOM    108  H10 UNL A   1      48.127  21.361  37.651  1.00  0.00    +0.000 H 
BRANCH   17   16
ATOM    106  H8  UNL A   1      49.521  18.820  37.573  1.00  0.00    +0.000 H 
ATOM     16  N1  UNL A   1      48.963  19.529  37.968  1.00  0.00    +0.000 N 
BRANCH   16   14
ATOM     14  C10 UNL A   1      48.436  19.232  39.194  1.00  0.00    +0.000 C 
ATOM     15  O5  UNL A   1      47.260  19.549  39.379  1.00  0.00    +0.000 O 
BRANCH   14   13
ATOM      1  O1  UNL A   1      47.547  18.643  43.357  1.00  0.00    +0.000 O 
ATOM      2  C1  UNL A   1      48.321  18.713  42.417  1.00  0.00    +0.000 C 
ATOM      3  O2  UNL A   1      49.312  19.628  42.286  1.00  0.00    +0.000 O 
ATOM      4  C2  UNL A   1      50.106  19.358  41.118  1.00  0.00    +0.000 C 
ATOM     99  H1  UNL A   1      50.344  20.249  40.573  1.00  0.00    +0.000 H 
ATOM    105  H7  UNL A   1      49.839  17.774  39.635  1.00  0.00    +0.000 H 
ATOM     13  C9  UNL A   1      49.261  18.452  40.227  1.00  0.00    +0.000 C 
ATOM     89  C62 UNL A   1      48.370  17.822  41.245  1.00  0.00    +0.000 C 
BRANCH    4    5
ATOM    100  H2  UNL A   1      51.455  17.183  40.124  1.00  0.00    +0.000 H 
ATOM      5  C3  UNL A   1      51.485  18.802  41.487  1.00  0.00    +0.000 C 
ATOM      6  C4  UNL A   1      52.033  17.685  40.815  1.00  0.00    +0.000 C 
ATOM      7  C5  UNL A   1      53.337  17.240  41.060  1.00  0.00    +0.000 C 
ATOM    104  H6  UNL A   1      51.926  20.266  42.951  1.00  0.00    +0.000 H 
ATOM    101  H3  UNL A   1      53.720  16.433  40.544  1.00  0.00    +0.000 H 
ATOM     10  C7  UNL A   1      53.577  18.985  42.695  1.00  0.00    +0.000 C 
ATOM      8  C6  UNL A   1      54.105  17.899  42.004  1.00  0.00    +0.000 C 
ATOM     12  C8  UNL A   1      52.291  19.447  42.439  1.00  0.00    +0.000 C 
BRANCH    8    9
ATOM      9  O3  UNL A   1      55.386  17.520  42.285  1.00  0.00    +0.000 O 
ATOM    102  H4  UNL A   1      56.094  17.829  41.754  1.00  0.00    +0.000 H 
ENDBRANCH    8    9
BRANCH   10   11
ATOM     11  O4  UNL A   1      54.337  19.622  43.635  1.00  0.00    +0.000 O 
ATOM    103  H5  UNL A   1      55.233  19.375  43.758  1.00  0.00    +0.000 H 
ENDBRANCH   10   11
ENDBRANCH    4    5
BRANCH   89   90
ATOM     90  C63 UNL A   1      47.693  16.665  41.248  1.00  0.00    +0.000 C 
ATOM    134  H36 UNL A   1      48.216  15.800  41.458  1.00  0.00    +0.000 H 
BRANCH   90   91
ATOM     98  C69 UNL A   1      45.369  16.407  42.041  1.00  0.00    +0.000 C 
ATOM    135  H37 UNL A   1      46.438  16.618  38.866  1.00  0.00    +0.000 H 
ATOM    136  H38 UNL A   1      44.052  16.417  38.433  1.00  0.00    +0.000 H 
ATOM    139  H41 UNL A   1      45.716  16.401  43.013  1.00  0.00    +0.000 H 
ATOM     91  C64 UNL A   1      46.261  16.548  40.973  1.00  0.00    +0.000 C 
ATOM     92  C65 UNL A   1      45.777  16.536  39.655  1.00  0.00    +0.000 C 
ATOM     93  C66 UNL A   1      44.408  16.412  39.402  1.00  0.00    +0.000 C 
ATOM     94  C67 UNL A   1      43.532  16.285  40.473  1.00  0.00    +0.000 C 
ATOM     96  C68 UNL A   1      44.013  16.277  41.780  1.00  0.00    +0.000 C 
BRANCH   94   95
ATOM    137  H39 UNL A   1      41.632  15.930  41.013  1.00  0.00    +0.000 H 
ATOM     95  O7  UNL A   1      42.182  16.159  40.291  1.00  0.00    +0.000 O 
ENDBRANCH   94   95
BRANCH   96   97
ATOM     97  O8  UNL A   1      43.144  16.134  42.824  1.00  0.00    +0.000 O 
ATOM    138  H40 UNL A   1      42.221  16.202  42.678  1.00  0.00    +0.000 H 
ENDBRANCH   96   97
ENDBRANCH   90   91
ENDBRANCH   89   90
ENDBRANCH   14   13
ENDBRANCH   16   14
ENDBRANCH   17   16
ENDBRANCH   18   17
ENDBRANCH   19   18
ENDBRANCH   20   19
ENDBRANCH   21   20
ENDBRANCH   22   21
ENDBRANCH   23   22
ENDBRANCH   24   23
ENDBRANCH   26   24
ENDBRANCH   30   29
BRANCH   34   35
ATOM     35  C26 UNL A   1      38.624  32.165  36.264  1.00  0.00    +0.000 C 
ATOM     36  C27 UNL A   1      37.925  31.473  37.267  1.00  0.00    +0.000 C 
ATOM     37  F1  UNL A   1      37.530  30.208  37.065  1.00  0.00    +0.000 F 
ATOM     38  C28 UNL A   1      37.590  32.094  38.468  1.00  0.00    +0.000 C 
ATOM     39  F2  UNL A   1      36.873  31.431  39.385  1.00  0.00    +0.000 F 
ATOM     40  C29 UNL A   1      37.982  33.403  38.708  1.00  0.00    +0.000 C 
ATOM     41  F3  UNL A   1      37.666  33.996  39.867  1.00  0.00    +0.000 F 
ATOM     42  C30 UNL A   1      38.696  34.097  37.743  1.00  0.00    +0.000 C 
ATOM     43  F4  UNL A   1      39.089  35.356  37.979  1.00  0.00    +0.000 F 
ATOM     44  C31 UNL A   1      39.001  33.491  36.527  1.00  0.00    +0.000 C 
ATOM     45  F5  UNL A   1      39.674  34.199  35.607  1.00  0.00    +0.000 F 
ENDBRANCH   34   35
BRANCH   51   52
ATOM     52  C37 UNL A   1      36.259  31.991  29.455  1.00  0.00    +0.000 C 
ATOM     53  C38 UNL A   1      35.174  31.266  28.941  1.00  0.00    +0.000 C 
ATOM     54  F6  UNL A   1      35.102  29.939  29.125  1.00  0.00    +0.000 F 
ATOM     55  C39 UNL A   1      34.178  31.897  28.200  1.00  0.00    +0.000 C 
ATOM     56  F7  UNL A   1      33.177  31.175  27.676  1.00  0.00    +0.000 F 
ATOM     57  C40 UNL A   1      34.225  33.267  27.994  1.00  0.00    +0.000 C 
ATOM     58  F8  UNL A   1      33.258  33.874  27.291  1.00  0.00    +0.000 F 
ATOM     59  C41 UNL A   1      35.277  34.008  28.509  1.00  0.00    +0.000 C 
ATOM     60  F9  UNL A   1      35.315  35.335  28.328  1.00  0.00    +0.000 F 
ATOM     61  C42 UNL A   1      36.293  33.376  29.220  1.00  0.00    +0.000 C 
ATOM     62  F10 UNL A   1      37.303  34.118  29.697  1.00  0.00    +0.000 F 
ENDBRANCH   51   52
BRANCH   66   67
ATOM     67  C46 UNL A   1      41.285  27.422  27.878  1.00  0.00    +0.000 C 
ATOM     68  C47 UNL A   1      40.845  26.109  27.650  1.00  0.00    +0.000 C 
ATOM     69  F11 UNL A   1      40.086  25.490  28.565  1.00  0.00    +0.000 F 
ATOM     70  C48 UNL A   1      41.222  25.411  26.504  1.00  0.00    +0.000 C 
ATOM     71  F12 UNL A   1      40.832  24.141  26.339  1.00  0.00    +0.000 F 
ATOM     72  C49 UNL A   1      42.015  26.024  25.546  1.00  0.00    +0.000 C 
ATOM     73  F13 UNL A   1      42.376  25.353  24.444  1.00  0.00    +0.000 F 
ATOM     74  C50 UNL A   1      42.442  27.329  25.737  1.00  0.00    +0.000 C 
ATOM     75  F14 UNL A   1      43.195  27.931  24.807  1.00  0.00    +0.000 F 
ATOM     76  C51 UNL A   1      42.093  28.016  26.899  1.00  0.00    +0.000 C 
ATOM     77  F15 UNL A   1      42.535  29.271  27.063  1.00  0.00    +0.000 F 
ENDBRANCH   66   67
TORSDOF 22
ENDMDL
