MODEL 1
REMARK VINA RESULT:      -9.5      0.000      0.000
ROOT
ATOM     26  C20 UNL A   1      41.460  26.188  27.618  1.00  0.00    +0.000 C 
ATOM     27  C21 UNL A   1      40.774  27.284  28.385  1.00  0.00    +0.000 C 
ATOM     28  N3  UNL A   1      41.233  28.456  28.744  1.00  0.00    +0.000 N 
ATOM     29  C22 UNL A   1      40.178  29.096  29.383  1.00  0.00    +0.000 C 
ATOM     30  C23 UNL A   1      40.166  30.314  29.977  1.00  0.00    +0.000 C 
ATOM     42  C30 UNL A   1      41.306  31.188  30.067  1.00  0.00    +0.000 C 
ATOM     43  C31 UNL A   1      41.412  32.403  30.720  1.00  0.00    +0.000 C 
ATOM     44  C32 UNL A   1      42.697  32.909  30.497  1.00  0.00    +0.000 C 
ATOM     45  C33 UNL A   1      43.405  31.988  29.743  1.00  0.00    +0.000 C 
ATOM     46  N4  UNL A   1      42.538  30.938  29.484  1.00  0.00    +0.000 N 
ATOM     47  C34 UNL A   1      44.769  32.059  29.287  1.00  0.00    +0.000 C 
ATOM     59  C41 UNL A   1      45.396  31.103  28.559  1.00  0.00    +0.000 C 
ATOM     60  N5  UNL A   1      44.903  29.886  28.112  1.00  0.00    +0.000 N 
ATOM     61  C42 UNL A   1      45.882  29.324  27.446  1.00  0.00    +0.000 C 
ATOM     62  C43 UNL A   1      45.921  27.983  26.766  1.00  0.00    +0.000 C 
ATOM     74  C50 UNL A   1      44.840  27.182  26.823  1.00  0.00    +0.000 C 
ATOM     75  C51 UNL A   1      44.734  25.858  26.216  1.00  0.00    +0.000 C 
ATOM     76  C52 UNL A   1      43.500  25.375  26.432  1.00  0.00    +0.000 C 
ATOM     77  C53 UNL A   1      42.738  26.341  27.223  1.00  0.00    +0.000 C 
ATOM     78  N6  UNL A   1      43.617  27.377  27.418  1.00  0.00    +0.000 N 
ATOM     79  C54 UNL A   1      47.102  30.140  27.372  1.00  0.00    +0.000 C 
ATOM     80  C55 UNL A   1      46.766  31.196  28.100  1.00  0.00    +0.000 C 
ATOM     81  C56 UNL A   1      39.044  28.200  29.327  1.00  0.00    +0.000 C 
ATOM     82  C57 UNL A   1      39.377  27.041  28.776  1.00  0.00    +0.000 C 
ATOM    114  H30 UNL A   1      40.671  32.858  31.275  1.00  0.00    +0.000 H 
ATOM    115  H31 UNL A   1      43.057  33.814  30.839  1.00  0.00    +0.000 H 
ATOM    116  H32 UNL A   1      42.765  30.134  28.962  1.00  0.00    +0.000 H 
ATOM    117  H33 UNL A   1      45.486  25.372  25.704  1.00  0.00    +0.000 H 
ATOM    118  H34 UNL A   1      43.146  24.466  26.095  1.00  0.00    +0.000 H 
ATOM    119  H35 UNL A   1      43.394  28.184  27.937  1.00  0.00    +0.000 H 
ATOM    120  H36 UNL A   1      47.989  29.944  26.882  1.00  0.00    +0.000 H 
ATOM    121  H37 UNL A   1      47.399  31.982  28.311  1.00  0.00    +0.000 H 
ATOM    122  H38 UNL A   1      38.099  28.434  29.671  1.00  0.00    +0.000 H 
ATOM    123  H39 UNL A   1      38.804  26.191  28.654  1.00  0.00    +0.000 H 
ENDROOT
BRANCH   26   25
ATOM    112  H28 UNL A   1      40.621  21.640  27.720  1.00  0.00    +0.000 H 
ATOM    113  H29 UNL A   1      41.759  23.639  28.499  1.00  0.00    +0.000 H 
ATOM     83  C58 UNL A   1      39.670  25.060  26.290  1.00  0.00    +0.000 C 
ATOM     84  C59 UNL A   1      38.966  23.923  25.900  1.00  0.00    +0.000 C 
ATOM     22  C16 UNL A   1      39.357  22.666  26.373  1.00  0.00    +0.000 C 
ATOM     23  C17 UNL A   1      40.367  22.563  27.334  1.00  0.00    +0.000 C 
ATOM     24  C18 UNL A   1      41.030  23.712  27.772  1.00  0.00    +0.000 C 
ATOM     25  C19 UNL A   1      40.711  24.966  27.227  1.00  0.00    +0.000 C 
ATOM    124  H40 UNL A   1      39.424  25.978  25.887  1.00  0.00    +0.000 H 
ATOM    125  H41 UNL A   1      38.158  24.007  25.264  1.00  0.00    +0.000 H 
BRANCH   22   20
ATOM     20  C15 UNL A   1      38.720  21.425  25.876  1.00  0.00    +0.000 C 
ATOM     21  O2  UNL A   1      39.225  20.340  26.129  1.00  0.00    +0.000 O 
BRANCH   20   19
ATOM     19  N2  UNL A   1      37.584  21.500  25.104  1.00  0.00    +0.000 N 
ATOM    111  H27 UNL A   1      37.635  22.115  24.337  1.00  0.00    +0.000 H 
BRANCH   19   18
ATOM     18  C14 UNL A   1      36.320  20.800  25.259  1.00  0.00    +0.000 C 
ATOM    109  H25 UNL A   1      35.891  20.652  24.290  1.00  0.00    +0.000 H 
ATOM    110  H26 UNL A   1      36.527  19.871  25.750  1.00  0.00    +0.000 H 
BRANCH   18   17
ATOM     17  C13 UNL A   1      35.320  21.560  26.123  1.00  0.00    +0.000 C 
ATOM    107  H23 UNL A   1      34.348  21.433  25.694  1.00  0.00    +0.000 H 
ATOM    108  H24 UNL A   1      35.413  21.154  27.109  1.00  0.00    +0.000 H 
BRANCH   17   16
ATOM    105  H21 UNL A   1      35.058  23.408  27.131  1.00  0.00    +0.000 H 
ATOM    106  H22 UNL A   1      36.642  23.172  26.325  1.00  0.00    +0.000 H 
ATOM     16  C12 UNL A   1      35.580  23.062  26.263  1.00  0.00    +0.000 C 
BRANCH   16   15
ATOM    103  H19 UNL A   1      36.006  24.151  24.495  1.00  0.00    +0.000 H 
ATOM     15  C11 UNL A   1      35.138  23.920  25.075  1.00  0.00    +0.000 C 
ATOM    104  H20 UNL A   1      34.407  23.339  24.551  1.00  0.00    +0.000 H 
BRANCH   15   14
ATOM    102  H18 UNL A   1      35.225  25.959  25.573  1.00  0.00    +0.000 H 
ATOM    101  H17 UNL A   1      33.845  25.078  26.301  1.00  0.00    +0.000 H 
ATOM     14  C10 UNL A   1      34.443  25.243  25.429  1.00  0.00    +0.000 C 
BRANCH   14   13
ATOM     99  H15 UNL A   1      33.463  26.876  24.477  1.00  0.00    +0.000 H 
ATOM    100  H16 UNL A   1      33.975  25.585  23.390  1.00  0.00    +0.000 H 
ATOM     13  C9  UNL A   1      33.540  25.818  24.339  1.00  0.00    +0.000 C 
BRANCH   13   12
ATOM     98  H14 UNL A   1      31.746  25.192  25.245  1.00  0.00    +0.000 H 
ATOM     12  N1  UNL A   1      32.215  25.242  24.382  1.00  0.00    +0.000 N 
BRANCH   12    2
ATOM      1  O1  UNL A   1      31.509  25.380  22.203  1.00  0.00    +0.000 O 
ATOM      2  C1  UNL A   1      31.587  24.760  23.259  1.00  0.00    +0.000 C 
BRANCH    2    3
ATOM      3  C2  UNL A   1      30.987  23.379  23.429  1.00  0.00    +0.000 C 
ATOM     85  H1  UNL A   1      30.894  22.925  22.464  1.00  0.00    +0.000 H 
ATOM     86  H2  UNL A   1      30.036  23.498  23.905  1.00  0.00    +0.000 H 
BRANCH    3    4
ATOM      4  C3  UNL A   1      31.836  22.467  24.318  1.00  0.00    +0.000 C 
ATOM     87  H3  UNL A   1      31.167  21.937  24.963  1.00  0.00    +0.000 H 
ATOM     88  H4  UNL A   1      32.520  23.128  24.808  1.00  0.00    +0.000 H 
BRANCH    4    5
ATOM     89  H5  UNL A   1      33.652  21.386  24.167  1.00  0.00    +0.000 H 
ATOM     90  H6  UNL A   1      32.798  21.765  22.612  1.00  0.00    +0.000 H 
ATOM      5  C4  UNL A   1      32.731  21.424  23.624  1.00  0.00    +0.000 C 
BRANCH    5    6
ATOM     91  H7  UNL A   1      31.926  19.836  22.487  1.00  0.00    +0.000 H 
ATOM     92  H8  UNL A   1      31.428  19.933  24.233  1.00  0.00    +0.000 H 
ATOM      6  C5  UNL A   1      32.212  19.985  23.507  1.00  0.00    +0.000 C 
BRANCH    6    7
ATOM     97  H13 UNL A   1      33.981  15.586  23.077  1.00  0.00    +0.000 H 
ATOM      7  C6  UNL A   1      33.151  18.825  23.887  1.00  0.00    +0.000 C 
ATOM      8  C7  UNL A   1      33.175  17.588  22.990  1.00  0.00    +0.000 C 
ATOM      9  C8  UNL A   1      34.028  16.498  23.633  1.00  0.00    +0.000 C 
ATOM     10  S1  UNL A   1      33.388  16.285  25.309  1.00  0.00    +0.000 S 
ATOM     11  S2  UNL A   1      32.757  18.218  25.569  1.00  0.00    +0.000 S 
ATOM     93  H9  UNL A   1      34.112  19.285  23.788  1.00  0.00    +0.000 H 
ATOM     94  H10 UNL A   1      33.588  17.848  22.039  1.00  0.00    +0.000 H 
ATOM     95  H11 UNL A   1      32.176  17.225  22.864  1.00  0.00    +0.000 H 
ATOM     96  H12 UNL A   1      35.055  16.799  23.662  1.00  0.00    +0.000 H 
ENDBRANCH    6    7
ENDBRANCH    5    6
ENDBRANCH    4    5
ENDBRANCH    3    4
ENDBRANCH    2    3
ENDBRANCH   12    2
ENDBRANCH   13   12
ENDBRANCH   14   13
ENDBRANCH   15   14
ENDBRANCH   16   15
ENDBRANCH   17   16
ENDBRANCH   18   17
ENDBRANCH   19   18
ENDBRANCH   20   19
ENDBRANCH   22   20
ENDBRANCH   26   25
BRANCH   30   31
ATOM     33  F1  UNL A   1      38.050  31.563  28.497  1.00  0.00    +0.000 F 
ATOM     34  C26 UNL A   1      36.658  31.758  30.384  1.00  0.00    +0.000 C 
ATOM     35  F2  UNL A   1      35.721  32.348  29.630  1.00  0.00    +0.000 F 
ATOM     36  C27 UNL A   1      36.433  31.557  31.738  1.00  0.00    +0.000 C 
ATOM     37  F3  UNL A   1      35.272  31.936  32.289  1.00  0.00    +0.000 F 
ATOM     38  C28 UNL A   1      37.414  30.968  32.521  1.00  0.00    +0.000 C 
ATOM     39  F4  UNL A   1      37.192  30.763  33.828  1.00  0.00    +0.000 F 
ATOM     40  C29 UNL A   1      38.628  30.590  31.955  1.00  0.00    +0.000 C 
ATOM     41  F5  UNL A   1      39.562  30.034  32.740  1.00  0.00    +0.000 F 
ATOM     31  C24 UNL A   1      38.874  30.776  30.585  1.00  0.00    +0.000 C 
ATOM     32  C25 UNL A   1      37.861  31.356  29.808  1.00  0.00    +0.000 C 
ENDBRANCH   30   31
BRANCH   47   48
ATOM     48  C35 UNL A   1      45.567  33.273  29.661  1.00  0.00    +0.000 C 
ATOM     49  C36 UNL A   1      45.570  34.426  28.862  1.00  0.00    +0.000 C 
ATOM     50  F6  UNL A   1      44.890  34.447  27.706  1.00  0.00    +0.000 F 
ATOM     51  C37 UNL A   1      46.303  35.550  29.233  1.00  0.00    +0.000 C 
ATOM     52  F7  UNL A   1      46.325  36.626  28.434  1.00  0.00    +0.000 F 
ATOM     53  C38 UNL A   1      47.020  35.555  30.421  1.00  0.00    +0.000 C 
ATOM     54  F8  UNL A   1      47.720  36.640  30.778  1.00  0.00    +0.000 F 
ATOM     55  C39 UNL A   1      47.018  34.431  31.233  1.00  0.00    +0.000 C 
ATOM     56  F9  UNL A   1      47.702  34.436  32.385  1.00  0.00    +0.000 F 
ATOM     57  C40 UNL A   1      46.308  33.295  30.852  1.00  0.00    +0.000 C 
ATOM     58  F10 UNL A   1      46.334  32.219  31.654  1.00  0.00    +0.000 F 
ENDBRANCH   47   48
BRANCH   62   63
ATOM     65  F11 UNL A   1      46.281  28.259  23.970  1.00  0.00    +0.000 F 
ATOM     66  C46 UNL A   1      48.406  27.242  23.996  1.00  0.00    +0.000 C 
ATOM     67  F12 UNL A   1      48.485  27.373  22.664  1.00  0.00    +0.000 F 
ATOM     68  C47 UNL A   1      49.442  26.643  24.696  1.00  0.00    +0.000 C 
ATOM     69  F13 UNL A   1      50.531  26.210  24.046  1.00  0.00    +0.000 F 
ATOM     70  C48 UNL A   1      49.344  26.485  26.071  1.00  0.00    +0.000 C 
ATOM     71  F14 UNL A   1      50.347  25.918  26.753  1.00  0.00    +0.000 F 
ATOM     72  C49 UNL A   1      48.202  26.913  26.745  1.00  0.00    +0.000 C 
ATOM     73  F15 UNL A   1      48.128  26.735  28.071  1.00  0.00    +0.000 F 
ATOM     63  C44 UNL A   1      47.145  27.529  26.058  1.00  0.00    +0.000 C 
ATOM     64  C45 UNL A   1      47.275  27.695  24.672  1.00  0.00    +0.000 C 
ENDBRANCH   62   63
TORSDOF 19
ENDMDL
MODEL 2
REMARK VINA RESULT:      -9.4     20.103     26.228
ROOT
ATOM     26  C20 UNL A   1      25.942  35.422  45.388  1.00  0.00    +0.000 C 
ATOM     27  C21 UNL A   1      27.275  35.401  44.695  1.00  0.00    +0.000 C 
ATOM     28  N3  UNL A   1      28.310  36.185  44.866  1.00  0.00    +0.000 N 
ATOM     29  C22 UNL A   1      29.295  35.701  44.015  1.00  0.00    +0.000 C 
ATOM     30  C23 UNL A   1      30.535  36.200  43.789  1.00  0.00    +0.000 C 
ATOM     42  C30 UNL A   1      31.061  37.385  44.413  1.00  0.00    +0.000 C 
ATOM     43  C31 UNL A   1      32.273  38.014  44.187  1.00  0.00    +0.000 C 
ATOM     44  C32 UNL A   1      32.368  39.107  45.055  1.00  0.00    +0.000 C 
ATOM     45  C33 UNL A   1      31.197  39.185  45.790  1.00  0.00    +0.000 C 
ATOM     46  N4  UNL A   1      30.405  38.121  45.387  1.00  0.00    +0.000 N 
ATOM     47  C34 UNL A   1      30.826  40.154  46.789  1.00  0.00    +0.000 C 
ATOM     59  C41 UNL A   1      29.647  40.169  47.457  1.00  0.00    +0.000 C 
ATOM     60  N5  UNL A   1      28.568  39.305  47.337  1.00  0.00    +0.000 N 
ATOM     61  C42 UNL A   1      27.674  39.725  48.199  1.00  0.00    +0.000 C 
ATOM     62  C43 UNL A   1      26.298  39.186  48.480  1.00  0.00    +0.000 C 
ATOM     74  C50 UNL A   1      25.844  38.134  47.772  1.00  0.00    +0.000 C 
ATOM     75  C51 UNL A   1      24.535  37.508  47.931  1.00  0.00    +0.000 C 
ATOM     76  C52 UNL A   1      24.446  36.460  47.096  1.00  0.00    +0.000 C 
ATOM     77  C53 UNL A   1      25.681  36.361  46.318  1.00  0.00    +0.000 C 
ATOM     78  N6  UNL A   1      26.448  37.403  46.777  1.00  0.00    +0.000 N 
ATOM     79  C54 UNL A   1      28.101  40.891  48.986  1.00  0.00    +0.000 C 
ATOM     80  C55 UNL A   1      29.295  41.145  48.466  1.00  0.00    +0.000 C 
ATOM     81  C56 UNL A   1      28.751  34.533  43.358  1.00  0.00    +0.000 C 
ATOM     82  C57 UNL A   1      27.484  34.341  43.697  1.00  0.00    +0.000 C 
ATOM    114  H30 UNL A   1      32.985  37.726  43.497  1.00  0.00    +0.000 H 
ATOM    115  H31 UNL A   1      33.174  39.747  45.133  1.00  0.00    +0.000 H 
ATOM    116  H32 UNL A   1      29.509  37.918  45.742  1.00  0.00    +0.000 H 
ATOM    117  H33 UNL A   1      23.797  37.820  48.581  1.00  0.00    +0.000 H 
ATOM    118  H34 UNL A   1      23.635  35.826  47.016  1.00  0.00    +0.000 H 
ATOM    119  H35 UNL A   1      27.345  37.608  46.428  1.00  0.00    +0.000 H 
ATOM    120  H36 UNL A   1      27.604  41.383  49.744  1.00  0.00    +0.000 H 
ATOM    121  H37 UNL A   1      29.894  41.936  48.746  1.00  0.00    +0.000 H 
ATOM    122  H38 UNL A   1      29.281  33.928  42.711  1.00  0.00    +0.000 H 
ATOM    123  H39 UNL A   1      26.818  33.633  43.350  1.00  0.00    +0.000 H 
ENDROOT
BRANCH   26   25
ATOM    112  H28 UNL A   1      22.223  33.715  43.231  1.00  0.00    +0.000 H 
ATOM    113  H29 UNL A   1      23.946  35.397  43.551  1.00  0.00    +0.000 H 
ATOM     83  C58 UNL A   1      24.967  33.167  45.842  1.00  0.00    +0.000 C 
ATOM     84  C59 UNL A   1      24.024  32.170  45.604  1.00  0.00    +0.000 C 
ATOM     22  C16 UNL A   1      22.984  32.398  44.697  1.00  0.00    +0.000 C 
ATOM     23  C17 UNL A   1      22.963  33.569  43.936  1.00  0.00    +0.000 C 
ATOM     24  C18 UNL A   1      23.947  34.542  44.130  1.00  0.00    +0.000 C 
ATOM     25  C19 UNL A   1      24.936  34.364  45.110  1.00  0.00    +0.000 C 
ATOM    124  H40 UNL A   1      25.693  33.024  46.561  1.00  0.00    +0.000 H 
ATOM    125  H41 UNL A   1      24.092  31.265  46.096  1.00  0.00    +0.000 H 
BRANCH   22   20
ATOM     20  C15 UNL A   1      21.889  31.416  44.520  1.00  0.00    +0.000 C 
ATOM     21  O2  UNL A   1      22.006  30.286  44.975  1.00  0.00    +0.000 O 
BRANCH   20   19
ATOM     19  N2  UNL A   1      20.761  31.768  43.815  1.00  0.00    +0.000 N 
ATOM    111  H27 UNL A   1      20.918  32.325  43.018  1.00  0.00    +0.000 H 
BRANCH   19   18
ATOM     18  C14 UNL A   1      19.372  31.434  44.079  1.00  0.00    +0.000 C 
ATOM    109  H25 UNL A   1      18.775  31.787  43.263  1.00  0.00    +0.000 H 
ATOM    110  H26 UNL A   1      19.313  30.371  44.187  1.00  0.00    +0.000 H 
BRANCH   18   17
ATOM     17  C13 UNL A   1      18.845  32.053  45.369  1.00  0.00    +0.000 C 
ATOM    107  H23 UNL A   1      17.886  31.625  45.574  1.00  0.00    +0.000 H 
ATOM    108  H24 UNL A   1      19.579  31.842  46.119  1.00  0.00    +0.000 H 
BRANCH   17   16
ATOM    105  H21 UNL A   1      18.243  33.872  46.279  1.00  0.00    +0.000 H 
ATOM    106  H22 UNL A   1      19.670  33.971  45.199  1.00  0.00    +0.000 H 
ATOM     16  C12 UNL A   1      18.687  33.575  45.352  1.00  0.00    +0.000 C 
BRANCH   16   15
ATOM    103  H19 UNL A   1      18.008  35.188  44.157  1.00  0.00    +0.000 H 
ATOM     15  C11 UNL A   1      17.827  34.136  44.217  1.00  0.00    +0.000 C 
ATOM    104  H20 UNL A   1      18.114  33.594  43.339  1.00  0.00    +0.000 H 
BRANCH   15   14
ATOM    102  H18 UNL A   1      15.939  34.796  44.857  1.00  0.00    +0.000 H 
ATOM    101  H17 UNL A   1      16.156  33.018  44.906  1.00  0.00    +0.000 H 
ATOM     14  C10 UNL A   1      16.313  33.925  44.360  1.00  0.00    +0.000 C 
BRANCH   14   13
ATOM     99  H15 UNL A   1      14.710  34.498  43.081  1.00  0.00    +0.000 H 
ATOM    100  H16 UNL A   1      16.207  34.077  42.249  1.00  0.00    +0.000 H 
ATOM     13  C9  UNL A   1      15.540  33.825  43.046  1.00  0.00    +0.000 C 
BRANCH   13   12
ATOM     98  H14 UNL A   1      14.090  32.302  42.945  1.00  0.00    +0.000 H 
ATOM     12  N1  UNL A   1      15.048  32.485  42.815  1.00  0.00    +0.000 N 
BRANCH   12    2
ATOM      1  O1  UNL A   1      16.851  31.610  41.699  1.00  0.00    +0.000 O 
ATOM      2  C1  UNL A   1      15.871  31.458  42.420  1.00  0.00    +0.000 C 
BRANCH    2    3
ATOM      3  C2  UNL A   1      15.466  30.099  42.956  1.00  0.00    +0.000 C 
ATOM     85  H1  UNL A   1      15.359  29.425  42.132  1.00  0.00    +0.000 H 
ATOM     86  H2  UNL A   1      14.545  30.224  43.488  1.00  0.00    +0.000 H 
BRANCH    3    4
ATOM      4  C3  UNL A   1      16.488  29.517  43.935  1.00  0.00    +0.000 C 
ATOM     87  H3  UNL A   1      16.287  29.941  44.896  1.00  0.00    +0.000 H 
ATOM     88  H4  UNL A   1      17.440  29.765  43.512  1.00  0.00    +0.000 H 
BRANCH    4    5
ATOM     89  H5  UNL A   1      16.952  27.786  45.065  1.00  0.00    +0.000 H 
ATOM     90  H6  UNL A   1      17.087  27.642  43.262  1.00  0.00    +0.000 H 
ATOM      5  C4  UNL A   1      16.525  27.988  44.105  1.00  0.00    +0.000 C 
BRANCH    5    6
ATOM     91  H7  UNL A   1      14.419  27.941  43.944  1.00  0.00    +0.000 H 
ATOM     92  H8  UNL A   1      15.201  26.609  44.904  1.00  0.00    +0.000 H 
ATOM      6  C5  UNL A   1      15.202  27.216  44.023  1.00  0.00    +0.000 C 
BRANCH    6    7
ATOM     97  H13 UNL A   1      14.369  25.981  39.500  1.00  0.00    +0.000 H 
ATOM      7  C6  UNL A   1      15.001  26.208  42.875  1.00  0.00    +0.000 C 
ATOM      8  C7  UNL A   1      14.910  26.745  41.447  1.00  0.00    +0.000 C 
ATOM      9  C8  UNL A   1      14.539  25.615  40.491  1.00  0.00    +0.000 C 
ATOM     10  S1  UNL A   1      13.052  24.849  41.177  1.00  0.00    +0.000 S 
ATOM     11  S2  UNL A   1      13.472  25.239  43.145  1.00  0.00    +0.000 S 
ATOM     93  H9  UNL A   1      15.909  25.643  42.924  1.00  0.00    +0.000 H 
ATOM     94  H10 UNL A   1      15.856  27.155  41.161  1.00  0.00    +0.000 H 
ATOM     95  H11 UNL A   1      14.158  27.505  41.404  1.00  0.00    +0.000 H 
ATOM     96  H12 UNL A   1      15.333  24.901  40.434  1.00  0.00    +0.000 H 
ENDBRANCH    6    7
ENDBRANCH    5    6
ENDBRANCH    4    5
ENDBRANCH    3    4
ENDBRANCH    2    3
ENDBRANCH   12    2
ENDBRANCH   13   12
ENDBRANCH   14   13
ENDBRANCH   15   14
ENDBRANCH   16   15
ENDBRANCH   17   16
ENDBRANCH   18   17
ENDBRANCH   19   18
ENDBRANCH   20   19
ENDBRANCH   22   20
ENDBRANCH   26   25
BRANCH   30   31
ATOM     33  F1  UNL A   1      30.669  36.784  40.984  1.00  0.00    +0.000 F 
ATOM     34  C26 UNL A   1      32.298  35.135  40.578  1.00  0.00    +0.000 C 
ATOM     35  F2  UNL A   1      32.295  35.455  39.277  1.00  0.00    +0.000 F 
ATOM     36  C27 UNL A   1      33.126  34.124  41.041  1.00  0.00    +0.000 C 
ATOM     37  F3  UNL A   1      33.938  33.479  40.192  1.00  0.00    +0.000 F 
ATOM     38  C28 UNL A   1      33.109  33.777  42.383  1.00  0.00    +0.000 C 
ATOM     39  F4  UNL A   1      33.919  32.808  42.834  1.00  0.00    +0.000 F 
ATOM     40  C29 UNL A   1      32.254  34.433  43.264  1.00  0.00    +0.000 C 
ATOM     41  F5  UNL A   1      32.251  34.067  44.554  1.00  0.00    +0.000 F 
ATOM     31  C24 UNL A   1      31.413  35.465  42.819  1.00  0.00    +0.000 C 
ATOM     32  C25 UNL A   1      31.459  35.811  41.461  1.00  0.00    +0.000 C 
ENDBRANCH   30   31
BRANCH   47   48
ATOM     48  C35 UNL A   1      31.808  41.244  47.102  1.00  0.00    +0.000 C 
ATOM     49  C36 UNL A   1      32.918  41.019  47.929  1.00  0.00    +0.000 C 
ATOM     50  F6  UNL A   1      33.097  39.821  48.505  1.00  0.00    +0.000 F 
ATOM     51  C37 UNL A   1      33.829  42.037  48.196  1.00  0.00    +0.000 C 
ATOM     52  F7  UNL A   1      34.859  41.812  49.023  1.00  0.00    +0.000 F 
ATOM     53  C38 UNL A   1      33.666  43.288  47.617  1.00  0.00    +0.000 C 
ATOM     54  F8  UNL A   1      34.547  44.264  47.871  1.00  0.00    +0.000 F 
ATOM     55  C39 UNL A   1      32.583  43.527  46.783  1.00  0.00    +0.000 C 
ATOM     56  F9  UNL A   1      32.429  44.731  46.216  1.00  0.00    +0.000 F 
ATOM     57  C40 UNL A   1      31.656  42.519  46.536  1.00  0.00    +0.000 C 
ATOM     58  F10 UNL A   1      30.613  42.784  45.734  1.00  0.00    +0.000 F 
ENDBRANCH   47   48
BRANCH   62   63
ATOM     65  F11 UNL A   1      26.332  38.420  51.207  1.00  0.00    +0.000 F 
ATOM     66  C46 UNL A   1      24.663  39.968  51.814  1.00  0.00    +0.000 C 
ATOM     67  F12 UNL A   1      24.710  39.523  53.077  1.00  0.00    +0.000 F 
ATOM     68  C47 UNL A   1      23.778  40.977  51.466  1.00  0.00    +0.000 C 
ATOM     69  F13 UNL A   1      22.980  41.521  52.395  1.00  0.00    +0.000 F 
ATOM     70  C48 UNL A   1      23.714  41.415  50.152  1.00  0.00    +0.000 C 
ATOM     71  F14 UNL A   1      22.868  42.397  49.814  1.00  0.00    +0.000 F 
ATOM     72  C49 UNL A   1      24.525  40.833  49.180  1.00  0.00    +0.000 C 
ATOM     73  F15 UNL A   1      24.432  41.266  47.915  1.00  0.00    +0.000 F 
ATOM     63  C44 UNL A   1      25.433  39.816  49.510  1.00  0.00    +0.000 C 
ATOM     64  C45 UNL A   1      25.494  39.404  50.848  1.00  0.00    +0.000 C 
ENDBRANCH   62   63
TORSDOF 19
ENDMDL
MODEL 3
REMARK VINA RESULT:      -9.3     23.150     30.198
ROOT
ATOM     26  C20 UNL A   1      25.890  39.417  46.619  1.00  0.00    +0.000 C 
ATOM     27  C21 UNL A   1      25.010  40.429  47.297  1.00  0.00    +0.000 C 
ATOM     28  N3  UNL A   1      23.788  40.295  47.748  1.00  0.00    +0.000 N 
ATOM     29  C22 UNL A   1      23.462  41.514  48.328  1.00  0.00    +0.000 C 
ATOM     30  C23 UNL A   1      22.291  41.894  48.892  1.00  0.00    +0.000 C 
ATOM     42  C30 UNL A   1      21.120  41.062  48.975  1.00  0.00    +0.000 C 
ATOM     43  C31 UNL A   1      19.862  41.387  49.452  1.00  0.00    +0.000 C 
ATOM     44  C32 UNL A   1      19.056  40.246  49.374  1.00  0.00    +0.000 C 
ATOM     45  C33 UNL A   1      19.798  39.224  48.807  1.00  0.00    +0.000 C 
ATOM     46  N4  UNL A   1      21.063  39.738  48.568  1.00  0.00    +0.000 N 
ATOM     47  C34 UNL A   1      19.388  37.877  48.506  1.00  0.00    +0.000 C 
ATOM     59  C41 UNL A   1      20.176  36.935  47.933  1.00  0.00    +0.000 C 
ATOM     60  N5  UNL A   1      21.494  37.040  47.512  1.00  0.00    +0.000 N 
ATOM     61  C42 UNL A   1      21.815  35.862  47.036  1.00  0.00    +0.000 C 
ATOM     62  C43 UNL A   1      23.109  35.407  46.418  1.00  0.00    +0.000 C 
ATOM     74  C50 UNL A   1      24.120  36.287  46.283  1.00  0.00    +0.000 C 
ATOM     75  C51 UNL A   1      25.427  35.991  45.701  1.00  0.00    +0.000 C 
ATOM     76  C52 UNL A   1      26.198  37.087  45.777  1.00  0.00    +0.000 C 
ATOM     77  C53 UNL A   1      25.429  38.174  46.383  1.00  0.00    +0.000 C 
ATOM     78  N6  UNL A   1      24.203  37.611  46.639  1.00  0.00    +0.000 N 
ATOM     79  C54 UNL A   1      20.740  34.864  47.130  1.00  0.00    +0.000 C 
ATOM     80  C55 UNL A   1      19.751  35.581  47.647  1.00  0.00    +0.000 C 
ATOM     81  C56 UNL A   1      24.628  42.364  48.209  1.00  0.00    +0.000 C 
ATOM     82  C57 UNL A   1      25.590  41.762  47.524  1.00  0.00    +0.000 C 
ATOM    114  H30 UNL A   1      19.570  42.311  49.807  1.00  0.00    +0.000 H 
ATOM    115  H31 UNL A   1      18.074  40.179  49.686  1.00  0.00    +0.000 H 
ATOM    116  H32 UNL A   1      21.811  39.236  48.169  1.00  0.00    +0.000 H 
ATOM    117  H33 UNL A   1      25.712  35.085  45.297  1.00  0.00    +0.000 H 
ATOM    118  H34 UNL A   1      27.178  37.153  45.458  1.00  0.00    +0.000 H 
ATOM    119  H35 UNL A   1      23.454  38.108  47.040  1.00  0.00    +0.000 H 
ATOM    120  H36 UNL A   1      20.751  33.867  46.864  1.00  0.00    +0.000 H 
ATOM    121  H37 UNL A   1      18.802  35.219  47.824  1.00  0.00    +0.000 H 
ATOM    122  H38 UNL A   1      24.699  43.314  48.606  1.00  0.00    +0.000 H 
ATOM    123  H39 UNL A   1      26.506  42.133  47.227  1.00  0.00    +0.000 H 
ENDROOT
BRANCH   26   25
ATOM    112  H28 UNL A   1      29.210  40.885  43.752  1.00  0.00    +0.000 H 
ATOM    113  H29 UNL A   1      26.886  40.489  44.334  1.00  0.00    +0.000 H 
ATOM     83  C58 UNL A   1      28.311  39.544  47.221  1.00  0.00    +0.000 C 
ATOM     84  C59 UNL A   1      29.637  39.844  46.913  1.00  0.00    +0.000 C 
ATOM     22  C16 UNL A   1      29.971  40.270  45.624  1.00  0.00    +0.000 C 
ATOM     23  C17 UNL A   1      28.966  40.522  44.687  1.00  0.00    +0.000 C 
ATOM     24  C18 UNL A   1      27.631  40.282  45.018  1.00  0.00    +0.000 C 
ATOM     25  C19 UNL A   1      27.296  39.757  46.276  1.00  0.00    +0.000 C 
ATOM    124  H40 UNL A   1      28.075  39.164  48.151  1.00  0.00    +0.000 H 
ATOM    125  H41 UNL A   1      30.369  39.750  47.633  1.00  0.00    +0.000 H 
BRANCH   22   20
ATOM     20  C15 UNL A   1      31.383  40.467  45.222  1.00  0.00    +0.000 C 
ATOM     21  O2  UNL A   1      32.102  41.215  45.871  1.00  0.00    +0.000 O 
BRANCH   20   19
ATOM     19  N2  UNL A   1      31.870  39.836  44.101  1.00  0.00    +0.000 N 
ATOM    111  H27 UNL A   1      31.995  40.413  43.312  1.00  0.00    +0.000 H 
BRANCH   19   18
ATOM     18  C14 UNL A   1      32.228  38.440  43.915  1.00  0.00    +0.000 C 
ATOM    109  H25 UNL A   1      33.128  38.392  43.338  1.00  0.00    +0.000 H 
ATOM    110  H26 UNL A   1      32.352  38.009  44.887  1.00  0.00    +0.000 H 
BRANCH   18   17
ATOM     17  C13 UNL A   1      31.148  37.639  43.196  1.00  0.00    +0.000 C 
ATOM    107  H23 UNL A   1      30.363  38.314  42.921  1.00  0.00    +0.000 H 
ATOM    108  H24 UNL A   1      31.630  37.177  42.360  1.00  0.00    +0.000 H 
BRANCH   17   16
ATOM    105  H21 UNL A   1      30.912  35.576  43.625  1.00  0.00    +0.000 H 
ATOM    106  H22 UNL A   1      30.785  36.688  45.026  1.00  0.00    +0.000 H 
ATOM     16  C12 UNL A   1      30.526  36.499  44.005  1.00  0.00    +0.000 C 
BRANCH   16   15
ATOM    103  H19 UNL A   1      28.640  36.508  44.972  1.00  0.00    +0.000 H 
ATOM     15  C11 UNL A   1      28.998  36.422  43.968  1.00  0.00    +0.000 C 
ATOM    104  H20 UNL A   1      28.681  37.216  43.324  1.00  0.00    +0.000 H 
BRANCH   15   14
ATOM    102  H18 UNL A   1      28.343  35.309  42.311  1.00  0.00    +0.000 H 
ATOM    101  H17 UNL A   1      27.464  34.958  43.832  1.00  0.00    +0.000 H 
ATOM     14  C10 UNL A   1      28.409  35.137  43.366  1.00  0.00    +0.000 C 
BRANCH   14   13
ATOM     99  H15 UNL A   1      28.937  33.143  42.839  1.00  0.00    +0.000 H 
ATOM    100  H16 UNL A   1      30.286  34.152  43.360  1.00  0.00    +0.000 H 
ATOM     13  C9  UNL A   1      29.265  33.884  43.537  1.00  0.00    +0.000 C 
BRANCH   13   12
ATOM     98  H14 UNL A   1      28.280  33.092  45.221  1.00  0.00    +0.000 H 
ATOM     12  N1  UNL A   1      29.166  33.346  44.875  1.00  0.00    +0.000 N 
BRANCH   12    2
ATOM      1  O1  UNL A   1      31.357  32.794  45.274  1.00  0.00    +0.000 O 
ATOM      2  C1  UNL A   1      30.265  33.176  45.682  1.00  0.00    +0.000 C 
BRANCH    2    3
ATOM      3  C2  UNL A   1      30.019  33.503  47.142  1.00  0.00    +0.000 C 
ATOM     85  H1  UNL A   1      30.857  34.052  47.515  1.00  0.00    +0.000 H 
ATOM     86  H2  UNL A   1      29.886  32.577  47.661  1.00  0.00    +0.000 H 
BRANCH    3    4
ATOM      4  C3  UNL A   1      28.753  34.337  47.358  1.00  0.00    +0.000 C 
ATOM     87  H3  UNL A   1      28.205  33.884  48.158  1.00  0.00    +0.000 H 
ATOM     88  H4  UNL A   1      28.263  34.337  46.407  1.00  0.00    +0.000 H 
BRANCH    4    5
ATOM     89  H5  UNL A   1      28.370  36.387  46.987  1.00  0.00    +0.000 H 
ATOM     90  H6  UNL A   1      29.988  35.976  47.695  1.00  0.00    +0.000 H 
ATOM      5  C4  UNL A   1      28.929  35.826  47.706  1.00  0.00    +0.000 C 
BRANCH    5    6
ATOM     91  H7  UNL A   1      29.150  37.098  49.378  1.00  0.00    +0.000 H 
ATOM     92  H8  UNL A   1      28.531  35.419  49.699  1.00  0.00    +0.000 H 
ATOM      6  C5  UNL A   1      28.492  36.303  49.097  1.00  0.00    +0.000 C 
BRANCH    6    7
ATOM     97  H13 UNL A   1      25.147  39.040  51.094  1.00  0.00    +0.000 H 
ATOM      7  C6  UNL A   1      27.052  36.818  49.286  1.00  0.00    +0.000 C 
ATOM      8  C7  UNL A   1      26.829  38.027  50.194  1.00  0.00    +0.000 C 
ATOM      9  C8  UNL A   1      25.333  38.263  50.383  1.00  0.00    +0.000 C 
ATOM     10  S1  UNL A   1      24.643  36.685  50.931  1.00  0.00    +0.000 S 
ATOM     11  S2  UNL A   1      25.987  35.487  49.951  1.00  0.00    +0.000 S 
ATOM     93  H9  UNL A   1      26.808  37.140  48.294  1.00  0.00    +0.000 H 
ATOM     94  H10 UNL A   1      27.272  38.893  49.748  1.00  0.00    +0.000 H 
ATOM     95  H11 UNL A   1      27.280  37.841  51.146  1.00  0.00    +0.000 H 
ATOM     96  H12 UNL A   1      24.885  38.565  49.459  1.00  0.00    +0.000 H 
ENDBRANCH    6    7
ENDBRANCH    5    6
ENDBRANCH    4    5
ENDBRANCH    3    4
ENDBRANCH    2    3
ENDBRANCH   12    2
ENDBRANCH   13   12
ENDBRANCH   14   13
ENDBRANCH   15   14
ENDBRANCH   16   15
ENDBRANCH   17   16
ENDBRANCH   18   17
ENDBRANCH   19   18
ENDBRANCH   20   19
ENDBRANCH   22   20
ENDBRANCH   26   25
BRANCH   30   31
ATOM     33  F1  UNL A   1      22.824  42.531  51.637  1.00  0.00    +0.000 F 
ATOM     34  C26 UNL A   1      22.457  44.834  51.318  1.00  0.00    +0.000 C 
ATOM     35  F2  UNL A   1      22.705  45.052  52.616  1.00  0.00    +0.000 F 
ATOM     36  C27 UNL A   1      22.137  45.896  50.486  1.00  0.00    +0.000 C 
ATOM     37  F3  UNL A   1      22.093  47.143  50.976  1.00  0.00    +0.000 F 
ATOM     38  C28 UNL A   1      21.855  45.665  49.148  1.00  0.00    +0.000 C 
ATOM     39  F4  UNL A   1      21.557  46.693  48.341  1.00  0.00    +0.000 F 
ATOM     40  C29 UNL A   1      21.882  44.369  48.642  1.00  0.00    +0.000 C 
ATOM     41  F5  UNL A   1      21.594  44.176  47.346  1.00  0.00    +0.000 F 
ATOM     31  C24 UNL A   1      22.213  43.280  49.463  1.00  0.00    +0.000 C 
ATOM     32  C25 UNL A   1      22.511  43.539  50.809  1.00  0.00    +0.000 C 
ENDBRANCH   30   31
BRANCH   47   48
ATOM     48  C35 UNL A   1      17.976  37.488  48.830  1.00  0.00    +0.000 C 
ATOM     49  C36 UNL A   1      17.521  37.410  50.154  1.00  0.00    +0.000 C 
ATOM     50  F6  UNL A   1      18.365  37.636  51.172  1.00  0.00    +0.000 F 
ATOM     51  C37 UNL A   1      16.202  37.064  50.437  1.00  0.00    +0.000 C 
ATOM     52  F7  UNL A   1      15.799  36.955  51.711  1.00  0.00    +0.000 F 
ATOM     53  C38 UNL A   1      15.308  36.821  49.405  1.00  0.00    +0.000 C 
ATOM     54  F8  UNL A   1      14.039  36.494  49.680  1.00  0.00    +0.000 F 
ATOM     55  C39 UNL A   1      15.734  36.907  48.088  1.00  0.00    +0.000 C 
ATOM     56  F9  UNL A   1      14.870  36.682  47.089  1.00  0.00    +0.000 F 
ATOM     57  C40 UNL A   1      17.059  37.227  47.802  1.00  0.00    +0.000 C 
ATOM     58  F10 UNL A   1      17.443  37.292  46.518  1.00  0.00    +0.000 F 
ENDBRANCH   47   48
BRANCH   62   63
ATOM     65  F11 UNL A   1      22.147  34.522  43.905  1.00  0.00    +0.000 F 
ATOM     66  C46 UNL A   1      22.896  32.312  44.233  1.00  0.00    +0.000 C 
ATOM     67  F12 UNL A   1      22.379  31.961  43.048  1.00  0.00    +0.000 F 
ATOM     68  C47 UNL A   1      23.532  31.365  45.021  1.00  0.00    +0.000 C 
ATOM     69  F13 UNL A   1      23.647  30.101  44.590  1.00  0.00    +0.000 F 
ATOM     70  C48 UNL A   1      24.042  31.727  46.259  1.00  0.00    +0.000 C 
ATOM     71  F14 UNL A   1      24.668  30.817  47.017  1.00  0.00    +0.000 F 
ATOM     72  C49 UNL A   1      23.902  33.035  46.718  1.00  0.00    +0.000 C 
ATOM     73  F15 UNL A   1      24.391  33.354  47.924  1.00  0.00    +0.000 F 
ATOM     63  C44 UNL A   1      23.269  34.012  45.935  1.00  0.00    +0.000 C 
ATOM     64  C45 UNL A   1      22.779  33.627  44.680  1.00  0.00    +0.000 C 
ENDBRANCH   62   63
TORSDOF 19
ENDMDL
MODEL 4
REMARK VINA RESULT:      -9.1     39.341     43.978
ROOT
ATOM     26  C20 UNL A   1      13.141  49.706   3.241  1.00  0.00    +0.000 C 
ATOM     27  C21 UNL A   1      14.057  49.331   2.111  1.00  0.00    +0.000 C 
ATOM     28  N3  UNL A   1      14.924  50.072   1.467  1.00  0.00    +0.000 N 
ATOM     29  C22 UNL A   1      15.541  49.225   0.554  1.00  0.00    +0.000 C 
ATOM     30  C23 UNL A   1      16.478  49.527  -0.377  1.00  0.00    +0.000 C 
ATOM     42  C30 UNL A   1      17.008  50.846  -0.601  1.00  0.00    +0.000 C 
ATOM     43  C31 UNL A   1      17.897  51.264  -1.575  1.00  0.00    +0.000 C 
ATOM     44  C32 UNL A   1      18.155  52.625  -1.376  1.00  0.00    +0.000 C 
ATOM     45  C33 UNL A   1      17.392  53.063  -0.307  1.00  0.00    +0.000 C 
ATOM     46  N4  UNL A   1      16.694  51.961   0.161  1.00  0.00    +0.000 N 
ATOM     47  C34 UNL A   1      17.306  54.388   0.252  1.00  0.00    +0.000 C 
ATOM     59  C41 UNL A   1      16.519  54.741   1.297  1.00  0.00    +0.000 C 
ATOM     60  N5  UNL A   1      15.646  53.953   2.034  1.00  0.00    +0.000 N 
ATOM     61  C42 UNL A   1      15.126  54.745   2.940  1.00  0.00    +0.000 C 
ATOM     62  C43 UNL A   1      14.097  54.437   3.994  1.00  0.00    +0.000 C 
ATOM     74  C50 UNL A   1      13.576  53.197   4.063  1.00  0.00    +0.000 C 
ATOM     75  C51 UNL A   1      12.570  52.754   5.025  1.00  0.00    +0.000 C 
ATOM     76  C52 UNL A   1      12.324  51.448   4.832  1.00  0.00    +0.000 C 
ATOM     77  C53 UNL A   1      13.130  50.969   3.709  1.00  0.00    +0.000 C 
ATOM     78  N6  UNL A   1      13.832  52.079   3.307  1.00  0.00    +0.000 N 
ATOM     79  C54 UNL A   1      15.637  56.122   2.898  1.00  0.00    +0.000 C 
ATOM     80  C55 UNL A   1      16.453  56.075   1.853  1.00  0.00    +0.000 C 
ATOM     81  C56 UNL A   1      14.979  47.907   0.754  1.00  0.00    +0.000 C 
ATOM     82  C57 UNL A   1      14.013  47.932   1.661  1.00  0.00    +0.000 C 
ATOM    114  H30 UNL A   1      18.302  50.674  -2.318  1.00  0.00    +0.000 H 
ATOM    115  H31 UNL A   1      18.803  53.204  -1.933  1.00  0.00    +0.000 H 
ATOM    116  H32 UNL A   1      16.069  51.970   0.921  1.00  0.00    +0.000 H 
ATOM    117  H33 UNL A   1      12.122  53.349   5.739  1.00  0.00    +0.000 H 
ATOM    118  H34 UNL A   1      11.670  50.874   5.387  1.00  0.00    +0.000 H 
ATOM    119  H35 UNL A   1      14.460  52.075   2.549  1.00  0.00    +0.000 H 
ATOM    120  H36 UNL A   1      15.420  56.918   3.518  1.00  0.00    +0.000 H 
ATOM    121  H37 UNL A   1      16.974  56.886   1.486  1.00  0.00    +0.000 H 
ATOM    122  H38 UNL A   1      15.291  47.059   0.255  1.00  0.00    +0.000 H 
ATOM    123  H39 UNL A   1      13.392  47.168   1.970  1.00  0.00    +0.000 H 
ENDROOT
BRANCH   26   25
ATOM    112  H28 UNL A   1       9.109  47.666   4.229  1.00  0.00    +0.000 H 
ATOM    113  H29 UNL A   1      10.473  49.269   3.017  1.00  0.00    +0.000 H 
ATOM     83  C58 UNL A   1      12.899  47.736   4.757  1.00  0.00    +0.000 C 
ATOM     84  C59 UNL A   1      12.125  46.767   5.394  1.00  0.00    +0.000 C 
ATOM     22  C16 UNL A   1      10.734  46.784   5.252  1.00  0.00    +0.000 C 
ATOM     23  C17 UNL A   1      10.131  47.687   4.372  1.00  0.00    +0.000 C 
ATOM     24  C18 UNL A   1      10.915  48.617   3.685  1.00  0.00    +0.000 C 
ATOM     25  C19 UNL A   1      12.301  48.672   3.899  1.00  0.00    +0.000 C 
ATOM    124  H40 UNL A   1      13.917  47.764   4.918  1.00  0.00    +0.000 H 
ATOM    125  H41 UNL A   1      12.577  46.039   5.968  1.00  0.00    +0.000 H 
BRANCH   22   20
ATOM     20  C15 UNL A   1       9.871  45.857   6.019  1.00  0.00    +0.000 C 
ATOM     21  O2  UNL A   1       8.787  45.518   5.564  1.00  0.00    +0.000 O 
BRANCH   20   19
ATOM     19  N2  UNL A   1      10.276  45.409   7.255  1.00  0.00    +0.000 N 
ATOM    111  H27 UNL A   1      10.671  44.506   7.268  1.00  0.00    +0.000 H 
BRANCH   19   18
ATOM     18  C14 UNL A   1      10.205  46.078   8.543  1.00  0.00    +0.000 C 
ATOM    109  H25 UNL A   1       9.498  46.878   8.473  1.00  0.00    +0.000 H 
ATOM    110  H26 UNL A   1       9.910  45.347   9.267  1.00  0.00    +0.000 H 
BRANCH   18   17
ATOM     17  C13 UNL A   1      11.545  46.650   8.992  1.00  0.00    +0.000 C 
ATOM    107  H23 UNL A   1      11.605  46.557  10.056  1.00  0.00    +0.000 H 
ATOM    108  H24 UNL A   1      12.294  46.094   8.468  1.00  0.00    +0.000 H 
BRANCH   17   16
ATOM    105  H21 UNL A   1      11.371  48.294   7.663  1.00  0.00    +0.000 H 
ATOM    106  H22 UNL A   1      11.323  48.690   9.411  1.00  0.00    +0.000 H 
ATOM     16  C12 UNL A   1      11.786  48.119   8.634  1.00  0.00    +0.000 C 
BRANCH   16   15
ATOM    103  H19 UNL A   1      13.419  49.085   7.690  1.00  0.00    +0.000 H 
ATOM     15  C11 UNL A   1      13.252  48.558   8.606  1.00  0.00    +0.000 C 
ATOM    104  H20 UNL A   1      13.394  49.155   9.483  1.00  0.00    +0.000 H 
BRANCH   15   14
ATOM    102  H18 UNL A   1      13.730  46.517   8.731  1.00  0.00    +0.000 H 
ATOM    101  H17 UNL A   1      14.886  47.599   9.568  1.00  0.00    +0.000 H 
ATOM     14  C10 UNL A   1      14.289  47.429   8.697  1.00  0.00    +0.000 C 
BRANCH   14   13
ATOM     99  H15 UNL A   1      15.675  46.334   7.509  1.00  0.00    +0.000 H 
ATOM    100  H16 UNL A   1      14.650  47.451   6.609  1.00  0.00    +0.000 H 
ATOM     13  C9  UNL A   1      15.226  47.304   7.498  1.00  0.00    +0.000 C 
BRANCH   13   12
ATOM     98  H14 UNL A   1      16.950  48.261   8.237  1.00  0.00    +0.000 H 
ATOM     12  N1  UNL A   1      16.270  48.305   7.527  1.00  0.00    +0.000 N 
BRANCH   12    2
ATOM      1  O1  UNL A   1      15.934  49.215   5.449  1.00  0.00    +0.000 O 
ATOM      2  C1  UNL A   1      16.345  49.315   6.600  1.00  0.00    +0.000 C 
BRANCH    2    3
ATOM      3  C2  UNL A   1      16.987  50.587   7.119  1.00  0.00    +0.000 C 
ATOM     85  H1  UNL A   1      16.871  51.354   6.383  1.00  0.00    +0.000 H 
ATOM     86  H2  UNL A   1      18.018  50.371   7.310  1.00  0.00    +0.000 H 
BRANCH    3    4
ATOM      4  C3  UNL A   1      16.368  51.072   8.433  1.00  0.00    +0.000 C 
ATOM     87  H3  UNL A   1      17.068  51.742   8.887  1.00  0.00    +0.000 H 
ATOM     88  H4  UNL A   1      16.164  50.177   8.982  1.00  0.00    +0.000 H 
BRANCH    4    5
ATOM     89  H5  UNL A   1      14.310  51.117   7.931  1.00  0.00    +0.000 H 
ATOM     90  H6  UNL A   1      15.219  52.680   7.785  1.00  0.00    +0.000 H 
ATOM      5  C4  UNL A   1      15.015  51.801   8.358  1.00  0.00    +0.000 C 
BRANCH    5    6
ATOM     91  H7  UNL A   1      13.384  52.582   9.451  1.00  0.00    +0.000 H 
ATOM     92  H8  UNL A   1      15.045  53.139   9.939  1.00  0.00    +0.000 H 
ATOM      6  C5  UNL A   1      14.402  52.330   9.661  1.00  0.00    +0.000 C 
BRANCH    6    7
ATOM     97  H13 UNL A   1      12.310  49.852  13.147  1.00  0.00    +0.000 H 
ATOM      7  C6  UNL A   1      14.395  51.417  10.902  1.00  0.00    +0.000 C 
ATOM      8  C7  UNL A   1      13.054  50.880  11.399  1.00  0.00    +0.000 C 
ATOM      9  C8  UNL A   1      13.247  50.151  12.726  1.00  0.00    +0.000 C 
ATOM     10  S1  UNL A   1      14.122  51.304  13.807  1.00  0.00    +0.000 S 
ATOM     11  S2  UNL A   1      15.149  52.283  12.329  1.00  0.00    +0.000 S 
ATOM     93  H9  UNL A   1      14.944  50.569  10.548  1.00  0.00    +0.000 H 
ATOM     94  H10 UNL A   1      12.653  50.202  10.676  1.00  0.00    +0.000 H 
ATOM     95  H11 UNL A   1      12.378  51.698  11.541  1.00  0.00    +0.000 H 
ATOM     96  H12 UNL A   1      13.827  49.263  12.580  1.00  0.00    +0.000 H 
ENDBRANCH    6    7
ENDBRANCH    5    6
ENDBRANCH    4    5
ENDBRANCH    3    4
ENDBRANCH    2    3
ENDBRANCH   12    2
ENDBRANCH   13   12
ENDBRANCH   14   13
ENDBRANCH   15   14
ENDBRANCH   16   15
ENDBRANCH   17   16
ENDBRANCH   18   17
ENDBRANCH   19   18
ENDBRANCH   20   19
ENDBRANCH   22   20
ENDBRANCH   26   25
BRANCH   30   31
ATOM     33  F1  UNL A   1      18.784  47.945   0.263  1.00  0.00    +0.000 F 
ATOM     34  C26 UNL A   1      18.558  46.593  -1.651  1.00  0.00    +0.000 C 
ATOM     35  F2  UNL A   1      19.653  45.909  -1.294  1.00  0.00    +0.000 F 
ATOM     36  C27 UNL A   1      17.882  46.261  -2.815  1.00  0.00    +0.000 C 
ATOM     37  F3  UNL A   1      18.311  45.243  -3.573  1.00  0.00    +0.000 F 
ATOM     38  C28 UNL A   1      16.764  46.988  -3.196  1.00  0.00    +0.000 C 
ATOM     39  F4  UNL A   1      16.102  46.659  -4.314  1.00  0.00    +0.000 F 
ATOM     40  C29 UNL A   1      16.327  48.057  -2.419  1.00  0.00    +0.000 C 
ATOM     41  F5  UNL A   1      15.250  48.748  -2.819  1.00  0.00    +0.000 F 
ATOM     31  C24 UNL A   1      16.991  48.406  -1.233  1.00  0.00    +0.000 C 
ATOM     32  C25 UNL A   1      18.109  47.646  -0.857  1.00  0.00    +0.000 C 
ENDBRANCH   30   31
BRANCH   47   48
ATOM     48  C35 UNL A   1      18.134  55.468  -0.382  1.00  0.00    +0.000 C 
ATOM     49  C36 UNL A   1      17.711  56.132  -1.542  1.00  0.00    +0.000 C 
ATOM     50  F6  UNL A   1      16.568  55.774  -2.146  1.00  0.00    +0.000 F 
ATOM     51  C37 UNL A   1      18.483  57.143  -2.108  1.00  0.00    +0.000 C 
ATOM     52  F7  UNL A   1      18.081  57.736  -3.241  1.00  0.00    +0.000 F 
ATOM     53  C38 UNL A   1      19.673  57.530  -1.508  1.00  0.00    +0.000 C 
ATOM     54  F8  UNL A   1      20.411  58.508  -2.050  1.00  0.00    +0.000 F 
ATOM     55  C39 UNL A   1      20.101  56.897  -0.350  1.00  0.00    +0.000 C 
ATOM     56  F9  UNL A   1      21.245  57.276   0.236  1.00  0.00    +0.000 F 
ATOM     57  C40 UNL A   1      19.345  55.867   0.202  1.00  0.00    +0.000 C 
ATOM     58  F10 UNL A   1      19.791  55.266   1.316  1.00  0.00    +0.000 F 
ENDBRANCH   47   48
BRANCH   62   63
ATOM     65  F11 UNL A   1      15.055  54.662   6.649  1.00  0.00    +0.000 F 
ATOM     66  C46 UNL A   1      13.699  56.525   7.136  1.00  0.00    +0.000 C 
ATOM     67  F12 UNL A   1      14.171  56.542   8.390  1.00  0.00    +0.000 F 
ATOM     68  C47 UNL A   1      12.752  57.457   6.739  1.00  0.00    +0.000 C 
ATOM     69  F13 UNL A   1      12.321  58.386   7.603  1.00  0.00    +0.000 F 
ATOM     70  C48 UNL A   1      12.245  57.419   5.448  1.00  0.00    +0.000 C 
ATOM     71  F14 UNL A   1      11.339  58.324   5.058  1.00  0.00    +0.000 F 
ATOM     72  C49 UNL A   1      12.675  56.437   4.557  1.00  0.00    +0.000 C 
ATOM     73  F15 UNL A   1      12.158  56.415   3.321  1.00  0.00    +0.000 F 
ATOM     63  C44 UNL A   1      13.637  55.490   4.934  1.00  0.00    +0.000 C 
ATOM     64  C45 UNL A   1      14.149  55.560   6.237  1.00  0.00    +0.000 C 
ENDBRANCH   62   63
TORSDOF 19
ENDMDL
MODEL 5
REMARK VINA RESULT:      -9.0     33.676     39.184
ROOT
ATOM     26  C20 UNL A   1      23.371  26.588  -5.748  1.00  0.00    +0.000 C 
ATOM     27  C21 UNL A   1      24.156  25.382  -5.317  1.00  0.00    +0.000 C 
ATOM     28  N3  UNL A   1      25.083  24.722  -5.965  1.00  0.00    +0.000 N 
ATOM     29  C22 UNL A   1      25.517  23.728  -5.098  1.00  0.00    +0.000 C 
ATOM     30  C23 UNL A   1      26.433  22.755  -5.320  1.00  0.00    +0.000 C 
ATOM     42  C30 UNL A   1      27.135  22.566  -6.562  1.00  0.00    +0.000 C 
ATOM     43  C31 UNL A   1      28.019  21.560  -6.909  1.00  0.00    +0.000 C 
ATOM     44  C32 UNL A   1      28.484  21.812  -8.204  1.00  0.00    +0.000 C 
ATOM     45  C33 UNL A   1      27.855  22.951  -8.679  1.00  0.00    +0.000 C 
ATOM     46  N4  UNL A   1      27.032  23.404  -7.661  1.00  0.00    +0.000 N 
ATOM     47  C34 UNL A   1      27.995  23.584  -9.966  1.00  0.00    +0.000 C 
ATOM     59  C41 UNL A   1      27.330  24.696 -10.361  1.00  0.00    +0.000 C 
ATOM     60  N5  UNL A   1      26.395  25.446  -9.662  1.00  0.00    +0.000 N 
ATOM     61  C42 UNL A   1      26.049  26.425 -10.462  1.00  0.00    +0.000 C 
ATOM     62  C43 UNL A   1      25.048  27.525 -10.238  1.00  0.00    +0.000 C 
ATOM     74  C50 UNL A   1      24.356  27.563  -9.084  1.00  0.00    +0.000 C 
ATOM     75  C51 UNL A   1      23.354  28.564  -8.730  1.00  0.00    +0.000 C 
ATOM     76  C52 UNL A   1      22.909  28.319  -7.487  1.00  0.00    +0.000 C 
ATOM     77  C53 UNL A   1      23.571  27.122  -6.968  1.00  0.00    +0.000 C 
ATOM     78  N6  UNL A   1      24.403  26.734  -7.989  1.00  0.00    +0.000 N 
ATOM     79  C54 UNL A   1      26.752  26.422 -11.752  1.00  0.00    +0.000 C 
ATOM     80  C55 UNL A   1      27.491  25.325 -11.655  1.00  0.00    +0.000 C 
ATOM     81  C56 UNL A   1      24.781  23.894  -3.863  1.00  0.00    +0.000 C 
ATOM     82  C57 UNL A   1      23.882  24.863  -3.969  1.00  0.00    +0.000 C 
ATOM    114  H30 UNL A   1      28.290  20.761  -6.314  1.00  0.00    +0.000 H 
ATOM    115  H31 UNL A   1      29.176  21.245  -8.718  1.00  0.00    +0.000 H 
ATOM    116  H32 UNL A   1      26.460  24.204  -7.711  1.00  0.00    +0.000 H 
ATOM    117  H33 UNL A   1      23.038  29.337  -9.337  1.00  0.00    +0.000 H 
ATOM    118  H34 UNL A   1      22.211  28.885  -6.978  1.00  0.00    +0.000 H 
ATOM    119  H35 UNL A   1      24.979  25.937  -7.943  1.00  0.00    +0.000 H 
ATOM    120  H36 UNL A   1      26.688  27.096 -12.531  1.00  0.00    +0.000 H 
ATOM    121  H37 UNL A   1      28.102  24.967 -12.405  1.00  0.00    +0.000 H 
ATOM    122  H38 UNL A   1      24.937  23.331  -3.012  1.00  0.00    +0.000 H 
ATOM    123  H39 UNL A   1      23.175  25.171  -3.283  1.00  0.00    +0.000 H 
ENDROOT
BRANCH   26   25
ATOM    112  H28 UNL A   1      19.303  27.005  -3.586  1.00  0.00    +0.000 H 
ATOM    113  H29 UNL A   1      20.874  25.823  -5.011  1.00  0.00    +0.000 H 
ATOM     83  C58 UNL A   1      22.815  28.419  -4.142  1.00  0.00    +0.000 C 
ATOM     84  C59 UNL A   1      21.939  29.056  -3.265  1.00  0.00    +0.000 C 
ATOM     22  C16 UNL A   1      20.635  28.575  -3.113  1.00  0.00    +0.000 C 
ATOM     23  C17 UNL A   1      20.250  27.386  -3.738  1.00  0.00    +0.000 C 
ATOM     24  C18 UNL A   1      21.150  26.714  -4.568  1.00  0.00    +0.000 C 
ATOM     25  C19 UNL A   1      22.428  27.244  -4.805  1.00  0.00    +0.000 C 
ATOM    124  H40 UNL A   1      23.754  28.815  -4.305  1.00  0.00    +0.000 H 
ATOM    125  H41 UNL A   1      22.252  29.880  -2.729  1.00  0.00    +0.000 H 
BRANCH   22   20
ATOM     20  C15 UNL A   1      19.637  29.303  -2.296  1.00  0.00    +0.000 C 
ATOM     21  O2  UNL A   1      19.847  30.464  -1.972  1.00  0.00    +0.000 O 
BRANCH   20   19
ATOM     19  N2  UNL A   1      18.496  28.660  -1.875  1.00  0.00    +0.000 N 
ATOM    111  H27 UNL A   1      18.642  27.883  -1.288  1.00  0.00    +0.000 H 
BRANCH   19   18
ATOM     18  C14 UNL A   1      17.107  28.966  -2.172  1.00  0.00    +0.000 C 
ATOM    109  H25 UNL A   1      17.065  29.493  -3.103  1.00  0.00    +0.000 H 
ATOM    110  H26 UNL A   1      16.577  28.037  -2.216  1.00  0.00    +0.000 H 
BRANCH   18   17
ATOM     17  C13 UNL A   1      16.442  29.821  -1.099  1.00  0.00    +0.000 C 
ATOM    107  H23 UNL A   1      16.041  29.164  -0.354  1.00  0.00    +0.000 H 
ATOM    108  H24 UNL A   1      17.203  30.476  -0.729  1.00  0.00    +0.000 H 
BRANCH   17   16
ATOM    105  H21 UNL A   1      15.740  31.655  -1.899  1.00  0.00    +0.000 H 
ATOM    106  H22 UNL A   1      14.823  30.190  -2.374  1.00  0.00    +0.000 H 
ATOM     16  C12 UNL A   1      15.309  30.726  -1.587  1.00  0.00    +0.000 C 
BRANCH   16   15
ATOM    103  H19 UNL A   1      13.646  31.858  -0.922  1.00  0.00    +0.000 H 
ATOM     15  C11 UNL A   1      14.222  31.035  -0.555  1.00  0.00    +0.000 C 
ATOM    104  H20 UNL A   1      13.662  30.130  -0.441  1.00  0.00    +0.000 H 
BRANCH   15   14
ATOM    102  H18 UNL A   1      15.614  30.829   1.003  1.00  0.00    +0.000 H 
ATOM    101  H17 UNL A   1      13.941  31.167   1.547  1.00  0.00    +0.000 H 
ATOM     14  C10 UNL A   1      14.720  31.398   0.851  1.00  0.00    +0.000 C 
BRANCH   14   13
ATOM     99  H15 UNL A   1      14.699  33.440   0.250  1.00  0.00    +0.000 H 
ATOM    100  H16 UNL A   1      14.729  33.183   1.994  1.00  0.00    +0.000 H 
ATOM     13  C9  UNL A   1      15.112  32.861   1.049  1.00  0.00    +0.000 C 
BRANCH   13   12
ATOM     98  H14 UNL A   1      17.023  33.122   0.204  1.00  0.00    +0.000 H 
ATOM     12  N1  UNL A   1      16.547  33.034   1.062  1.00  0.00    +0.000 N 
BRANCH   12    2
ATOM      1  O1  UNL A   1      17.342  34.071   2.947  1.00  0.00    +0.000 O 
ATOM      2  C1  UNL A   1      17.271  33.080   2.228  1.00  0.00    +0.000 C 
BRANCH    2    3
ATOM      3  C2  UNL A   1      17.989  31.787   2.563  1.00  0.00    +0.000 C 
ATOM     85  H1  UNL A   1      17.261  31.054   2.842  1.00  0.00    +0.000 H 
ATOM     86  H2  UNL A   1      18.669  31.996   3.363  1.00  0.00    +0.000 H 
BRANCH    3    4
ATOM      4  C3  UNL A   1      18.809  31.242   1.391  1.00  0.00    +0.000 C 
ATOM     87  H3  UNL A   1      19.727  31.791   1.362  1.00  0.00    +0.000 H 
ATOM     88  H4  UNL A   1      18.174  31.361   0.538  1.00  0.00    +0.000 H 
BRANCH    4    5
ATOM     89  H5  UNL A   1      18.968  29.363   0.426  1.00  0.00    +0.000 H 
ATOM     90  H6  UNL A   1      18.573  29.339   2.196  1.00  0.00    +0.000 H 
ATOM      5  C4  UNL A   1      19.167  29.746   1.405  1.00  0.00    +0.000 C 
BRANCH    5    6
ATOM     91  H7  UNL A   1      20.541  28.584   2.514  1.00  0.00    +0.000 H 
ATOM     92  H8  UNL A   1      21.062  30.267   2.063  1.00  0.00    +0.000 H 
ATOM      6  C5  UNL A   1      20.604  29.346   1.766  1.00  0.00    +0.000 C 
BRANCH    6    7
ATOM     97  H13 UNL A   1      23.735  26.285  -0.104  1.00  0.00    +0.000 H 
ATOM      7  C6  UNL A   1      21.527  28.813   0.653  1.00  0.00    +0.000 C 
ATOM      8  C7  UNL A   1      22.185  27.448   0.851  1.00  0.00    +0.000 C 
ATOM      9  C8  UNL A   1      23.186  27.188  -0.271  1.00  0.00    +0.000 C 
ATOM     10  S1  UNL A   1      24.277  28.628  -0.312  1.00  0.00    +0.000 S 
ATOM     11  S2  UNL A   1      22.895  29.990   0.348  1.00  0.00    +0.000 S 
ATOM     93  H9  UNL A   1      20.840  28.698  -0.159  1.00  0.00    +0.000 H 
ATOM     94  H10 UNL A   1      21.434  26.687   0.841  1.00  0.00    +0.000 H 
ATOM     95  H11 UNL A   1      22.698  27.437   1.790  1.00  0.00    +0.000 H 
ATOM     96  H12 UNL A   1      22.676  27.081  -1.206  1.00  0.00    +0.000 H 
ENDBRANCH    6    7
ENDBRANCH    5    6
ENDBRANCH    4    5
ENDBRANCH    3    4
ENDBRANCH    2    3
ENDBRANCH   12    2
ENDBRANCH   13   12
ENDBRANCH   14   13
ENDBRANCH   15   14
ENDBRANCH   16   15
ENDBRANCH   17   16
ENDBRANCH   18   17
ENDBRANCH   19   18
ENDBRANCH   20   19
ENDBRANCH   22   20
ENDBRANCH   26   25
BRANCH   30   31
ATOM     33  F1  UNL A   1      24.757  20.540  -4.603  1.00  0.00    +0.000 F 
ATOM     34  C26 UNL A   1      26.186  19.841  -2.868  1.00  0.00    +0.000 C 
ATOM     35  F2  UNL A   1      25.347  18.837  -2.583  1.00  0.00    +0.000 F 
ATOM     36  C27 UNL A   1      27.347  20.006  -2.128  1.00  0.00    +0.000 C 
ATOM     37  F3  UNL A   1      27.638  19.151  -1.138  1.00  0.00    +0.000 F 
ATOM     38  C28 UNL A   1      28.202  21.061  -2.408  1.00  0.00    +0.000 C 
ATOM     39  F4  UNL A   1      29.330  21.214  -1.700  1.00  0.00    +0.000 F 
ATOM     40  C29 UNL A   1      27.892  21.961  -3.424  1.00  0.00    +0.000 C 
ATOM     41  F5  UNL A   1      28.732  22.978  -3.664  1.00  0.00    +0.000 F 
ATOM     31  C24 UNL A   1      26.727  21.808  -4.192  1.00  0.00    +0.000 C 
ATOM     32  C25 UNL A   1      25.886  20.724  -3.903  1.00  0.00    +0.000 C 
ENDBRANCH   30   31
BRANCH   47   48
ATOM     48  C35 UNL A   1      28.934  22.955 -10.954  1.00  0.00    +0.000 C 
ATOM     49  C36 UNL A   1      28.501  21.974 -11.857  1.00  0.00    +0.000 C 
ATOM     50  F6  UNL A   1      27.233  21.535 -11.820  1.00  0.00    +0.000 F 
ATOM     51  C37 UNL A   1      29.381  21.413 -12.779  1.00  0.00    +0.000 C 
ATOM     52  F7  UNL A   1      28.956  20.447 -13.605  1.00  0.00    +0.000 F 
ATOM     53  C38 UNL A   1      30.698  21.844 -12.836  1.00  0.00    +0.000 C 
ATOM     54  F8  UNL A   1      31.541  21.307 -13.728  1.00  0.00    +0.000 F 
ATOM     55  C39 UNL A   1      31.143  22.825 -11.962  1.00  0.00    +0.000 C 
ATOM     56  F9  UNL A   1      32.412  23.250 -12.023  1.00  0.00    +0.000 F 
ATOM     57  C40 UNL A   1      30.273  23.368 -11.022  1.00  0.00    +0.000 C 
ATOM     58  F10 UNL A   1      30.735  24.308 -10.182  1.00  0.00    +0.000 F 
ENDBRANCH   47   48
BRANCH   62   63
ATOM     65  F11 UNL A   1      23.461  27.036 -12.533  1.00  0.00    +0.000 F 
ATOM     66  C46 UNL A   1      23.792  29.201 -13.403  1.00  0.00    +0.000 C 
ATOM     67  F12 UNL A   1      23.061  28.880 -14.479  1.00  0.00    +0.000 F 
ATOM     68  C47 UNL A   1      24.351  30.464 -13.296  1.00  0.00    +0.000 C 
ATOM     69  F13 UNL A   1      24.148  31.373 -14.259  1.00  0.00    +0.000 F 
ATOM     70  C48 UNL A   1      25.130  30.783 -12.193  1.00  0.00    +0.000 C 
ATOM     71  F14 UNL A   1      25.663  32.007 -12.081  1.00  0.00    +0.000 F 
ATOM     72  C49 UNL A   1      25.363  29.831 -11.203  1.00  0.00    +0.000 C 
ATOM     73  F15 UNL A   1      26.131  30.161 -10.155  1.00  0.00    +0.000 F 
ATOM     63  C44 UNL A   1      24.801  28.549 -11.286  1.00  0.00    +0.000 C 
ATOM     64  C45 UNL A   1      24.002  28.256 -12.400  1.00  0.00    +0.000 C 
ENDBRANCH   62   63
TORSDOF 19
ENDMDL
MODEL 6
REMARK VINA RESULT:      -9.0      2.005      3.451
ROOT
ATOM     26  C20 UNL A   1      41.525  26.100  27.565  1.00  0.00    +0.000 C 
ATOM     27  C21 UNL A   1      40.829  27.185  28.338  1.00  0.00    +0.000 C 
ATOM     28  N3  UNL A   1      41.273  28.365  28.690  1.00  0.00    +0.000 N 
ATOM     29  C22 UNL A   1      40.216  28.989  29.339  1.00  0.00    +0.000 C 
ATOM     30  C23 UNL A   1      40.190  30.207  29.932  1.00  0.00    +0.000 C 
ATOM     42  C30 UNL A   1      41.316  31.100  30.007  1.00  0.00    +0.000 C 
ATOM     43  C31 UNL A   1      41.409  32.318  30.657  1.00  0.00    +0.000 C 
ATOM     44  C32 UNL A   1      42.683  32.845  30.418  1.00  0.00    +0.000 C 
ATOM     45  C33 UNL A   1      43.397  31.935  29.657  1.00  0.00    +0.000 C 
ATOM     46  N4  UNL A   1      42.546  30.870  29.410  1.00  0.00    +0.000 N 
ATOM     47  C34 UNL A   1      44.755  32.028  29.185  1.00  0.00    +0.000 C 
ATOM     59  C41 UNL A   1      45.389  31.081  28.452  1.00  0.00    +0.000 C 
ATOM     60  N5  UNL A   1      44.911  29.855  28.012  1.00  0.00    +0.000 N 
ATOM     61  C42 UNL A   1      45.892  29.308  27.336  1.00  0.00    +0.000 C 
ATOM     62  C43 UNL A   1      45.946  27.967  26.658  1.00  0.00    +0.000 C 
ATOM     74  C50 UNL A   1      44.878  27.148  26.729  1.00  0.00    +0.000 C 
ATOM     75  C51 UNL A   1      44.787  25.821  26.126  1.00  0.00    +0.000 C 
ATOM     76  C52 UNL A   1      43.564  25.318  26.356  1.00  0.00    +0.000 C 
ATOM     77  C53 UNL A   1      42.795  26.273  27.154  1.00  0.00    +0.000 C 
ATOM     78  N6  UNL A   1      43.660  27.324  27.338  1.00  0.00    +0.000 N 
ATOM     79  C54 UNL A   1      47.097  30.144  27.246  1.00  0.00    +0.000 C 
ATOM     80  C55 UNL A   1      46.752  31.196  27.976  1.00  0.00    +0.000 C 
ATOM     81  C56 UNL A   1      39.096  28.074  29.298  1.00  0.00    +0.000 C 
ATOM     82  C57 UNL A   1      39.441  26.920  28.745  1.00  0.00    +0.000 C 
ATOM    114  H30 UNL A   1      40.667  32.762  31.220  1.00  0.00    +0.000 H 
ATOM    115  H31 UNL A   1      43.032  33.757  30.754  1.00  0.00    +0.000 H 
ATOM    116  H32 UNL A   1      42.780  30.069  28.887  1.00  0.00    +0.000 H 
ATOM    117  H33 UNL A   1      45.542  25.347  25.605  1.00  0.00    +0.000 H 
ATOM    118  H34 UNL A   1      43.222  24.402  26.025  1.00  0.00    +0.000 H 
ATOM    119  H35 UNL A   1      43.429  28.128  27.857  1.00  0.00    +0.000 H 
ATOM    120  H36 UNL A   1      47.981  29.962  26.746  1.00  0.00    +0.000 H 
ATOM    121  H37 UNL A   1      47.374  31.993  28.179  1.00  0.00    +0.000 H 
ATOM    122  H38 UNL A   1      38.151  28.293  29.653  1.00  0.00    +0.000 H 
ATOM    123  H39 UNL A   1      38.882  26.060  28.632  1.00  0.00    +0.000 H 
ENDROOT
BRANCH   26   25
ATOM    112  H28 UNL A   1      40.823  21.528  27.605  1.00  0.00    +0.000 H 
ATOM    113  H29 UNL A   1      41.942  23.542  28.370  1.00  0.00    +0.000 H 
ATOM     83  C58 UNL A   1      39.702  24.948  26.305  1.00  0.00    +0.000 C 
ATOM     84  C59 UNL A   1      39.011  23.798  25.925  1.00  0.00    +0.000 C 
ATOM     22  C16 UNL A   1      39.462  22.544  26.348  1.00  0.00    +0.000 C 
ATOM     23  C17 UNL A   1      40.522  22.450  27.254  1.00  0.00    +0.000 C 
ATOM     24  C18 UNL A   1      41.174  23.609  27.683  1.00  0.00    +0.000 C 
ATOM     25  C19 UNL A   1      40.792  24.864  27.184  1.00  0.00    +0.000 C 
ATOM    124  H40 UNL A   1      39.409  25.866  25.936  1.00  0.00    +0.000 H 
ATOM    125  H41 UNL A   1      38.169  23.872  25.333  1.00  0.00    +0.000 H 
BRANCH   22   20
ATOM     20  C15 UNL A   1      38.836  21.296  25.856  1.00  0.00    +0.000 C 
ATOM     21  O2  UNL A   1      39.302  20.212  26.183  1.00  0.00    +0.000 O 
BRANCH   20   19
ATOM     19  N2  UNL A   1      37.756  21.359  25.006  1.00  0.00    +0.000 N 
ATOM    111  H27 UNL A   1      37.875  21.937  24.217  1.00  0.00    +0.000 H 
BRANCH   19   18
ATOM     18  C14 UNL A   1      36.468  20.696  25.106  1.00  0.00    +0.000 C 
ATOM    109  H25 UNL A   1      36.473  19.842  24.462  1.00  0.00    +0.000 H 
ATOM    110  H26 UNL A   1      36.327  20.423  26.132  1.00  0.00    +0.000 H 
BRANCH   18   17
ATOM     17  C13 UNL A   1      35.302  21.596  24.711  1.00  0.00    +0.000 C 
ATOM    107  H23 UNL A   1      34.784  21.129  23.899  1.00  0.00    +0.000 H 
ATOM    108  H24 UNL A   1      34.706  21.712  25.592  1.00  0.00    +0.000 H 
BRANCH   17   16
ATOM    105  H21 UNL A   1      36.751  23.064  24.218  1.00  0.00    +0.000 H 
ATOM    106  H22 UNL A   1      35.194  23.172  23.335  1.00  0.00    +0.000 H 
ATOM     16  C12 UNL A   1      35.683  23.012  24.273  1.00  0.00    +0.000 C 
BRANCH   16   15
ATOM    103  H19 UNL A   1      36.063  24.558  25.673  1.00  0.00    +0.000 H 
ATOM     15  C11 UNL A   1      35.205  24.138  25.194  1.00  0.00    +0.000 C 
ATOM    104  H20 UNL A   1      34.678  24.825  24.564  1.00  0.00    +0.000 H 
BRANCH   15   14
ATOM    102  H18 UNL A   1      34.314  24.449  27.070  1.00  0.00    +0.000 H 
ATOM    101  H17 UNL A   1      34.443  22.728  26.590  1.00  0.00    +0.000 H 
ATOM     14  C10 UNL A   1      34.208  23.726  26.287  1.00  0.00    +0.000 C 
BRANCH   14   13
ATOM     99  H15 UNL A   1      32.431  22.775  25.602  1.00  0.00    +0.000 H 
ATOM    100  H16 UNL A   1      32.169  24.123  26.708  1.00  0.00    +0.000 H 
ATOM     13  C9  UNL A   1      32.737  23.762  25.877  1.00  0.00    +0.000 C 
BRANCH   13   12
ATOM     98  H14 UNL A   1      32.806  25.588  24.832  1.00  0.00    +0.000 H 
ATOM     12  N1  UNL A   1      32.514  24.651  24.759  1.00  0.00    +0.000 N 
BRANCH   12    2
ATOM      1  O1  UNL A   1      32.487  23.624  22.709  1.00  0.00    +0.000 O 
ATOM      2  C1  UNL A   1      31.906  24.235  23.599  1.00  0.00    +0.000 C 
BRANCH    2    3
ATOM      3  C2  UNL A   1      30.437  24.598  23.504  1.00  0.00    +0.000 C 
ATOM     85  H1  UNL A   1      29.857  23.769  23.853  1.00  0.00    +0.000 H 
ATOM     86  H2  UNL A   1      30.228  24.826  22.479  1.00  0.00    +0.000 H 
BRANCH    3    4
ATOM      4  C3  UNL A   1      30.075  25.832  24.334  1.00  0.00    +0.000 C 
ATOM     87  H3  UNL A   1      30.745  25.864  25.168  1.00  0.00    +0.000 H 
ATOM     88  H4  UNL A   1      29.042  25.700  24.578  1.00  0.00    +0.000 H 
BRANCH    4    5
ATOM     89  H5  UNL A   1      29.288  27.764  23.965  1.00  0.00    +0.000 H 
ATOM     90  H6  UNL A   1      30.173  26.970  22.596  1.00  0.00    +0.000 H 
ATOM      5  C4  UNL A   1      30.139  27.204  23.639  1.00  0.00    +0.000 C 
BRANCH    5    6
ATOM     91  H7  UNL A   1      31.273  28.944  23.253  1.00  0.00    +0.000 H 
ATOM     92  H8  UNL A   1      32.199  27.431  23.650  1.00  0.00    +0.000 H 
ATOM      6  C5  UNL A   1      31.377  28.079  23.873  1.00  0.00    +0.000 C 
BRANCH    6    7
ATOM     97  H13 UNL A   1      32.364  31.411  27.129  1.00  0.00    +0.000 H 
ATOM      7  C6  UNL A   1      31.673  28.579  25.300  1.00  0.00    +0.000 C 
ATOM      8  C7  UNL A   1      31.738  30.087  25.540  1.00  0.00    +0.000 C 
ATOM      9  C8  UNL A   1      32.212  30.364  26.964  1.00  0.00    +0.000 C 
ATOM     10  S1  UNL A   1      33.746  29.432  27.171  1.00  0.00    +0.000 S 
ATOM     11  S2  UNL A   1      33.272  27.908  25.886  1.00  0.00    +0.000 S 
ATOM     93  H9  UNL A   1      30.813  28.228  25.833  1.00  0.00    +0.000 H 
ATOM     94  H10 UNL A   1      30.767  30.511  25.400  1.00  0.00    +0.000 H 
ATOM     95  H11 UNL A   1      32.427  30.524  24.848  1.00  0.00    +0.000 H 
ATOM     96  H12 UNL A   1      31.478  30.035  27.670  1.00  0.00    +0.000 H 
ENDBRANCH    6    7
ENDBRANCH    5    6
ENDBRANCH    4    5
ENDBRANCH    3    4
ENDBRANCH    2    3
ENDBRANCH   12    2
ENDBRANCH   13   12
ENDBRANCH   14   13
ENDBRANCH   15   14
ENDBRANCH   16   15
ENDBRANCH   17   16
ENDBRANCH   18   17
ENDBRANCH   19   18
ENDBRANCH   20   19
ENDBRANCH   22   20
ENDBRANCH   26   25
BRANCH   30   31
ATOM     33  F1  UNL A   1      38.033  31.412  28.473  1.00  0.00    +0.000 F 
ATOM     34  C26 UNL A   1      36.662  31.590  30.377  1.00  0.00    +0.000 C 
ATOM     35  F2  UNL A   1      35.705  32.160  29.632  1.00  0.00    +0.000 F 
ATOM     36  C27 UNL A   1      36.457  31.391  31.734  1.00  0.00    +0.000 C 
ATOM     37  F3  UNL A   1      35.297  31.753  32.298  1.00  0.00    +0.000 F 
ATOM     38  C28 UNL A   1      37.459  30.824  32.508  1.00  0.00    +0.000 C 
ATOM     39  F4  UNL A   1      37.257  30.621  33.818  1.00  0.00    +0.000 F 
ATOM     40  C29 UNL A   1      38.672  30.465  31.927  1.00  0.00    +0.000 C 
ATOM     41  F5  UNL A   1      39.626  29.930  32.704  1.00  0.00    +0.000 F 
ATOM     31  C24 UNL A   1      38.897  30.649  30.554  1.00  0.00    +0.000 C 
ATOM     32  C25 UNL A   1      37.864  31.207  29.788  1.00  0.00    +0.000 C 
ENDBRANCH   30   31
BRANCH   47   48
ATOM     48  C35 UNL A   1      45.537  33.256  29.548  1.00  0.00    +0.000 C 
ATOM     49  C36 UNL A   1      46.327  33.309  30.705  1.00  0.00    +0.000 C 
ATOM     50  F6  UNL A   1      46.359  32.266  31.549  1.00  0.00    +0.000 F 
ATOM     51  C37 UNL A   1      47.060  34.451  31.018  1.00  0.00    +0.000 C 
ATOM     52  F7  UNL A   1      47.776  34.496  32.151  1.00  0.00    +0.000 F 
ATOM     53  C38 UNL A   1      47.042  35.546  30.167  1.00  0.00    +0.000 C 
ATOM     54  F8  UNL A   1      47.753  36.641  30.467  1.00  0.00    +0.000 F 
ATOM     55  C39 UNL A   1      46.280  35.508  29.009  1.00  0.00    +0.000 C 
ATOM     56  F9  UNL A   1      46.269  36.561  28.180  1.00  0.00    +0.000 F 
ATOM     57  C40 UNL A   1      45.524  34.379  28.707  1.00  0.00    +0.000 C 
ATOM     58  F10 UNL A   1      44.788  34.376  27.585  1.00  0.00    +0.000 F 
ENDBRANCH   47   48
BRANCH   62   63
ATOM     65  F11 UNL A   1      46.264  28.235  23.856  1.00  0.00    +0.000 F 
ATOM     66  C46 UNL A   1      48.408  27.258  23.859  1.00  0.00    +0.000 C 
ATOM     67  F12 UNL A   1      48.467  27.383  22.526  1.00  0.00    +0.000 F 
ATOM     68  C47 UNL A   1      49.464  26.682  24.550  1.00  0.00    +0.000 C 
ATOM     69  F13 UNL A   1      50.552  26.265  23.888  1.00  0.00    +0.000 F 
ATOM     70  C48 UNL A   1      49.387  26.529  25.926  1.00  0.00    +0.000 C 
ATOM     71  F14 UNL A   1      50.409  25.984  26.598  1.00  0.00    +0.000 F 
ATOM     72  C49 UNL A   1      48.245  26.940  26.612  1.00  0.00    +0.000 C 
ATOM     73  F15 UNL A   1      48.191  26.767  27.941  1.00  0.00    +0.000 F 
ATOM     63  C44 UNL A   1      47.169  27.532  25.936  1.00  0.00    +0.000 C 
ATOM     64  C45 UNL A   1      47.278  27.693  24.548  1.00  0.00    +0.000 C 
ENDBRANCH   62   63
TORSDOF 19
ENDMDL
MODEL 7
REMARK VINA RESULT:      -9.0     16.991     22.595
ROOT
ATOM     26  C20 UNL A   1      52.937  20.467  11.563  1.00  0.00    +0.000 C 
ATOM     27  C21 UNL A   1      52.724  21.005  12.950  1.00  0.00    +0.000 C 
ATOM     28  N3  UNL A   1      53.567  21.072  13.950  1.00  0.00    +0.000 N 
ATOM     29  C22 UNL A   1      52.880  21.700  14.981  1.00  0.00    +0.000 C 
ATOM     30  C23 UNL A   1      53.304  21.961  16.242  1.00  0.00    +0.000 C 
ATOM     42  C30 UNL A   1      54.598  21.597  16.757  1.00  0.00    +0.000 C 
ATOM     43  C31 UNL A   1      55.087  21.744  18.043  1.00  0.00    +0.000 C 
ATOM     44  C32 UNL A   1      56.409  21.286  18.064  1.00  0.00    +0.000 C 
ATOM     45  C33 UNL A   1      56.728  20.814  16.801  1.00  0.00    +0.000 C 
ATOM     46  N4  UNL A   1      55.608  21.012  16.009  1.00  0.00    +0.000 N 
ATOM     47  C34 UNL A   1      57.962  20.227  16.348  1.00  0.00    +0.000 C 
ATOM     59  C41 UNL A   1      58.191  19.773  15.091  1.00  0.00    +0.000 C 
ATOM     60  N5  UNL A   1      57.332  19.757  14.002  1.00  0.00    +0.000 N 
ATOM     61  C42 UNL A   1      58.015  19.232  13.014  1.00  0.00    +0.000 C 
ATOM     62  C43 UNL A   1      57.577  18.944  11.604  1.00  0.00    +0.000 C 
ATOM     74  C50 UNL A   1      56.311  19.220  11.237  1.00  0.00    +0.000 C 
ATOM     75  C51 UNL A   1      55.745  18.992   9.910  1.00  0.00    +0.000 C 
ATOM     76  C52 UNL A   1      54.477  19.432   9.893  1.00  0.00    +0.000 C 
ATOM     77  C53 UNL A   1      54.128  19.942  11.219  1.00  0.00    +0.000 C 
ATOM     78  N6  UNL A   1      55.274  19.764  11.955  1.00  0.00    +0.000 N 
ATOM     79  C54 UNL A   1      59.400  18.882  13.361  1.00  0.00    +0.000 C 
ATOM     80  C55 UNL A   1      59.443  19.196  14.649  1.00  0.00    +0.000 C 
ATOM     81  C56 UNL A   1      51.566  22.030  14.474  1.00  0.00    +0.000 C 
ATOM     82  C57 UNL A   1      51.397  21.566  13.245  1.00  0.00    +0.000 C 
ATOM    114  H30 UNL A   1      54.566  22.126  18.848  1.00  0.00    +0.000 H 
ATOM    115  H31 UNL A   1      57.039  21.298  18.881  1.00  0.00    +0.000 H 
ATOM    116  H32 UNL A   1      55.541  20.773  15.056  1.00  0.00    +0.000 H 
ATOM    117  H33 UNL A   1      56.241  18.563   9.113  1.00  0.00    +0.000 H 
ATOM    118  H34 UNL A   1      53.848  19.412   9.075  1.00  0.00    +0.000 H 
ATOM    119  H35 UNL A   1      55.347  20.004  12.907  1.00  0.00    +0.000 H 
ATOM    120  H36 UNL A   1      60.145  18.495  12.761  1.00  0.00    +0.000 H 
ATOM    121  H37 UNL A   1      60.263  19.048  15.256  1.00  0.00    +0.000 H 
ATOM    122  H38 UNL A   1      50.854  22.559  15.002  1.00  0.00    +0.000 H 
ATOM    123  H39 UNL A   1      50.554  21.592  12.650  1.00  0.00    +0.000 H 
ENDROOT
BRANCH   26   25
ATOM    112  H28 UNL A   1      50.611  22.686   8.237  1.00  0.00    +0.000 H 
ATOM    113  H29 UNL A   1      52.470  22.461   9.783  1.00  0.00    +0.000 H 
ATOM     83  C58 UNL A   1      50.929  19.545  10.399  1.00  0.00    +0.000 C 
ATOM     84  C59 UNL A   1      49.906  19.641   9.457  1.00  0.00    +0.000 C 
ATOM     22  C16 UNL A   1      49.752  20.816   8.715  1.00  0.00    +0.000 C 
ATOM     23  C17 UNL A   1      50.697  21.840   8.822  1.00  0.00    +0.000 C 
ATOM     24  C18 UNL A   1      51.758  21.715   9.721  1.00  0.00    +0.000 C 
ATOM     25  C19 UNL A   1      51.863  20.582  10.543  1.00  0.00    +0.000 C 
ATOM    124  H40 UNL A   1      50.999  18.704  10.994  1.00  0.00    +0.000 H 
ATOM    125  H41 UNL A   1      49.263  18.847   9.308  1.00  0.00    +0.000 H 
BRANCH   22   20
ATOM     20  C15 UNL A   1      48.599  21.005   7.805  1.00  0.00    +0.000 C 
ATOM     21  O2  UNL A   1      48.291  22.132   7.441  1.00  0.00    +0.000 O 
BRANCH   20   19
ATOM     19  N2  UNL A   1      47.858  19.918   7.402  1.00  0.00    +0.000 N 
ATOM    111  H27 UNL A   1      47.003  19.792   7.874  1.00  0.00    +0.000 H 
BRANCH   19   18
ATOM     18  C14 UNL A   1      48.158  18.931   6.380  1.00  0.00    +0.000 C 
ATOM    109  H25 UNL A   1      48.789  18.179   6.806  1.00  0.00    +0.000 H 
ATOM    110  H26 UNL A   1      47.226  18.526   6.043  1.00  0.00    +0.000 H 
BRANCH   18   17
ATOM     17  C13 UNL A   1      48.862  19.525   5.165  1.00  0.00    +0.000 C 
ATOM    107  H23 UNL A   1      48.579  18.954   4.306  1.00  0.00    +0.000 H 
ATOM    108  H24 UNL A   1      48.558  20.550   5.120  1.00  0.00    +0.000 H 
BRANCH   17   16
ATOM    105  H21 UNL A   1      50.768  19.420   4.241  1.00  0.00    +0.000 H 
ATOM    106  H22 UNL A   1      50.653  20.481   5.682  1.00  0.00    +0.000 H 
ATOM     16  C12 UNL A   1      50.391  19.544   5.235  1.00  0.00    +0.000 C 
BRANCH   16   15
ATOM    103  H19 UNL A   1      50.384  18.314   6.960  1.00  0.00    +0.000 H 
ATOM     15  C11 UNL A   1      51.024  18.466   6.117  1.00  0.00    +0.000 C 
ATOM    104  H20 UNL A   1      51.130  17.603   5.491  1.00  0.00    +0.000 H 
BRANCH   15   14
ATOM    102  H18 UNL A   1      52.411  18.557   7.691  1.00  0.00    +0.000 H 
ATOM    101  H17 UNL A   1      52.649  19.800   6.423  1.00  0.00    +0.000 H 
ATOM     14  C10 UNL A   1      52.432  18.776   6.643  1.00  0.00    +0.000 C 
BRANCH   14   13
ATOM     99  H15 UNL A   1      53.337  17.727   5.026  1.00  0.00    +0.000 H 
ATOM    100  H16 UNL A   1      54.472  18.455   6.164  1.00  0.00    +0.000 H 
ATOM     13  C9  UNL A   1      53.552  17.919   6.057  1.00  0.00    +0.000 C 
BRANCH   13   12
ATOM     98  H14 UNL A   1      54.392  16.559   7.427  1.00  0.00    +0.000 H 
ATOM     12  N1  UNL A   1      53.682  16.658   6.752  1.00  0.00    +0.000 N 
BRANCH   12    2
ATOM      1  O1  UNL A   1      52.434  14.836   7.373  1.00  0.00    +0.000 O 
ATOM      2  C1  UNL A   1      52.852  15.593   6.503  1.00  0.00    +0.000 C 
BRANCH    2    3
ATOM      3  C2  UNL A   1      52.485  15.421   5.042  1.00  0.00    +0.000 C 
ATOM     85  H1  UNL A   1      53.356  15.112   4.504  1.00  0.00    +0.000 H 
ATOM     86  H2  UNL A   1      52.114  16.362   4.690  1.00  0.00    +0.000 H 
BRANCH    3    4
ATOM      4  C3  UNL A   1      51.382  14.382   4.824  1.00  0.00    +0.000 C 
ATOM     87  H3  UNL A   1      51.517  13.615   5.558  1.00  0.00    +0.000 H 
ATOM     88  H4  UNL A   1      51.500  14.071   3.807  1.00  0.00    +0.000 H 
BRANCH    4    5
ATOM     89  H5  UNL A   1      49.908  15.709   5.568  1.00  0.00    +0.000 H 
ATOM     90  H6  UNL A   1      49.385  14.000   5.261  1.00  0.00    +0.000 H 
ATOM      5  C4  UNL A   1      49.922  14.859   4.918  1.00  0.00    +0.000 C 
BRANCH    5    6
ATOM     91  H7  UNL A   1      49.482  14.552   2.875  1.00  0.00    +0.000 H 
ATOM     92  H8  UNL A   1      49.518  16.273   3.459  1.00  0.00    +0.000 H 
ATOM      6  C5  UNL A   1      49.205  15.264   3.624  1.00  0.00    +0.000 C 
BRANCH    6    7
ATOM     97  H13 UNL A   1      45.031  17.508   4.091  1.00  0.00    +0.000 H 
ATOM      7  C6  UNL A   1      47.666  15.345   3.623  1.00  0.00    +0.000 C 
ATOM      8  C7  UNL A   1      47.014  16.721   3.746  1.00  0.00    +0.000 C 
ATOM      9  C8  UNL A   1      45.504  16.566   3.901  1.00  0.00    +0.000 C 
ATOM     10  S1  UNL A   1      45.258  15.415   5.272  1.00  0.00    +0.000 S 
ATOM     11  S2  UNL A   1      46.979  14.340   4.990  1.00  0.00    +0.000 S 
ATOM     93  H9  UNL A   1      47.433  14.990   2.640  1.00  0.00    +0.000 H 
ATOM     94  H10 UNL A   1      47.224  17.293   2.867  1.00  0.00    +0.000 H 
ATOM     95  H11 UNL A   1      47.407  17.222   4.606  1.00  0.00    +0.000 H 
ATOM     96  H12 UNL A   1      45.076  16.172   3.003  1.00  0.00    +0.000 H 
ENDBRANCH    6    7
ENDBRANCH    5    6
ENDBRANCH    4    5
ENDBRANCH    3    4
ENDBRANCH    2    3
ENDBRANCH   12    2
ENDBRANCH   13   12
ENDBRANCH   14   13
ENDBRANCH   15   14
ENDBRANCH   16   15
ENDBRANCH   17   16
ENDBRANCH   18   17
ENDBRANCH   19   18
ENDBRANCH   20   19
ENDBRANCH   22   20
ENDBRANCH   26   25
BRANCH   30   31
ATOM     33  F1  UNL A   1      51.621  20.638  18.151  1.00  0.00    +0.000 F 
ATOM     34  C26 UNL A   1      50.715  22.655  18.957  1.00  0.00    +0.000 C 
ATOM     35  F2  UNL A   1      49.948  21.967  19.812  1.00  0.00    +0.000 F 
ATOM     36  C27 UNL A   1      50.645  24.040  18.922  1.00  0.00    +0.000 C 
ATOM     37  F3  UNL A   1      49.824  24.691  19.757  1.00  0.00    +0.000 F 
ATOM     38  C28 UNL A   1      51.421  24.749  18.018  1.00  0.00    +0.000 C 
ATOM     39  F4  UNL A   1      51.362  26.088  17.992  1.00  0.00    +0.000 F 
ATOM     40  C29 UNL A   1      52.261  24.073  17.137  1.00  0.00    +0.000 C 
ATOM     41  F5  UNL A   1      52.990  24.786  16.265  1.00  0.00    +0.000 F 
ATOM     31  C24 UNL A   1      52.354  22.673  17.160  1.00  0.00    +0.000 C 
ATOM     32  C25 UNL A   1      51.574  21.977  18.095  1.00  0.00    +0.000 C 
ENDBRANCH   30   31
BRANCH   47   48
ATOM     48  C35 UNL A   1      59.076  20.086  17.343  1.00  0.00    +0.000 C 
ATOM     49  C36 UNL A   1      59.372  18.856  17.947  1.00  0.00    +0.000 C 
ATOM     50  F6  UNL A   1      58.621  17.776  17.679  1.00  0.00    +0.000 F 
ATOM     51  C37 UNL A   1      60.419  18.739  18.856  1.00  0.00    +0.000 C 
ATOM     52  F7  UNL A   1      60.658  17.563  19.452  1.00  0.00    +0.000 F 
ATOM     53  C38 UNL A   1      61.208  19.840  19.155  1.00  0.00    +0.000 C 
ATOM     54  F8  UNL A   1      62.220  19.724  20.026  1.00  0.00    +0.000 F 
ATOM     55  C39 UNL A   1      60.943  21.063  18.558  1.00  0.00    +0.000 C 
ATOM     56  F9  UNL A   1      61.710  22.126  18.838  1.00  0.00    +0.000 F 
ATOM     57  C40 UNL A   1      59.879  21.189  17.669  1.00  0.00    +0.000 C 
ATOM     58  F10 UNL A   1      59.640  22.388  17.115  1.00  0.00    +0.000 F 
ENDBRANCH   47   48
BRANCH   62   63
ATOM     65  F11 UNL A   1      57.922  16.147  11.323  1.00  0.00    +0.000 F 
ATOM     66  C46 UNL A   1      59.549  16.369   9.634  1.00  0.00    +0.000 C 
ATOM     67  F12 UNL A   1      59.685  15.037   9.589  1.00  0.00    +0.000 F 
ATOM     68  C47 UNL A   1      60.319  17.173   8.808  1.00  0.00    +0.000 C 
ATOM     69  F13 UNL A   1      61.187  16.619   7.950  1.00  0.00    +0.000 F 
ATOM     70  C48 UNL A   1      60.196  18.553   8.878  1.00  0.00    +0.000 C 
ATOM     71  F14 UNL A   1      60.930  19.332   8.073  1.00  0.00    +0.000 F 
ATOM     72  C49 UNL A   1      59.312  19.131   9.787  1.00  0.00    +0.000 C 
ATOM     73  F15 UNL A   1      59.223  20.467   9.843  1.00  0.00    +0.000 F 
ATOM     63  C44 UNL A   1      58.518  18.337  10.627  1.00  0.00    +0.000 C 
ATOM     64  C45 UNL A   1      58.646  16.945  10.525  1.00  0.00    +0.000 C 
ENDBRANCH   62   63
TORSDOF 19
ENDMDL
MODEL 8
REMARK VINA RESULT:      -8.9     21.051     27.539
ROOT
ATOM     26  C20 UNL A   1      24.287  38.244  48.771  1.00  0.00    +0.000 C 
ATOM     27  C21 UNL A   1      25.572  39.004  48.599  1.00  0.00    +0.000 C 
ATOM     28  N3  UNL A   1      26.627  38.696  47.888  1.00  0.00    +0.000 N 
ATOM     29  C22 UNL A   1      27.507  39.761  48.035  1.00  0.00    +0.000 C 
ATOM     30  C23 UNL A   1      28.758  39.897  47.534  1.00  0.00    +0.000 C 
ATOM     42  C30 UNL A   1      29.429  38.904  46.737  1.00  0.00    +0.000 C 
ATOM     43  C31 UNL A   1      30.725  38.917  46.254  1.00  0.00    +0.000 C 
ATOM     44  C32 UNL A   1      30.921  37.758  45.495  1.00  0.00    +0.000 C 
ATOM     45  C33 UNL A   1      29.761  37.003  45.542  1.00  0.00    +0.000 C 
ATOM     46  N4  UNL A   1      28.853  37.719  46.307  1.00  0.00    +0.000 N 
ATOM     47  C34 UNL A   1      29.496  35.724  44.935  1.00  0.00    +0.000 C 
ATOM     59  C41 UNL A   1      28.331  35.040  45.042  1.00  0.00    +0.000 C 
ATOM     60  N5  UNL A   1      27.179  35.384  45.734  1.00  0.00    +0.000 N 
ATOM     61  C42 UNL A   1      26.329  34.409  45.526  1.00  0.00    +0.000 C 
ATOM     62  C43 UNL A   1      24.932  34.236  46.057  1.00  0.00    +0.000 C 
ATOM     74  C50 UNL A   1      24.422  35.167  46.885  1.00  0.00    +0.000 C 
ATOM     75  C51 UNL A   1      23.088  35.132  47.479  1.00  0.00    +0.000 C 
ATOM     76  C52 UNL A   1      22.903  36.245  48.207  1.00  0.00    +0.000 C 
ATOM     77  C53 UNL A   1      24.119  37.057  48.159  1.00  0.00    +0.000 C 
ATOM     78  N6  UNL A   1      24.971  36.333  47.362  1.00  0.00    +0.000 N 
ATOM     79  C54 UNL A   1      26.840  33.345  44.649  1.00  0.00    +0.000 C 
ATOM     80  C55 UNL A   1      28.078  33.760  44.415  1.00  0.00    +0.000 C 
ATOM     81  C56 UNL A   1      26.848  40.742  48.870  1.00  0.00    +0.000 C 
ATOM     82  C57 UNL A   1      25.675  40.295  49.296  1.00  0.00    +0.000 C 
ATOM    114  H30 UNL A   1      31.427  39.654  46.423  1.00  0.00    +0.000 H 
ATOM    115  H31 UNL A   1      31.784  37.508  44.986  1.00  0.00    +0.000 H 
ATOM    116  H32 UNL A   1      27.935  37.428  46.512  1.00  0.00    +0.000 H 
ATOM    117  H33 UNL A   1      22.399  34.374  47.358  1.00  0.00    +0.000 H 
ATOM    118  H34 UNL A   1      22.041  36.488  48.720  1.00  0.00    +0.000 H 
ATOM    119  H35 UNL A   1      25.889  36.620  47.152  1.00  0.00    +0.000 H 
ATOM    120  H36 UNL A   1      26.362  32.498  44.305  1.00  0.00    +0.000 H 
ATOM    121  H37 UNL A   1      28.770  33.237  43.857  1.00  0.00    +0.000 H 
ATOM    122  H38 UNL A   1      27.240  41.668  49.102  1.00  0.00    +0.000 H 
ATOM    123  H39 UNL A   1      25.008  40.738  49.948  1.00  0.00    +0.000 H 
ENDROOT
BRANCH   26   25
ATOM    112  H28 UNL A   1      21.812  38.862  52.630  1.00  0.00    +0.000 H 
ATOM    113  H29 UNL A   1      23.738  38.014  51.419  1.00  0.00    +0.000 H 
ATOM     83  C58 UNL A   1      22.231  39.655  48.910  1.00  0.00    +0.000 C 
ATOM     84  C59 UNL A   1      21.167  40.205  49.623  1.00  0.00    +0.000 C 
ATOM     22  C16 UNL A   1      20.978  39.861  50.965  1.00  0.00    +0.000 C 
ATOM     23  C17 UNL A   1      21.925  39.074  51.626  1.00  0.00    +0.000 C 
ATOM     24  C18 UNL A   1      23.026  38.575  50.926  1.00  0.00    +0.000 C 
ATOM     25  C19 UNL A   1      23.168  38.833  49.553  1.00  0.00    +0.000 C 
ATOM    124  H40 UNL A   1      22.328  39.855  47.902  1.00  0.00    +0.000 H 
ATOM    125  H41 UNL A   1      20.520  40.863  49.162  1.00  0.00    +0.000 H 
BRANCH   22   20
ATOM     20  C15 UNL A   1      19.785  40.317  51.716  1.00  0.00    +0.000 C 
ATOM     21  O2  UNL A   1      19.883  41.244  52.508  1.00  0.00    +0.000 O 
BRANCH   20   19
ATOM     19  N2  UNL A   1      18.581  39.674  51.545  1.00  0.00    +0.000 N 
ATOM    111  H27 UNL A   1      17.794  40.263  51.477  1.00  0.00    +0.000 H 
BRANCH   19   18
ATOM     18  C14 UNL A   1      18.306  38.251  51.449  1.00  0.00    +0.000 C 
ATOM    109  H25 UNL A   1      19.209  37.714  51.650  1.00  0.00    +0.000 H 
ATOM    110  H26 UNL A   1      17.540  38.024  52.162  1.00  0.00    +0.000 H 
BRANCH   18   17
ATOM     17  C13 UNL A   1      17.788  37.835  50.076  1.00  0.00    +0.000 C 
ATOM    107  H23 UNL A   1      17.092  37.033  50.214  1.00  0.00    +0.000 H 
ATOM    108  H24 UNL A   1      17.353  38.713  49.647  1.00  0.00    +0.000 H 
BRANCH   17   16
ATOM    105  H21 UNL A   1      18.581  37.721  48.113  1.00  0.00    +0.000 H 
ATOM    106  H22 UNL A   1      19.783  37.763  49.443  1.00  0.00    +0.000 H 
ATOM     16  C12 UNL A   1      18.855  37.367  49.085  1.00  0.00    +0.000 C 
BRANCH   16   15
ATOM    103  H19 UNL A   1      19.797  35.574  49.710  1.00  0.00    +0.000 H 
ATOM     15  C11 UNL A   1      19.052  35.852  48.995  1.00  0.00    +0.000 C 
ATOM    104  H20 UNL A   1      18.090  35.421  49.181  1.00  0.00    +0.000 H 
BRANCH   15   14
ATOM    102  H18 UNL A   1      19.745  34.287  47.777  1.00  0.00    +0.000 H 
ATOM    101  H17 UNL A   1      20.309  35.914  47.283  1.00  0.00    +0.000 H 
ATOM     14  C10 UNL A   1      19.491  35.316  47.625  1.00  0.00    +0.000 C 
BRANCH   14   13
ATOM     99  H15 UNL A   1      17.576  34.753  46.882  1.00  0.00    +0.000 H 
ATOM    100  H16 UNL A   1      18.133  36.345  46.364  1.00  0.00    +0.000 H 
ATOM     13  C9  UNL A   1      18.413  35.328  46.543  1.00  0.00    +0.000 C 
BRANCH   13   12
ATOM     98  H14 UNL A   1      19.468  35.319  44.721  1.00  0.00    +0.000 H 
ATOM     12  N1  UNL A   1      18.894  34.768  45.300  1.00  0.00    +0.000 N 
BRANCH   12    2
ATOM      1  O1  UNL A   1      18.982  32.481  45.461  1.00  0.00    +0.000 O 
ATOM      2  C1  UNL A   1      18.578  33.493  44.897  1.00  0.00    +0.000 C 
BRANCH    2    3
ATOM      3  C2  UNL A   1      17.676  33.433  43.680  1.00  0.00    +0.000 C 
ATOM     85  H1  UNL A   1      17.694  34.386  43.194  1.00  0.00    +0.000 H 
ATOM     86  H2  UNL A   1      16.693  33.179  44.021  1.00  0.00    +0.000 H 
BRANCH    3    4
ATOM      4  C3  UNL A   1      18.105  32.362  42.674  1.00  0.00    +0.000 C 
ATOM     87  H3  UNL A   1      19.089  32.043  42.949  1.00  0.00    +0.000 H 
ATOM     88  H4  UNL A   1      18.026  32.840  41.720  1.00  0.00    +0.000 H 
BRANCH    4    5
ATOM     89  H5  UNL A   1      17.283  30.776  41.536  1.00  0.00    +0.000 H 
ATOM     90  H6  UNL A   1      16.265  31.419  42.892  1.00  0.00    +0.000 H 
ATOM      5  C4  UNL A   1      17.229  31.103  42.554  1.00  0.00    +0.000 C 
BRANCH    5    6
ATOM     91  H7  UNL A   1      17.862  30.278  44.393  1.00  0.00    +0.000 H 
ATOM     92  H8  UNL A   1      18.316  29.370  42.885  1.00  0.00    +0.000 H 
ATOM      6  C5  UNL A   1      17.567  29.896  43.439  1.00  0.00    +0.000 C 
BRANCH    6    7
ATOM     97  H13 UNL A   1      16.004  25.552  44.606  1.00  0.00    +0.000 H 
ATOM      7  C6  UNL A   1      16.478  28.836  43.693  1.00  0.00    +0.000 C 
ATOM      8  C7  UNL A   1      16.901  27.491  44.285  1.00  0.00    +0.000 C 
ATOM      9  C8  UNL A   1      15.713  26.533  44.291  1.00  0.00    +0.000 C 
ATOM     10  S1  UNL A   1      15.070  26.521  42.603  1.00  0.00    +0.000 S 
ATOM     11  S2  UNL A   1      15.601  28.445  42.134  1.00  0.00    +0.000 S 
ATOM     93  H9  UNL A   1      15.880  29.316  44.439  1.00  0.00    +0.000 H 
ATOM     94  H10 UNL A   1      17.246  27.637  45.286  1.00  0.00    +0.000 H 
ATOM     95  H11 UNL A   1      17.686  27.075  43.689  1.00  0.00    +0.000 H 
ATOM     96  H12 UNL A   1      14.963  26.875  44.973  1.00  0.00    +0.000 H 
ENDBRANCH    6    7
ENDBRANCH    5    6
ENDBRANCH    4    5
ENDBRANCH    3    4
ENDBRANCH    2    3
ENDBRANCH   12    2
ENDBRANCH   13   12
ENDBRANCH   14   13
ENDBRANCH   15   14
ENDBRANCH   16   15
ENDBRANCH   17   16
ENDBRANCH   18   17
ENDBRANCH   19   18
ENDBRANCH   20   19
ENDBRANCH   22   20
ENDBRANCH   26   25
BRANCH   30   31
ATOM     33  F1  UNL A   1      28.499  42.305  45.997  1.00  0.00    +0.000 F 
ATOM     34  C26 UNL A   1      29.977  43.509  47.376  1.00  0.00    +0.000 C 
ATOM     35  F2  UNL A   1      29.816  44.590  46.602  1.00  0.00    +0.000 F 
ATOM     36  C27 UNL A   1      30.819  43.564  48.477  1.00  0.00    +0.000 C 
ATOM     37  F3  UNL A   1      31.457  44.703  48.778  1.00  0.00    +0.000 F 
ATOM     38  C28 UNL A   1      31.004  42.436  49.262  1.00  0.00    +0.000 C 
ATOM     39  F4  UNL A   1      31.808  42.492  50.334  1.00  0.00    +0.000 F 
ATOM     40  C29 UNL A   1      30.356  41.247  48.941  1.00  0.00    +0.000 C 
ATOM     41  F5  UNL A   1      30.563  40.170  49.713  1.00  0.00    +0.000 F 
ATOM     31  C24 UNL A   1      29.492  41.171  47.837  1.00  0.00    +0.000 C 
ATOM     32  C25 UNL A   1      29.306  42.328  47.067  1.00  0.00    +0.000 C 
ENDBRANCH   30   31
BRANCH   47   48
ATOM     48  C35 UNL A   1      30.597  35.088  44.139  1.00  0.00    +0.000 C 
ATOM     49  C36 UNL A   1      31.432  34.107  44.693  1.00  0.00    +0.000 C 
ATOM     50  F6  UNL A   1      31.293  33.751  45.978  1.00  0.00    +0.000 F 
ATOM     51  C37 UNL A   1      32.439  33.515  43.935  1.00  0.00    +0.000 C 
ATOM     52  F7  UNL A   1      33.253  32.609  44.496  1.00  0.00    +0.000 F 
ATOM     53  C38 UNL A   1      32.609  33.868  42.604  1.00  0.00    +0.000 C 
ATOM     54  F8  UNL A   1      33.574  33.292  41.875  1.00  0.00    +0.000 F 
ATOM     55  C39 UNL A   1      31.784  34.825  42.032  1.00  0.00    +0.000 C 
ATOM     56  F9  UNL A   1      31.940  35.160  40.744  1.00  0.00    +0.000 F 
ATOM     57  C40 UNL A   1      30.794  35.438  42.795  1.00  0.00    +0.000 C 
ATOM     58  F10 UNL A   1      30.018  36.368  42.217  1.00  0.00    +0.000 F 
ENDBRANCH   47   48
BRANCH   62   63
ATOM     65  F11 UNL A   1      25.317  31.696  47.249  1.00  0.00    +0.000 F 
ATOM     66  C46 UNL A   1      23.625  30.675  45.966  1.00  0.00    +0.000 C 
ATOM     67  F12 UNL A   1      23.894  29.498  46.547  1.00  0.00    +0.000 F 
ATOM     68  C47 UNL A   1      22.634  30.761  45.000  1.00  0.00    +0.000 C 
ATOM     69  F13 UNL A   1      21.932  29.672  44.659  1.00  0.00    +0.000 F 
ATOM     70  C48 UNL A   1      22.378  31.976  44.380  1.00  0.00    +0.000 C 
ATOM     71  F14 UNL A   1      21.414  32.065  43.455  1.00  0.00    +0.000 F 
ATOM     72  C49 UNL A   1      23.125  33.103  44.716  1.00  0.00    +0.000 C 
ATOM     73  F15 UNL A   1      22.867  34.261  44.092  1.00  0.00    +0.000 F 
ATOM     63  C44 UNL A   1      24.127  33.041  45.696  1.00  0.00    +0.000 C 
ATOM     64  C45 UNL A   1      24.354  31.808  46.322  1.00  0.00    +0.000 C 
ENDBRANCH   62   63
TORSDOF 19
ENDMDL
MODEL 9
REMARK VINA RESULT:      -8.9     22.583     25.233
ROOT
ATOM     26  C20 UNL A   1      43.524  15.931  49.907  1.00  0.00    +0.000 C 
ATOM     27  C21 UNL A   1      44.158  17.291  49.824  1.00  0.00    +0.000 C 
ATOM     28  N3  UNL A   1      44.701  17.891  48.794  1.00  0.00    +0.000 N 
ATOM     29  C22 UNL A   1      45.086  19.147  49.247  1.00  0.00    +0.000 C 
ATOM     30  C23 UNL A   1      45.735  20.124  48.571  1.00  0.00    +0.000 C 
ATOM     42  C30 UNL A   1      46.174  20.016  47.205  1.00  0.00    +0.000 C 
ATOM     43  C31 UNL A   1      46.912  20.920  46.462  1.00  0.00    +0.000 C 
ATOM     44  C32 UNL A   1      47.064  20.405  45.170  1.00  0.00    +0.000 C 
ATOM     45  C33 UNL A   1      46.458  19.160  45.122  1.00  0.00    +0.000 C 
ATOM     46  N4  UNL A   1      45.915  18.935  46.377  1.00  0.00    +0.000 N 
ATOM     47  C34 UNL A   1      46.376  18.243  44.014  1.00  0.00    +0.000 C 
ATOM     59  C41 UNL A   1      45.774  17.030  44.053  1.00  0.00    +0.000 C 
ATOM     60  N5  UNL A   1      45.135  16.409  45.117  1.00  0.00    +0.000 N 
ATOM     61  C42 UNL A   1      44.710  15.257  44.658  1.00  0.00    +0.000 C 
ATOM     62  C43 UNL A   1      43.975  14.160  45.378  1.00  0.00    +0.000 C 
ATOM     74  C50 UNL A   1      43.698  14.302  46.688  1.00  0.00    +0.000 C 
ATOM     75  C51 UNL A   1      42.998  13.323  47.516  1.00  0.00    +0.000 C 
ATOM     76  C52 UNL A   1      42.855  13.820  48.755  1.00  0.00    +0.000 C 
ATOM     77  C53 UNL A   1      43.483  15.140  48.818  1.00  0.00    +0.000 C 
ATOM     78  N6  UNL A   1      43.968  15.338  47.549  1.00  0.00    +0.000 N 
ATOM     79  C54 UNL A   1      45.007  15.032  43.236  1.00  0.00    +0.000 C 
ATOM     80  C55 UNL A   1      45.692  16.125  42.927  1.00  0.00    +0.000 C 
ATOM     81  C56 UNL A   1      44.679  19.239  50.632  1.00  0.00    +0.000 C 
ATOM     82  C57 UNL A   1      44.157  18.096  51.055  1.00  0.00    +0.000 C 
ATOM    114  H30 UNL A   1      47.286  21.821  46.801  1.00  0.00    +0.000 H 
ATOM    115  H31 UNL A   1      47.545  20.873  44.386  1.00  0.00    +0.000 H 
ATOM    116  H32 UNL A   1      45.418  18.127  46.640  1.00  0.00    +0.000 H 
ATOM    117  H33 UNL A   1      42.666  12.399  47.200  1.00  0.00    +0.000 H 
ATOM    118  H34 UNL A   1      42.378  13.346  49.539  1.00  0.00    +0.000 H 
ATOM    119  H35 UNL A   1      44.463  16.145  47.280  1.00  0.00    +0.000 H 
ATOM    120  H36 UNL A   1      44.751  14.233  42.635  1.00  0.00    +0.000 H 
ATOM    121  H37 UNL A   1      46.111  16.306  42.002  1.00  0.00    +0.000 H 
ATOM    122  H38 UNL A   1      44.781  20.085  51.214  1.00  0.00    +0.000 H 
ATOM    123  H39 UNL A   1      43.836  17.839  52.002  1.00  0.00    +0.000 H 
ENDROOT
BRANCH   26   25
ATOM    112  H28 UNL A   1      43.433  13.673  53.943  1.00  0.00    +0.000 H 
ATOM    113  H29 UNL A   1      44.573  14.519  51.973  1.00  0.00    +0.000 H 
ATOM     83  C58 UNL A   1      41.531  15.817  51.408  1.00  0.00    +0.000 C 
ATOM     84  C59 UNL A   1      40.898  15.395  52.576  1.00  0.00    +0.000 C 
ATOM     22  C16 UNL A   1      41.574  14.557  53.468  1.00  0.00    +0.000 C 
ATOM     23  C17 UNL A   1      42.921  14.250  53.258  1.00  0.00    +0.000 C 
ATOM     24  C18 UNL A   1      43.572  14.726  52.118  1.00  0.00    +0.000 C 
ATOM     25  C19 UNL A   1      42.872  15.484  51.165  1.00  0.00    +0.000 C 
ATOM    124  H40 UNL A   1      41.008  16.378  50.717  1.00  0.00    +0.000 H 
ATOM    125  H41 UNL A   1      39.934  15.699  52.781  1.00  0.00    +0.000 H 
BRANCH   22   20
ATOM     20  C15 UNL A   1      40.890  13.980  54.649  1.00  0.00    +0.000 C 
ATOM     21  O2  UNL A   1      41.301  14.234  55.773  1.00  0.00    +0.000 O 
BRANCH   20   19
ATOM     19  N2  UNL A   1      39.820  13.134  54.475  1.00  0.00    +0.000 N 
ATOM    111  H27 UNL A   1      39.326  12.904  55.296  1.00  0.00    +0.000 H 
BRANCH   19   18
ATOM     18  C14 UNL A   1      39.314  12.532  53.253  1.00  0.00    +0.000 C 
ATOM    109  H25 UNL A   1      38.329  12.157  53.440  1.00  0.00    +0.000 H 
ATOM    110  H26 UNL A   1      39.316  13.291  52.498  1.00  0.00    +0.000 H 
BRANCH   18   17
ATOM     17  C13 UNL A   1      40.183  11.385  52.749  1.00  0.00    +0.000 C 
ATOM    107  H23 UNL A   1      40.876  11.130  53.524  1.00  0.00    +0.000 H 
ATOM    108  H24 UNL A   1      39.509  10.593  52.497  1.00  0.00    +0.000 H 
BRANCH   17   16
ATOM    105  H21 UNL A   1      40.416  11.325  50.642  1.00  0.00    +0.000 H 
ATOM    106  H22 UNL A   1      41.152  12.733  51.473  1.00  0.00    +0.000 H 
ATOM     16  C12 UNL A   1      40.984  11.676  51.478  1.00  0.00    +0.000 C 
BRANCH   16   15
ATOM    103  H19 UNL A   1      42.320  10.217  50.718  1.00  0.00    +0.000 H 
ATOM     15  C11 UNL A   1      42.370  11.030  51.411  1.00  0.00    +0.000 C 
ATOM    104  H20 UNL A   1      43.042  11.811  51.117  1.00  0.00    +0.000 H 
BRANCH   15   14
ATOM    102  H18 UNL A   1      42.200  10.754  53.486  1.00  0.00    +0.000 H 
ATOM    101  H17 UNL A   1      43.884  10.916  52.897  1.00  0.00    +0.000 H 
ATOM     14  C10 UNL A   1      42.918  10.486  52.738  1.00  0.00    +0.000 C 
BRANCH   14   13
ATOM     99  H15 UNL A   1      44.084   8.706  52.652  1.00  0.00    +0.000 H 
ATOM    100  H16 UNL A   1      42.729   8.650  53.780  1.00  0.00    +0.000 H 
ATOM     13  C9  UNL A   1      43.059   8.967  52.813  1.00  0.00    +0.000 C 
BRANCH   13   12
ATOM     98  H14 UNL A   1      41.310   8.591  51.703  1.00  0.00    +0.000 H 
ATOM     12  N1  UNL A   1      42.244   8.303  51.820  1.00  0.00    +0.000 N 
BRANCH   12    2
ATOM      1  O1  UNL A   1      42.013   6.528  50.386  1.00  0.00    +0.000 O 
ATOM      2  C1  UNL A   1      42.727   7.285  51.035  1.00  0.00    +0.000 C 
BRANCH    2    3
ATOM      3  C2  UNL A   1      44.239   7.167  51.033  1.00  0.00    +0.000 C 
ATOM     85  H1  UNL A   1      44.501   6.131  51.023  1.00  0.00    +0.000 H 
ATOM     86  H2  UNL A   1      44.601   7.661  51.911  1.00  0.00    +0.000 H 
BRANCH    3    4
ATOM      4  C3  UNL A   1      44.886   7.846  49.823  1.00  0.00    +0.000 C 
ATOM     87  H3  UNL A   1      44.122   7.980  49.085  1.00  0.00    +0.000 H 
ATOM     88  H4  UNL A   1      45.687   7.194  49.543  1.00  0.00    +0.000 H 
BRANCH    4    5
ATOM     89  H5  UNL A   1      46.401   9.053  50.682  1.00  0.00    +0.000 H 
ATOM     90  H6  UNL A   1      44.778   9.827  50.447  1.00  0.00    +0.000 H 
ATOM      5  C4  UNL A   1      45.556   9.214  50.045  1.00  0.00    +0.000 C 
BRANCH    5    6
ATOM     91  H7  UNL A   1      45.209  10.138  48.177  1.00  0.00    +0.000 H 
ATOM     92  H8  UNL A   1      46.840   9.376  48.427  1.00  0.00    +0.000 H 
ATOM      6  C5  UNL A   1      46.053   9.987  48.816  1.00  0.00    +0.000 C 
BRANCH    6    7
ATOM     97  H13 UNL A   1      47.363  14.361  47.465  1.00  0.00    +0.000 H 
ATOM      7  C6  UNL A   1      46.716  11.362  49.023  1.00  0.00    +0.000 C 
ATOM      8  C7  UNL A   1      46.526  12.428  47.945  1.00  0.00    +0.000 C 
ATOM      9  C8  UNL A   1      47.399  13.640  48.255  1.00  0.00    +0.000 C 
ATOM     10  S1  UNL A   1      49.073  13.003  48.494  1.00  0.00    +0.000 S 
ATOM     11  S2  UNL A   1      48.526  11.167  49.222  1.00  0.00    +0.000 S 
ATOM     93  H9  UNL A   1      46.202  11.719  49.891  1.00  0.00    +0.000 H 
ATOM     94  H10 UNL A   1      45.499  12.727  47.919  1.00  0.00    +0.000 H 
ATOM     95  H11 UNL A   1      46.809  12.023  46.996  1.00  0.00    +0.000 H 
ATOM     96  H12 UNL A   1      47.056  14.127  49.144  1.00  0.00    +0.000 H 
ENDBRANCH    6    7
ENDBRANCH    5    6
ENDBRANCH    4    5
ENDBRANCH    3    4
ENDBRANCH    2    3
ENDBRANCH   12    2
ENDBRANCH   13   12
ENDBRANCH   14   13
ENDBRANCH   15   14
ENDBRANCH   16   15
ENDBRANCH   17   16
ENDBRANCH   18   17
ENDBRANCH   19   18
ENDBRANCH   20   19
ENDBRANCH   22   20
ENDBRANCH   26   25
BRANCH   30   31
ATOM     33  F1  UNL A   1      48.133  20.623  50.064  1.00  0.00    +0.000 F 
ATOM     34  C26 UNL A   1      47.478  22.807  50.650  1.00  0.00    +0.000 C 
ATOM     35  F2  UNL A   1      48.616  22.961  51.340  1.00  0.00    +0.000 F 
ATOM     36  C27 UNL A   1      46.555  23.840  50.597  1.00  0.00    +0.000 C 
ATOM     37  F3  UNL A   1      46.807  24.999  51.220  1.00  0.00    +0.000 F 
ATOM     38  C28 UNL A   1      45.366  23.669  49.903  1.00  0.00    +0.000 C 
ATOM     39  F4  UNL A   1      44.478  24.672  49.841  1.00  0.00    +0.000 F 
ATOM     40  C29 UNL A   1      45.094  22.460  49.270  1.00  0.00    +0.000 C 
ATOM     41  F5  UNL A   1      43.931  22.320  48.616  1.00  0.00    +0.000 F 
ATOM     31  C24 UNL A   1      46.018  21.404  49.303  1.00  0.00    +0.000 C 
ATOM     32  C25 UNL A   1      47.221  21.605  49.996  1.00  0.00    +0.000 C 
ENDBRANCH   30   31
BRANCH   47   48
ATOM     48  C35 UNL A   1      47.024  18.649  42.723  1.00  0.00    +0.000 C 
ATOM     49  C36 UNL A   1      46.288  19.237  41.685  1.00  0.00    +0.000 C 
ATOM     50  F6  UNL A   1      44.962  19.404  41.808  1.00  0.00    +0.000 F 
ATOM     51  C37 UNL A   1      46.907  19.624  40.499  1.00  0.00    +0.000 C 
ATOM     52  F7  UNL A   1      46.177  20.146  39.504  1.00  0.00    +0.000 F 
ATOM     53  C38 UNL A   1      48.275  19.458  40.342  1.00  0.00    +0.000 C 
ATOM     54  F8  UNL A   1      48.870  19.836  39.203  1.00  0.00    +0.000 F 
ATOM     55  C39 UNL A   1      49.025  18.893  41.363  1.00  0.00    +0.000 C 
ATOM     56  F9  UNL A   1      50.348  18.741  41.216  1.00  0.00    +0.000 F 
ATOM     57  C40 UNL A   1      48.404  18.481  42.538  1.00  0.00    +0.000 C 
ATOM     58  F10 UNL A   1      49.154  17.927  43.504  1.00  0.00    +0.000 F 
ENDBRANCH   47   48
BRANCH   62   63
ATOM     65  F11 UNL A   1      41.366  13.725  44.364  1.00  0.00    +0.000 F 
ATOM     66  C46 UNL A   1      41.887  11.582  43.536  1.00  0.00    +0.000 C 
ATOM     67  F12 UNL A   1      40.622  11.436  43.120  1.00  0.00    +0.000 F 
ATOM     68  C47 UNL A   1      42.804  10.560  43.343  1.00  0.00    +0.000 C 
ATOM     69  F13 UNL A   1      42.431   9.431  42.724  1.00  0.00    +0.000 F 
ATOM     70  C48 UNL A   1      44.105  10.705  43.800  1.00  0.00    +0.000 C 
ATOM     71  F14 UNL A   1      44.996   9.725  43.605  1.00  0.00    +0.000 F 
ATOM     72  C49 UNL A   1      44.487  11.869  44.465  1.00  0.00    +0.000 C 
ATOM     73  F15 UNL A   1      45.747  11.976  44.909  1.00  0.00    +0.000 F 
ATOM     63  C44 UNL A   1      43.579  12.919  44.665  1.00  0.00    +0.000 C 
ATOM     64  C45 UNL A   1      42.275  12.757  44.177  1.00  0.00    +0.000 C 
ENDBRANCH   62   63
TORSDOF 19
ENDMDL
MODEL 10
REMARK VINA RESULT:      -8.9     38.545     44.168
ROOT
ATOM     26  C20 UNL A   1      13.947  53.877   4.906  1.00  0.00    +0.000 C 
ATOM     27  C21 UNL A   1      14.901  54.303   3.826  1.00  0.00    +0.000 C 
ATOM     28  N3  UNL A   1      15.386  53.608   2.827  1.00  0.00    +0.000 N 
ATOM     29  C22 UNL A   1      16.177  54.490   2.102  1.00  0.00    +0.000 C 
ATOM     30  C23 UNL A   1      16.932  54.239   1.005  1.00  0.00    +0.000 C 
ATOM     42  C30 UNL A   1      17.062  52.947   0.384  1.00  0.00    +0.000 C 
ATOM     43  C31 UNL A   1      17.867  52.578  -0.679  1.00  0.00    +0.000 C 
ATOM     44  C32 UNL A   1      17.627  51.229  -0.961  1.00  0.00    +0.000 C 
ATOM     45  C33 UNL A   1      16.706  50.747  -0.046  1.00  0.00    +0.000 C 
ATOM     46  N4  UNL A   1      16.367  51.812   0.773  1.00  0.00    +0.000 N 
ATOM     47  C34 UNL A   1      16.172  49.415   0.074  1.00  0.00    +0.000 C 
ATOM     59  C41 UNL A   1      15.279  49.018   1.013  1.00  0.00    +0.000 C 
ATOM     60  N5  UNL A   1      14.704  49.759   2.036  1.00  0.00    +0.000 N 
ATOM     61  C42 UNL A   1      13.901  48.937   2.668  1.00  0.00    +0.000 C 
ATOM     62  C43 UNL A   1      13.042  49.189   3.877  1.00  0.00    +0.000 C 
ATOM     74  C50 UNL A   1      13.064  50.404   4.459  1.00  0.00    +0.000 C 
ATOM     75  C51 UNL A   1      12.290  50.792   5.635  1.00  0.00    +0.000 C 
ATOM     76  C52 UNL A   1      12.522  52.087   5.904  1.00  0.00    +0.000 C 
ATOM     77  C53 UNL A   1      13.489  52.611   4.939  1.00  0.00    +0.000 C 
ATOM     78  N6  UNL A   1      13.763  51.538   4.127  1.00  0.00    +0.000 N 
ATOM     79  C54 UNL A   1      13.855  47.585   2.094  1.00  0.00    +0.000 C 
ATOM     80  C55 UNL A   1      14.743  47.677   1.113  1.00  0.00    +0.000 C 
ATOM     81  C56 UNL A   1      16.077  55.779   2.750  1.00  0.00    +0.000 C 
ATOM     82  C57 UNL A   1      15.351  55.703   3.856  1.00  0.00    +0.000 C 
ATOM    114  H30 UNL A   1      18.529  53.192  -1.178  1.00  0.00    +0.000 H 
ATOM    115  H31 UNL A   1      18.064  50.684  -1.722  1.00  0.00    +0.000 H 
ATOM    116  H32 UNL A   1      15.725  51.769   1.519  1.00  0.00    +0.000 H 
ATOM    117  H33 UNL A   1      11.665  50.171   6.172  1.00  0.00    +0.000 H 
ATOM    118  H34 UNL A   1      12.089  52.626   6.670  1.00  0.00    +0.000 H 
ATOM    119  H35 UNL A   1      14.401  51.577   3.379  1.00  0.00    +0.000 H 
ATOM    120  H36 UNL A   1      13.283  46.775   2.379  1.00  0.00    +0.000 H 
ATOM    121  H37 UNL A   1      15.015  46.894   0.500  1.00  0.00    +0.000 H 
ATOM    122  H38 UNL A   1      16.514  56.645   2.396  1.00  0.00    +0.000 H 
ATOM    123  H39 UNL A   1      15.154  56.436   4.556  1.00  0.00    +0.000 H 
ENDROOT
BRANCH   26   25
ATOM    112  H28 UNL A   1      10.981  57.104   6.386  1.00  0.00    +0.000 H 
ATOM    113  H29 UNL A   1      11.690  55.382   4.827  1.00  0.00    +0.000 H 
ATOM     83  C58 UNL A   1      14.168  55.100   7.072  1.00  0.00    +0.000 C 
ATOM     84  C59 UNL A   1      13.720  56.035   8.004  1.00  0.00    +0.000 C 
ATOM     22  C16 UNL A   1      12.592  56.812   7.721  1.00  0.00    +0.000 C 
ATOM     23  C17 UNL A   1      11.841  56.564   6.569  1.00  0.00    +0.000 C 
ATOM     24  C18 UNL A   1      12.257  55.582   5.666  1.00  0.00    +0.000 C 
ATOM     25  C19 UNL A   1      13.444  54.867   5.893  1.00  0.00    +0.000 C 
ATOM    124  H40 UNL A   1      15.039  54.576   7.252  1.00  0.00    +0.000 H 
ATOM    125  H41 UNL A   1      14.218  56.153   8.900  1.00  0.00    +0.000 H 
BRANCH   22   20
ATOM     20  C15 UNL A   1      12.166  57.906   8.624  1.00  0.00    +0.000 C 
ATOM     21  O2  UNL A   1      12.491  59.059   8.377  1.00  0.00    +0.000 O 
BRANCH   20   19
ATOM     19  N2  UNL A   1      11.439  57.617   9.755  1.00  0.00    +0.000 N 
ATOM    111  H27 UNL A   1      11.012  58.390  10.192  1.00  0.00    +0.000 H 
BRANCH   19   18
ATOM     18  C14 UNL A   1      11.209  56.333  10.396  1.00  0.00    +0.000 C 
ATOM    109  H25 UNL A   1      12.117  55.767  10.363  1.00  0.00    +0.000 H 
ATOM    110  H26 UNL A   1      10.897  56.529  11.402  1.00  0.00    +0.000 H 
BRANCH   18   17
ATOM     17  C13 UNL A   1      10.105  55.521   9.726  1.00  0.00    +0.000 C 
ATOM    107  H23 UNL A   1       9.178  55.773  10.197  1.00  0.00    +0.000 H 
ATOM    108  H24 UNL A   1      10.143  55.774   8.687  1.00  0.00    +0.000 H 
BRANCH   17   16
ATOM    105  H21 UNL A   1      10.533  53.744  10.802  1.00  0.00    +0.000 H 
ATOM    106  H22 UNL A   1       9.339  53.589   9.473  1.00  0.00    +0.000 H 
ATOM     16  C12 UNL A   1      10.272  54.002   9.796  1.00  0.00    +0.000 C 
BRANCH   16   15
ATOM    103  H19 UNL A   1      10.865  52.671   8.257  1.00  0.00    +0.000 H 
ATOM     15  C11 UNL A   1      11.336  53.412   8.868  1.00  0.00    +0.000 C 
ATOM    104  H20 UNL A   1      11.734  54.240   8.317  1.00  0.00    +0.000 H 
BRANCH   15   14
ATOM    102  H18 UNL A   1      13.385  53.369   9.327  1.00  0.00    +0.000 H 
ATOM    101  H17 UNL A   1      12.621  51.753   9.202  1.00  0.00    +0.000 H 
ATOM     14  C10 UNL A   1      12.539  52.757   9.562  1.00  0.00    +0.000 C 
BRANCH   14   13
ATOM     99  H15 UNL A   1      11.655  53.324  11.414  1.00  0.00    +0.000 H 
ATOM    100  H16 UNL A   1      12.315  51.689  11.379  1.00  0.00    +0.000 H 
ATOM     13  C9  UNL A   1      12.465  52.707  11.087  1.00  0.00    +0.000 C 
BRANCH   13   12
ATOM     98  H14 UNL A   1      14.139  53.962  11.317  1.00  0.00    +0.000 H 
ATOM     12  N1  UNL A   1      13.688  53.175  11.698  1.00  0.00    +0.000 N 
BRANCH   12    2
ATOM      1  O1  UNL A   1      13.615  52.263  13.802  1.00  0.00    +0.000 O 
ATOM      2  C1  UNL A   1      14.245  52.559  12.792  1.00  0.00    +0.000 C 
BRANCH    2    3
ATOM      3  C2  UNL A   1      15.727  52.269  12.653  1.00  0.00    +0.000 C 
ATOM     85  H1  UNL A   1      16.025  51.621  13.451  1.00  0.00    +0.000 H 
ATOM     86  H2  UNL A   1      16.243  53.206  12.688  1.00  0.00    +0.000 H 
BRANCH    3    4
ATOM      4  C3  UNL A   1      16.079  51.599  11.322  1.00  0.00    +0.000 C 
ATOM     87  H3  UNL A   1      16.711  52.274  10.783  1.00  0.00    +0.000 H 
ATOM     88  H4  UNL A   1      15.134  51.390  10.866  1.00  0.00    +0.000 H 
BRANCH    4    5
ATOM     89  H5  UNL A   1      16.737  49.888  12.384  1.00  0.00    +0.000 H 
ATOM     90  H6  UNL A   1      17.779  50.443  11.008  1.00  0.00    +0.000 H 
ATOM      5  C4  UNL A   1      16.795  50.238  11.375  1.00  0.00    +0.000 C 
BRANCH    5    6
ATOM     91  H7  UNL A   1      16.457  48.189  10.984  1.00  0.00    +0.000 H 
ATOM     92  H8  UNL A   1      16.808  49.253   9.552  1.00  0.00    +0.000 H 
ATOM      6  C5  UNL A   1      16.279  49.111  10.471  1.00  0.00    +0.000 C 
BRANCH    6    7
ATOM     97  H13 UNL A   1      11.596  48.837  11.284  1.00  0.00    +0.000 H 
ATOM      7  C6  UNL A   1      14.796  49.116  10.052  1.00  0.00    +0.000 C 
ATOM      8  C7  UNL A   1      13.734  49.115  11.151  1.00  0.00    +0.000 C 
ATOM      9  C8  UNL A   1      12.350  48.943  10.532  1.00  0.00    +0.000 C 
ATOM     10  S1  UNL A   1      12.449  47.474   9.484  1.00  0.00    +0.000 S 
ATOM     11  S2  UNL A   1      14.432  47.663   9.000  1.00  0.00    +0.000 S 
ATOM     93  H9  UNL A   1      14.716  50.063   9.559  1.00  0.00    +0.000 H 
ATOM     94  H10 UNL A   1      13.773  50.042  11.683  1.00  0.00    +0.000 H 
ATOM     95  H11 UNL A   1      13.923  48.304  11.823  1.00  0.00    +0.000 H 
ATOM     96  H12 UNL A   1      12.095  49.802   9.946  1.00  0.00    +0.000 H 
ENDBRANCH    6    7
ENDBRANCH    5    6
ENDBRANCH    4    5
ENDBRANCH    3    4
ENDBRANCH    2    3
ENDBRANCH   12    2
ENDBRANCH   13   12
ENDBRANCH   14   13
ENDBRANCH   15   14
ENDBRANCH   16   15
ENDBRANCH   17   16
ENDBRANCH   18   17
ENDBRANCH   19   18
ENDBRANCH   20   19
ENDBRANCH   22   20
ENDBRANCH   26   25
BRANCH   30   31
ATOM     33  F1  UNL A   1      15.973  55.813  -1.192  1.00  0.00    +0.000 F 
ATOM     34  C26 UNL A   1      17.858  57.223  -1.185  1.00  0.00    +0.000 C 
ATOM     35  F2  UNL A   1      17.351  57.902  -2.222  1.00  0.00    +0.000 F 
ATOM     36  C27 UNL A   1      19.083  57.588  -0.649  1.00  0.00    +0.000 C 
ATOM     37  F3  UNL A   1      19.754  58.631  -1.156  1.00  0.00    +0.000 F 
ATOM     38  C28 UNL A   1      19.618  56.867   0.408  1.00  0.00    +0.000 C 
ATOM     39  F4  UNL A   1      20.797  57.227   0.934  1.00  0.00    +0.000 F 
ATOM     40  C29 UNL A   1      18.932  55.771   0.924  1.00  0.00    +0.000 C 
ATOM     41  F5  UNL A   1      19.479  55.086   1.939  1.00  0.00    +0.000 F 
ATOM     31  C24 UNL A   1      17.686  55.389   0.404  1.00  0.00    +0.000 C 
ATOM     32  C25 UNL A   1      17.156  56.143  -0.654  1.00  0.00    +0.000 C 
ENDBRANCH   30   31
BRANCH   47   48
ATOM     48  C35 UNL A   1      16.653  48.379  -0.899  1.00  0.00    +0.000 C 
ATOM     49  C36 UNL A   1      15.904  48.031  -2.032  1.00  0.00    +0.000 C 
ATOM     50  F6  UNL A   1      14.701  48.588  -2.243  1.00  0.00    +0.000 F 
ATOM     51  C37 UNL A   1      16.372  47.080  -2.934  1.00  0.00    +0.000 C 
ATOM     52  F7  UNL A   1      15.621  46.732  -3.988  1.00  0.00    +0.000 F 
ATOM     53  C38 UNL A   1      17.610  46.484  -2.739  1.00  0.00    +0.000 C 
ATOM     54  F8  UNL A   1      18.061  45.574  -3.611  1.00  0.00    +0.000 F 
ATOM     55  C39 UNL A   1      18.374  46.826  -1.633  1.00  0.00    +0.000 C 
ATOM     56  F9  UNL A   1      19.574  46.258  -1.447  1.00  0.00    +0.000 F 
ATOM     57  C40 UNL A   1      17.896  47.756  -0.714  1.00  0.00    +0.000 C 
ATOM     58  F10 UNL A   1      18.653  48.058   0.352  1.00  0.00    +0.000 F 
ENDBRANCH   47   48
BRANCH   62   63
ATOM     65  F11 UNL A   1      14.005  47.292   5.746  1.00  0.00    +0.000 F 
ATOM     66  C46 UNL A   1      11.943  46.163   5.883  1.00  0.00    +0.000 C 
ATOM     67  F12 UNL A   1      12.483  45.279   6.734  1.00  0.00    +0.000 F 
ATOM     68  C47 UNL A   1      10.616  46.035   5.500  1.00  0.00    +0.000 C 
ATOM     69  F13 UNL A   1       9.867  45.040   5.994  1.00  0.00    +0.000 F 
ATOM     70  C48 UNL A   1      10.069  46.936   4.598  1.00  0.00    +0.000 C 
ATOM     71  F14 UNL A   1       8.785  46.823   4.235  1.00  0.00    +0.000 F 
ATOM     72  C49 UNL A   1      10.854  47.956   4.065  1.00  0.00    +0.000 C 
ATOM     73  F15 UNL A   1      10.304  48.803   3.184  1.00  0.00    +0.000 F 
ATOM     63  C44 UNL A   1      12.196  48.109   4.443  1.00  0.00    +0.000 C 
ATOM     64  C45 UNL A   1      12.721  47.199   5.371  1.00  0.00    +0.000 C 
ENDBRANCH   62   63
TORSDOF 19
ENDMDL
