MODEL 1
REMARK VINA RESULT:      -8.2      0.000      0.000
ROOT
ATOM    138  H33 UNL A   1      18.282  50.694  -2.854  1.00  0.00    +0.000 H 
ATOM    139  H34 UNL A   1      18.895  53.221  -2.666  1.00  0.00    +0.000 H 
ATOM    140  H35 UNL A   1      16.545  52.207   0.588  1.00  0.00    +0.000 H 
ATOM    141  H36 UNL A   1      13.317  53.958   5.813  1.00  0.00    +0.000 H 
ATOM    142  H37 UNL A   1      12.847  51.465   5.701  1.00  0.00    +0.000 H 
ATOM    143  H38 UNL A   1      15.246  52.453   2.453  1.00  0.00    +0.000 H 
ATOM    144  H39 UNL A   1      16.305  57.333   2.930  1.00  0.00    +0.000 H 
ATOM    145  H40 UNL A   1      17.534  57.148   0.694  1.00  0.00    +0.000 H 
ATOM    146  H41 UNL A   1      15.722  47.273   0.401  1.00  0.00    +0.000 H 
ATOM    147  H42 UNL A   1      14.063  47.530   2.335  1.00  0.00    +0.000 H 
ATOM     39  C28 UNL A   1      13.996  50.155   3.444  1.00  0.00    +0.000 C 
ATOM     40  C29 UNL A   1      14.746  49.689   2.228  1.00  0.00    +0.000 C 
ATOM     41  N3  UNL A   1      15.517  50.371   1.419  1.00  0.00    +0.000 N 
ATOM     42  C30 UNL A   1      15.988  49.456   0.488  1.00  0.00    +0.000 C 
ATOM     43  C31 UNL A   1      16.762  49.684  -0.601  1.00  0.00    +0.000 C 
ATOM     55  C38 UNL A   1      17.257  50.981  -0.979  1.00  0.00    +0.000 C 
ATOM     56  C39 UNL A   1      18.003  51.328  -2.091  1.00  0.00    +0.000 C 
ATOM     57  C40 UNL A   1      18.310  52.689  -2.001  1.00  0.00    +0.000 C 
ATOM     58  C41 UNL A   1      17.699  53.206  -0.870  1.00  0.00    +0.000 C 
ATOM     59  N4  UNL A   1      17.061  52.145  -0.249  1.00  0.00    +0.000 N 
ATOM     60  C42 UNL A   1      17.695  54.567  -0.394  1.00  0.00    +0.000 C 
ATOM     72  C49 UNL A   1      17.062  54.998   0.725  1.00  0.00    +0.000 C 
ATOM     73  N5  UNL A   1      16.298  54.277   1.631  1.00  0.00    +0.000 N 
ATOM     74  C50 UNL A   1      15.915  55.134   2.546  1.00  0.00    +0.000 C 
ATOM     75  C51 UNL A   1      15.040  54.914   3.751  1.00  0.00    +0.000 C 
ATOM     87  C58 UNL A   1      14.542  53.684   3.978  1.00  0.00    +0.000 C 
ATOM     88  C59 UNL A   1      13.673  53.313   5.091  1.00  0.00    +0.000 C 
ATOM     89  C60 UNL A   1      13.414  51.998   5.023  1.00  0.00    +0.000 C 
ATOM     90  C61 UNL A   1      14.062  51.443   3.835  1.00  0.00    +0.000 C 
ATOM     91  N6  UNL A   1      14.710  52.515   3.277  1.00  0.00    +0.000 N 
ATOM     92  C62 UNL A   1      16.424  56.497   2.339  1.00  0.00    +0.000 C 
ATOM     93  C63 UNL A   1      17.075  56.369   1.192  1.00  0.00    +0.000 C 
ATOM     94  C64 UNL A   1      15.473  48.160   0.867  1.00  0.00    +0.000 C 
ATOM     95  C65 UNL A   1      14.638  48.261   1.891  1.00  0.00    +0.000 C 
ENDROOT
BRANCH   39   38
ATOM     97  C67 UNL A   1      13.157  47.438   5.924  1.00  0.00    +0.000 C 
ATOM     35  C24 UNL A   1      11.764  47.389   5.812  1.00  0.00    +0.000 C 
ATOM     36  C25 UNL A   1      11.097  48.181   4.877  1.00  0.00    +0.000 C 
ATOM     37  C26 UNL A   1      11.827  49.060   4.080  1.00  0.00    +0.000 C 
ATOM     38  C27 UNL A   1      13.216  49.186   4.250  1.00  0.00    +0.000 C 
ATOM    136  H31 UNL A   1      10.073  48.116   4.777  1.00  0.00    +0.000 H 
ATOM    137  H32 UNL A   1      11.345  49.622   3.361  1.00  0.00    +0.000 H 
ATOM    148  H43 UNL A   1      14.891  48.470   5.328  1.00  0.00    +0.000 H 
ATOM    149  H44 UNL A   1      13.650  46.782   6.550  1.00  0.00    +0.000 H 
ATOM     96  C66 UNL A   1      13.873  48.373   5.187  1.00  0.00    +0.000 C 
BRANCH   35   33
ATOM     33  C23 UNL A   1      10.964  46.530   6.707  1.00  0.00    +0.000 C 
ATOM     34  O9  UNL A   1      10.107  45.787   6.244  1.00  0.00    +0.000 O 
BRANCH   33   32
ATOM    135  H30 UNL A   1      10.719  47.351   8.520  1.00  0.00    +0.000 H 
ATOM     32  N2  UNL A   1      11.171  46.607   8.059  1.00  0.00    +0.000 N 
BRANCH   32   31
ATOM    133  H28 UNL A   1      11.315  45.175   9.530  1.00  0.00    +0.000 H 
ATOM    134  H29 UNL A   1      12.541  45.102   8.253  1.00  0.00    +0.000 H 
ATOM     31  C22 UNL A   1      11.972  45.737   8.898  1.00  0.00    +0.000 C 
BRANCH   31   30
ATOM    131  H26 UNL A   1      12.439  47.331  10.208  1.00  0.00    +0.000 H 
ATOM    132  H27 UNL A   1      13.315  45.800  10.500  1.00  0.00    +0.000 H 
ATOM     30  C21 UNL A   1      12.955  46.499   9.775  1.00  0.00    +0.000 C 
BRANCH   30   29
ATOM    129  H24 UNL A   1      14.681  46.205   8.581  1.00  0.00    +0.000 H 
ATOM    130  H25 UNL A   1      13.824  47.767   8.358  1.00  0.00    +0.000 H 
ATOM     29  C20 UNL A   1      14.189  47.034   9.046  1.00  0.00    +0.000 C 
BRANCH   29   28
ATOM     28  C19 UNL A   1      15.219  47.762   9.919  1.00  0.00    +0.000 C 
ATOM    127  H22 UNL A   1      14.690  48.266  10.701  1.00  0.00    +0.000 H 
ATOM    128  H23 UNL A   1      15.893  47.007  10.267  1.00  0.00    +0.000 H 
BRANCH   28   27
ATOM     27  C18 UNL A   1      16.088  48.796   9.200  1.00  0.00    +0.000 C 
ATOM    125  H20 UNL A   1      16.482  49.474   9.929  1.00  0.00    +0.000 H 
ATOM    126  H21 UNL A   1      16.858  48.256   8.689  1.00  0.00    +0.000 H 
BRANCH   27   26
ATOM     26  C17 UNL A   1      15.342  49.598   8.155  1.00  0.00    +0.000 C 
ATOM    123  H18 UNL A   1      16.042  49.959   7.431  1.00  0.00    +0.000 H 
ATOM    124  H19 UNL A   1      14.615  48.957   7.703  1.00  0.00    +0.000 H 
BRANCH   26   25
ATOM     25  N1  UNL A   1      14.646  50.724   8.735  1.00  0.00    +0.000 N 
ATOM    122  H17 UNL A   1      15.151  51.558   8.870  1.00  0.00    +0.000 H 
BRANCH   25   23
ATOM     23  C16 UNL A   1      13.333  50.706   9.107  1.00  0.00    +0.000 C 
ATOM     24  O8  UNL A   1      12.445  50.571   8.281  1.00  0.00    +0.000 O 
BRANCH   23   22
ATOM      2  C2  UNL A   1      11.524  55.386  12.634  1.00  0.00    +0.000 C 
ATOM      3  C3  UNL A   1      11.690  55.691  14.078  1.00  0.00    +0.000 C 
ATOM      4  O1  UNL A   1      11.578  56.771  14.610  1.00  0.00    +0.000 O 
ATOM      5  O2  UNL A   1      12.053  54.519  14.671  1.00  0.00    +0.000 O 
ATOM      6  C4  UNL A   1      12.208  53.471  13.677  1.00  0.00    +0.000 C 
ATOM      7  C5  UNL A   1      12.436  54.234  12.378  1.00  0.00    +0.000 C 
ATOM      8  C6  UNL A   1      12.416  53.495  11.031  1.00  0.00    +0.000 C 
ATOM     17  C12 UNL A   1      13.455  52.301  11.023  1.00  0.00    +0.000 C 
ATOM     22  C15 UNL A   1      13.057  50.900  10.574  1.00  0.00    +0.000 C 
ATOM    150  H45 UNL A   1      12.216  49.133  10.309  1.00  0.00    +0.000 H 
ATOM    152  H47 UNL A   1      11.165  49.381  14.497  1.00  0.00    +0.000 H 
ATOM    151  H46 UNL A   1      12.035  48.296  11.813  1.00  0.00    +0.000 H 
ATOM    156  H51 UNL A   1      10.467  53.288  13.205  1.00  0.00    +0.000 H 
ATOM     98  C68 UNL A   1      12.546  49.753  11.065  1.00  0.00    +0.000 C 
ATOM     99  C69 UNL A   1      12.334  49.153  12.380  1.00  0.00    +0.000 C 
ATOM    100  O10 UNL A   1      13.175  49.580  13.443  1.00  0.00    +0.000 O 
ATOM    101  C70 UNL A   1      11.784  49.692  13.682  1.00  0.00    +0.000 C 
ATOM    102  C71 UNL A   1      10.973  50.988  13.610  1.00  0.00    +0.000 C 
ATOM    104  O11 UNL A   1      11.047  51.693  14.868  1.00  0.00    +0.000 O 
ATOM    105  C73 UNL A   1      11.036  52.548  13.728  1.00  0.00    +0.000 C 
ATOM    108  H3  UNL A   1      13.031  52.803  13.824  1.00  0.00    +0.000 H 
ATOM    109  H4  UNL A   1      13.452  54.510  12.184  1.00  0.00    +0.000 H 
ATOM    110  H5  UNL A   1      12.742  54.179  10.275  1.00  0.00    +0.000 H 
ATOM    118  H13 UNL A   1      13.705  52.101  10.002  1.00  0.00    +0.000 H 
BRANCH    2    1
ATOM      1  C1  UNL A   1      10.610  56.024  11.900  1.00  0.00    +0.000 C 
ATOM    106  H1  UNL A   1      10.566  55.868  10.881  1.00  0.00    +0.000 H 
ATOM    107  H2  UNL A   1       9.948  56.675  12.351  1.00  0.00    +0.000 H 
ENDBRANCH    2    1
BRANCH    8    9
ATOM      9  O3  UNL A   1      11.084  53.115  10.627  1.00  0.00    +0.000 O 
BRANCH    9   10
ATOM     10  C7  UNL A   1      10.558  53.276   9.358  1.00  0.00    +0.000 C 
ATOM     11  O4  UNL A   1       9.724  52.456   8.982  1.00  0.00    +0.000 O 
BRANCH   10   12
ATOM    114  H9  UNL A   1      12.072  56.455   8.207  1.00  0.00    +0.000 H 
ATOM     12  C8  UNL A   1      10.652  54.617   8.638  1.00  0.00    +0.000 C 
ATOM     14  O5  UNL A   1      11.234  54.420   7.319  1.00  0.00    +0.000 O 
ATOM     15  C10 UNL A   1      11.875  55.409   8.105  1.00  0.00    +0.000 C 
BRANCH   12   13
ATOM    113  H8  UNL A   1       9.367  55.964   7.597  1.00  0.00    +0.000 H 
ATOM     13  C9  UNL A   1       9.320  55.332   8.459  1.00  0.00    +0.000 C 
ATOM    111  H6  UNL A   1       9.116  55.926   9.327  1.00  0.00    +0.000 H 
ATOM    112  H7  UNL A   1       8.541  54.610   8.331  1.00  0.00    +0.000 H 
ENDBRANCH   12   13
BRANCH   15   16
ATOM    115  H10 UNL A   1      13.848  55.757   7.488  1.00  0.00    +0.000 H 
ATOM    116  H11 UNL A   1      13.542  54.137   8.066  1.00  0.00    +0.000 H 
ATOM    117  H12 UNL A   1      13.662  55.461   9.200  1.00  0.00    +0.000 H 
ATOM     16  C11 UNL A   1      13.333  55.174   8.223  1.00  0.00    +0.000 C 
ENDBRANCH   15   16
ENDBRANCH   10   12
ENDBRANCH    9   10
ENDBRANCH    8    9
BRANCH   17   18
ATOM     18  O6  UNL A   1      14.763  52.586  11.658  1.00  0.00    +0.000 O 
BRANCH   18   19
ATOM     19  C13 UNL A   1      15.721  52.085  12.442  1.00  0.00    +0.000 C 
ATOM     21  O7  UNL A   1      15.721  52.359  13.642  1.00  0.00    +0.000 O 
BRANCH   19   20
ATOM    121  H16 UNL A   1      17.720  51.547  12.136  1.00  0.00    +0.000 H 
ATOM     20  C14 UNL A   1      16.746  51.164  11.914  1.00  0.00    +0.000 C 
ATOM    119  H14 UNL A   1      16.633  51.073  10.854  1.00  0.00    +0.000 H 
ATOM    120  H15 UNL A   1      16.629  50.202  12.369  1.00  0.00    +0.000 H 
ENDBRANCH   19   20
ENDBRANCH   18   19
ENDBRANCH   17   18
BRANCH  102  103
ATOM    153  H48 UNL A   1       9.027  51.376  12.813  1.00  0.00    +0.000 H 
ATOM    154  H49 UNL A   1       9.032  50.310  14.197  1.00  0.00    +0.000 H 
ATOM    155  H50 UNL A   1       9.553  49.718  12.637  1.00  0.00    +0.000 H 
ATOM    103  C72 UNL A   1       9.537  50.566  13.291  1.00  0.00    +0.000 C 
ENDBRANCH  102  103
ENDBRANCH   23   22
ENDBRANCH   25   23
ENDBRANCH   26   25
ENDBRANCH   27   26
ENDBRANCH   28   27
ENDBRANCH   29   28
ENDBRANCH   30   29
ENDBRANCH   31   30
ENDBRANCH   32   31
ENDBRANCH   33   32
ENDBRANCH   35   33
ENDBRANCH   39   38
BRANCH   43   44
ATOM     44  C32 UNL A   1      17.121  48.503  -1.459  1.00  0.00    +0.000 C 
ATOM     45  C33 UNL A   1      16.456  48.237  -2.666  1.00  0.00    +0.000 C 
ATOM     46  F1  UNL A   1      15.442  49.019  -3.066  1.00  0.00    +0.000 F 
ATOM     47  C34 UNL A   1      16.801  47.138  -3.448  1.00  0.00    +0.000 C 
ATOM     48  F2  UNL A   1      16.115  46.873  -4.570  1.00  0.00    +0.000 F 
ATOM     49  C35 UNL A   1      17.844  46.309  -3.063  1.00  0.00    +0.000 C 
ATOM     50  F3  UNL A   1      18.182  45.257  -3.823  1.00  0.00    +0.000 F 
ATOM     51  C36 UNL A   1      18.532  46.566  -1.888  1.00  0.00    +0.000 C 
ATOM     52  F4  UNL A   1      19.549  45.776  -1.521  1.00  0.00    +0.000 F 
ATOM     53  C37 UNL A   1      18.165  47.644  -1.085  1.00  0.00    +0.000 C 
ATOM     54  F5  UNL A   1      18.837  47.852   0.058  1.00  0.00    +0.000 F 
ENDBRANCH   43   44
BRANCH   60   61
ATOM     65  F7  UNL A   1      17.973  57.655  -4.194  1.00  0.00    +0.000 F 
ATOM     66  C46 UNL A   1      19.789  57.557  -2.689  1.00  0.00    +0.000 C 
ATOM     67  F8  UNL A   1      20.446  58.487  -3.398  1.00  0.00    +0.000 F 
ATOM     68  C47 UNL A   1      20.375  57.004  -1.561  1.00  0.00    +0.000 C 
ATOM     69  F9  UNL A   1      21.587  57.416  -1.164  1.00  0.00    +0.000 F 
ATOM     70  C48 UNL A   1      19.707  56.020  -0.839  1.00  0.00    +0.000 C 
ATOM     71  F10 UNL A   1      20.306  55.492   0.238  1.00  0.00    +0.000 F 
ATOM     61  C43 UNL A   1      18.422  55.594  -1.215  1.00  0.00    +0.000 C 
ATOM     62  C44 UNL A   1      17.839  56.185  -2.346  1.00  0.00    +0.000 C 
ATOM     63  F6  UNL A   1      16.621  55.804  -2.755  1.00  0.00    +0.000 F 
ATOM     64  C45 UNL A   1      18.527  57.143  -3.087  1.00  0.00    +0.000 C 
ENDBRANCH   60   61
BRANCH   75   76
ATOM     76  C52 UNL A   1      14.709  56.034   4.670  1.00  0.00    +0.000 C 
ATOM     77  C53 UNL A   1      13.477  56.698   4.587  1.00  0.00    +0.000 C 
ATOM     78  F11 UNL A   1      12.580  56.330   3.660  1.00  0.00    +0.000 F 
ATOM     79  C54 UNL A   1      13.178  57.772   5.423  1.00  0.00    +0.000 C 
ATOM     80  F12 UNL A   1      12.014  58.422   5.284  1.00  0.00    +0.000 F 
ATOM     81  C55 UNL A   1      14.089  58.181   6.384  1.00  0.00    +0.000 C 
ATOM     82  F13 UNL A   1      13.801  59.212   7.189  1.00  0.00    +0.000 F 
ATOM     83  C56 UNL A   1      15.305  57.524   6.503  1.00  0.00    +0.000 C 
ATOM     84  F14 UNL A   1      16.183  57.904   7.441  1.00  0.00    +0.000 F 
ATOM     85  C57 UNL A   1      15.618  56.472   5.646  1.00  0.00    +0.000 C 
ATOM     86  F15 UNL A   1      16.809  55.868   5.773  1.00  0.00    +0.000 F 
ENDBRANCH   75   76
TORSDOF 25
ENDMDL
MODEL 2
REMARK VINA RESULT:      -8.2     64.455     71.028
ROOT
ATOM    138  H33 UNL A   1      25.764 -12.817  37.680  1.00  0.00    +0.000 H 
ATOM    139  H34 UNL A   1      23.701 -11.475  36.822  1.00  0.00    +0.000 H 
ATOM    140  H35 UNL A   1      25.984 -12.583  33.551  1.00  0.00    +0.000 H 
ATOM    141  H36 UNL A   1      27.117 -12.299  27.272  1.00  0.00    +0.000 H 
ATOM    142  H37 UNL A   1      29.044 -13.729  28.102  1.00  0.00    +0.000 H 
ATOM    143  H38 UNL A   1      26.739 -12.668  31.395  1.00  0.00    +0.000 H 
ATOM    144  H39 UNL A   1      22.845 -10.067  29.595  1.00  0.00    +0.000 H 
ATOM    145  H40 UNL A   1      22.128  -9.718  32.026  1.00  0.00    +0.000 H 
ATOM    146  H41 UNL A   1      29.711 -15.487  35.200  1.00  0.00    +0.000 H 
ATOM    147  H42 UNL A   1      30.737 -15.414  32.856  1.00  0.00    +0.000 H 
ATOM     39  C28 UNL A   1      29.091 -14.110  30.928  1.00  0.00    +0.000 C 
ATOM     40  C29 UNL A   1      28.864 -14.215  32.410  1.00  0.00    +0.000 C 
ATOM     41  N3  UNL A   1      27.883 -13.738  33.133  1.00  0.00    +0.000 N 
ATOM     42  C30 UNL A   1      28.138 -14.153  34.433  1.00  0.00    +0.000 C 
ATOM     43  C31 UNL A   1      27.454 -13.854  35.563  1.00  0.00    +0.000 C 
ATOM     55  C38 UNL A   1      26.281 -13.021  35.597  1.00  0.00    +0.000 C 
ATOM     56  C39 UNL A   1      25.545 -12.612  36.694  1.00  0.00    +0.000 C 
ATOM     57  C40 UNL A   1      24.451 -11.871  36.234  1.00  0.00    +0.000 C 
ATOM     58  C41 UNL A   1      24.543 -11.760  34.856  1.00  0.00    +0.000 C 
ATOM     59  N4  UNL A   1      25.667 -12.476  34.477  1.00  0.00    +0.000 N 
ATOM     60  C42 UNL A   1      23.671 -11.051  33.952  1.00  0.00    +0.000 C 
ATOM     72  C49 UNL A   1      23.833 -10.981  32.608  1.00  0.00    +0.000 C 
ATOM     73  N5  UNL A   1      24.828 -11.538  31.817  1.00  0.00    +0.000 N 
ATOM     74  C50 UNL A   1      24.541 -11.200  30.583  1.00  0.00    +0.000 C 
ATOM     75  C51 UNL A   1      25.294 -11.500  29.315  1.00  0.00    +0.000 C 
ATOM     87  C58 UNL A   1      26.435 -12.209  29.386  1.00  0.00    +0.000 C 
ATOM     88  C59 UNL A   1      27.282 -12.571  28.254  1.00  0.00    +0.000 C 
ATOM     89  C60 UNL A   1      28.308 -13.315  28.695  1.00  0.00    +0.000 C 
ATOM     90  C61 UNL A   1      28.215 -13.445  30.150  1.00  0.00    +0.000 C 
ATOM     91  N6  UNL A   1      27.072 -12.758  30.472  1.00  0.00    +0.000 N 
ATOM     92  C62 UNL A   1      23.307 -10.414  30.449  1.00  0.00    +0.000 C 
ATOM     93  C63 UNL A   1      22.942 -10.269  31.715  1.00  0.00    +0.000 C 
ATOM     94  C64 UNL A   1      29.326 -14.975  34.392  1.00  0.00    +0.000 C 
ATOM     95  C65 UNL A   1      29.857 -14.983  33.178  1.00  0.00    +0.000 C 
ENDROOT
BRANCH   39   38
ATOM     97  C67 UNL A   1      32.561 -14.693  29.566  1.00  0.00    +0.000 C 
ATOM     35  C24 UNL A   1      32.481 -16.036  29.185  1.00  0.00    +0.000 C 
ATOM     36  C25 UNL A   1      31.280 -16.736  29.297  1.00  0.00    +0.000 C 
ATOM     37  C26 UNL A   1      30.163 -16.100  29.833  1.00  0.00    +0.000 C 
ATOM     38  C27 UNL A   1      30.258 -14.780  30.307  1.00  0.00    +0.000 C 
ATOM    136  H31 UNL A   1      31.219 -17.717  28.983  1.00  0.00    +0.000 H 
ATOM    137  H32 UNL A   1      29.262 -16.600  29.885  1.00  0.00    +0.000 H 
ATOM    148  H43 UNL A   1      31.552 -13.121  30.536  1.00  0.00    +0.000 H 
ATOM    149  H44 UNL A   1      33.425 -14.156  29.393  1.00  0.00    +0.000 H 
ATOM     96  C66 UNL A   1      31.470 -14.086  30.177  1.00  0.00    +0.000 C 
BRANCH   35   33
ATOM     33  C23 UNL A   1      33.674 -16.754  28.696  1.00  0.00    +0.000 C 
ATOM     34  O9  UNL A   1      34.552 -17.096  29.478  1.00  0.00    +0.000 O 
BRANCH   33   32
ATOM    135  H30 UNL A   1      33.024 -16.737  26.798  1.00  0.00    +0.000 H 
ATOM     32  N2  UNL A   1      33.796 -16.996  27.353  1.00  0.00    +0.000 N 
BRANCH   32   31
ATOM    133  H28 UNL A   1      35.530 -18.106  27.346  1.00  0.00    +0.000 H 
ATOM    134  H29 UNL A   1      34.515 -18.242  25.900  1.00  0.00    +0.000 H 
ATOM     31  C22 UNL A   1      34.915 -17.584  26.642  1.00  0.00    +0.000 C 
BRANCH   31   30
ATOM    131  H26 UNL A   1      36.586 -16.289  26.566  1.00  0.00    +0.000 H 
ATOM    132  H27 UNL A   1      36.083 -17.005  25.007  1.00  0.00    +0.000 H 
ATOM     30  C21 UNL A   1      35.770 -16.550  25.924  1.00  0.00    +0.000 C 
BRANCH   30   29
ATOM    129  H24 UNL A   1      34.080 -15.535  25.148  1.00  0.00    +0.000 H 
ATOM    130  H25 UNL A   1      34.998 -14.674  26.429  1.00  0.00    +0.000 H 
ATOM     29  C20 UNL A   1      35.039 -15.263  25.537  1.00  0.00    +0.000 C 
BRANCH   29   28
ATOM     28  C19 UNL A   1      35.738 -14.384  24.492  1.00  0.00    +0.000 C 
ATOM    127  H22 UNL A   1      36.477 -14.982  24.001  1.00  0.00    +0.000 H 
ATOM    128  H23 UNL A   1      34.964 -14.032  23.843  1.00  0.00    +0.000 H 
BRANCH   28   27
ATOM     27  C18 UNL A   1      36.429 -13.132  25.032  1.00  0.00    +0.000 C 
ATOM    125  H20 UNL A   1      36.273 -13.088  26.091  1.00  0.00    +0.000 H 
ATOM    126  H21 UNL A   1      37.466 -13.211  24.778  1.00  0.00    +0.000 H 
BRANCH   27   26
ATOM     26  C17 UNL A   1      35.921 -11.843  24.421  1.00  0.00    +0.000 C 
ATOM    123  H18 UNL A   1      36.754 -11.203  24.221  1.00  0.00    +0.000 H 
ATOM    124  H19 UNL A   1      35.398 -12.089  23.521  1.00  0.00    +0.000 H 
BRANCH   26   25
ATOM     25  N1  UNL A   1      35.002 -11.156  25.299  1.00  0.00    +0.000 N 
ATOM    122  H17 UNL A   1      34.628 -11.657  26.059  1.00  0.00    +0.000 H 
BRANCH   25   23
ATOM     23  C16 UNL A   1      34.619  -9.855  25.143  1.00  0.00    +0.000 C 
ATOM     24  O8  UNL A   1      35.043  -8.980  25.879  1.00  0.00    +0.000 O 
BRANCH   23   22
ATOM      2  C2  UNL A   1      28.544 -10.410  24.508  1.00  0.00    +0.000 C 
ATOM      3  C3  UNL A   1      27.659 -10.575  23.328  1.00  0.00    +0.000 C 
ATOM      4  O1  UNL A   1      26.523 -10.988  23.323  1.00  0.00    +0.000 O 
ATOM      5  O2  UNL A   1      28.406 -10.221  22.244  1.00  0.00    +0.000 O 
ATOM      6  C4  UNL A   1      29.766  -9.903  22.645  1.00  0.00    +0.000 C 
ATOM      7  C5  UNL A   1      29.926 -10.613  23.983  1.00  0.00    +0.000 C 
ATOM      8  C6  UNL A   1      31.154 -10.339  24.864  1.00  0.00    +0.000 C 
ATOM     17  C12 UNL A   1      32.495 -10.605  24.068  1.00  0.00    +0.000 C 
ATOM     22  C15 UNL A   1      33.625  -9.584  24.044  1.00  0.00    +0.000 C 
ATOM    150  H45 UNL A   1      34.762  -7.978  23.868  1.00  0.00    +0.000 H 
ATOM    152  H47 UNL A   1      32.052  -6.822  20.702  1.00  0.00    +0.000 H 
ATOM    151  H46 UNL A   1      34.576  -7.250  22.309  1.00  0.00    +0.000 H 
ATOM    156  H51 UNL A   1      29.428  -8.371  23.554  1.00  0.00    +0.000 H 
ATOM     98  C68 UNL A   1      34.047  -8.509  23.347  1.00  0.00    +0.000 C 
ATOM     99  C69 UNL A   1      33.761  -7.895  22.053  1.00  0.00    +0.000 C 
ATOM    100  O10 UNL A   1      33.249  -8.733  21.025  1.00  0.00    +0.000 O 
ATOM    101  C70 UNL A   1      32.475  -7.586  21.321  1.00  0.00    +0.000 C 
ATOM    102  C71 UNL A   1      31.189  -7.573  22.150  1.00  0.00    +0.000 C 
ATOM    104  O11 UNL A   1      30.052  -7.884  21.315  1.00  0.00    +0.000 O 
ATOM    105  C73 UNL A   1      29.965  -8.424  22.631  1.00  0.00    +0.000 C 
ATOM    108  H3  UNL A   1      30.540 -10.243  21.988  1.00  0.00    +0.000 H 
ATOM    109  H4  UNL A   1      30.228 -11.638  23.923  1.00  0.00    +0.000 H 
ATOM    110  H5  UNL A   1      31.142 -11.041  25.672  1.00  0.00    +0.000 H 
ATOM    118  H13 UNL A   1      33.260 -10.810  24.788  1.00  0.00    +0.000 H 
BRANCH    2    1
ATOM      1  C1  UNL A   1      28.049 -10.032  25.689  1.00  0.00    +0.000 C 
ATOM    106  H1  UNL A   1      27.921 -10.726  26.441  1.00  0.00    +0.000 H 
ATOM    107  H2  UNL A   1      27.791  -9.045  25.848  1.00  0.00    +0.000 H 
ENDBRANCH    2    1
BRANCH    8    9
ATOM      9  O3  UNL A   1      31.099  -9.048  25.505  1.00  0.00    +0.000 O 
BRANCH    9   10
ATOM     10  C7  UNL A   1      31.214  -8.826  26.865  1.00  0.00    +0.000 C 
ATOM     11  O4  UNL A   1      32.348  -8.788  27.339  1.00  0.00    +0.000 O 
BRANCH   10   12
ATOM    114  H9  UNL A   1      28.309  -8.718  29.161  1.00  0.00    +0.000 H 
ATOM     12  C8  UNL A   1      30.063  -8.218  27.658  1.00  0.00    +0.000 C 
ATOM     14  O5  UNL A   1      30.521  -7.874  28.996  1.00  0.00    +0.000 O 
ATOM     15  C10 UNL A   1      29.359  -8.684  28.961  1.00  0.00    +0.000 C 
BRANCH   12   13
ATOM    113  H8  UNL A   1      28.490  -7.198  26.640  1.00  0.00    +0.000 H 
ATOM     13  C9  UNL A   1      29.458  -6.968  27.035  1.00  0.00    +0.000 C 
ATOM    111  H6  UNL A   1      30.092  -6.622  26.245  1.00  0.00    +0.000 H 
ATOM    112  H7  UNL A   1      29.367  -6.205  27.780  1.00  0.00    +0.000 H 
ENDBRANCH   12   13
BRANCH   15   16
ATOM    115  H10 UNL A   1      29.324 -10.769  29.167  1.00  0.00    +0.000 H 
ATOM    116  H11 UNL A   1      28.796  -9.889  30.581  1.00  0.00    +0.000 H 
ATOM    117  H12 UNL A   1      30.495  -9.958  30.177  1.00  0.00    +0.000 H 
ATOM     16  C11 UNL A   1      29.504  -9.910  29.778  1.00  0.00    +0.000 C 
ENDBRANCH   15   16
ENDBRANCH   10   12
ENDBRANCH    9   10
ENDBRANCH    8    9
BRANCH   17   18
ATOM     18  O6  UNL A   1      32.496 -11.806  23.199  1.00  0.00    +0.000 O 
BRANCH   18   19
ATOM     19  C13 UNL A   1      32.505 -13.141  23.194  1.00  0.00    +0.000 C 
ATOM     21  O7  UNL A   1      32.096 -13.750  24.182  1.00  0.00    +0.000 O 
BRANCH   19   20
ATOM    121  H16 UNL A   1      32.625 -14.922  22.102  1.00  0.00    +0.000 H 
ATOM     20  C14 UNL A   1      32.940 -13.904  22.007  1.00  0.00    +0.000 C 
ATOM    119  H14 UNL A   1      34.007 -13.867  21.930  1.00  0.00    +0.000 H 
ATOM    120  H15 UNL A   1      32.504 -13.476  21.129  1.00  0.00    +0.000 H 
ENDBRANCH   19   20
ENDBRANCH   18   19
ENDBRANCH   17   18
BRANCH  102  103
ATOM    153  H48 UNL A   1      30.864  -6.229  23.781  1.00  0.00    +0.000 H 
ATOM    154  H49 UNL A   1      30.298  -5.631  22.240  1.00  0.00    +0.000 H 
ATOM    155  H50 UNL A   1      32.009  -5.649  22.595  1.00  0.00    +0.000 H 
ATOM    103  C72 UNL A   1      31.081  -6.164  22.736  1.00  0.00    +0.000 C 
ENDBRANCH  102  103
ENDBRANCH   23   22
ENDBRANCH   25   23
ENDBRANCH   26   25
ENDBRANCH   27   26
ENDBRANCH   28   27
ENDBRANCH   29   28
ENDBRANCH   30   29
ENDBRANCH   31   30
ENDBRANCH   32   31
ENDBRANCH   33   32
ENDBRANCH   35   33
ENDBRANCH   39   38
BRANCH   43   44
ATOM     44  C32 UNL A   1      27.958 -14.432  36.856  1.00  0.00    +0.000 C 
ATOM     45  C33 UNL A   1      27.480 -15.654  37.355  1.00  0.00    +0.000 C 
ATOM     46  F1  UNL A   1      26.518 -16.322  36.700  1.00  0.00    +0.000 F 
ATOM     47  C34 UNL A   1      27.957 -16.174  38.555  1.00  0.00    +0.000 C 
ATOM     48  F2  UNL A   1      27.446 -17.315  39.040  1.00  0.00    +0.000 F 
ATOM     49  C35 UNL A   1      28.950 -15.508  39.257  1.00  0.00    +0.000 C 
ATOM     50  F3  UNL A   1      29.416 -16.016  40.407  1.00  0.00    +0.000 F 
ATOM     51  C36 UNL A   1      29.456 -14.313  38.771  1.00  0.00    +0.000 C 
ATOM     52  F4  UNL A   1      30.426 -13.676  39.439  1.00  0.00    +0.000 F 
ATOM     53  C37 UNL A   1      28.955 -13.771  37.589  1.00  0.00    +0.000 C 
ATOM     54  F5  UNL A   1      29.451 -12.602  37.157  1.00  0.00    +0.000 F 
ENDBRANCH   43   44
BRANCH   60   61
ATOM     65  F7  UNL A   1      21.751  -7.176  36.267  1.00  0.00    +0.000 F 
ATOM     66  C46 UNL A   1      20.303  -8.915  35.592  1.00  0.00    +0.000 C 
ATOM     67  F8  UNL A   1      19.252  -8.255  36.100  1.00  0.00    +0.000 F 
ATOM     68  C47 UNL A   1      20.124 -10.155  35.000  1.00  0.00    +0.000 C 
ATOM     69  F9  UNL A   1      18.896 -10.684  34.911  1.00  0.00    +0.000 F 
ATOM     70  C48 UNL A   1      21.218 -10.852  34.496  1.00  0.00    +0.000 C 
ATOM     71  F10 UNL A   1      21.014 -12.057  33.943  1.00  0.00    +0.000 F 
ATOM     61  C43 UNL A   1      22.510 -10.306  34.547  1.00  0.00    +0.000 C 
ATOM     62  C44 UNL A   1      22.664  -9.039  35.130  1.00  0.00    +0.000 C 
ATOM     63  F6  UNL A   1      23.879  -8.478  35.216  1.00  0.00    +0.000 F 
ATOM     64  C45 UNL A   1      21.573  -8.361  35.666  1.00  0.00    +0.000 C 
ENDBRANCH   60   61
BRANCH   75   76
ATOM     76  C52 UNL A   1      24.802 -11.009  27.999  1.00  0.00    +0.000 C 
ATOM     77  C53 UNL A   1      23.928 -11.780  27.220  1.00  0.00    +0.000 C 
ATOM     78  F11 UNL A   1      23.530 -12.985  27.656  1.00  0.00    +0.000 F 
ATOM     79  C54 UNL A   1      23.495 -11.339  25.971  1.00  0.00    +0.000 C 
ATOM     80  F12 UNL A   1      22.703 -12.121  25.225  1.00  0.00    +0.000 F 
ATOM     81  C55 UNL A   1      23.897 -10.102  25.493  1.00  0.00    +0.000 C 
ATOM     82  F13 UNL A   1      23.479  -9.677  24.293  1.00  0.00    +0.000 F 
ATOM     83  C56 UNL A   1      24.742  -9.310  26.255  1.00  0.00    +0.000 C 
ATOM     84  F14 UNL A   1      25.121  -8.106  25.804  1.00  0.00    +0.000 F 
ATOM     85  C57 UNL A   1      25.202  -9.764  27.489  1.00  0.00    +0.000 C 
ATOM     86  F15 UNL A   1      26.032  -8.984  28.196  1.00  0.00    +0.000 F 
ENDBRANCH   75   76
TORSDOF 25
ENDMDL
MODEL 3
REMARK VINA RESULT:      -7.9      1.279      2.528
ROOT
ATOM    138  H33 UNL A   1      18.022  50.920  -2.653  1.00  0.00    +0.000 H 
ATOM    139  H34 UNL A   1      18.584  53.452  -2.391  1.00  0.00    +0.000 H 
ATOM    140  H35 UNL A   1      16.411  52.252   0.922  1.00  0.00    +0.000 H 
ATOM    141  H36 UNL A   1      13.389  53.715   6.356  1.00  0.00    +0.000 H 
ATOM    142  H37 UNL A   1      12.972  51.218   6.163  1.00  0.00    +0.000 H 
ATOM    143  H38 UNL A   1      15.194  52.392   2.853  1.00  0.00    +0.000 H 
ATOM    144  H39 UNL A   1      16.162  57.275   3.479  1.00  0.00    +0.000 H 
ATOM    145  H40 UNL A   1      17.289  57.208   1.184  1.00  0.00    +0.000 H 
ATOM    146  H41 UNL A   1      15.694  47.311   0.574  1.00  0.00    +0.000 H 
ATOM    147  H42 UNL A   1      14.121  47.449   2.589  1.00  0.00    +0.000 H 
ATOM     39  C28 UNL A   1      14.045  50.026   3.806  1.00  0.00    +0.000 C 
ATOM     40  C29 UNL A   1      14.748  49.628   2.539  1.00  0.00    +0.000 C 
ATOM     41  N3  UNL A   1      15.465  50.360   1.724  1.00  0.00    +0.000 N 
ATOM     42  C30 UNL A   1      15.914  49.495   0.737  1.00  0.00    +0.000 C 
ATOM     43  C31 UNL A   1      16.630  49.784  -0.376  1.00  0.00    +0.000 C 
ATOM     55  C38 UNL A   1      17.077  51.107  -0.724  1.00  0.00    +0.000 C 
ATOM     56  C39 UNL A   1      17.763  51.516  -1.853  1.00  0.00    +0.000 C 
ATOM     57  C40 UNL A   1      18.043  52.880  -1.723  1.00  0.00    +0.000 C 
ATOM     58  C41 UNL A   1      17.472  53.337  -0.545  1.00  0.00    +0.000 C 
ATOM     59  N4  UNL A   1      16.889  52.236   0.061  1.00  0.00    +0.000 N 
ATOM     60  C42 UNL A   1      17.459  54.677  -0.014  1.00  0.00    +0.000 C 
ATOM     72  C49 UNL A   1      16.869  55.048   1.149  1.00  0.00    +0.000 C 
ATOM     73  N5  UNL A   1      16.165  54.273   2.059  1.00  0.00    +0.000 N 
ATOM     74  C50 UNL A   1      15.805  55.083   3.024  1.00  0.00    +0.000 C 
ATOM     75  C51 UNL A   1      14.992  54.794   4.257  1.00  0.00    +0.000 C 
ATOM     87  C58 UNL A   1      14.534  53.545   4.457  1.00  0.00    +0.000 C 
ATOM     88  C59 UNL A   1      13.726  53.108   5.592  1.00  0.00    +0.000 C 
ATOM     89  C60 UNL A   1      13.494  51.791   5.483  1.00  0.00    +0.000 C 
ATOM     90  C61 UNL A   1      14.099  51.299   4.245  1.00  0.00    +0.000 C 
ATOM     91  N6  UNL A   1      14.696  52.409   3.702  1.00  0.00    +0.000 N 
ATOM     92  C62 UNL A   1      16.272  56.466   2.850  1.00  0.00    +0.000 C 
ATOM     93  C63 UNL A   1      16.873  56.400   1.670  1.00  0.00    +0.000 C 
ATOM     94  C64 UNL A   1      15.447  48.172   1.085  1.00  0.00    +0.000 C 
ATOM     95  C65 UNL A   1      14.658  48.212   2.149  1.00  0.00    +0.000 C 
ENDROOT
BRANCH   39   38
ATOM     97  C67 UNL A   1      13.391  47.082   6.073  1.00  0.00    +0.000 C 
ATOM     35  C24 UNL A   1      11.996  47.110   6.158  1.00  0.00    +0.000 C 
ATOM     36  C25 UNL A   1      11.256  48.034   5.420  1.00  0.00    +0.000 C 
ATOM     37  C26 UNL A   1      11.921  48.965   4.625  1.00  0.00    +0.000 C 
ATOM     38  C27 UNL A   1      13.326  49.007   4.606  1.00  0.00    +0.000 C 
ATOM    136  H31 UNL A   1      10.225  48.028   5.462  1.00  0.00    +0.000 H 
ATOM    137  H32 UNL A   1      11.380  49.628   4.048  1.00  0.00    +0.000 H 
ATOM    148  H43 UNL A   1      15.086  48.096   5.349  1.00  0.00    +0.000 H 
ATOM    149  H44 UNL A   1      13.924  46.337   6.547  1.00  0.00    +0.000 H 
ATOM     96  C66 UNL A   1      14.055  48.063   5.346  1.00  0.00    +0.000 C 
BRANCH   35   33
ATOM     33  C23 UNL A   1      11.275  46.190   7.061  1.00  0.00    +0.000 C 
ATOM     34  O9  UNL A   1      10.601  45.277   6.600  1.00  0.00    +0.000 O 
BRANCH   33   32
ATOM    135  H30 UNL A   1      10.615  46.934   8.802  1.00  0.00    +0.000 H 
ATOM     32  N2  UNL A   1      11.345  46.400   8.412  1.00  0.00    +0.000 N 
BRANCH   32   31
ATOM    133  H28 UNL A   1      11.866  45.552  10.214  1.00  0.00    +0.000 H 
ATOM    134  H29 UNL A   1      12.933  45.187   8.847  1.00  0.00    +0.000 H 
ATOM     31  C22 UNL A   1      12.356  45.938   9.344  1.00  0.00    +0.000 C 
BRANCH   31   30
ATOM    131  H26 UNL A   1      12.843  47.983   9.583  1.00  0.00    +0.000 H 
ATOM    132  H27 UNL A   1      13.517  46.872  10.811  1.00  0.00    +0.000 H 
ATOM     30  C21 UNL A   1      13.313  47.040   9.775  1.00  0.00    +0.000 C 
BRANCH   30   29
ATOM    129  H24 UNL A   1      14.972  46.013   8.947  1.00  0.00    +0.000 H 
ATOM    130  H25 UNL A   1      14.514  47.552   8.142  1.00  0.00    +0.000 H 
ATOM     29  C20 UNL A   1      14.668  47.033   9.065  1.00  0.00    +0.000 C 
BRANCH   29   28
ATOM     28  C19 UNL A   1      15.802  47.781   9.777  1.00  0.00    +0.000 C 
ATOM    127  H22 UNL A   1      15.368  48.362  10.564  1.00  0.00    +0.000 H 
ATOM    128  H23 UNL A   1      16.480  47.027  10.117  1.00  0.00    +0.000 H 
BRANCH   28   27
ATOM     27  C18 UNL A   1      16.630  48.722   8.901  1.00  0.00    +0.000 C 
ATOM    125  H20 UNL A   1      17.196  49.369   9.539  1.00  0.00    +0.000 H 
ATOM    126  H21 UNL A   1      17.256  48.109   8.286  1.00  0.00    +0.000 H 
BRANCH   27   26
ATOM     26  C17 UNL A   1      15.798  49.579   7.970  1.00  0.00    +0.000 C 
ATOM    123  H18 UNL A   1      16.429  49.964   7.197  1.00  0.00    +0.000 H 
ATOM    124  H19 UNL A   1      15.020  48.967   7.564  1.00  0.00    +0.000 H 
BRANCH   26   25
ATOM     25  N1  UNL A   1      15.180  50.686   8.664  1.00  0.00    +0.000 N 
ATOM    122  H17 UNL A   1      15.720  51.494   8.816  1.00  0.00    +0.000 H 
BRANCH   25   23
ATOM     23  C16 UNL A   1      13.894  50.683   9.121  1.00  0.00    +0.000 C 
ATOM     24  O8  UNL A   1      12.984  50.235   8.443  1.00  0.00    +0.000 O 
BRANCH   23   22
ATOM      2  C2  UNL A   1       9.004  52.430  12.386  1.00  0.00    +0.000 C 
ATOM      3  C3  UNL A   1       8.815  53.413  13.482  1.00  0.00    +0.000 C 
ATOM      4  O1  UNL A   1       7.773  53.911  13.840  1.00  0.00    +0.000 O 
ATOM      5  O2  UNL A   1      10.061  53.685  13.962  1.00  0.00    +0.000 O 
ATOM      6  C4  UNL A   1      11.071  52.986  13.186  1.00  0.00    +0.000 C 
ATOM      7  C5  UNL A   1      10.375  52.696  11.862  1.00  0.00    +0.000 C 
ATOM      8  C6  UNL A   1      11.025  51.758  10.834  1.00  0.00    +0.000 C 
ATOM     17  C12 UNL A   1      12.483  52.246  10.461  1.00  0.00    +0.000 C 
ATOM     22  C15 UNL A   1      13.673  51.295  10.480  1.00  0.00    +0.000 C 
ATOM    150  H45 UNL A   1      15.077  49.981  10.932  1.00  0.00    +0.000 H 
ATOM    152  H47 UNL A   1      14.653  51.429  14.985  1.00  0.00    +0.000 H 
ATOM    151  H46 UNL A   1      15.865  50.396  12.416  1.00  0.00    +0.000 H 
ATOM    156  H51 UNL A   1      10.683  51.292  13.703  1.00  0.00    +0.000 H 
ATOM     98  C68 UNL A   1      14.618  50.821  11.317  1.00  0.00    +0.000 C 
ATOM     99  C69 UNL A   1      15.164  51.178  12.624  1.00  0.00    +0.000 C 
ATOM    100  O10 UNL A   1      15.059  52.534  13.034  1.00  0.00    +0.000 O 
ATOM    101  C70 UNL A   1      14.524  51.580  13.934  1.00  0.00    +0.000 C 
ATOM    102  C71 UNL A   1      13.038  51.260  14.108  1.00  0.00    +0.000 C 
ATOM    104  O11 UNL A   1      12.434  52.185  15.038  1.00  0.00    +0.000 O 
ATOM    105  C73 UNL A   1      11.581  51.815  13.958  1.00  0.00    +0.000 C 
ATOM    108  H3  UNL A   1      11.968  53.533  12.982  1.00  0.00    +0.000 H 
ATOM    109  H4  UNL A   1      10.425  53.484  11.139  1.00  0.00    +0.000 H 
ATOM    110  H5  UNL A   1      10.453  51.812   9.931  1.00  0.00    +0.000 H 
ATOM    118  H13 UNL A   1      12.717  51.849   9.495  1.00  0.00    +0.000 H 
BRANCH    2    1
ATOM      1  C1  UNL A   1       8.087  51.490  12.143  1.00  0.00    +0.000 C 
ATOM    106  H1  UNL A   1       8.356  50.493  12.146  1.00  0.00    +0.000 H 
ATOM    107  H2  UNL A   1       7.110  51.760  11.950  1.00  0.00    +0.000 H 
ENDBRANCH    2    1
BRANCH    8    9
ATOM      9  O3  UNL A   1      10.954  50.372  11.226  1.00  0.00    +0.000 O 
BRANCH    9   10
ATOM     10  C7  UNL A   1      10.233  49.392  10.568  1.00  0.00    +0.000 C 
ATOM     11  O4  UNL A   1      10.341  49.333   9.345  1.00  0.00    +0.000 O 
BRANCH   10   12
ATOM    114  H9  UNL A   1      10.324  46.168  12.392  1.00  0.00    +0.000 H 
ATOM     12  C8  UNL A   1       9.697  48.179  11.320  1.00  0.00    +0.000 C 
ATOM     14  O5  UNL A   1       9.735  48.439  12.752  1.00  0.00    +0.000 O 
ATOM     15  C10 UNL A   1      10.369  47.237  12.354  1.00  0.00    +0.000 C 
BRANCH   12   13
ATOM    113  H8  UNL A   1       8.106  46.763  11.212  1.00  0.00    +0.000 H 
ATOM     13  C9  UNL A   1       8.272  47.788  10.954  1.00  0.00    +0.000 C 
ATOM    111  H6  UNL A   1       8.127  47.919   9.901  1.00  0.00    +0.000 H 
ATOM    112  H7  UNL A   1       7.582  48.407  11.489  1.00  0.00    +0.000 H 
ENDBRANCH   12   13
BRANCH   15   16
ATOM    115  H10 UNL A   1      12.251  46.315  12.385  1.00  0.00    +0.000 H 
ATOM    116  H11 UNL A   1      11.755  47.007  13.911  1.00  0.00    +0.000 H 
ATOM    117  H12 UNL A   1      12.285  48.047  12.610  1.00  0.00    +0.000 H 
ATOM     16  C11 UNL A   1      11.761  47.145  12.850  1.00  0.00    +0.000 C 
ENDBRANCH   15   16
ENDBRANCH   10   12
ENDBRANCH    9   10
ENDBRANCH    8    9
BRANCH   17   18
ATOM     18  O6  UNL A   1      12.644  53.710  10.290  1.00  0.00    +0.000 O 
BRANCH   18   19
ATOM     19  C13 UNL A   1      13.153  54.661   9.503  1.00  0.00    +0.000 C 
ATOM     21  O7  UNL A   1      12.493  55.675   9.282  1.00  0.00    +0.000 O 
BRANCH   19   20
ATOM    121  H16 UNL A   1      15.181  54.181   9.689  1.00  0.00    +0.000 H 
ATOM     20  C14 UNL A   1      14.513  54.549   8.939  1.00  0.00    +0.000 C 
ATOM    119  H14 UNL A   1      14.843  55.511   8.609  1.00  0.00    +0.000 H 
ATOM    120  H15 UNL A   1      14.500  53.872   8.110  1.00  0.00    +0.000 H 
ENDBRANCH   19   20
ENDBRANCH   18   19
ENDBRANCH   17   18
BRANCH  102  103
ATOM    153  H48 UNL A   1      13.954  49.392  14.598  1.00  0.00    +0.000 H 
ATOM    154  H49 UNL A   1      12.311  49.251  14.021  1.00  0.00    +0.000 H 
ATOM    155  H50 UNL A   1      12.622  49.828  15.641  1.00  0.00    +0.000 H 
ATOM    103  C72 UNL A   1      12.977  49.824  14.631  1.00  0.00    +0.000 C 
ENDBRANCH  102  103
ENDBRANCH   23   22
ENDBRANCH   25   23
ENDBRANCH   26   25
ENDBRANCH   27   26
ENDBRANCH   28   27
ENDBRANCH   29   28
ENDBRANCH   30   29
ENDBRANCH   31   30
ENDBRANCH   32   31
ENDBRANCH   33   32
ENDBRANCH   35   33
ENDBRANCH   39   38
BRANCH   43   44
ATOM     44  C32 UNL A   1      16.977  48.647  -1.297  1.00  0.00    +0.000 C 
ATOM     45  C33 UNL A   1      16.248  48.398  -2.470  1.00  0.00    +0.000 C 
ATOM     46  F1  UNL A   1      15.183  49.155  -2.778  1.00  0.00    +0.000 F 
ATOM     47  C34 UNL A   1      16.582  47.340  -3.311  1.00  0.00    +0.000 C 
ATOM     48  F2  UNL A   1      15.837  47.088  -4.397  1.00  0.00    +0.000 F 
ATOM     49  C35 UNL A   1      17.675  46.538  -3.021  1.00  0.00    +0.000 C 
ATOM     50  F3  UNL A   1      18.001  45.526  -3.837  1.00  0.00    +0.000 F 
ATOM     51  C36 UNL A   1      18.425  46.781  -1.881  1.00  0.00    +0.000 C 
ATOM     52  F4  UNL A   1      19.491  46.017  -1.607  1.00  0.00    +0.000 F 
ATOM     53  C37 UNL A   1      18.072  47.816  -1.018  1.00  0.00    +0.000 C 
ATOM     54  F5  UNL A   1      18.806  48.010   0.087  1.00  0.00    +0.000 F 
ENDBRANCH   43   44
BRANCH   60   61
ATOM     65  F7  UNL A   1      17.395  58.115  -3.511  1.00  0.00    +0.000 F 
ATOM     66  C46 UNL A   1      19.384  57.803  -2.277  1.00  0.00    +0.000 C 
ATOM     67  F8  UNL A   1      19.988  58.774  -2.977  1.00  0.00    +0.000 F 
ATOM     68  C47 UNL A   1      20.083  57.119  -1.294  1.00  0.00    +0.000 C 
ATOM     69  F9  UNL A   1      21.355  57.446  -1.026  1.00  0.00    +0.000 F 
ATOM     70  C48 UNL A   1      19.465  56.093  -0.585  1.00  0.00    +0.000 C 
ATOM     71  F10 UNL A   1      20.172  55.440   0.348  1.00  0.00    +0.000 F 
ATOM     61  C43 UNL A   1      18.124  55.753  -0.825  1.00  0.00    +0.000 C 
ATOM     62  C44 UNL A   1      17.430  56.475  -1.807  1.00  0.00    +0.000 C 
ATOM     63  F6  UNL A   1      16.151  56.181  -2.084  1.00  0.00    +0.000 F 
ATOM     64  C45 UNL A   1      18.062  57.476  -2.540  1.00  0.00    +0.000 C 
ENDBRANCH   60   61
BRANCH   75   76
ATOM     76  C52 UNL A   1      14.678  55.869   5.236  1.00  0.00    +0.000 C 
ATOM     77  C53 UNL A   1      13.380  56.386   5.351  1.00  0.00    +0.000 C 
ATOM     78  F11 UNL A   1      12.401  55.915   4.563  1.00  0.00    +0.000 F 
ATOM     79  C54 UNL A   1      13.090  57.418   6.240  1.00  0.00    +0.000 C 
ATOM     80  F12 UNL A   1      11.852  57.929   6.289  1.00  0.00    +0.000 F 
ATOM     81  C55 UNL A   1      14.084  57.929   7.060  1.00  0.00    +0.000 C 
ATOM     82  F13 UNL A   1      13.805  58.920   7.917  1.00  0.00    +0.000 F 
ATOM     83  C56 UNL A   1      15.370  57.418   6.984  1.00  0.00    +0.000 C 
ATOM     84  F14 UNL A   1      16.331  57.897   7.785  1.00  0.00    +0.000 F 
ATOM     85  C57 UNL A   1      15.669  56.409   6.071  1.00  0.00    +0.000 C 
ATOM     86  F15 UNL A   1      16.926  55.947   6.006  1.00  0.00    +0.000 F 
ENDBRANCH   75   76
TORSDOF 25
ENDMDL
MODEL 4
REMARK VINA RESULT:      -7.9     34.405     38.780
ROOT
ATOM    138  H33 UNL A   1      51.064  56.152  19.107  1.00  0.00    +0.000 H 
ATOM    139  H34 UNL A   1      52.781  55.365  20.903  1.00  0.00    +0.000 H 
ATOM    140  H35 UNL A   1      50.063  52.307  20.276  1.00  0.00    +0.000 H 
ATOM    141  H36 UNL A   1      47.768  46.562  21.866  1.00  0.00    +0.000 H 
ATOM    142  H37 UNL A   1      46.188  47.279  20.011  1.00  0.00    +0.000 H 
ATOM    143  H38 UNL A   1      48.937  50.342  20.592  1.00  0.00    +0.000 H 
ATOM    144  H39 UNL A   1      52.139  48.705  24.090  1.00  0.00    +0.000 H 
ATOM    145  H40 UNL A   1      53.251  51.004  23.957  1.00  0.00    +0.000 H 
ATOM    146  H41 UNL A   1      47.030  53.698  16.546  1.00  0.00    +0.000 H 
ATOM    147  H42 UNL A   1      45.587  51.636  17.020  1.00  0.00    +0.000 H 
ATOM     39  C28 UNL A   1      46.704  49.883  18.971  1.00  0.00    +0.000 C 
ATOM     40  C29 UNL A   1      47.209  51.235  18.553  1.00  0.00    +0.000 C 
ATOM     41  N3  UNL A   1      48.252  51.899  18.985  1.00  0.00    +0.000 N 
ATOM     42  C30 UNL A   1      48.286  53.070  18.241  1.00  0.00    +0.000 C 
ATOM     43  C31 UNL A   1      49.131  54.121  18.363  1.00  0.00    +0.000 C 
ATOM     55  C38 UNL A   1      50.196  54.190  19.327  1.00  0.00    +0.000 C 
ATOM     56  C39 UNL A   1      51.075  55.230  19.569  1.00  0.00    +0.000 C 
ATOM     57  C40 UNL A   1      51.981  54.816  20.551  1.00  0.00    +0.000 C 
ATOM     58  C41 UNL A   1      51.626  53.544  20.970  1.00  0.00    +0.000 C 
ATOM     59  N4  UNL A   1      50.532  53.170  20.206  1.00  0.00    +0.000 N 
ATOM     60  C42 UNL A   1      52.237  52.733  21.993  1.00  0.00    +0.000 C 
ATOM     72  C49 UNL A   1      51.824  51.493  22.355  1.00  0.00    +0.000 C 
ATOM     73  N5  UNL A   1      50.764  50.746  21.860  1.00  0.00    +0.000 N 
ATOM     74  C50 UNL A   1      50.782  49.613  22.518  1.00  0.00    +0.000 C 
ATOM     75  C51 UNL A   1      49.844  48.439  22.419  1.00  0.00    +0.000 C 
ATOM     87  C58 UNL A   1      48.815  48.498  21.553  1.00  0.00    +0.000 C 
ATOM     88  C59 UNL A   1      47.817  47.454  21.348  1.00  0.00    +0.000 C 
ATOM     89  C60 UNL A   1      46.974  47.839  20.378  1.00  0.00    +0.000 C 
ATOM     90  C61 UNL A   1      47.347  49.179  19.923  1.00  0.00    +0.000 C 
ATOM     91  N6  UNL A   1      48.451  49.490  20.675  1.00  0.00    +0.000 N 
ATOM     92  C62 UNL A   1      51.881  49.500  23.487  1.00  0.00    +0.000 C 
ATOM     93  C63 UNL A   1      52.455  50.690  23.381  1.00  0.00    +0.000 C 
ATOM     94  C64 UNL A   1      47.203  53.000  17.286  1.00  0.00    +0.000 C 
ATOM     95  C65 UNL A   1      46.461  51.921  17.488  1.00  0.00    +0.000 C 
ENDROOT
BRANCH   39   38
ATOM     97  C67 UNL A   1      43.117  49.010  18.187  1.00  0.00    +0.000 C 
ATOM     35  C24 UNL A   1      43.272  48.239  17.031  1.00  0.00    +0.000 C 
ATOM     36  C25 UNL A   1      44.544  47.935  16.544  1.00  0.00    +0.000 C 
ATOM     37  C26 UNL A   1      45.666  48.442  17.195  1.00  0.00    +0.000 C 
ATOM     38  C27 UNL A   1      45.519  49.295  18.302  1.00  0.00    +0.000 C 
ATOM    136  H31 UNL A   1      44.651  47.339  15.709  1.00  0.00    +0.000 H 
ATOM    137  H32 UNL A   1      46.610  48.191  16.862  1.00  0.00    +0.000 H 
ATOM    148  H43 UNL A   1      44.116  50.219  19.590  1.00  0.00    +0.000 H 
ATOM    149  H44 UNL A   1      42.180  49.151  18.595  1.00  0.00    +0.000 H 
ATOM     96  C66 UNL A   1      44.233  49.582  18.787  1.00  0.00    +0.000 C 
BRANCH   35   33
ATOM     33  C23 UNL A   1      42.096  47.765  16.277  1.00  0.00    +0.000 C 
ATOM     34  O9  UNL A   1      41.309  48.569  15.790  1.00  0.00    +0.000 O 
BRANCH   33   32
ATOM    135  H30 UNL A   1      41.859  46.061  15.246  1.00  0.00    +0.000 H 
ATOM     32  N2  UNL A   1      41.881  46.417  16.164  1.00  0.00    +0.000 N 
BRANCH   32   31
ATOM    133  H28 UNL A   1      41.696  45.958  18.162  1.00  0.00    +0.000 H 
ATOM    134  H29 UNL A   1      40.742  44.966  17.046  1.00  0.00    +0.000 H 
ATOM     31  C22 UNL A   1      41.682  45.445  17.222  1.00  0.00    +0.000 C 
BRANCH   31   30
ATOM    131  H26 UNL A   1      42.301  43.457  17.591  1.00  0.00    +0.000 H 
ATOM    132  H27 UNL A   1      43.125  44.292  16.242  1.00  0.00    +0.000 H 
ATOM     30  C21 UNL A   1      42.752  44.363  17.242  1.00  0.00    +0.000 C 
BRANCH   30   29
ATOM    129  H24 UNL A   1      44.779  44.068  17.786  1.00  0.00    +0.000 H 
ATOM    130  H25 UNL A   1      44.124  45.720  18.048  1.00  0.00    +0.000 H 
ATOM     29  C20 UNL A   1      43.960  44.665  18.130  1.00  0.00    +0.000 C 
BRANCH   29   28
ATOM     28  C19 UNL A   1      43.776  44.391  19.628  1.00  0.00    +0.000 C 
ATOM    127  H22 UNL A   1      42.881  44.884  19.945  1.00  0.00    +0.000 H 
ATOM    128  H23 UNL A   1      43.744  43.326  19.727  1.00  0.00    +0.000 H 
BRANCH   28   27
ATOM     27  C18 UNL A   1      44.916  44.859  20.535  1.00  0.00    +0.000 C 
ATOM    125  H20 UNL A   1      45.620  45.403  19.940  1.00  0.00    +0.000 H 
ATOM    126  H21 UNL A   1      44.478  45.464  21.302  1.00  0.00    +0.000 H 
BRANCH   27   26
ATOM     26  C17 UNL A   1      45.647  43.728  21.227  1.00  0.00    +0.000 C 
ATOM    123  H18 UNL A   1      44.937  42.983  21.517  1.00  0.00    +0.000 H 
ATOM    124  H19 UNL A   1      46.365  43.330  20.540  1.00  0.00    +0.000 H 
BRANCH   26   25
ATOM     25  N1  UNL A   1      46.356  44.182  22.401  1.00  0.00    +0.000 N 
ATOM    122  H17 UNL A   1      46.490  45.150  22.512  1.00  0.00    +0.000 H 
BRANCH   25   23
ATOM     23  C16 UNL A   1      46.849  43.355  23.368  1.00  0.00    +0.000 C 
ATOM     24  O8  UNL A   1      47.783  42.603  23.139  1.00  0.00    +0.000 O 
BRANCH   23   22
ATOM      2  C2  UNL A   1      44.148  39.252  27.040  1.00  0.00    +0.000 C 
ATOM      3  C3  UNL A   1      43.100  39.362  28.086  1.00  0.00    +0.000 C 
ATOM      4  O1  UNL A   1      42.415  38.468  28.526  1.00  0.00    +0.000 O 
ATOM      5  O2  UNL A   1      43.026  40.685  28.406  1.00  0.00    +0.000 O 
ATOM      6  C4  UNL A   1      43.921  41.463  27.568  1.00  0.00    +0.000 C 
ATOM      7  C5  UNL A   1      44.144  40.575  26.351  1.00  0.00    +0.000 C 
ATOM      8  C6  UNL A   1      45.223  40.932  25.318  1.00  0.00    +0.000 C 
ATOM     17  C12 UNL A   1      45.010  42.395  24.755  1.00  0.00    +0.000 C 
ATOM     22  C15 UNL A   1      46.150  43.403  24.701  1.00  0.00    +0.000 C 
ATOM    150  H45 UNL A   1      47.666  44.614  25.076  1.00  0.00    +0.000 H 
ATOM    152  H47 UNL A   1      45.993  44.927  29.052  1.00  0.00    +0.000 H 
ATOM    151  H46 UNL A   1      47.329  45.633  26.434  1.00  0.00    +0.000 H 
ATOM    156  H51 UNL A   1      45.499  40.865  28.231  1.00  0.00    +0.000 H 
ATOM     98  C68 UNL A   1      46.744  44.351  25.456  1.00  0.00    +0.000 C 
ATOM     99  C69 UNL A   1      46.430  45.102  26.669  1.00  0.00    +0.000 C 
ATOM    100  O10 UNL A   1      45.059  45.273  27.003  1.00  0.00    +0.000 O 
ATOM    101  C70 UNL A   1      45.867  44.700  28.014  1.00  0.00    +0.000 C 
ATOM    102  C71 UNL A   1      45.919  43.213  28.372  1.00  0.00    +0.000 C 
ATOM    104  O11 UNL A   1      44.864  42.887  29.304  1.00  0.00    +0.000 O 
ATOM    105  C73 UNL A   1      45.128  41.861  28.351  1.00  0.00    +0.000 C 
ATOM    108  H3  UNL A   1      43.546  42.408  27.232  1.00  0.00    +0.000 H 
ATOM    109  H4  UNL A   1      43.408  40.667  25.579  1.00  0.00    +0.000 H 
ATOM    110  H5  UNL A   1      45.110  40.271  24.483  1.00  0.00    +0.000 H 
ATOM    118  H13 UNL A   1      45.483  42.441  23.796  1.00  0.00    +0.000 H 
BRANCH    2    1
ATOM      1  C1  UNL A   1      44.925  38.169  26.960  1.00  0.00    +0.000 C 
ATOM    106  H1  UNL A   1      45.571  38.055  26.163  1.00  0.00    +0.000 H 
ATOM    107  H2  UNL A   1      44.878  37.445  27.693  1.00  0.00    +0.000 H 
ENDBRANCH    2    1
BRANCH    8    9
ATOM      9  O3  UNL A   1      46.558  40.679  25.802  1.00  0.00    +0.000 O 
BRANCH    9   10
ATOM     10  C7  UNL A   1      47.468  39.813  25.222  1.00  0.00    +0.000 C 
ATOM     11  O4  UNL A   1      47.307  39.534  24.036  1.00  0.00    +0.000 O 
BRANCH   10   12
ATOM    114  H9  UNL A   1      49.931  38.543  27.680  1.00  0.00    +0.000 H 
ATOM     12  C8  UNL A   1      48.832  39.572  25.858  1.00  0.00    +0.000 C 
ATOM     14  O5  UNL A   1      49.371  38.306  25.386  1.00  0.00    +0.000 O 
ATOM     15  C10 UNL A   1      49.338  38.442  26.795  1.00  0.00    +0.000 C 
BRANCH   12   13
ATOM    113  H8  UNL A   1      50.603  40.655  26.346  1.00  0.00    +0.000 H 
ATOM     13  C9  UNL A   1      49.862  40.655  25.574  1.00  0.00    +0.000 C 
ATOM    111  H6  UNL A   1      49.377  41.609  25.545  1.00  0.00    +0.000 H 
ATOM    112  H7  UNL A   1      50.330  40.465  24.630  1.00  0.00    +0.000 H 
ENDBRANCH   12   13
BRANCH   15   16
ATOM    115  H10 UNL A   1      49.339  36.749  28.030  1.00  0.00    +0.000 H 
ATOM    116  H11 UNL A   1      48.198  36.685  26.709  1.00  0.00    +0.000 H 
ATOM    117  H12 UNL A   1      47.874  37.697  28.096  1.00  0.00    +0.000 H 
ATOM     16  C11 UNL A   1      48.638  37.315  27.453  1.00  0.00    +0.000 C 
ENDBRANCH   15   16
ENDBRANCH   10   12
ENDBRANCH    9   10
ENDBRANCH    8    9
BRANCH   17   18
ATOM     18  O6  UNL A   1      43.605  42.775  24.476  1.00  0.00    +0.000 O 
BRANCH   18   19
ATOM     19  C13 UNL A   1      42.806  43.436  23.634  1.00  0.00    +0.000 C 
ATOM     21  O7  UNL A   1      42.990  44.638  23.449  1.00  0.00    +0.000 O 
BRANCH   19   20
ATOM    121  H16 UNL A   1      41.020  43.458  22.545  1.00  0.00    +0.000 H 
ATOM     20  C14 UNL A   1      41.745  42.744  22.876  1.00  0.00    +0.000 C 
ATOM    119  H14 UNL A   1      41.271  42.020  23.505  1.00  0.00    +0.000 H 
ATOM    120  H15 UNL A   1      42.175  42.253  22.027  1.00  0.00    +0.000 H 
ENDBRANCH   19   20
ENDBRANCH   18   19
ENDBRANCH   17   18
BRANCH  102  103
ATOM    153  H48 UNL A   1      47.873  42.345  28.344  1.00  0.00    +0.000 H 
ATOM    154  H49 UNL A   1      47.188  42.510  29.943  1.00  0.00    +0.000 H 
ATOM    155  H50 UNL A   1      47.800  43.916  29.106  1.00  0.00    +0.000 H 
ATOM    103  C72 UNL A   1      47.299  42.978  28.988  1.00  0.00    +0.000 C 
ENDBRANCH  102  103
ENDBRANCH   23   22
ENDBRANCH   25   23
ENDBRANCH   26   25
ENDBRANCH   27   26
ENDBRANCH   28   27
ENDBRANCH   29   28
ENDBRANCH   30   29
ENDBRANCH   31   30
ENDBRANCH   32   31
ENDBRANCH   33   32
ENDBRANCH   35   33
ENDBRANCH   39   38
BRANCH   43   44
ATOM     44  C32 UNL A   1      48.938  55.282  17.428  1.00  0.00    +0.000 C 
ATOM     45  C33 UNL A   1      48.428  56.513  17.871  1.00  0.00    +0.000 C 
ATOM     46  F1  UNL A   1      48.056  56.668  19.152  1.00  0.00    +0.000 F 
ATOM     47  C34 UNL A   1      48.254  57.577  16.991  1.00  0.00    +0.000 C 
ATOM     48  F2  UNL A   1      47.714  58.724  17.427  1.00  0.00    +0.000 F 
ATOM     49  C35 UNL A   1      48.627  57.449  15.662  1.00  0.00    +0.000 C 
ATOM     50  F3  UNL A   1      48.469  58.479  14.818  1.00  0.00    +0.000 F 
ATOM     51  C36 UNL A   1      49.156  56.253  15.206  1.00  0.00    +0.000 C 
ATOM     52  F4  UNL A   1      49.531  56.132  13.926  1.00  0.00    +0.000 F 
ATOM     53  C37 UNL A   1      49.297  55.174  16.076  1.00  0.00    +0.000 C 
ATOM     54  F5  UNL A   1      49.793  54.022  15.597  1.00  0.00    +0.000 F 
ENDBRANCH   43   44
BRANCH   60   61
ATOM     65  F7  UNL A   1      57.031  53.640  22.493  1.00  0.00    +0.000 F 
ATOM     66  C46 UNL A   1      55.552  54.474  24.133  1.00  0.00    +0.000 C 
ATOM     67  F8  UNL A   1      56.578  55.019  24.803  1.00  0.00    +0.000 F 
ATOM     68  C47 UNL A   1      54.261  54.595  24.624  1.00  0.00    +0.000 C 
ATOM     69  F9  UNL A   1      54.035  55.278  25.755  1.00  0.00    +0.000 F 
ATOM     70  C48 UNL A   1      53.198  54.008  23.944  1.00  0.00    +0.000 C 
ATOM     71  F10 UNL A   1      51.963  54.129  24.453  1.00  0.00    +0.000 F 
ATOM     61  C43 UNL A   1      53.404  53.316  22.740  1.00  0.00    +0.000 C 
ATOM     62  C44 UNL A   1      54.715  53.227  22.250  1.00  0.00    +0.000 C 
ATOM     63  F6  UNL A   1      54.967  52.565  21.111  1.00  0.00    +0.000 F 
ATOM     64  C45 UNL A   1      55.781  53.784  22.952  1.00  0.00    +0.000 C 
ENDBRANCH   60   61
BRANCH   75   76
ATOM     76  C52 UNL A   1      50.030  47.237  23.274  1.00  0.00    +0.000 C 
ATOM     77  C53 UNL A   1      50.529  46.040  22.741  1.00  0.00    +0.000 C 
ATOM     78  F11 UNL A   1      50.838  45.967  21.437  1.00  0.00    +0.000 F 
ATOM     79  C54 UNL A   1      50.670  44.901  23.531  1.00  0.00    +0.000 C 
ATOM     80  F12 UNL A   1      51.098  43.757  22.982  1.00  0.00    +0.000 F 
ATOM     81  C55 UNL A   1      50.351  44.946  24.879  1.00  0.00    +0.000 C 
ATOM     82  F13 UNL A   1      50.488  43.852  25.639  1.00  0.00    +0.000 F 
ATOM     83  C56 UNL A   1      49.878  46.124  25.436  1.00  0.00    +0.000 C 
ATOM     84  F14 UNL A   1      49.582  46.178  26.742  1.00  0.00    +0.000 F 
ATOM     85  C57 UNL A   1      49.705  47.254  24.640  1.00  0.00    +0.000 C 
ATOM     86  F15 UNL A   1      49.229  48.375  25.202  1.00  0.00    +0.000 F 
ENDBRANCH   75   76
TORSDOF 25
ENDMDL
MODEL 5
REMARK VINA RESULT:      -7.9      2.801      8.328
ROOT
ATOM    138  H33 UNL A   1      18.783  53.231  -1.234  1.00  0.00    +0.000 H 
ATOM    139  H34 UNL A   1      18.277  50.726  -1.744  1.00  0.00    +0.000 H 
ATOM    140  H35 UNL A   1      15.852  51.931   1.387  1.00  0.00    +0.000 H 
ATOM    141  H36 UNL A   1      11.596  50.496   5.928  1.00  0.00    +0.000 H 
ATOM    142  H37 UNL A   1      11.988  52.974   6.322  1.00  0.00    +0.000 H 
ATOM    143  H38 UNL A   1      14.396  51.796   3.145  1.00  0.00    +0.000 H 
ATOM    144  H39 UNL A   1      13.344  46.962   2.310  1.00  0.00    +0.000 H 
ATOM    145  H40 UNL A   1      15.171  47.012   0.521  1.00  0.00    +0.000 H 
ATOM    146  H41 UNL A   1      16.564  56.837   2.073  1.00  0.00    +0.000 H 
ATOM    147  H42 UNL A   1      15.140  56.694   4.196  1.00  0.00    +0.000 H 
ATOM     39  C28 UNL A   1      13.927  54.145   4.590  1.00  0.00    +0.000 C 
ATOM     40  C29 UNL A   1      14.922  54.536   3.534  1.00  0.00    +0.000 C 
ATOM     41  N3  UNL A   1      15.447  53.809   2.580  1.00  0.00    +0.000 N 
ATOM     42  C30 UNL A   1      16.271  54.665   1.864  1.00  0.00    +0.000 C 
ATOM     43  C31 UNL A   1      17.093  54.374   0.828  1.00  0.00    +0.000 C 
ATOM     55  C38 UNL A   1      17.242  53.059   0.264  1.00  0.00    +0.000 C 
ATOM     56  C39 UNL A   1      18.086  52.646  -0.751  1.00  0.00    +0.000 C 
ATOM     57  C40 UNL A   1      17.831  51.295  -1.007  1.00  0.00    +0.000 C 
ATOM     58  C41 UNL A   1      16.877  50.847  -0.107  1.00  0.00    +0.000 C 
ATOM     59  N4  UNL A   1      16.520  51.942   0.664  1.00  0.00    +0.000 N 
ATOM     60  C42 UNL A   1      16.335  49.520   0.042  1.00  0.00    +0.000 C 
ATOM     72  C49 UNL A   1      15.405  49.156   0.958  1.00  0.00    +0.000 C 
ATOM     73  N5  UNL A   1      14.786  49.930   1.931  1.00  0.00    +0.000 N 
ATOM     74  C50 UNL A   1      13.957  49.130   2.556  1.00  0.00    +0.000 C 
ATOM     75  C51 UNL A   1      13.051  49.421   3.722  1.00  0.00    +0.000 C 
ATOM     87  C58 UNL A   1      13.044  50.660   4.249  1.00  0.00    +0.000 C 
ATOM     88  C59 UNL A   1      12.234  51.096   5.382  1.00  0.00    +0.000 C 
ATOM     89  C60 UNL A   1      12.452  52.402   5.599  1.00  0.00    +0.000 C 
ATOM     90  C61 UNL A   1      13.453  52.885   4.647  1.00  0.00    +0.000 C 
ATOM     91  N6  UNL A   1      13.746  51.783   3.884  1.00  0.00    +0.000 N 
ATOM     92  C62 UNL A   1      13.933  47.760   2.027  1.00  0.00    +0.000 C 
ATOM     93  C63 UNL A   1      14.866  47.818   1.087  1.00  0.00    +0.000 C 
ATOM     94  C64 UNL A   1      16.129  55.980   2.448  1.00  0.00    +0.000 C 
ATOM     95  C65 UNL A   1      15.365  55.939   3.530  1.00  0.00    +0.000 C 
ENDROOT
BRANCH   39   38
ATOM     97  C67 UNL A   1      11.846  56.911   6.090  1.00  0.00    +0.000 C 
ATOM     35  C24 UNL A   1      12.432  57.038   7.353  1.00  0.00    +0.000 C 
ATOM     36  C25 UNL A   1      13.554  56.282   7.695  1.00  0.00    +0.000 C 
ATOM     37  C26 UNL A   1      14.064  55.362   6.782  1.00  0.00    +0.000 C 
ATOM     38  C27 UNL A   1      13.425  55.158   5.547  1.00  0.00    +0.000 C 
ATOM    136  H31 UNL A   1      14.002  56.404   8.617  1.00  0.00    +0.000 H 
ATOM    137  H32 UNL A   1      14.915  54.825   7.015  1.00  0.00    +0.000 H 
ATOM    148  H43 UNL A   1      11.822  55.782   4.315  1.00  0.00    +0.000 H 
ATOM    149  H44 UNL A   1      11.077  57.540   5.810  1.00  0.00    +0.000 H 
ATOM     96  C66 UNL A   1      12.305  55.935   5.214  1.00  0.00    +0.000 C 
BRANCH   35   33
ATOM     33  C23 UNL A   1      11.856  57.944   8.366  1.00  0.00    +0.000 C 
ATOM     34  O9  UNL A   1      12.590  58.603   9.092  1.00  0.00    +0.000 O 
BRANCH   33   32
ATOM    135  H30 UNL A   1       9.998  58.324   7.715  1.00  0.00    +0.000 H 
ATOM     32  N2  UNL A   1      10.495  58.003   8.503  1.00  0.00    +0.000 N 
BRANCH   32   31
ATOM    133  H28 UNL A   1       8.717  57.362   9.320  1.00  0.00    +0.000 H 
ATOM    134  H29 UNL A   1      10.188  56.858  10.169  1.00  0.00    +0.000 H 
ATOM     31  C22 UNL A   1       9.690  57.654   9.658  1.00  0.00    +0.000 C 
BRANCH   31   30
ATOM    131  H26 UNL A   1      10.062  59.651  10.249  1.00  0.00    +0.000 H 
ATOM    132  H27 UNL A   1       8.485  58.971  10.748  1.00  0.00    +0.000 H 
ATOM     30  C21 UNL A   1       9.537  58.805  10.642  1.00  0.00    +0.000 C 
BRANCH   30   29
ATOM    129  H24 UNL A   1      10.895  59.188  12.223  1.00  0.00    +0.000 H 
ATOM    130  H25 UNL A   1       9.242  58.678  12.708  1.00  0.00    +0.000 H 
ATOM     29  C20 UNL A   1      10.071  58.527  12.049  1.00  0.00    +0.000 C 
BRANCH   29   28
ATOM     28  C19 UNL A   1      10.554  57.095  12.311  1.00  0.00    +0.000 C 
ATOM    127  H22 UNL A   1       9.942  56.432  11.737  1.00  0.00    +0.000 H 
ATOM    128  H23 UNL A   1      11.588  57.081  12.035  1.00  0.00    +0.000 H 
BRANCH   28   27
ATOM     27  C18 UNL A   1      10.506  56.634  13.769  1.00  0.00    +0.000 C 
ATOM    125  H20 UNL A   1      10.491  57.501  14.398  1.00  0.00    +0.000 H 
ATOM    126  H21 UNL A   1       9.626  56.036  13.880  1.00  0.00    +0.000 H 
BRANCH   27   26
ATOM     26  C17 UNL A   1      11.683  55.772  14.174  1.00  0.00    +0.000 C 
ATOM    123  H18 UNL A   1      12.519  56.404  14.386  1.00  0.00    +0.000 H 
ATOM    124  H19 UNL A   1      11.397  55.207  15.037  1.00  0.00    +0.000 H 
BRANCH   26   25
ATOM     25  N1  UNL A   1      12.052  54.840  13.132  1.00  0.00    +0.000 N 
ATOM    122  H17 UNL A   1      11.767  55.041  12.212  1.00  0.00    +0.000 H 
BRANCH   25   23
ATOM     23  C16 UNL A   1      12.773  53.701  13.342  1.00  0.00    +0.000 C 
ATOM     24  O8  UNL A   1      13.990  53.728  13.422  1.00  0.00    +0.000 O 
BRANCH   23   22
ATOM      2  C2  UNL A   1      11.180  49.272   9.409  1.00  0.00    +0.000 C 
ATOM      3  C3  UNL A   1      10.063  48.294   9.381  1.00  0.00    +0.000 C 
ATOM      4  O1  UNL A   1       9.657  47.682   8.421  1.00  0.00    +0.000 O 
ATOM      5  O2  UNL A   1       9.552  48.271  10.644  1.00  0.00    +0.000 O 
ATOM      6  C4  UNL A   1      10.228  49.242  11.486  1.00  0.00    +0.000 C 
ATOM      7  C5  UNL A   1      10.822  50.232  10.493  1.00  0.00    +0.000 C 
ATOM      8  C6  UNL A   1      11.822  51.299  10.965  1.00  0.00    +0.000 C 
ATOM     17  C12 UNL A   1      11.212  52.170  12.137  1.00  0.00    +0.000 C 
ATOM     22  C15 UNL A   1      11.980  52.422  13.427  1.00  0.00    +0.000 C 
ATOM    150  H45 UNL A   1      13.002  52.293  15.113  1.00  0.00    +0.000 H 
ATOM    152  H47 UNL A   1      10.975  48.512  15.658  1.00  0.00    +0.000 H 
ATOM    151  H46 UNL A   1      12.247  51.197  16.218  1.00  0.00    +0.000 H 
ATOM    156  H51 UNL A   1      11.850  48.437  11.577  1.00  0.00    +0.000 H 
ATOM     98  C68 UNL A   1      12.179  51.881  14.647  1.00  0.00    +0.000 C 
ATOM     99  C69 UNL A   1      11.542  50.867  15.483  1.00  0.00    +0.000 C 
ATOM    100  O10 UNL A   1      10.163  50.604  15.264  1.00  0.00    +0.000 O 
ATOM    101  C70 UNL A   1      11.018  49.477  15.199  1.00  0.00    +0.000 C 
ATOM    102  C71 UNL A   1      11.501  48.803  13.912  1.00  0.00    +0.000 C 
ATOM    104  O11 UNL A   1      10.524  47.842  13.456  1.00  0.00    +0.000 O 
ATOM    105  C73 UNL A   1      11.177  48.544  12.402  1.00  0.00    +0.000 C 
ATOM    108  H3  UNL A   1       9.607  49.782  12.171  1.00  0.00    +0.000 H 
ATOM    109  H4  UNL A   1      10.165  51.019  10.185  1.00  0.00    +0.000 H 
ATOM    110  H5  UNL A   1      11.995  51.972  10.151  1.00  0.00    +0.000 H 
ATOM    118  H13 UNL A   1      11.728  53.108  12.140  1.00  0.00    +0.000 H 
BRANCH    2    1
ATOM      1  C1  UNL A   1      12.260  49.100   8.644  1.00  0.00    +0.000 C 
ATOM    106  H1  UNL A   1      13.123  49.630   8.843  1.00  0.00    +0.000 H 
ATOM    107  H2  UNL A   1      12.232  48.440   7.852  1.00  0.00    +0.000 H 
ENDBRANCH    2    1
BRANCH    8    9
ATOM      9  O3  UNL A   1      13.122  50.747  11.261  1.00  0.00    +0.000 O 
BRANCH    9   10
ATOM     10  C7  UNL A   1      14.319  51.196  10.734  1.00  0.00    +0.000 C 
ATOM     11  O4  UNL A   1      14.340  52.330  10.259  1.00  0.00    +0.000 O 
BRANCH   10   12
ATOM    114  H9  UNL A   1      16.817  48.482  11.079  1.00  0.00    +0.000 H 
ATOM     12  C8  UNL A   1      15.637  50.529  11.111  1.00  0.00    +0.000 C 
ATOM     14  O5  UNL A   1      16.542  50.562   9.971  1.00  0.00    +0.000 O 
ATOM     15  C10 UNL A   1      16.352  49.277  10.536  1.00  0.00    +0.000 C 
BRANCH   12   13
ATOM    113  H8  UNL A   1      15.804  52.027  12.620  1.00  0.00    +0.000 H 
ATOM     13  C9  UNL A   1      16.352  51.167  12.294  1.00  0.00    +0.000 C 
ATOM    111  H6  UNL A   1      17.337  51.463  11.997  1.00  0.00    +0.000 H 
ATOM    112  H7  UNL A   1      16.417  50.461  13.095  1.00  0.00    +0.000 H 
ENDBRANCH   12   13
BRANCH   15   16
ATOM    115  H10 UNL A   1      14.866  48.259   9.464  1.00  0.00    +0.000 H 
ATOM    116  H11 UNL A   1      16.291  47.310   9.814  1.00  0.00    +0.000 H 
ATOM    117  H12 UNL A   1      16.342  48.540   8.574  1.00  0.00    +0.000 H 
ATOM     16  C11 UNL A   1      15.934  48.277   9.527  1.00  0.00    +0.000 C 
ENDBRANCH   15   16
ENDBRANCH   10   12
ENDBRANCH    9   10
ENDBRANCH    8    9
BRANCH   17   18
ATOM     18  O6  UNL A   1       9.789  52.551  11.976  1.00  0.00    +0.000 O 
BRANCH   18   19
ATOM     19  C13 UNL A   1       8.960  53.560  11.697  1.00  0.00    +0.000 C 
ATOM     21  O7  UNL A   1       8.350  54.109  12.614  1.00  0.00    +0.000 O 
BRANCH   19   20
ATOM    121  H16 UNL A   1       9.651  54.669  10.063  1.00  0.00    +0.000 H 
ATOM     20  C14 UNL A   1       8.803  54.070  10.321  1.00  0.00    +0.000 C 
ATOM    119  H14 UNL A   1       7.916  54.665  10.259  1.00  0.00    +0.000 H 
ATOM    120  H15 UNL A   1       8.729  53.246   9.642  1.00  0.00    +0.000 H 
ENDBRANCH   19   20
ENDBRANCH   18   19
ENDBRANCH   17   18
BRANCH  102  103
ATOM    153  H48 UNL A   1      13.517  48.253  13.459  1.00  0.00    +0.000 H 
ATOM    154  H49 UNL A   1      12.659  47.083  14.432  1.00  0.00    +0.000 H 
ATOM    155  H50 UNL A   1      13.227  48.570  15.153  1.00  0.00    +0.000 H 
ATOM    103  C72 UNL A   1      12.826  48.126  14.265  1.00  0.00    +0.000 C 
ENDBRANCH  102  103
ENDBRANCH   23   22
ENDBRANCH   25   23
ENDBRANCH   26   25
ENDBRANCH   27   26
ENDBRANCH   28   27
ENDBRANCH   29   28
ENDBRANCH   30   29
ENDBRANCH   31   30
ENDBRANCH   32   31
ENDBRANCH   33   32
ENDBRANCH   35   33
ENDBRANCH   39   38
BRANCH   43   44
ATOM     44  C32 UNL A   1      17.895  55.500   0.237  1.00  0.00    +0.000 C 
ATOM     45  C33 UNL A   1      19.129  55.893   0.778  1.00  0.00    +0.000 C 
ATOM     46  F1  UNL A   1      19.607  55.291   1.878  1.00  0.00    +0.000 F 
ATOM     47  C34 UNL A   1      19.858  56.939   0.218  1.00  0.00    +0.000 C 
ATOM     48  F2  UNL A   1      21.007  57.332   0.786  1.00  0.00    +0.000 F 
ATOM     49  C35 UNL A   1      19.391  57.583  -0.917  1.00  0.00    +0.000 C 
ATOM     50  F3  UNL A   1      20.099  58.583  -1.462  1.00  0.00    +0.000 F 
ATOM     51  C36 UNL A   1      18.187  57.196  -1.485  1.00  0.00    +0.000 C 
ATOM     52  F4  UNL A   1      17.742  57.806  -2.591  1.00  0.00    +0.000 F 
ATOM     53  C37 UNL A   1      17.438  56.174  -0.906  1.00  0.00    +0.000 C 
ATOM     54  F5  UNL A   1      16.267  55.837  -1.467  1.00  0.00    +0.000 F 
ENDBRANCH   43   44
BRANCH   60   61
ATOM     65  F7  UNL A   1      19.711  46.190  -1.213  1.00  0.00    +0.000 F 
ATOM     66  C46 UNL A   1      17.784  46.402  -2.562  1.00  0.00    +0.000 C 
ATOM     67  F8  UNL A   1      18.229  45.433  -3.374  1.00  0.00    +0.000 F 
ATOM     68  C47 UNL A   1      16.580  47.033  -2.830  1.00  0.00    +0.000 C 
ATOM     69  F9  UNL A   1      15.847  46.658  -3.887  1.00  0.00    +0.000 F 
ATOM     70  C48 UNL A   1      16.129  48.057  -2.002  1.00  0.00    +0.000 C 
ATOM     71  F10 UNL A   1      14.968  48.659  -2.296  1.00  0.00    +0.000 F 
ATOM     61  C43 UNL A   1      16.862  48.447  -0.869  1.00  0.00    +0.000 C 
ATOM     62  C44 UNL A   1      18.066  47.778  -0.604  1.00  0.00    +0.000 C 
ATOM     63  F6  UNL A   1      18.811  48.121   0.457  1.00  0.00    +0.000 F 
ATOM     64  C45 UNL A   1      18.532  46.779  -1.456  1.00  0.00    +0.000 C 
ENDBRANCH   60   61
BRANCH   75   76
ATOM     76  C52 UNL A   1      12.186  48.359   4.303  1.00  0.00    +0.000 C 
ATOM     77  C53 UNL A   1      12.663  47.509   5.310  1.00  0.00    +0.000 C 
ATOM     78  F11 UNL A   1      13.921  47.642   5.757  1.00  0.00    +0.000 F 
ATOM     79  C54 UNL A   1      11.869  46.489   5.830  1.00  0.00    +0.000 C 
ATOM     80  F12 UNL A   1      12.369  45.658   6.753  1.00  0.00    +0.000 F 
ATOM     81  C55 UNL A   1      10.568  46.324   5.381  1.00  0.00    +0.000 C 
ATOM     82  F13 UNL A   1       9.803  45.345   5.882  1.00  0.00    +0.000 F 
ATOM     83  C56 UNL A   1      10.064  47.168   4.403  1.00  0.00    +0.000 C 
ATOM     84  F14 UNL A   1       8.802  47.022   3.976  1.00  0.00    +0.000 F 
ATOM     85  C57 UNL A   1      10.869  48.165   3.858  1.00  0.00    +0.000 C 
ATOM     86  F15 UNL A   1      10.361  48.955   2.901  1.00  0.00    +0.000 F 
ENDBRANCH   75   76
TORSDOF 25
ENDMDL
MODEL 6
REMARK VINA RESULT:      -7.8     60.231     65.326
ROOT
ATOM    138  H33 UNL A   1      45.717  14.338  42.682  1.00  0.00    +0.000 H 
ATOM    139  H34 UNL A   1      47.489  16.215  42.321  1.00  0.00    +0.000 H 
ATOM    140  H35 UNL A   1      45.457  17.004  45.840  1.00  0.00    +0.000 H 
ATOM    141  H36 UNL A   1      44.290  20.882  50.779  1.00  0.00    +0.000 H 
ATOM    142  H37 UNL A   1      42.669  18.973  51.199  1.00  0.00    +0.000 H 
ATOM    143  H38 UNL A   1      44.731  18.138  47.688  1.00  0.00    +0.000 H 
ATOM    144  H39 UNL A   1      48.064  21.844  47.109  1.00  0.00    +0.000 H 
ATOM    145  H40 UNL A   1      48.702  20.742  44.890  1.00  0.00    +0.000 H 
ATOM    146  H41 UNL A   1      42.347  13.178  46.701  1.00  0.00    +0.000 H 
ATOM    147  H42 UNL A   1      41.325  14.511  48.634  1.00  0.00    +0.000 H 
ATOM     39  C28 UNL A   1      42.695  16.948  49.192  1.00  0.00    +0.000 C 
ATOM     40  C29 UNL A   1      42.937  15.997  48.054  1.00  0.00    +0.000 C 
ATOM     41  N3  UNL A   1      43.811  16.074  47.082  1.00  0.00    +0.000 N 
ATOM     42  C30 UNL A   1      43.639  14.921  46.330  1.00  0.00    +0.000 C 
ATOM     43  C31 UNL A   1      44.254  14.568  45.176  1.00  0.00    +0.000 C 
ATOM     55  C38 UNL A   1      45.248  15.371  44.515  1.00  0.00    +0.000 C 
ATOM     56  C39 UNL A   1      45.894  15.131  43.316  1.00  0.00    +0.000 C 
ATOM     57  C40 UNL A   1      46.827  16.152  43.111  1.00  0.00    +0.000 C 
ATOM     58  C41 UNL A   1      46.716  17.065  44.148  1.00  0.00    +0.000 C 
ATOM     59  N4  UNL A   1      45.748  16.570  45.006  1.00  0.00    +0.000 N 
ATOM     60  C42 UNL A   1      47.438  18.299  44.339  1.00  0.00    +0.000 C 
ATOM     72  C49 UNL A   1      47.266  19.148  45.381  1.00  0.00    +0.000 C 
ATOM     73  N5  UNL A   1      46.394  19.048  46.457  1.00  0.00    +0.000 N 
ATOM     74  C50 UNL A   1      46.612  20.105  47.200  1.00  0.00    +0.000 C 
ATOM     75  C51 UNL A   1      45.930  20.532  48.472  1.00  0.00    +0.000 C 
ATOM     87  C58 UNL A   1      44.943  19.766  48.971  1.00  0.00    +0.000 C 
ATOM     88  C59 UNL A   1      44.180  20.047  50.183  1.00  0.00    +0.000 C 
ATOM     89  C60 UNL A   1      43.314  19.045  50.397  1.00  0.00    +0.000 C 
ATOM     90  C61 UNL A   1      43.430  18.071  49.310  1.00  0.00    +0.000 C 
ATOM     91  N6  UNL A   1      44.422  18.581  48.511  1.00  0.00    +0.000 N 
ATOM     92  C62 UNL A   1      47.675  20.984  46.693  1.00  0.00    +0.000 C 
ATOM     93  C63 UNL A   1      48.006  20.380  45.560  1.00  0.00    +0.000 C 
ATOM     94  C64 UNL A   1      42.628  14.128  46.991  1.00  0.00    +0.000 C 
ATOM     95  C65 UNL A   1      42.108  14.782  48.019  1.00  0.00    +0.000 C 
ENDROOT
BRANCH   39   38
ATOM     97  C67 UNL A   1      39.418  16.869  51.062  1.00  0.00    +0.000 C 
ATOM     35  C24 UNL A   1      39.728  16.005  52.117  1.00  0.00    +0.000 C 
ATOM     36  C25 UNL A   1      41.022  15.506  52.270  1.00  0.00    +0.000 C 
ATOM     37  C26 UNL A   1      42.000  15.840  51.336  1.00  0.00    +0.000 C 
ATOM     38  C27 UNL A   1      41.676  16.630  50.220  1.00  0.00    +0.000 C 
ATOM    136  H31 UNL A   1      41.252  14.895  53.069  1.00  0.00    +0.000 H 
ATOM    137  H32 UNL A   1      42.968  15.504  51.463  1.00  0.00    +0.000 H 
ATOM    148  H43 UNL A   1      40.123  17.702  49.263  1.00  0.00    +0.000 H 
ATOM    149  H44 UNL A   1      38.486  17.308  51.008  1.00  0.00    +0.000 H 
ATOM     96  C66 UNL A   1      40.373  17.133  50.086  1.00  0.00    +0.000 C 
BRANCH   35   33
ATOM     33  C23 UNL A   1      38.687  15.570  53.067  1.00  0.00    +0.000 C 
ATOM     34  O9  UNL A   1      37.755  16.315  53.345  1.00  0.00    +0.000 O 
BRANCH   33   32
ATOM    135  H30 UNL A   1      39.486  13.742  53.275  1.00  0.00    +0.000 H 
ATOM     32  N2  UNL A   1      38.803  14.339  53.658  1.00  0.00    +0.000 N 
BRANCH   32   31
ATOM    133  H28 UNL A   1      37.090  14.278  54.798  1.00  0.00    +0.000 H 
ATOM    134  H29 UNL A   1      37.963  12.745  54.626  1.00  0.00    +0.000 H 
ATOM     31  C22 UNL A   1      38.049  13.801  54.774  1.00  0.00    +0.000 C 
BRANCH   31   30
ATOM    131  H26 UNL A   1      38.326  14.907  56.556  1.00  0.00    +0.000 H 
ATOM    132  H27 UNL A   1      38.557  13.139  56.691  1.00  0.00    +0.000 H 
ATOM     30  C21 UNL A   1      38.735  14.022  56.114  1.00  0.00    +0.000 C 
BRANCH   30   29
ATOM    129  H24 UNL A   1      40.488  14.681  55.122  1.00  0.00    +0.000 H 
ATOM    130  H25 UNL A   1      40.528  14.740  56.916  1.00  0.00    +0.000 H 
ATOM     29  C20 UNL A   1      40.255  14.186  56.042  1.00  0.00    +0.000 C 
BRANCH   29   28
ATOM     28  C19 UNL A   1      41.072  12.890  56.100  1.00  0.00    +0.000 C 
ATOM    127  H22 UNL A   1      41.928  13.069  56.716  1.00  0.00    +0.000 H 
ATOM    128  H23 UNL A   1      40.409  12.144  56.483  1.00  0.00    +0.000 H 
BRANCH   28   27
ATOM     27  C18 UNL A   1      41.567  12.355  54.754  1.00  0.00    +0.000 C 
ATOM    125  H20 UNL A   1      41.164  11.374  54.612  1.00  0.00    +0.000 H 
ATOM    126  H21 UNL A   1      41.237  13.043  54.004  1.00  0.00    +0.000 H 
BRANCH   27   26
ATOM     26  C17 UNL A   1      43.075  12.273  54.649  1.00  0.00    +0.000 C 
ATOM    123  H18 UNL A   1      43.408  12.973  53.912  1.00  0.00    +0.000 H 
ATOM    124  H19 UNL A   1      43.486  12.499  55.610  1.00  0.00    +0.000 H 
BRANCH   26   25
ATOM     25  N1  UNL A   1      43.518  10.950  54.272  1.00  0.00    +0.000 N 
ATOM    122  H17 UNL A   1      43.920  10.384  54.969  1.00  0.00    +0.000 H 
BRANCH   25   23
ATOM     23  C16 UNL A   1      43.415  10.435  53.013  1.00  0.00    +0.000 C 
ATOM     24  O8  UNL A   1      42.560   9.609  52.737  1.00  0.00    +0.000 O 
BRANCH   23   22
ATOM      2  C2  UNL A   1      49.027   8.664  51.286  1.00  0.00    +0.000 C 
ATOM      3  C3  UNL A   1      50.168   9.378  50.661  1.00  0.00    +0.000 C 
ATOM      4  O1  UNL A   1      51.326   9.029  50.649  1.00  0.00    +0.000 O 
ATOM      5  O2  UNL A   1      49.656  10.535  50.154  1.00  0.00    +0.000 O 
ATOM      6  C4  UNL A   1      48.245  10.654  50.481  1.00  0.00    +0.000 C 
ATOM      7  C5  UNL A   1      48.073   9.738  51.686  1.00  0.00    +0.000 C 
ATOM      8  C6  UNL A   1      46.668   9.396  52.205  1.00  0.00    +0.000 C 
ATOM     17  C12 UNL A   1      45.849  10.709  52.535  1.00  0.00    +0.000 C 
ATOM     22  C15 UNL A   1      44.433  10.918  52.014  1.00  0.00    +0.000 C 
ATOM    150  H45 UNL A   1      42.791  11.109  50.932  1.00  0.00    +0.000 H 
ATOM    152  H47 UNL A   1      45.428  12.464  47.783  1.00  0.00    +0.000 H 
ATOM    151  H46 UNL A   1      43.036  12.202  49.614  1.00  0.00    +0.000 H 
ATOM    156  H51 UNL A   1      47.613   9.315  49.436  1.00  0.00    +0.000 H 
ATOM     98  C68 UNL A   1      43.777  11.414  50.945  1.00  0.00    +0.000 C 
ATOM     99  C69 UNL A   1      44.088  12.265  49.799  1.00  0.00    +0.000 C 
ATOM    100  O10 UNL A   1      45.170  13.177  49.931  1.00  0.00    +0.000 O 
ATOM    101  C70 UNL A   1      45.243  12.298  48.824  1.00  0.00    +0.000 C 
ATOM    102  C71 UNL A   1      46.120  11.046  48.742  1.00  0.00    +0.000 C 
ATOM    104  O11 UNL A   1      47.450  11.396  48.302  1.00  0.00    +0.000 O 
ATOM    105  C73 UNL A   1      47.419  10.354  49.274  1.00  0.00    +0.000 C 
ATOM    108  H3  UNL A   1      47.908  11.633  50.751  1.00  0.00    +0.000 H 
ATOM    109  H4  UNL A   1      48.288  10.187  52.634  1.00  0.00    +0.000 H 
ATOM    110  H5  UNL A   1      46.779   8.872  53.132  1.00  0.00    +0.000 H 
ATOM    118  H13 UNL A   1      45.097  10.446  53.249  1.00  0.00    +0.000 H 
BRANCH    2    1
ATOM      1  C1  UNL A   1      48.971   7.329  51.287  1.00  0.00    +0.000 C 
ATOM    106  H1  UNL A   1      49.449   6.794  52.029  1.00  0.00    +0.000 H 
ATOM    107  H2  UNL A   1      48.452   6.834  50.546  1.00  0.00    +0.000 H 
ENDBRANCH    2    1
BRANCH    8    9
ATOM      9  O3  UNL A   1      45.971   8.471  51.346  1.00  0.00    +0.000 O 
BRANCH    9   10
ATOM     10  C7  UNL A   1      45.279   7.352  51.772  1.00  0.00    +0.000 C 
ATOM     11  O4  UNL A   1      44.976   7.291  52.962  1.00  0.00    +0.000 O 
BRANCH   10   12
ATOM    114  H9  UNL A   1      42.569   5.205  50.442  1.00  0.00    +0.000 H 
ATOM     12  C8  UNL A   1      44.540   6.464  50.777  1.00  0.00    +0.000 C 
ATOM     14  O5  UNL A   1      43.630   7.277  49.983  1.00  0.00    +0.000 O 
ATOM     15  C10 UNL A   1      43.028   6.157  50.606  1.00  0.00    +0.000 C 
BRANCH   12   13
ATOM    113  H8  UNL A   1      46.050   5.014  50.370  1.00  0.00    +0.000 H 
ATOM     13  C9  UNL A   1      45.444   5.702  49.818  1.00  0.00    +0.000 C 
ATOM    111  H6  UNL A   1      46.073   6.394  49.298  1.00  0.00    +0.000 H 
ATOM    112  H7  UNL A   1      44.845   5.165  49.113  1.00  0.00    +0.000 H 
ENDBRANCH   12   13
BRANCH   15   16
ATOM    115  H10 UNL A   1      41.286   5.652  51.656  1.00  0.00    +0.000 H 
ATOM    116  H11 UNL A   1      41.229   7.204  50.855  1.00  0.00    +0.000 H 
ATOM    117  H12 UNL A   1      42.167   7.008  52.317  1.00  0.00    +0.000 H 
ATOM     16  C11 UNL A   1      41.845   6.531  51.415  1.00  0.00    +0.000 C 
ENDBRANCH   15   16
ENDBRANCH   10   12
ENDBRANCH    9   10
ENDBRANCH    8    9
BRANCH   17   18
ATOM     18  O6  UNL A   1      46.612  11.788  53.207  1.00  0.00    +0.000 O 
BRANCH   18   19
ATOM     19  C13 UNL A   1      47.101  12.204  54.377  1.00  0.00    +0.000 C 
ATOM     21  O7  UNL A   1      46.623  13.206  54.907  1.00  0.00    +0.000 O 
BRANCH   19   20
ATOM    121  H16 UNL A   1      49.089  11.986  54.993  1.00  0.00    +0.000 H 
ATOM     20  C14 UNL A   1      48.164  11.456  55.079  1.00  0.00    +0.000 C 
ATOM    119  H14 UNL A   1      48.267  10.486  54.640  1.00  0.00    +0.000 H 
ATOM    120  H15 UNL A   1      47.905  11.355  56.112  1.00  0.00    +0.000 H 
ENDBRANCH   19   20
ENDBRANCH   18   19
ENDBRANCH   17   18
BRANCH  102  103
ATOM    153  H48 UNL A   1      45.239  10.648  46.834  1.00  0.00    +0.000 H 
ATOM    154  H49 UNL A   1      44.505   9.773  48.156  1.00  0.00    +0.000 H 
ATOM    155  H50 UNL A   1      46.064   9.278  47.540  1.00  0.00    +0.000 H 
ATOM    103  C72 UNL A   1      45.429  10.116  47.743  1.00  0.00    +0.000 C 
ENDBRANCH  102  103
ENDBRANCH   23   22
ENDBRANCH   25   23
ENDBRANCH   26   25
ENDBRANCH   27   26
ENDBRANCH   28   27
ENDBRANCH   29   28
ENDBRANCH   30   29
ENDBRANCH   31   30
ENDBRANCH   32   31
ENDBRANCH   33   32
ENDBRANCH   35   33
ENDBRANCH   39   38
BRANCH   43   44
ATOM     44  C32 UNL A   1      43.869  13.254  44.555  1.00  0.00    +0.000 C 
ATOM     45  C33 UNL A   1      44.686  12.117  44.662  1.00  0.00    +0.000 C 
ATOM     46  F1  UNL A   1      45.867  12.192  45.294  1.00  0.00    +0.000 F 
ATOM     47  C34 UNL A   1      44.314  10.909  44.080  1.00  0.00    +0.000 C 
ATOM     48  F2  UNL A   1      45.137   9.852  44.148  1.00  0.00    +0.000 F 
ATOM     49  C35 UNL A   1      43.101  10.799  43.418  1.00  0.00    +0.000 C 
ATOM     50  F3  UNL A   1      42.739   9.632  42.866  1.00  0.00    +0.000 F 
ATOM     51  C36 UNL A   1      42.265  11.900  43.321  1.00  0.00    +0.000 C 
ATOM     52  F4  UNL A   1      41.086  11.793  42.696  1.00  0.00    +0.000 F 
ATOM     53  C37 UNL A   1      42.651  13.121  43.871  1.00  0.00    +0.000 C 
ATOM     54  F5  UNL A   1      41.828  14.173  43.741  1.00  0.00    +0.000 F 
ENDBRANCH   43   44
BRANCH   60   61
ATOM     65  F7  UNL A   1      52.044  18.861  42.750  1.00  0.00    +0.000 F 
ATOM     66  C46 UNL A   1      50.274  19.373  41.273  1.00  0.00    +0.000 C 
ATOM     67  F8  UNL A   1      51.151  19.709  40.316  1.00  0.00    +0.000 F 
ATOM     68  C47 UNL A   1      48.913  19.476  41.034  1.00  0.00    +0.000 C 
ATOM     69  F9  UNL A   1      48.472  19.886  39.836  1.00  0.00    +0.000 F 
ATOM     70  C48 UNL A   1      48.002  19.153  42.035  1.00  0.00    +0.000 C 
ATOM     71  F10 UNL A   1      46.692  19.278  41.778  1.00  0.00    +0.000 F 
ATOM     61  C43 UNL A   1      48.437  18.690  43.287  1.00  0.00    +0.000 C 
ATOM     62  C44 UNL A   1      49.819  18.572  43.499  1.00  0.00    +0.000 C 
ATOM     63  F6  UNL A   1      50.288  18.148  44.682  1.00  0.00    +0.000 F 
ATOM     64  C45 UNL A   1      50.728  18.931  42.507  1.00  0.00    +0.000 C 
ENDBRANCH   60   61
BRANCH   75   76
ATOM     76  C52 UNL A   1      46.320  21.790  49.164  1.00  0.00    +0.000 C 
ATOM     77  C53 UNL A   1      45.665  22.999  48.890  1.00  0.00    +0.000 C 
ATOM     78  F11 UNL A   1      44.676  23.033  47.984  1.00  0.00    +0.000 F 
ATOM     79  C54 UNL A   1      46.052  24.186  49.509  1.00  0.00    +0.000 C 
ATOM     80  F12 UNL A   1      45.444  25.335  49.187  1.00  0.00    +0.000 F 
ATOM     81  C55 UNL A   1      47.076  24.181  50.443  1.00  0.00    +0.000 C 
ATOM     82  F13 UNL A   1      47.447  25.321  51.040  1.00  0.00    +0.000 F 
ATOM     83  C56 UNL A   1      47.723  22.994  50.750  1.00  0.00    +0.000 C 
ATOM     84  F14 UNL A   1      48.703  22.980  51.663  1.00  0.00    +0.000 F 
ATOM     85  C57 UNL A   1      47.360  21.813  50.106  1.00  0.00    +0.000 C 
ATOM     86  F15 UNL A   1      48.015  20.683  50.410  1.00  0.00    +0.000 F 
ENDBRANCH   75   76
TORSDOF 25
ENDMDL
MODEL 7
REMARK VINA RESULT:      -7.8     54.608     61.548
ROOT
ATOM    138  H33 UNL A   1       7.362  -9.290  30.550  1.00  0.00    +0.000 H 
ATOM    139  H34 UNL A   1       7.017  -8.818  33.090  1.00  0.00    +0.000 H 
ATOM    140  H35 UNL A   1       5.125  -5.827  30.942  1.00  0.00    +0.000 H 
ATOM    141  H36 UNL A   1       1.972  -0.274  30.832  1.00  0.00    +0.000 H 
ATOM    142  H37 UNL A   1       2.187  -0.820  28.361  1.00  0.00    +0.000 H 
ATOM    143  H38 UNL A   1       4.051  -3.858  30.500  1.00  0.00    +0.000 H 
ATOM    144  H39 UNL A   1       3.338  -2.794  35.351  1.00  0.00    +0.000 H 
ATOM    145  H40 UNL A   1       4.778  -4.842  35.873  1.00  0.00    +0.000 H 
ATOM    146  H41 UNL A   1       5.470  -6.980  26.084  1.00  0.00    +0.000 H 
ATOM    147  H42 UNL A   1       4.496  -4.680  25.522  1.00  0.00    +0.000 H 
ATOM     39  C28 UNL A   1       3.637  -3.212  27.810  1.00  0.00    +0.000 C 
ATOM     40  C29 UNL A   1       4.369  -4.524  27.781  1.00  0.00    +0.000 C 
ATOM     41  N3  UNL A   1       4.772  -5.270  28.779  1.00  0.00    +0.000 N 
ATOM     42  C30 UNL A   1       5.357  -6.387  28.201  1.00  0.00    +0.000 C 
ATOM     43  C31 UNL A   1       5.992  -7.417  28.810  1.00  0.00    +0.000 C 
ATOM     55  C38 UNL A   1       6.159  -7.529  30.235  1.00  0.00    +0.000 C 
ATOM     56  C39 UNL A   1       6.831  -8.503  30.951  1.00  0.00    +0.000 C 
ATOM     57  C40 UNL A   1       6.665  -8.235  32.313  1.00  0.00    +0.000 C 
ATOM     58  C41 UNL A   1       5.949  -7.057  32.447  1.00  0.00    +0.000 C 
ATOM     59  N4  UNL A   1       5.639  -6.638  31.163  1.00  0.00    +0.000 N 
ATOM     60  C42 UNL A   1       5.578  -6.364  33.655  1.00  0.00    +0.000 C 
ATOM     72  C49 UNL A   1       4.879  -5.203  33.704  1.00  0.00    +0.000 C 
ATOM     73  N5  UNL A   1       4.384  -4.435  32.659  1.00  0.00    +0.000 N 
ATOM     74  C50 UNL A   1       3.771  -3.419  33.215  1.00  0.00    +0.000 C 
ATOM     75  C51 UNL A   1       3.079  -2.252  32.563  1.00  0.00    +0.000 C 
ATOM     87  C58 UNL A   1       3.051  -2.178  31.220  1.00  0.00    +0.000 C 
ATOM     88  C59 UNL A   1       2.433  -1.111  30.441  1.00  0.00    +0.000 C 
ATOM     89  C60 UNL A   1       2.559  -1.393  29.135  1.00  0.00    +0.000 C 
ATOM     90  C61 UNL A   1       3.308  -2.640  28.985  1.00  0.00    +0.000 C 
ATOM     91  N6  UNL A   1       3.557  -3.036  30.274  1.00  0.00    +0.000 N 
ATOM     92  C62 UNL A   1       3.781  -3.444  34.684  1.00  0.00    +0.000 C 
ATOM     93  C63 UNL A   1       4.509  -4.525  34.929  1.00  0.00    +0.000 C 
ATOM     94  C64 UNL A   1       5.200  -6.258  26.770  1.00  0.00    +0.000 C 
ATOM     95  C65 UNL A   1       4.663  -5.089  26.454  1.00  0.00    +0.000 C 
ENDROOT
BRANCH   39   38
ATOM     97  C67 UNL A   1       1.537  -2.155  24.858  1.00  0.00    +0.000 C 
ATOM     35  C24 UNL A   1       2.423  -1.312  24.182  1.00  0.00    +0.000 C 
ATOM     36  C25 UNL A   1       3.732  -1.143  24.638  1.00  0.00    +0.000 C 
ATOM     37  C26 UNL A   1       4.140  -1.789  25.802  1.00  0.00    +0.000 C 
ATOM     38  C27 UNL A   1       3.229  -2.563  26.541  1.00  0.00    +0.000 C 
ATOM    136  H31 UNL A   1       4.391  -0.545  24.115  1.00  0.00    +0.000 H 
ATOM    137  H32 UNL A   1       5.116  -1.698  26.125  1.00  0.00    +0.000 H 
ATOM    148  H43 UNL A   1       1.241  -3.287  26.607  1.00  0.00    +0.000 H 
ATOM    149  H44 UNL A   1       0.603  -2.349  24.464  1.00  0.00    +0.000 H 
ATOM     96  C66 UNL A   1       1.920  -2.732  26.063  1.00  0.00    +0.000 C 
BRANCH   35   33
ATOM     33  C23 UNL A   1       1.986  -0.551  22.996  1.00  0.00    +0.000 C 
ATOM     34  O9  UNL A   1       2.072  -1.046  21.879  1.00  0.00    +0.000 O 
BRANCH   33   32
ATOM    135  H30 UNL A   1       0.547   0.815  23.289  1.00  0.00    +0.000 H 
ATOM     32  N2  UNL A   1       1.520   0.727  23.165  1.00  0.00    +0.000 N 
BRANCH   32   31
ATOM    133  H28 UNL A   1       3.319   1.728  23.183  1.00  0.00    +0.000 H 
ATOM    134  H29 UNL A   1       1.995   2.526  22.317  1.00  0.00    +0.000 H 
ATOM     31  C22 UNL A   1       2.275   1.965  23.183  1.00  0.00    +0.000 C 
BRANCH   31   30
ATOM    131  H26 UNL A   1       2.476   3.762  24.282  1.00  0.00    +0.000 H 
ATOM    132  H27 UNL A   1       0.908   2.920  24.445  1.00  0.00    +0.000 H 
ATOM     30  C21 UNL A   1       1.972   2.825  24.402  1.00  0.00    +0.000 C 
BRANCH   30   29
ATOM    129  H24 UNL A   1       1.992   2.829  26.521  1.00  0.00    +0.000 H 
ATOM    130  H25 UNL A   1       2.043   1.215  25.734  1.00  0.00    +0.000 H 
ATOM     29  C20 UNL A   1       2.403   2.223  25.741  1.00  0.00    +0.000 C 
BRANCH   29   28
ATOM     28  C19 UNL A   1       3.916   2.120  25.973  1.00  0.00    +0.000 C 
ATOM    127  H22 UNL A   1       4.075   1.923  27.013  1.00  0.00    +0.000 H 
ATOM    128  H23 UNL A   1       4.258   1.340  25.326  1.00  0.00    +0.000 H 
BRANCH   28   27
ATOM     27  C18 UNL A   1       4.732   3.359  25.599  1.00  0.00    +0.000 C 
ATOM    125  H20 UNL A   1       4.134   3.978  24.963  1.00  0.00    +0.000 H 
ATOM    126  H21 UNL A   1       4.994   3.848  26.514  1.00  0.00    +0.000 H 
BRANCH   27   26
ATOM     26  C17 UNL A   1       6.025   3.041  24.879  1.00  0.00    +0.000 C 
ATOM    123  H18 UNL A   1       5.794   2.643  23.914  1.00  0.00    +0.000 H 
ATOM    124  H19 UNL A   1       6.589   3.947  24.798  1.00  0.00    +0.000 H 
BRANCH   26   25
ATOM     25  N1  UNL A   1       6.825   2.080  25.604  1.00  0.00    +0.000 N 
ATOM    122  H17 UNL A   1       6.879   2.171  26.582  1.00  0.00    +0.000 H 
BRANCH   25   23
ATOM     23  C16 UNL A   1       7.509   1.055  25.020  1.00  0.00    +0.000 C 
ATOM     24  O8  UNL A   1       7.066  -0.082  25.022  1.00  0.00    +0.000 O 
BRANCH   23   22
ATOM      2  C2  UNL A   1      13.322  -0.665  25.950  1.00  0.00    +0.000 C 
ATOM      3  C3  UNL A   1      14.628  -0.010  25.686  1.00  0.00    +0.000 C 
ATOM      4  O1  UNL A   1      15.694  -0.285  26.186  1.00  0.00    +0.000 O 
ATOM      5  O2  UNL A   1      14.371   1.003  24.811  1.00  0.00    +0.000 O 
ATOM      6  C4  UNL A   1      12.946   1.096  24.543  1.00  0.00    +0.000 C 
ATOM      7  C5  UNL A   1      12.306   0.406  25.740  1.00  0.00    +0.000 C 
ATOM      8  C6  UNL A   1      10.804   0.081  25.736  1.00  0.00    +0.000 C 
ATOM     17  C12 UNL A   1       9.942   1.381  25.469  1.00  0.00    +0.000 C 
ATOM     22  C15 UNL A   1       8.843   1.408  24.416  1.00  0.00    +0.000 C 
ATOM    150  H45 UNL A   1       7.752   1.300  22.772  1.00  0.00    +0.000 H 
ATOM    152  H47 UNL A   1      11.425   2.214  20.679  1.00  0.00    +0.000 H 
ATOM    151  H46 UNL A   1       8.506   2.148  21.466  1.00  0.00    +0.000 H 
ATOM    156  H51 UNL A   1      12.747  -0.446  23.611  1.00  0.00    +0.000 H 
ATOM     98  C68 UNL A   1       8.660   1.660  23.103  1.00  0.00    +0.000 C 
ATOM     99  C69 UNL A   1       9.405   2.306  22.025  1.00  0.00    +0.000 C 
ATOM    100  O10 UNL A   1      10.366   3.290  22.385  1.00  0.00    +0.000 O 
ATOM    101  C70 UNL A   1      10.849   2.230  21.581  1.00  0.00    +0.000 C 
ATOM    102  C71 UNL A   1      11.668   1.038  22.081  1.00  0.00    +0.000 C 
ATOM    104  O11 UNL A   1      13.070   1.381  22.128  1.00  0.00    +0.000 O 
ATOM    105  C73 UNL A   1      12.648   0.533  23.193  1.00  0.00    +0.000 C 
ATOM    108  H3  UNL A   1      12.546   2.086  24.470  1.00  0.00    +0.000 H 
ATOM    109  H4  UNL A   1      12.143   1.032  26.594  1.00  0.00    +0.000 H 
ATOM    110  H5  UNL A   1      10.538  -0.258  26.715  1.00  0.00    +0.000 H 
ATOM    118  H13 UNL A   1       8.968   1.208  25.877  1.00  0.00    +0.000 H 
BRANCH    2    1
ATOM      1  C1  UNL A   1      13.249  -1.978  26.183  1.00  0.00    +0.000 C 
ATOM    106  H1  UNL A   1      12.574  -2.342  26.874  1.00  0.00    +0.000 H 
ATOM    107  H2  UNL A   1      13.868  -2.628  25.675  1.00  0.00    +0.000 H 
ENDBRANCH    2    1
BRANCH    8    9
ATOM      9  O3  UNL A   1      10.480  -1.025  24.869  1.00  0.00    +0.000 O 
BRANCH    9   10
ATOM     10  C7  UNL A   1       9.907  -2.217  25.274  1.00  0.00    +0.000 C 
ATOM     11  O4  UNL A   1       9.380  -2.243  26.384  1.00  0.00    +0.000 O 
BRANCH   10   12
ATOM    114  H9  UNL A   1      10.018  -4.112  22.093  1.00  0.00    +0.000 H 
ATOM     12  C8  UNL A   1       9.543  -3.293  24.258  1.00  0.00    +0.000 C 
ATOM     14  O5  UNL A   1      10.444  -4.426  24.407  1.00  0.00    +0.000 O 
ATOM     15  C10 UNL A   1      10.354  -3.914  23.090  1.00  0.00    +0.000 C 
BRANCH   12   13
ATOM    113  H8  UNL A   1       7.915  -4.483  23.563  1.00  0.00    +0.000 H 
ATOM     13  C9  UNL A   1       8.116  -3.812  24.372  1.00  0.00    +0.000 C 
ATOM    111  H6  UNL A   1       7.434  -2.988  24.332  1.00  0.00    +0.000 H 
ATOM    112  H7  UNL A   1       7.997  -4.329  25.302  1.00  0.00    +0.000 H 
ENDBRANCH   12   13
BRANCH   15   16
ATOM    115  H10 UNL A   1      11.554  -3.082  21.587  1.00  0.00    +0.000 H 
ATOM    116  H11 UNL A   1      12.239  -4.485  22.372  1.00  0.00    +0.000 H 
ATOM    117  H12 UNL A   1      12.209  -2.946  23.200  1.00  0.00    +0.000 H 
ATOM     16  C11 UNL A   1      11.681  -3.584  22.523  1.00  0.00    +0.000 C 
ENDBRANCH   15   16
ENDBRANCH   10   12
ENDBRANCH    9   10
ENDBRANCH    8    9
BRANCH   17   18
ATOM     18  O6  UNL A   1      10.402   2.607  26.163  1.00  0.00    +0.000 O 
BRANCH   18   19
ATOM     19  C13 UNL A   1      10.458   3.231  27.343  1.00  0.00    +0.000 C 
ATOM     21  O7  UNL A   1      11.495   3.179  28.002  1.00  0.00    +0.000 O 
BRANCH   19   20
ATOM    121  H16 UNL A   1       8.407   3.632  27.460  1.00  0.00    +0.000 H 
ATOM     20  C14 UNL A   1       9.322   4.029  27.847  1.00  0.00    +0.000 C 
ATOM    119  H14 UNL A   1       9.432   5.045  27.531  1.00  0.00    +0.000 H 
ATOM    120  H15 UNL A   1       9.305   3.987  28.916  1.00  0.00    +0.000 H 
ENDBRANCH   19   20
ENDBRANCH   18   19
ENDBRANCH   17   18
BRANCH  102  103
ATOM    153  H48 UNL A   1      11.414  -1.032  21.610  1.00  0.00    +0.000 H 
ATOM    154  H49 UNL A   1      12.165  -0.098  20.339  1.00  0.00    +0.000 H 
ATOM    155  H50 UNL A   1      10.448   0.046  20.632  1.00  0.00    +0.000 H 
ATOM    103  C72 UNL A   1      11.404  -0.097  21.091  1.00  0.00    +0.000 C 
ENDBRANCH  102  103
ENDBRANCH   23   22
ENDBRANCH   25   23
ENDBRANCH   26   25
ENDBRANCH   27   26
ENDBRANCH   28   27
ENDBRANCH   29   28
ENDBRANCH   30   29
ENDBRANCH   31   30
ENDBRANCH   32   31
ENDBRANCH   33   32
ENDBRANCH   35   33
ENDBRANCH   39   38
BRANCH   43   44
ATOM     44  C32 UNL A   1       6.552  -8.505  27.937  1.00  0.00    +0.000 C 
ATOM     45  C33 UNL A   1       7.801  -8.380  27.308  1.00  0.00    +0.000 C 
ATOM     46  F1  UNL A   1       8.514  -7.250  27.441  1.00  0.00    +0.000 F 
ATOM     47  C34 UNL A   1       8.304  -9.397  26.502  1.00  0.00    +0.000 C 
ATOM     48  F2  UNL A   1       9.474  -9.231  25.868  1.00  0.00    +0.000 F 
ATOM     49  C35 UNL A   1       7.591 -10.576  26.343  1.00  0.00    +0.000 C 
ATOM     50  F3  UNL A   1       8.082 -11.559  25.575  1.00  0.00    +0.000 F 
ATOM     51  C36 UNL A   1       6.368 -10.733  26.975  1.00  0.00    +0.000 C 
ATOM     52  F4  UNL A   1       5.685 -11.877  26.835  1.00  0.00    +0.000 F 
ATOM     53  C37 UNL A   1       5.845  -9.703  27.752  1.00  0.00    +0.000 C 
ATOM     54  F5  UNL A   1       4.648  -9.879  28.333  1.00  0.00    +0.000 F 
ENDBRANCH   43   44
BRANCH   60   61
ATOM     65  F7  UNL A   1       8.847  -6.871  37.277  1.00  0.00    +0.000 F 
ATOM     66  C46 UNL A   1       6.799  -8.034  37.439  1.00  0.00    +0.000 C 
ATOM     67  F8  UNL A   1       7.172  -8.557  38.616  1.00  0.00    +0.000 F 
ATOM     68  C47 UNL A   1       5.569  -8.366  36.892  1.00  0.00    +0.000 C 
ATOM     69  F9  UNL A   1       4.742  -9.189  37.552  1.00  0.00    +0.000 F 
ATOM     70  C48 UNL A   1       5.191  -7.846  35.658  1.00  0.00    +0.000 C 
ATOM     71  F10 UNL A   1       4.002  -8.197  35.148  1.00  0.00    +0.000 F 
ATOM     61  C43 UNL A   1       6.025  -6.955  34.962  1.00  0.00    +0.000 C 
ATOM     62  C44 UNL A   1       7.254  -6.616  35.546  1.00  0.00    +0.000 C 
ATOM     63  F6  UNL A   1       8.094  -5.781  34.917  1.00  0.00    +0.000 F 
ATOM     64  C45 UNL A   1       7.645  -7.168  36.764  1.00  0.00    +0.000 C 
ENDBRANCH   60   61
BRANCH   75   76
ATOM     76  C52 UNL A   1       2.449  -1.182  33.382  1.00  0.00    +0.000 C 
ATOM     77  C53 UNL A   1       3.227  -0.199  34.009  1.00  0.00    +0.000 C 
ATOM     78  F11 UNL A   1       4.563  -0.221  33.883  1.00  0.00    +0.000 F 
ATOM     79  C54 UNL A   1       2.644   0.784  34.807  1.00  0.00    +0.000 C 
ATOM     80  F12 UNL A   1       3.417   1.677  35.438  1.00  0.00    +0.000 F 
ATOM     81  C55 UNL A   1       1.267   0.826  34.962  1.00  0.00    +0.000 C 
ATOM     82  F13 UNL A   1       0.705   1.771  35.727  1.00  0.00    +0.000 F 
ATOM     83  C56 UNL A   1       0.473  -0.120  34.332  1.00  0.00    +0.000 C 
ATOM     84  F14 UNL A   1      -0.859  -0.075  34.466  1.00  0.00    +0.000 F 
ATOM     85  C57 UNL A   1       1.058  -1.123  33.562  1.00  0.00    +0.000 C 
ATOM     86  F15 UNL A   1       0.267  -2.035  32.979  1.00  0.00    +0.000 F 
ENDBRANCH   75   76
TORSDOF 25
ENDMDL
MODEL 8
REMARK VINA RESULT:      -7.7     51.688     56.469
ROOT
ATOM    138  H33 UNL A   1      -2.692   6.631  34.610  1.00  0.00    +0.000 H 
ATOM    139  H34 UNL A   1      -1.335   4.406  34.627  1.00  0.00    +0.000 H 
ATOM    140  H35 UNL A   1       0.978   7.353  36.387  1.00  0.00    +0.000 H 
ATOM    141  H36 UNL A   1       6.549   9.228  38.886  1.00  0.00    +0.000 H 
ATOM    142  H37 UNL A   1       5.166  11.355  38.998  1.00  0.00    +0.000 H 
ATOM    143  H38 UNL A   1       2.810   8.397  37.273  1.00  0.00    +0.000 H 
ATOM    144  H39 UNL A   1       5.560   4.201  37.340  1.00  0.00    +0.000 H 
ATOM    145  H40 UNL A   1       3.630   3.076  36.093  1.00  0.00    +0.000 H 
ATOM    146  H41 UNL A   1      -1.804  11.502  36.693  1.00  0.00    +0.000 H 
ATOM    147  H42 UNL A   1       0.280  12.781  37.455  1.00  0.00    +0.000 H 
ATOM     39  C28 UNL A   1       2.548  11.112  37.895  1.00  0.00    +0.000 C 
ATOM     40  C29 UNL A   1       1.215  10.719  37.322  1.00  0.00    +0.000 C 
ATOM     41  N3  UNL A   1       0.807   9.549  36.902  1.00  0.00    +0.000 N 
ATOM     42  C30 UNL A   1      -0.513   9.729  36.512  1.00  0.00    +0.000 C 
ATOM     43  C31 UNL A   1      -1.351   8.834  35.937  1.00  0.00    +0.000 C 
ATOM     55  C38 UNL A   1      -0.992   7.474  35.633  1.00  0.00    +0.000 C 
ATOM     56  C39 UNL A   1      -1.748   6.502  35.003  1.00  0.00    +0.000 C 
ATOM     57  C40 UNL A   1      -1.009   5.315  34.991  1.00  0.00    +0.000 C 
ATOM     58  C41 UNL A   1       0.234   5.564  35.552  1.00  0.00    +0.000 C 
ATOM     59  N4  UNL A   1       0.228   6.891  35.947  1.00  0.00    +0.000 N 
ATOM     60  C42 UNL A   1       1.344   4.658  35.711  1.00  0.00    +0.000 C 
ATOM     72  C49 UNL A   1       2.538   4.980  36.265  1.00  0.00    +0.000 C 
ATOM     73  N5  UNL A   1       2.965   6.197  36.779  1.00  0.00    +0.000 N 
ATOM     74  C50 UNL A   1       4.187   6.000  37.210  1.00  0.00    +0.000 C 
ATOM     75  C51 UNL A   1       5.146   6.979  37.831  1.00  0.00    +0.000 C 
ATOM     87  C58 UNL A   1       4.759   8.258  37.993  1.00  0.00    +0.000 C 
ATOM     88  C59 UNL A   1       5.573   9.325  38.566  1.00  0.00    +0.000 C 
ATOM     89  C60 UNL A   1       4.846  10.452  38.613  1.00  0.00    +0.000 C 
ATOM     90  C61 UNL A   1       3.528  10.197  38.030  1.00  0.00    +0.000 C 
ATOM     91  N6  UNL A   1       3.566   8.868  37.691  1.00  0.00    +0.000 N 
ATOM     92  C62 UNL A   1       4.664   4.620  37.047  1.00  0.00    +0.000 C 
ATOM     93  C63 UNL A   1       3.640   4.054  36.424  1.00  0.00    +0.000 C 
ATOM     94  C64 UNL A   1      -0.860  11.101  36.806  1.00  0.00    +0.000 C 
ATOM     95  C65 UNL A   1       0.195  11.776  37.237  1.00  0.00    +0.000 C 
ENDROOT
BRANCH   39   38
ATOM     97  C67 UNL A   1       2.553  14.185  40.085  1.00  0.00    +0.000 C 
ATOM     35  C24 UNL A   1       3.236  15.095  39.273  1.00  0.00    +0.000 C 
ATOM     36  C25 UNL A   1       3.630  14.741  37.982  1.00  0.00    +0.000 C 
ATOM     37  C26 UNL A   1       3.377  13.453  37.518  1.00  0.00    +0.000 C 
ATOM     38  C27 UNL A   1       2.776  12.501  38.359  1.00  0.00    +0.000 C 
ATOM    136  H31 UNL A   1       4.105  15.429  37.377  1.00  0.00    +0.000 H 
ATOM    137  H32 UNL A   1       3.632  13.195  36.552  1.00  0.00    +0.000 H 
ATOM    148  H43 UNL A   1       1.947  12.179  40.280  1.00  0.00    +0.000 H 
ATOM    149  H44 UNL A   1       2.183  14.483  41.000  1.00  0.00    +0.000 H 
ATOM     96  C66 UNL A   1       2.375  12.876  39.651  1.00  0.00    +0.000 C 
BRANCH   35   33
ATOM     33  C23 UNL A   1       3.592  16.436  39.776  1.00  0.00    +0.000 C 
ATOM     34  O9  UNL A   1       2.916  17.410  39.468  1.00  0.00    +0.000 O 
BRANCH   33   32
ATOM    135  H30 UNL A   1       4.545  16.760  41.511  1.00  0.00    +0.000 H 
ATOM     32  N2  UNL A   1       4.709  16.575  40.558  1.00  0.00    +0.000 N 
BRANCH   32   31
ATOM    133  H28 UNL A   1       6.146  16.338  39.103  1.00  0.00    +0.000 H 
ATOM    134  H29 UNL A   1       6.579  17.397  40.456  1.00  0.00    +0.000 H 
ATOM     31  C22 UNL A   1       6.101  16.486  40.162  1.00  0.00    +0.000 C 
BRANCH   31   30
ATOM    131  H26 UNL A   1       7.889  15.538  40.779  1.00  0.00    +0.000 H 
ATOM    132  H27 UNL A   1       6.475  15.309  41.850  1.00  0.00    +0.000 H 
ATOM     30  C21 UNL A   1       6.839  15.342  40.844  1.00  0.00    +0.000 C 
BRANCH   30   29
ATOM    129  H24 UNL A   1       6.050  14.092  39.326  1.00  0.00    +0.000 H 
ATOM    130  H25 UNL A   1       7.538  13.502  40.140  1.00  0.00    +0.000 H 
ATOM     29  C20 UNL A   1       6.576  13.958  40.248  1.00  0.00    +0.000 C 
BRANCH   29   28
ATOM     28  C19 UNL A   1       5.758  12.997  41.120  1.00  0.00    +0.000 C 
ATOM    127  H22 UNL A   1       4.808  12.855  40.651  1.00  0.00    +0.000 H 
ATOM    128  H23 UNL A   1       6.343  12.104  41.197  1.00  0.00    +0.000 H 
BRANCH   28   27
ATOM     27  C18 UNL A   1       5.508  13.454  42.559  1.00  0.00    +0.000 C 
ATOM    125  H20 UNL A   1       6.392  13.267  43.132  1.00  0.00    +0.000 H 
ATOM    126  H21 UNL A   1       5.262  14.495  42.518  1.00  0.00    +0.000 H 
BRANCH   27   26
ATOM     26  C17 UNL A   1       4.346  12.750  43.228  1.00  0.00    +0.000 C 
ATOM    123  H18 UNL A   1       3.488  12.820  42.593  1.00  0.00    +0.000 H 
ATOM    124  H19 UNL A   1       4.626  11.730  43.388  1.00  0.00    +0.000 H 
BRANCH   26   25
ATOM     25  N1  UNL A   1       4.029  13.333  44.511  1.00  0.00    +0.000 N 
ATOM    122  H17 UNL A   1       3.496  14.161  44.522  1.00  0.00    +0.000 H 
BRANCH   25   23
ATOM     23  C16 UNL A   1       4.419  12.810  45.709  1.00  0.00    +0.000 C 
ATOM     24  O8  UNL A   1       4.936  11.707  45.779  1.00  0.00    +0.000 O 
BRANCH   23   22
ATOM      2  C2  UNL A   1       5.614  18.588  47.385  1.00  0.00    +0.000 C 
ATOM      3  C3  UNL A   1       5.741  19.256  48.705  1.00  0.00    +0.000 C 
ATOM      4  O1  UNL A   1       6.283  20.311  48.937  1.00  0.00    +0.000 O 
ATOM      5  O2  UNL A   1       5.174  18.409  49.610  1.00  0.00    +0.000 O 
ATOM      6  C4  UNL A   1       4.747  17.181  48.963  1.00  0.00    +0.000 C 
ATOM      7  C5  UNL A   1       5.587  17.129  47.693  1.00  0.00    +0.000 C 
ATOM      8  C6  UNL A   1       5.276  16.096  46.600  1.00  0.00    +0.000 C 
ATOM     17  C12 UNL A   1       5.283  14.627  47.187  1.00  0.00    +0.000 C 
ATOM     22  C15 UNL A   1       4.140  13.656  46.924  1.00  0.00    +0.000 C 
ATOM    150  H45 UNL A   1       2.400  12.735  46.752  1.00  0.00    +0.000 H 
ATOM    152  H47 UNL A   1       1.206  15.072  50.190  1.00  0.00    +0.000 H 
ATOM    151  H46 UNL A   1       1.519  12.782  48.241  1.00  0.00    +0.000 H 
ATOM    156  H51 UNL A   1       3.386  17.858  47.974  1.00  0.00    +0.000 H 
ATOM     98  C68 UNL A   1       2.947  13.285  47.433  1.00  0.00    +0.000 C 
ATOM     99  C69 UNL A   1       2.222  13.454  48.690  1.00  0.00    +0.000 C 
ATOM    100  O10 UNL A   1       2.985  13.687  49.865  1.00  0.00    +0.000 O 
ATOM    101  C70 UNL A   1       1.982  14.646  49.589  1.00  0.00    +0.000 C 
ATOM    102  C71 UNL A   1       2.222  16.032  48.984  1.00  0.00    +0.000 C 
ATOM    104  O11 UNL A   1       2.564  16.977  50.022  1.00  0.00    +0.000 O 
ATOM    105  C73 UNL A   1       3.263  17.186  48.798  1.00  0.00    +0.000 C 
ATOM    108  H3  UNL A   1       4.912  16.278  49.514  1.00  0.00    +0.000 H 
ATOM    109  H4  UNL A   1       6.554  16.684  47.804  1.00  0.00    +0.000 H 
ATOM    110  H5  UNL A   1       6.065  16.133  45.878  1.00  0.00    +0.000 H 
ATOM    118  H13 UNL A   1       5.480  13.958  46.375  1.00  0.00    +0.000 H 
BRANCH    2    1
ATOM      1  C1  UNL A   1       5.441  19.302  46.270  1.00  0.00    +0.000 C 
ATOM    106  H1  UNL A   1       5.108  20.277  46.328  1.00  0.00    +0.000 H 
ATOM    107  H2  UNL A   1       5.637  18.879  45.350  1.00  0.00    +0.000 H 
ENDBRANCH    2    1
BRANCH    8    9
ATOM      9  O3  UNL A   1       4.086  16.422  45.852  1.00  0.00    +0.000 O 
BRANCH    9   10
ATOM     10  C7  UNL A   1       4.056  16.795  44.521  1.00  0.00    +0.000 C 
ATOM     11  O4  UNL A   1       5.023  16.491  43.825  1.00  0.00    +0.000 O 
BRANCH   10   12
ATOM    114  H9  UNL A   1       0.927  18.670  43.872  1.00  0.00    +0.000 H 
ATOM     12  C8  UNL A   1       2.741  17.155  43.840  1.00  0.00    +0.000 C 
ATOM     14  O5  UNL A   1       2.984  18.151  42.807  1.00  0.00    +0.000 O 
ATOM     15  C10 UNL A   1       1.975  18.501  43.738  1.00  0.00    +0.000 C 
BRANCH   12   13
ATOM    113  H8  UNL A   1       2.091  16.059  42.130  1.00  0.00    +0.000 H 
ATOM     13  C9  UNL A   1       2.021  15.978  43.195  1.00  0.00    +0.000 C 
ATOM    111  H6  UNL A   1       0.992  15.988  43.487  1.00  0.00    +0.000 H 
ATOM    112  H7  UNL A   1       2.475  15.064  43.514  1.00  0.00    +0.000 H 
ENDBRANCH   12   13
BRANCH   15   16
ATOM    115  H10 UNL A   1       1.377  20.462  44.174  1.00  0.00    +0.000 H 
ATOM    116  H11 UNL A   1       3.095  20.264  43.931  1.00  0.00    +0.000 H 
ATOM    117  H12 UNL A   1       2.351  19.706  45.411  1.00  0.00    +0.000 H 
ATOM     16  C11 UNL A   1       2.217  19.825  44.357  1.00  0.00    +0.000 C 
ENDBRANCH   15   16
ENDBRANCH   10   12
ENDBRANCH    9   10
ENDBRANCH    8    9
BRANCH   17   18
ATOM     18  O6  UNL A   1       6.364  14.331  48.158  1.00  0.00    +0.000 O 
BRANCH   18   19
ATOM     19  C13 UNL A   1       7.676  14.129  48.292  1.00  0.00    +0.000 C 
ATOM     21  O7  UNL A   1       8.073  13.146  48.917  1.00  0.00    +0.000 O 
BRANCH   19   20
ATOM    121  H16 UNL A   1       8.159  15.710  47.009  1.00  0.00    +0.000 H 
ATOM     20  C14 UNL A   1       8.663  15.026  47.659  1.00  0.00    +0.000 C 
ATOM    119  H14 UNL A   1       9.362  14.446  47.093  1.00  0.00    +0.000 H 
ATOM    120  H15 UNL A   1       9.185  15.573  48.417  1.00  0.00    +0.000 H 
ENDBRANCH   19   20
ENDBRANCH   18   19
ENDBRANCH   17   18
BRANCH  102  103
ATOM    153  H48 UNL A   1       0.482  17.259  48.786  1.00  0.00    +0.000 H 
ATOM    154  H49 UNL A   1       0.236  15.592  48.324  1.00  0.00    +0.000 H 
ATOM    155  H50 UNL A   1       1.117  16.670  47.268  1.00  0.00    +0.000 H 
ATOM    103  C72 UNL A   1       0.915  16.417  48.288  1.00  0.00    +0.000 C 
ENDBRANCH  102  103
ENDBRANCH   23   22
ENDBRANCH   25   23
ENDBRANCH   26   25
ENDBRANCH   27   26
ENDBRANCH   28   27
ENDBRANCH   29   28
ENDBRANCH   30   29
ENDBRANCH   31   30
ENDBRANCH   32   31
ENDBRANCH   33   32
ENDBRANCH   35   33
ENDBRANCH   39   38
BRANCH   43   44
ATOM     44  C32 UNL A   1      -2.741   9.299  35.600  1.00  0.00    +0.000 C 
ATOM     45  C33 UNL A   1      -3.070   9.782  34.323  1.00  0.00    +0.000 C 
ATOM     46  F1  UNL A   1      -2.125   9.882  33.375  1.00  0.00    +0.000 F 
ATOM     47  C34 UNL A   1      -4.361  10.209  34.029  1.00  0.00    +0.000 C 
ATOM     48  F2  UNL A   1      -4.638  10.719  32.820  1.00  0.00    +0.000 F 
ATOM     49  C35 UNL A   1      -5.359  10.121  34.987  1.00  0.00    +0.000 C 
ATOM     50  F3  UNL A   1      -6.605  10.523  34.698  1.00  0.00    +0.000 F 
ATOM     51  C36 UNL A   1      -5.065   9.623  36.246  1.00  0.00    +0.000 C 
ATOM     52  F4  UNL A   1      -6.031   9.522  37.169  1.00  0.00    +0.000 F 
ATOM     53  C37 UNL A   1      -3.765   9.229  36.556  1.00  0.00    +0.000 C 
ATOM     54  F5  UNL A   1      -3.509   8.771  37.791  1.00  0.00    +0.000 F 
ENDBRANCH   43   44
BRANCH   60   61
ATOM     65  F7  UNL A   1       0.120  -0.053  36.322  1.00  0.00    +0.000 F 
ATOM     66  C46 UNL A   1       0.819   0.659  34.183  1.00  0.00    +0.000 C 
ATOM     67  F8  UNL A   1       0.658  -0.582  33.701  1.00  0.00    +0.000 F 
ATOM     68  C47 UNL A   1       1.279   1.671  33.353  1.00  0.00    +0.000 C 
ATOM     69  F9  UNL A   1       1.538   1.415  32.063  1.00  0.00    +0.000 F 
ATOM     70  C48 UNL A   1       1.472   2.953  33.858  1.00  0.00    +0.000 C 
ATOM     71  F10 UNL A   1       1.932   3.906  33.035  1.00  0.00    +0.000 F 
ATOM     61  C43 UNL A   1       1.177   3.255  35.197  1.00  0.00    +0.000 C 
ATOM     62  C44 UNL A   1       0.691   2.222  36.012  1.00  0.00    +0.000 C 
ATOM     63  F6  UNL A   1       0.407   2.454  37.301  1.00  0.00    +0.000 F 
ATOM     64  C45 UNL A   1       0.534   0.931  35.513  1.00  0.00    +0.000 C 
ENDBRANCH   60   61
BRANCH   75   76
ATOM     76  C52 UNL A   1       6.510   6.555  38.245  1.00  0.00    +0.000 C 
ATOM     77  C53 UNL A   1       6.709   5.782  39.397  1.00  0.00    +0.000 C 
ATOM     78  F11 UNL A   1       5.658   5.420  40.149  1.00  0.00    +0.000 F 
ATOM     79  C54 UNL A   1       7.988   5.414  39.808  1.00  0.00    +0.000 C 
ATOM     80  F12 UNL A   1       8.152   4.720  40.943  1.00  0.00    +0.000 F 
ATOM     81  C55 UNL A   1       9.093   5.781  39.055  1.00  0.00    +0.000 C 
ATOM     82  F13 UNL A   1      10.323   5.426  39.449  1.00  0.00    +0.000 F 
ATOM     83  C56 UNL A   1       8.922   6.525  37.898  1.00  0.00    +0.000 C 
ATOM     84  F14 UNL A   1       9.984   6.869  37.158  1.00  0.00    +0.000 F 
ATOM     85  C57 UNL A   1       7.645   6.922  37.505  1.00  0.00    +0.000 C 
ATOM     86  F15 UNL A   1       7.512   7.657  36.391  1.00  0.00    +0.000 F 
ENDBRANCH   75   76
TORSDOF 25
ENDMDL
MODEL 9
REMARK VINA RESULT:      -7.7      2.932      7.659
ROOT
ATOM    138  H33 UNL A   1      13.564  46.840   2.680  1.00  0.00    +0.000 H 
ATOM    139  H34 UNL A   1      15.259  47.016   0.708  1.00  0.00    +0.000 H 
ATOM    140  H35 UNL A   1      15.033  50.710   2.562  1.00  0.00    +0.000 H 
ATOM    141  H36 UNL A   1      16.611  56.897   2.728  1.00  0.00    +0.000 H 
ATOM    142  H37 UNL A   1      15.071  56.680   4.735  1.00  0.00    +0.000 H 
ATOM    143  H38 UNL A   1      15.321  52.951   2.918  1.00  0.00    +0.000 H 
ATOM    144  H39 UNL A   1      18.575  53.455  -0.867  1.00  0.00    +0.000 H 
ATOM    145  H40 UNL A   1      18.058  51.021  -1.459  1.00  0.00    +0.000 H 
ATOM    146  H41 UNL A   1      12.080  50.231   6.574  1.00  0.00    +0.000 H 
ATOM    147  H42 UNL A   1      12.165  52.772   6.876  1.00  0.00    +0.000 H 
ATOM     39  C28 UNL A   1      13.966  54.076   5.092  1.00  0.00    +0.000 C 
ATOM     40  C29 UNL A   1      13.571  52.626   5.103  1.00  0.00    +0.000 C 
ATOM     41  N3  UNL A   1      13.954  51.657   4.309  1.00  0.00    +0.000 N 
ATOM     42  C30 UNL A   1      13.323  50.515   4.779  1.00  0.00    +0.000 C 
ATOM     43  C31 UNL A   1      13.337  49.266   4.254  1.00  0.00    +0.000 C 
ATOM     55  C38 UNL A   1      14.061  48.903   3.064  1.00  0.00    +0.000 C 
ATOM     56  C39 UNL A   1      14.100  47.681   2.418  1.00  0.00    +0.000 C 
ATOM     57  C40 UNL A   1      14.991  47.783   1.345  1.00  0.00    +0.000 C 
ATOM     58  C41 UNL A   1      15.456  49.087   1.281  1.00  0.00    +0.000 C 
ATOM     59  N4  UNL A   1      14.882  49.762   2.346  1.00  0.00    +0.000 N 
ATOM     60  C42 UNL A   1      16.354  49.673   0.318  1.00  0.00    +0.000 C 
ATOM     72  C49 UNL A   1      16.757  50.968   0.316  1.00  0.00    +0.000 C 
ATOM     73  N5  UNL A   1      16.417  51.991   1.190  1.00  0.00    +0.000 N 
ATOM     74  C50 UNL A   1      17.072  53.050   0.781  1.00  0.00    +0.000 C 
ATOM     75  C51 UNL A   1      17.057  54.451   1.332  1.00  0.00    +0.000 C 
ATOM     87  C58 UNL A   1      16.277  54.725   2.394  1.00  0.00    +0.000 C 
ATOM     88  C59 UNL A   1      16.144  56.029   3.035  1.00  0.00    +0.000 C 
ATOM     89  C60 UNL A   1      15.320  55.917   4.087  1.00  0.00    +0.000 C 
ATOM     90  C61 UNL A   1      14.830  54.541   4.167  1.00  0.00    +0.000 C 
ATOM     91  N6  UNL A   1      15.452  53.904   3.123  1.00  0.00    +0.000 N 
ATOM     92  C62 UNL A   1      17.933  52.808  -0.385  1.00  0.00    +0.000 C 
ATOM     93  C63 UNL A   1      17.667  51.538  -0.656  1.00  0.00    +0.000 C 
ATOM     94  C64 UNL A   1      12.586  50.892   5.964  1.00  0.00    +0.000 C 
ATOM     95  C65 UNL A   1      12.645  52.201   6.163  1.00  0.00    +0.000 C 
ENDROOT
BRANCH   39   38
ATOM     97  C67 UNL A   1      13.600  55.927   8.359  1.00  0.00    +0.000 C 
ATOM     35  C24 UNL A   1      12.505  56.752   8.083  1.00  0.00    +0.000 C 
ATOM     36  C25 UNL A   1      11.833  56.657   6.864  1.00  0.00    +0.000 C 
ATOM     37  C26 UNL A   1      12.287  55.760   5.899  1.00  0.00    +0.000 C 
ATOM     38  C27 UNL A   1      13.443  54.995   6.130  1.00  0.00    +0.000 C 
ATOM    136  H31 UNL A   1      11.006  57.245   6.679  1.00  0.00    +0.000 H 
ATOM    137  H32 UNL A   1      11.774  55.658   5.010  1.00  0.00    +0.000 H 
ATOM    148  H43 UNL A   1      14.958  54.546   7.538  1.00  0.00    +0.000 H 
ATOM    149  H44 UNL A   1      14.032  55.936   9.296  1.00  0.00    +0.000 H 
ATOM     96  C66 UNL A   1      14.101  55.094   7.366  1.00  0.00    +0.000 C 
BRANCH   35   33
ATOM     33  C23 UNL A   1      12.061  57.769   9.055  1.00  0.00    +0.000 C 
ATOM     34  O9  UNL A   1      12.414  58.936   8.932  1.00  0.00    +0.000 O 
BRANCH   33   32
ATOM    135  H30 UNL A   1      11.645  56.645  10.663  1.00  0.00    +0.000 H 
ATOM     32  N2  UNL A   1      11.284  57.378  10.113  1.00  0.00    +0.000 N 
BRANCH   32   31
ATOM    133  H28 UNL A   1       9.651  57.336  11.367  1.00  0.00    +0.000 H 
ATOM    134  H29 UNL A   1      10.135  58.935  10.776  1.00  0.00    +0.000 H 
ATOM     31  C22 UNL A   1       9.997  57.903  10.528  1.00  0.00    +0.000 C 
BRANCH   31   30
ATOM    131  H26 UNL A   1       8.216  58.593   9.617  1.00  0.00    +0.000 H 
ATOM    132  H27 UNL A   1       9.470  57.971   8.505  1.00  0.00    +0.000 H 
ATOM     30  C21 UNL A   1       8.947  57.834   9.428  1.00  0.00    +0.000 C 
BRANCH   30   29
ATOM    129  H24 UNL A   1       8.228  56.031  10.279  1.00  0.00    +0.000 H 
ATOM    130  H25 UNL A   1       7.240  56.725   8.949  1.00  0.00    +0.000 H 
ATOM     29  C20 UNL A   1       8.219  56.493   9.313  1.00  0.00    +0.000 C 
BRANCH   29   28
ATOM     28  C19 UNL A   1       8.809  55.495   8.309  1.00  0.00    +0.000 C 
ATOM    127  H22 UNL A   1       8.189  55.500   7.438  1.00  0.00    +0.000 H 
ATOM    128  H23 UNL A   1       9.813  55.820   8.130  1.00  0.00    +0.000 H 
BRANCH   28   27
ATOM     27  C18 UNL A   1       8.921  54.049   8.796  1.00  0.00    +0.000 C 
ATOM    125  H20 UNL A   1       9.066  54.059   9.857  1.00  0.00    +0.000 H 
ATOM    126  H21 UNL A   1       8.015  53.553   8.515  1.00  0.00    +0.000 H 
BRANCH   27   26
ATOM     26  C17 UNL A   1      10.062  53.280   8.165  1.00  0.00    +0.000 C 
ATOM    123  H18 UNL A   1       9.789  53.013   7.166  1.00  0.00    +0.000 H 
ATOM    124  H19 UNL A   1      10.928  53.909   8.173  1.00  0.00    +0.000 H 
BRANCH   26   25
ATOM     25  N1  UNL A   1      10.376  52.078   8.902  1.00  0.00    +0.000 N 
ATOM    122  H17 UNL A   1       9.917  51.246   8.644  1.00  0.00    +0.000 H 
BRANCH   25   23
ATOM     23  C16 UNL A   1      11.268  52.019   9.933  1.00  0.00    +0.000 C 
ATOM     24  O8  UNL A   1      12.445  52.295   9.766  1.00  0.00    +0.000 O 
BRANCH   23   22
ATOM      2  C2  UNL A   1      11.532  46.850  13.224  1.00  0.00    +0.000 C 
ATOM      3  C3  UNL A   1      10.650  46.265  14.266  1.00  0.00    +0.000 C 
ATOM      4  O1  UNL A   1      10.615  45.111  14.623  1.00  0.00    +0.000 O 
ATOM      5  O2  UNL A   1       9.849  47.281  14.695  1.00  0.00    +0.000 O 
ATOM      6  C4  UNL A   1      10.108  48.491  13.933  1.00  0.00    +0.000 C 
ATOM      7  C5  UNL A   1      10.748  47.981  12.648  1.00  0.00    +0.000 C 
ATOM      8  C6  UNL A   1      11.390  48.965  11.659  1.00  0.00    +0.000 C 
ATOM     17  C12 UNL A   1      10.359  50.082  11.218  1.00  0.00    +0.000 C 
ATOM     22  C15 UNL A   1      10.720  51.562  11.259  1.00  0.00    +0.000 C 
ATOM    150  H45 UNL A   1      11.290  53.389  11.748  1.00  0.00    +0.000 H 
ATOM    152  H47 UNL A   1       9.895  52.396  15.720  1.00  0.00    +0.000 H 
ATOM    151  H46 UNL A   1      10.487  53.930  13.183  1.00  0.00    +0.000 H 
ATOM    156  H51 UNL A   1      11.770  48.853  14.559  1.00  0.00    +0.000 H 
ATOM     98  C68 UNL A   1      10.697  52.619  12.096  1.00  0.00    +0.000 C 
ATOM     99  C69 UNL A   1      10.060  52.965  13.364  1.00  0.00    +0.000 C 
ATOM    100  O10 UNL A   1       8.851  52.298  13.698  1.00  0.00    +0.000 O 
ATOM    101  C70 UNL A   1       9.881  52.216  14.666  1.00  0.00    +0.000 C 
ATOM    102  C71 UNL A   1      10.784  51.002  14.899  1.00  0.00    +0.000 C 
ATOM    104  O11 UNL A   1      10.140  50.065  15.790  1.00  0.00    +0.000 O 
ATOM    105  C73 UNL A   1      10.903  49.447  14.757  1.00  0.00    +0.000 C 
ATOM    108  H3  UNL A   1       9.249  49.074  13.673  1.00  0.00    +0.000 H 
ATOM    109  H4  UNL A   1      10.061  47.694  11.879  1.00  0.00    +0.000 H 
ATOM    110  H5  UNL A   1      11.640  48.423  10.770  1.00  0.00    +0.000 H 
ATOM    118  H13 UNL A   1      10.683  50.461  10.271  1.00  0.00    +0.000 H 
BRANCH    2    1
ATOM      1  C1  UNL A   1      12.783  46.414  13.062  1.00  0.00    +0.000 C 
ATOM    106  H1  UNL A   1      12.997  45.410  13.164  1.00  0.00    +0.000 H 
ATOM    107  H2  UNL A   1      13.537  47.081  12.835  1.00  0.00    +0.000 H 
ENDBRANCH    2    1
BRANCH    8    9
ATOM      9  O3  UNL A   1      12.650  49.484  12.133  1.00  0.00    +0.000 O 
BRANCH    9   10
ATOM     10  C7  UNL A   1      13.796  49.619  11.371  1.00  0.00    +0.000 C 
ATOM     11  O4  UNL A   1      13.766  49.186  10.221  1.00  0.00    +0.000 O 
BRANCH   10   12
ATOM    114  H9  UNL A   1      17.187  50.889  12.154  1.00  0.00    +0.000 H 
ATOM     12  C8  UNL A   1      14.873  50.629  11.752  1.00  0.00    +0.000 C 
ATOM     14  O5  UNL A   1      15.467  51.184  10.545  1.00  0.00    +0.000 O 
ATOM     15  C10 UNL A   1      16.399  50.652  11.470  1.00  0.00    +0.000 C 
BRANCH   12   13
ATOM    113  H8  UNL A   1      15.099  52.578  12.586  1.00  0.00    +0.000 H 
ATOM     13  C9  UNL A   1      14.378  51.788  12.605  1.00  0.00    +0.000 C 
ATOM    111  H6  UNL A   1      14.241  51.454  13.613  1.00  0.00    +0.000 H 
ATOM    112  H7  UNL A   1      13.447  52.145  12.218  1.00  0.00    +0.000 H 
ENDBRANCH   12   13
BRANCH   15   16
ATOM    115  H10 UNL A   1      17.075  48.684  11.221  1.00  0.00    +0.000 H 
ATOM    116  H11 UNL A   1      18.319  49.903  11.086  1.00  0.00    +0.000 H 
ATOM    117  H12 UNL A   1      17.174  49.674   9.786  1.00  0.00    +0.000 H 
ATOM     16  C11 UNL A   1      17.305  49.660  10.847  1.00  0.00    +0.000 C 
ENDBRANCH   15   16
ENDBRANCH   10   12
ENDBRANCH    9   10
ENDBRANCH    8    9
BRANCH   17   18
ATOM     18  O6  UNL A   1       8.978  49.612  10.958  1.00  0.00    +0.000 O 
BRANCH   18   19
ATOM     19  C13 UNL A   1       8.168  49.082  10.038  1.00  0.00    +0.000 C 
ATOM     21  O7  UNL A   1       7.972  47.868  10.037  1.00  0.00    +0.000 O 
BRANCH   19   20
ATOM    121  H16 UNL A   1       6.799  50.596   9.577  1.00  0.00    +0.000 H 
ATOM     20  C14 UNL A   1       7.455  49.928   9.060  1.00  0.00    +0.000 C 
ATOM    119  H14 UNL A   1       6.886  49.308   8.400  1.00  0.00    +0.000 H 
ATOM    120  H15 UNL A   1       8.166  50.494   8.494  1.00  0.00    +0.000 H 
ENDBRANCH   19   20
ENDBRANCH   18   19
ENDBRANCH   17   18
BRANCH  102  103
ATOM    153  H48 UNL A   1      12.583  52.151  14.780  1.00  0.00    +0.000 H 
ATOM    154  H49 UNL A   1      12.704  50.739  15.802  1.00  0.00    +0.000 H 
ATOM    155  H50 UNL A   1      11.839  52.151  16.362  1.00  0.00    +0.000 H 
ATOM    103  C72 UNL A   1      12.075  51.552  15.507  1.00  0.00    +0.000 C 
ENDBRANCH  102  103
ENDBRANCH   23   22
ENDBRANCH   25   23
ENDBRANCH   26   25
ENDBRANCH   27   26
ENDBRANCH   28   27
ENDBRANCH   29   28
ENDBRANCH   30   29
ENDBRANCH   31   30
ENDBRANCH   32   31
ENDBRANCH   33   32
ENDBRANCH   35   33
ENDBRANCH   39   38
BRANCH   43   44
ATOM     44  C32 UNL A   1      12.548  48.202   4.963  1.00  0.00    +0.000 C 
ATOM     45  C33 UNL A   1      11.291  47.781   4.501  1.00  0.00    +0.000 C 
ATOM     46  F1  UNL A   1      10.740  48.359   3.422  1.00  0.00    +0.000 F 
ATOM     47  C34 UNL A   1      10.573  46.794   5.171  1.00  0.00    +0.000 C 
ATOM     48  F2  UNL A   1       9.351  46.448   4.741  1.00  0.00    +0.000 F 
ATOM     49  C35 UNL A   1      11.114  46.179   6.289  1.00  0.00    +0.000 C 
ATOM     50  F3  UNL A   1      10.426  45.222   6.928  1.00  0.00    +0.000 F 
ATOM     51  C36 UNL A   1      12.364  46.559   6.750  1.00  0.00    +0.000 C 
ATOM     52  F4  UNL A   1      12.895  45.955   7.821  1.00  0.00    +0.000 F 
ATOM     53  C37 UNL A   1      13.069  47.572   6.103  1.00  0.00    +0.000 C 
ATOM     54  F5  UNL A   1      14.268  47.932   6.588  1.00  0.00    +0.000 F 
ENDBRANCH   43   44
BRANCH   60   61
ATOM     65  F7  UNL A   1      19.648  46.570  -1.573  1.00  0.00    +0.000 F 
ATOM     66  C46 UNL A   1      17.741  47.105  -2.857  1.00  0.00    +0.000 C 
ATOM     67  F8  UNL A   1      18.166  46.308  -3.848  1.00  0.00    +0.000 F 
ATOM     68  C47 UNL A   1      16.557  47.812  -2.996  1.00  0.00    +0.000 C 
ATOM     69  F9  UNL A   1      15.823  47.680  -4.110  1.00  0.00    +0.000 F 
ATOM     70  C48 UNL A   1      16.127  48.660  -1.980  1.00  0.00    +0.000 C 
ATOM     71  F10 UNL A   1      14.986  49.343  -2.151  1.00  0.00    +0.000 F 
ATOM     61  C43 UNL A   1      16.860  48.792  -0.789  1.00  0.00    +0.000 C 
ATOM     62  C44 UNL A   1      18.043  48.048  -0.661  1.00  0.00    +0.000 C 
ATOM     63  F6  UNL A   1      18.787  48.148   0.450  1.00  0.00    +0.000 F 
ATOM     64  C45 UNL A   1      18.488  47.229  -1.695  1.00  0.00    +0.000 C 
ENDBRANCH   60   61
BRANCH   75   76
ATOM     76  C52 UNL A   1      17.873  55.527   0.708  1.00  0.00    +0.000 C 
ATOM     77  C53 UNL A   1      17.415  56.218  -0.422  1.00  0.00    +0.000 C 
ATOM     78  F11 UNL A   1      16.227  55.906  -0.962  1.00  0.00    +0.000 F 
ATOM     79  C54 UNL A   1      18.192  57.201  -1.031  1.00  0.00    +0.000 C 
ATOM     80  F12 UNL A   1      17.752  57.808  -2.142  1.00  0.00    +0.000 F 
ATOM     81  C55 UNL A   1      19.427  57.539  -0.500  1.00  0.00    +0.000 C 
ATOM     82  F13 UNL A   1      20.174  58.486  -1.084  1.00  0.00    +0.000 F 
ATOM     83  C56 UNL A   1      19.892  56.887   0.632  1.00  0.00    +0.000 C 
ATOM     84  F14 UNL A   1      21.078  57.220   1.158  1.00  0.00    +0.000 F 
ATOM     85  C57 UNL A   1      19.130  55.880   1.221  1.00  0.00    +0.000 C 
ATOM     86  F15 UNL A   1      19.614  55.255   2.304  1.00  0.00    +0.000 F 
ENDBRANCH   75   76
TORSDOF 25
ENDMDL
MODEL 10
REMARK VINA RESULT:      -7.7     26.766     33.863
ROOT
ATOM    138  H33 UNL A   1      21.461  19.881   3.442  1.00  0.00    +0.000 H 
ATOM    139  H34 UNL A   1      21.781  17.614   4.690  1.00  0.00    +0.000 H 
ATOM    140  H35 UNL A   1      18.151  19.235   5.847  1.00  0.00    +0.000 H 
ATOM    141  H36 UNL A   1      12.964  19.038   9.568  1.00  0.00    +0.000 H 
ATOM    142  H37 UNL A   1      12.593  21.170   8.240  1.00  0.00    +0.000 H 
ATOM    143  H38 UNL A   1      16.218  19.535   7.030  1.00  0.00    +0.000 H 
ATOM    144  H39 UNL A   1      16.710  15.216   9.535  1.00  0.00    +0.000 H 
ATOM    145  H40 UNL A   1      19.008  14.995   8.434  1.00  0.00    +0.000 H 
ATOM    146  H41 UNL A   1      17.393  23.376   3.140  1.00  0.00    +0.000 H 
ATOM    147  H42 UNL A   1      15.353  23.893   4.598  1.00  0.00    +0.000 H 
ATOM     39  C28 UNL A   1      14.710  21.817   6.442  1.00  0.00    +0.000 C 
ATOM     40  C29 UNL A   1      15.907  21.905   5.538  1.00  0.00    +0.000 C 
ATOM     41  N3  UNL A   1      16.905  21.068   5.401  1.00  0.00    +0.000 N 
ATOM     42  C30 UNL A   1      17.713  21.607   4.410  1.00  0.00    +0.000 C 
ATOM     43  C31 UNL A   1      18.907  21.154   3.957  1.00  0.00    +0.000 C 
ATOM     55  C38 UNL A   1      19.557  19.969   4.450  1.00  0.00    +0.000 C 
ATOM     56  C39 UNL A   1      20.791  19.452   4.098  1.00  0.00    +0.000 C 
ATOM     57  C40 UNL A   1      20.972  18.248   4.786  1.00  0.00    +0.000 C 
ATOM     58  C41 UNL A   1      19.883  18.049   5.620  1.00  0.00    +0.000 C 
ATOM     59  N4  UNL A   1      19.019  19.110   5.398  1.00  0.00    +0.000 N 
ATOM     60  C42 UNL A   1      19.649  16.973   6.550  1.00  0.00    +0.000 C 
ATOM     72  C49 UNL A   1      18.556  16.851   7.342  1.00  0.00    +0.000 C 
ATOM     73  N5  UNL A   1      17.456  17.692   7.450  1.00  0.00    +0.000 N 
ATOM     74  C50 UNL A   1      16.664  17.139   8.336  1.00  0.00    +0.000 C 
ATOM     75  C51 UNL A   1      15.346  17.631   8.872  1.00  0.00    +0.000 C 
ATOM     87  C58 UNL A   1      14.855  18.800   8.423  1.00  0.00    +0.000 C 
ATOM     88  C59 UNL A   1      13.602  19.415   8.850  1.00  0.00    +0.000 C 
ATOM     89  C60 UNL A   1      13.413  20.549   8.158  1.00  0.00    +0.000 C 
ATOM     90  C61 UNL A   1      14.556  20.764   7.269  1.00  0.00    +0.000 C 
ATOM     91  N6  UNL A   1      15.361  19.676   7.493  1.00  0.00    +0.000 N 
ATOM     92  C62 UNL A   1      17.159  15.862   8.868  1.00  0.00    +0.000 C 
ATOM     93  C63 UNL A   1      18.335  15.758   8.266  1.00  0.00    +0.000 C 
ATOM     94  C64 UNL A   1      17.061  22.805   3.933  1.00  0.00    +0.000 C 
ATOM     95  C65 UNL A   1      15.980  23.075   4.649  1.00  0.00    +0.000 C 
ENDROOT
BRANCH   39   38
ATOM     97  C67 UNL A   1      11.682  23.788   5.353  1.00  0.00    +0.000 C 
ATOM     35  C24 UNL A   1      11.660  24.804   6.312  1.00  0.00    +0.000 C 
ATOM     36  C25 UNL A   1      12.670  24.900   7.270  1.00  0.00    +0.000 C 
ATOM     37  C26 UNL A   1      13.685  23.946   7.293  1.00  0.00    +0.000 C 
ATOM     38  C27 UNL A   1      13.665  22.867   6.393  1.00  0.00    +0.000 C 
ATOM    136  H31 UNL A   1      12.666  25.672   7.954  1.00  0.00    +0.000 H 
ATOM    137  H32 UNL A   1      14.455  24.031   7.975  1.00  0.00    +0.000 H 
ATOM    148  H43 UNL A   1      12.618  21.994   4.774  1.00  0.00    +0.000 H 
ATOM    149  H44 UNL A   1      10.986  23.778   4.591  1.00  0.00    +0.000 H 
ATOM     96  C66 UNL A   1      12.648  22.791   5.429  1.00  0.00    +0.000 C 
BRANCH   35   33
ATOM     33  C23 UNL A   1      10.549  25.774   6.360  1.00  0.00    +0.000 C 
ATOM     34  O9  UNL A   1       9.855  25.867   7.366  1.00  0.00    +0.000 O 
BRANCH   33   32
ATOM    135  H30 UNL A   1      10.878  27.309   5.113  1.00  0.00    +0.000 H 
ATOM     32  N2  UNL A   1      10.286  26.534   5.252  1.00  0.00    +0.000 N 
BRANCH   32   31
ATOM    133  H28 UNL A   1       9.061  25.298   4.151  1.00  0.00    +0.000 H 
ATOM    134  H29 UNL A   1       8.378  26.871   4.595  1.00  0.00    +0.000 H 
ATOM     31  C22 UNL A   1       9.247  26.347   4.257  1.00  0.00    +0.000 C 
BRANCH   31   30
ATOM    131  H26 UNL A   1       9.533  26.128   2.172  1.00  0.00    +0.000 H 
ATOM    132  H27 UNL A   1       8.956  27.731   2.717  1.00  0.00    +0.000 H 
ATOM     30  C21 UNL A   1       9.622  26.913   2.895  1.00  0.00    +0.000 C 
BRANCH   30   29
ATOM    129  H24 UNL A   1      10.999  28.510   3.109  1.00  0.00    +0.000 H 
ATOM    130  H25 UNL A   1      11.644  26.864   3.427  1.00  0.00    +0.000 H 
ATOM     29  C20 UNL A   1      11.038  27.486   2.801  1.00  0.00    +0.000 C 
BRANCH   29   28
ATOM     28  C19 UNL A   1      11.689  27.437   1.413  1.00  0.00    +0.000 C 
ATOM    127  H22 UNL A   1      10.966  27.769   0.699  1.00  0.00    +0.000 H 
ATOM    128  H23 UNL A   1      12.556  28.061   1.476  1.00  0.00    +0.000 H 
BRANCH   28   27
ATOM     27  C18 UNL A   1      12.197  26.065   0.965  1.00  0.00    +0.000 C 
ATOM    125  H20 UNL A   1      13.264  26.054   1.049  1.00  0.00    +0.000 H 
ATOM    126  H21 UNL A   1      11.731  25.337   1.596  1.00  0.00    +0.000 H 
BRANCH   27   26
ATOM     26  C17 UNL A   1      11.827  25.716  -0.461  1.00  0.00    +0.000 C 
ATOM    123  H18 UNL A   1      10.762  25.709  -0.551  1.00  0.00    +0.000 H 
ATOM    124  H19 UNL A   1      12.264  26.450  -1.105  1.00  0.00    +0.000 H 
BRANCH   26   25
ATOM     25  N1  UNL A   1      12.338  24.421  -0.849  1.00  0.00    +0.000 N 
ATOM    122  H17 UNL A   1      11.787  23.630  -0.650  1.00  0.00    +0.000 H 
BRANCH   25   23
ATOM     23  C16 UNL A   1      13.534  24.223  -1.476  1.00  0.00    +0.000 C 
ATOM     24  O8  UNL A   1      14.260  25.162  -1.760  1.00  0.00    +0.000 O 
BRANCH   23   22
ATOM      2  C2  UNL A   1      15.733  19.384   1.584  1.00  0.00    +0.000 C 
ATOM      3  C3  UNL A   1      16.471  18.167   1.162  1.00  0.00    +0.000 C 
ATOM      4  O1  UNL A   1      17.131  17.437   1.863  1.00  0.00    +0.000 O 
ATOM      5  O2  UNL A   1      16.301  18.074  -0.188  1.00  0.00    +0.000 O 
ATOM      6  C4  UNL A   1      15.551  19.213  -0.687  1.00  0.00    +0.000 C 
ATOM      7  C5  UNL A   1      15.744  20.275   0.388  1.00  0.00    +0.000 C 
ATOM      8  C6  UNL A   1      14.916  21.568   0.357  1.00  0.00    +0.000 C 
ATOM     17  C12 UNL A   1      15.080  22.316  -1.028  1.00  0.00    +0.000 C 
ATOM     22  C15 UNL A   1      13.873  22.797  -1.822  1.00  0.00    +0.000 C 
ATOM    150  H45 UNL A   1      12.175  22.986  -2.815  1.00  0.00    +0.000 H 
ATOM    152  H47 UNL A   1      12.771  18.855  -3.949  1.00  0.00    +0.000 H 
ATOM    151  H46 UNL A   1      12.041  21.787  -4.056  1.00  0.00    +0.000 H 
ATOM    156  H51 UNL A   1      13.944  18.824   0.057  1.00  0.00    +0.000 H 
ATOM     98  C68 UNL A   1      13.001  22.370  -2.759  1.00  0.00    +0.000 C 
ATOM     99  C69 UNL A   1      12.913  21.268  -3.714  1.00  0.00    +0.000 C 
ATOM    100  O10 UNL A   1      14.129  20.673  -4.148  1.00  0.00    +0.000 O 
ATOM    101  C70 UNL A   1      13.174  19.783  -3.600  1.00  0.00    +0.000 C 
ATOM    102  C71 UNL A   1      13.219  19.191  -2.190  1.00  0.00    +0.000 C 
ATOM    104  O11 UNL A   1      14.044  18.006  -2.171  1.00  0.00    +0.000 O 
ATOM    105  C73 UNL A   1      14.149  18.801  -0.993  1.00  0.00    +0.000 C 
ATOM    108  H3  UNL A   1      15.878  19.617  -1.623  1.00  0.00    +0.000 H 
ATOM    109  H4  UNL A   1      16.629  20.868   0.288  1.00  0.00    +0.000 H 
ATOM    110  H5  UNL A   1      15.310  22.229   1.102  1.00  0.00    +0.000 H 
ATOM    118  H13 UNL A   1      14.854  23.349  -0.862  1.00  0.00    +0.000 H 
BRANCH    2    1
ATOM      1  C1  UNL A   1      15.138  19.445   2.778  1.00  0.00    +0.000 C 
ATOM    106  H1  UNL A   1      14.124  19.268   2.858  1.00  0.00    +0.000 H 
ATOM    107  H2  UNL A   1      15.690  19.671   3.619  1.00  0.00    +0.000 H 
ENDBRANCH    2    1
BRANCH    8    9
ATOM      9  O3  UNL A   1      13.544  21.357   0.750  1.00  0.00    +0.000 O 
BRANCH    9   10
ATOM     10  C7  UNL A   1      12.915  21.971   1.818  1.00  0.00    +0.000 C 
ATOM     11  O4  UNL A   1      13.310  23.088   2.142  1.00  0.00    +0.000 O 
BRANCH   10   12
ATOM    114  H9  UNL A   1       9.384  22.264   2.901  1.00  0.00    +0.000 H 
ATOM     12  C8  UNL A   1      11.537  21.511   2.282  1.00  0.00    +0.000 C 
ATOM     14  O5  UNL A   1      10.667  21.344   1.128  1.00  0.00    +0.000 O 
ATOM     15  C10 UNL A   1      10.140  22.173   2.149  1.00  0.00    +0.000 C 
BRANCH   12   13
ATOM    113  H8  UNL A   1      11.470  19.382   2.380  1.00  0.00    +0.000 H 
ATOM     13  C9  UNL A   1      11.537  20.204   3.062  1.00  0.00    +0.000 C 
ATOM    111  H6  UNL A   1      10.698  20.186   3.726  1.00  0.00    +0.000 H 
ATOM    112  H7  UNL A   1      12.442  20.125   3.628  1.00  0.00    +0.000 H 
ENDBRANCH   12   13
BRANCH   15   16
ATOM    115  H10 UNL A   1       9.812  24.226   2.413  1.00  0.00    +0.000 H 
ATOM    116  H11 UNL A   1       8.697  23.447   1.317  1.00  0.00    +0.000 H 
ATOM    117  H12 UNL A   1      10.337  23.773   0.810  1.00  0.00    +0.000 H 
ATOM     16  C11 UNL A   1       9.717  23.496   1.636  1.00  0.00    +0.000 C 
ENDBRANCH   15   16
ENDBRANCH   10   12
ENDBRANCH    9   10
ENDBRANCH    8    9
BRANCH   17   18
ATOM     18  O6  UNL A   1      16.453  22.338  -1.585  1.00  0.00    +0.000 O 
BRANCH   18   19
ATOM     19  C13 UNL A   1      17.494  23.122  -1.873  1.00  0.00    +0.000 C 
ATOM     21  O7  UNL A   1      18.228  22.825  -2.815  1.00  0.00    +0.000 O 
BRANCH   19   20
ATOM    121  H16 UNL A   1      18.742  24.713  -1.336  1.00  0.00    +0.000 H 
ATOM     20  C14 UNL A   1      17.752  24.368  -1.124  1.00  0.00    +0.000 C 
ATOM    119  H14 UNL A   1      17.657  24.180  -0.076  1.00  0.00    +0.000 H 
ATOM    120  H15 UNL A   1      17.044  25.114  -1.419  1.00  0.00    +0.000 H 
ENDBRANCH   19   20
ENDBRANCH   18   19
ENDBRANCH   17   18
BRANCH  102  103
ATOM    153  H48 UNL A   1      11.123  19.189  -2.614  1.00  0.00    +0.000 H 
ATOM    154  H49 UNL A   1      11.508  19.371  -0.920  1.00  0.00    +0.000 H 
ATOM    155  H50 UNL A   1      11.665  17.810  -1.689  1.00  0.00    +0.000 H 
ATOM    103  C72 UNL A   1      11.769  18.866  -1.826  1.00  0.00    +0.000 C 
ENDBRANCH  102  103
ENDBRANCH   23   22
ENDBRANCH   25   23
ENDBRANCH   26   25
ENDBRANCH   27   26
ENDBRANCH   28   27
ENDBRANCH   29   28
ENDBRANCH   30   29
ENDBRANCH   31   30
ENDBRANCH   32   31
ENDBRANCH   33   32
ENDBRANCH   35   33
ENDBRANCH   39   38
BRANCH   43   44
ATOM     44  C32 UNL A   1      19.586  21.944   2.873  1.00  0.00    +0.000 C 
ATOM     45  C33 UNL A   1      20.282  23.132   3.149  1.00  0.00    +0.000 C 
ATOM     46  F1  UNL A   1      20.320  23.618   4.399  1.00  0.00    +0.000 F 
ATOM     47  C34 UNL A   1      20.904  23.851   2.132  1.00  0.00    +0.000 C 
ATOM     48  F2  UNL A   1      21.515  25.011   2.411  1.00  0.00    +0.000 F 
ATOM     49  C35 UNL A   1      20.881  23.377   0.830  1.00  0.00    +0.000 C 
ATOM     50  F3  UNL A   1      21.490  24.065  -0.147  1.00  0.00    +0.000 F 
ATOM     51  C36 UNL A   1      20.223  22.193   0.537  1.00  0.00    +0.000 C 
ATOM     52  F4  UNL A   1      20.213  21.725  -0.718  1.00  0.00    +0.000 F 
ATOM     53  C37 UNL A   1      19.568  21.490   1.546  1.00  0.00    +0.000 C 
ATOM     54  F5  UNL A   1      18.921  20.359   1.226  1.00  0.00    +0.000 F 
ENDBRANCH   43   44
BRANCH   60   61
ATOM     65  F7  UNL A   1      23.701  15.148   8.627  1.00  0.00    +0.000 F 
ATOM     66  C46 UNL A   1      22.648  13.896   6.924  1.00  0.00    +0.000 C 
ATOM     67  F8  UNL A   1      23.577  12.936   7.036  1.00  0.00    +0.000 F 
ATOM     68  C47 UNL A   1      21.634  13.775   5.986  1.00  0.00    +0.000 C 
ATOM     69  F9  UNL A   1      21.568  12.685   5.208  1.00  0.00    +0.000 F 
ATOM     70  C48 UNL A   1      20.685  14.783   5.851  1.00  0.00    +0.000 C 
ATOM     71  F10 UNL A   1      19.726  14.643   4.924  1.00  0.00    +0.000 F 
ATOM     61  C43 UNL A   1      20.713  15.919   6.676  1.00  0.00    +0.000 C 
ATOM     62  C44 UNL A   1      21.734  16.009   7.634  1.00  0.00    +0.000 C 
ATOM     63  F6  UNL A   1      21.814  17.079   8.437  1.00  0.00    +0.000 F 
ATOM     64  C45 UNL A   1      22.704  15.016   7.741  1.00  0.00    +0.000 C 
ENDBRANCH   60   61
BRANCH   75   76
ATOM     76  C52 UNL A   1      14.600  16.854   9.897  1.00  0.00    +0.000 C 
ATOM     77  C53 UNL A   1      14.871  17.011  11.263  1.00  0.00    +0.000 C 
ATOM     78  F11 UNL A   1      15.823  17.868  11.662  1.00  0.00    +0.000 F 
ATOM     79  C54 UNL A   1      14.200  16.258  12.224  1.00  0.00    +0.000 C 
ATOM     80  F12 UNL A   1      14.518  16.390  13.519  1.00  0.00    +0.000 F 
ATOM     81  C55 UNL A   1      13.216  15.359  11.841  1.00  0.00    +0.000 C 
ATOM     82  F13 UNL A   1      12.569  14.636  12.765  1.00  0.00    +0.000 F 
ATOM     83  C56 UNL A   1      12.912  15.203  10.497  1.00  0.00    +0.000 C 
ATOM     84  F14 UNL A   1      11.952  14.347  10.122  1.00  0.00    +0.000 F 
ATOM     85  C57 UNL A   1      13.606  15.931   9.534  1.00  0.00    +0.000 C 
ATOM     86  F15 UNL A   1      13.302  15.746   8.241  1.00  0.00    +0.000 F 
ENDBRANCH   75   76
TORSDOF 25
ENDMDL
