MODEL 1
REMARK VINA RESULT:      -8.8      0.000      0.000
ROOT
ATOM    129  H31 UNL A   1      13.177  46.859   2.138  1.00  0.00    +0.000 H 
ATOM    130  H32 UNL A   1      14.901  46.967   0.247  1.00  0.00    +0.000 H 
ATOM    131  H33 UNL A   1      16.757  56.609   2.384  1.00  0.00    +0.000 H 
ATOM    132  H34 UNL A   1      15.394  56.393   4.542  1.00  0.00    +0.000 H 
ATOM     28  C21 UNL A   1      14.106  53.869   4.831  1.00  0.00    +0.000 C 
ATOM     29  C22 UNL A   1      15.076  54.287   3.763  1.00  0.00    +0.000 C 
ATOM     30  N5  UNL A   1      15.537  53.599   2.749  1.00  0.00    +0.000 N 
ATOM     31  C23 UNL A   1      16.356  54.471   2.043  1.00  0.00    +0.000 C 
ATOM     32  C24 UNL A   1      17.103  54.220   0.941  1.00  0.00    +0.000 C 
ATOM     44  C31 UNL A   1      17.190  52.937   0.294  1.00  0.00    +0.000 C 
ATOM     45  C32 UNL A   1      17.996  52.558  -0.766  1.00  0.00    +0.000 C 
ATOM     46  C33 UNL A   1      17.700  51.228  -1.087  1.00  0.00    +0.000 C 
ATOM     47  C34 UNL A   1      16.741  50.766  -0.199  1.00  0.00    +0.000 C 
ATOM     48  N6  UNL A   1      16.440  51.823   0.644  1.00  0.00    +0.000 N 
ATOM     49  C35 UNL A   1      16.143  49.457  -0.125  1.00  0.00    +0.000 C 
ATOM     61  C42 UNL A   1      15.236  49.070   0.806  1.00  0.00    +0.000 C 
ATOM     62  N7  UNL A   1      14.684  49.806   1.844  1.00  0.00    +0.000 N 
ATOM     63  C43 UNL A   1      13.850  49.000   2.454  1.00  0.00    +0.000 C 
ATOM     64  C44 UNL A   1      12.986  49.266   3.654  1.00  0.00    +0.000 C 
ATOM     76  C51 UNL A   1      13.068  50.457   4.277  1.00  0.00    +0.000 C 
ATOM     77  C52 UNL A   1      12.303  50.846   5.458  1.00  0.00    +0.000 C 
ATOM     78  C53 UNL A   1      12.598  52.118   5.770  1.00  0.00    +0.000 C 
ATOM     79  C54 UNL A   1      13.596  52.623   4.827  1.00  0.00    +0.000 C 
ATOM     80  N8  UNL A   1      13.830  51.562   3.988  1.00  0.00    +0.000 N 
ATOM     81  C55 UNL A   1      13.769  47.659   1.861  1.00  0.00    +0.000 C 
ATOM     82  C56 UNL A   1      14.656  47.745   0.879  1.00  0.00    +0.000 C 
ATOM     83  C57 UNL A   1      16.295  55.749   2.720  1.00  0.00    +0.000 C 
ATOM     84  C58 UNL A   1      15.568  55.672   3.825  1.00  0.00    +0.000 C 
ATOM    123  H25 UNL A   1      18.694  53.153  -1.238  1.00  0.00    +0.000 H 
ATOM    124  H26 UNL A   1      18.123  50.685  -1.854  1.00  0.00    +0.000 H 
ATOM    125  H27 UNL A   1      15.791  51.790   1.383  1.00  0.00    +0.000 H 
ATOM    126  H28 UNL A   1      11.641  50.242   5.969  1.00  0.00    +0.000 H 
ATOM    127  H29 UNL A   1      12.186  52.654   6.551  1.00  0.00    +0.000 H 
ATOM    128  H30 UNL A   1      14.482  51.591   3.251  1.00  0.00    +0.000 H 
ENDROOT
BRANCH   28   27
ATOM    122  H24 UNL A   1      15.184  54.507   7.235  1.00  0.00    +0.000 H 
ATOM    133  H35 UNL A   1      11.973  55.484   4.691  1.00  0.00    +0.000 H 
ATOM    134  H36 UNL A   1      11.180  57.095   6.319  1.00  0.00    +0.000 H 
ATOM     85  C59 UNL A   1      12.472  55.599   5.586  1.00  0.00    +0.000 C 
ATOM     86  C60 UNL A   1      11.994  56.497   6.536  1.00  0.00    +0.000 C 
ATOM     24  C17 UNL A   1      12.616  56.588   7.785  1.00  0.00    +0.000 C 
ATOM     25  C18 UNL A   1      13.791  55.873   8.036  1.00  0.00    +0.000 C 
ATOM     26  C19 UNL A   1      14.305  55.017   7.060  1.00  0.00    +0.000 C 
ATOM     27  C20 UNL A   1      13.629  54.847   5.840  1.00  0.00    +0.000 C 
ATOM    121  H23 UNL A   1      14.277  55.977   8.940  1.00  0.00    +0.000 H 
BRANCH   24   22
ATOM     22  C16 UNL A   1      12.067  57.452   8.851  1.00  0.00    +0.000 C 
ATOM     23  O3  UNL A   1      12.118  58.672   8.731  1.00  0.00    +0.000 O 
BRANCH   22   21
ATOM     21  N4  UNL A   1      11.515  56.895   9.978  1.00  0.00    +0.000 N 
ATOM    120  H22 UNL A   1      12.156  56.660  10.687  1.00  0.00    +0.000 H 
BRANCH   21   20
ATOM     20  C15 UNL A   1      10.122  56.599  10.278  1.00  0.00    +0.000 C 
ATOM    118  H20 UNL A   1       9.629  57.508  10.552  1.00  0.00    +0.000 H 
ATOM    119  H21 UNL A   1       9.683  56.167   9.403  1.00  0.00    +0.000 H 
BRANCH   20   19
ATOM     19  C14 UNL A   1       9.979  55.596  11.419  1.00  0.00    +0.000 C 
ATOM    116  H18 UNL A   1       8.949  55.313  11.486  1.00  0.00    +0.000 H 
ATOM    117  H19 UNL A   1      10.626  54.778  11.185  1.00  0.00    +0.000 H 
BRANCH   19   18
ATOM     18  C13 UNL A   1      10.419  56.117  12.789  1.00  0.00    +0.000 C 
ATOM    115  H17 UNL A   1       9.527  56.202  13.375  1.00  0.00    +0.000 H 
ATOM    114  H16 UNL A   1      10.925  57.049  12.643  1.00  0.00    +0.000 H 
BRANCH   18   17
ATOM     17  C12 UNL A   1      11.355  55.190  13.575  1.00  0.00    +0.000 C 
ATOM    113  H15 UNL A   1      11.508  55.658  14.525  1.00  0.00    +0.000 H 
ATOM    112  H14 UNL A   1      12.256  55.070  13.009  1.00  0.00    +0.000 H 
BRANCH   17   16
ATOM    110  H12 UNL A   1      10.659  53.701  14.932  1.00  0.00    +0.000 H 
ATOM    111  H13 UNL A   1       9.868  53.707  13.339  1.00  0.00    +0.000 H 
ATOM     16  C11 UNL A   1      10.791  53.794  13.873  1.00  0.00    +0.000 C 
BRANCH   16   15
ATOM    108  H10 UNL A   1      11.112  51.764  13.304  1.00  0.00    +0.000 H 
ATOM    109  H11 UNL A   1      12.118  52.934  12.454  1.00  0.00    +0.000 H 
ATOM     15  C10 UNL A   1      11.696  52.656  13.397  1.00  0.00    +0.000 C 
BRANCH   15   14
ATOM    107  H9  UNL A   1      12.708  52.878  15.197  1.00  0.00    +0.000 H 
ATOM     14  N3  UNL A   1      12.779  52.416  14.331  1.00  0.00    +0.000 N 
BRANCH   14   12
ATOM     12  C9  UNL A   1      13.886  51.630  14.161  1.00  0.00    +0.000 C 
ATOM     13  O2  UNL A   1      13.854  50.474  14.588  1.00  0.00    +0.000 O 
BRANCH   12   11
ATOM    105  H7  UNL A   1      15.390  53.136  13.982  1.00  0.00    +0.000 H 
ATOM    106  H8  UNL A   1      15.935  51.499  13.615  1.00  0.00    +0.000 H 
ATOM     11  C8  UNL A   1      15.144  52.210  13.504  1.00  0.00    +0.000 C 
BRANCH   11   10
ATOM     10  N2  UNL A   1      14.947  52.451  12.085  1.00  0.00    +0.000 N 
ATOM    104  H6  UNL A   1      14.761  53.378  11.808  1.00  0.00    +0.000 H 
BRANCH   10    9
ATOM      7  C6  UNL A   1      14.257  49.849   9.852  1.00  0.00    +0.000 C 
ATOM      8  N1  UNL A   1      14.025  50.647  10.959  1.00  0.00    +0.000 N 
ATOM      9  C7  UNL A   1      14.997  51.517  11.113  1.00  0.00    +0.000 C 
ATOM     87  S1  UNL A   1      16.266  51.372   9.952  1.00  0.00    +0.000 S 
ATOM     88  C61 UNL A   1      15.378  50.180   9.103  1.00  0.00    +0.000 C 
BRANCH    7    6
ATOM     97  C69 UNL A   1      13.468  47.510  10.061  1.00  0.00    +0.000 C 
ATOM     98  C70 UNL A   1      12.526  46.513   9.780  1.00  0.00    +0.000 C 
ATOM      3  C2  UNL A   1      11.463  46.780   8.914  1.00  0.00    +0.000 C 
ATOM      4  C3  UNL A   1      11.371  48.023   8.293  1.00  0.00    +0.000 C 
ATOM      5  C4  UNL A   1      12.301  49.022   8.580  1.00  0.00    +0.000 C 
ATOM    102  H4  UNL A   1      10.613  48.207   7.617  1.00  0.00    +0.000 H 
ATOM      6  C5  UNL A   1      13.343  48.779   9.486  1.00  0.00    +0.000 C 
ATOM    103  H5  UNL A   1      12.222  49.945   8.125  1.00  0.00    +0.000 H 
ATOM    142  H44 UNL A   1      14.258  47.308  10.694  1.00  0.00    +0.000 H 
ATOM    143  H45 UNL A   1      12.617  45.580  10.213  1.00  0.00    +0.000 H 
BRANCH    3    2
ATOM      2  O1  UNL A   1      10.496  45.877   8.570  1.00  0.00    +0.000 O 
BRANCH    2    1
ATOM      1  C1  UNL A   1       9.162  46.350   8.727  1.00  0.00    +0.000 C 
ATOM     99  H1  UNL A   1       8.724  46.510   7.764  1.00  0.00    +0.000 H 
ATOM    100  H2  UNL A   1       9.172  47.272   9.271  1.00  0.00    +0.000 H 
ATOM    101  H3  UNL A   1       8.588  45.626   9.265  1.00  0.00    +0.000 H 
ENDBRANCH    2    1
ENDBRANCH    3    2
ENDBRANCH    7    6
BRANCH   88   89
ATOM    135  H37 UNL A   1      15.618  47.645   8.175  1.00  0.00    +0.000 H 
ATOM    136  H38 UNL A   1      16.295  46.939   5.958  1.00  0.00    +0.000 H 
ATOM    140  H42 UNL A   1      16.842  50.942   4.821  1.00  0.00    +0.000 H 
ATOM    141  H43 UNL A   1      16.185  51.652   7.042  1.00  0.00    +0.000 H 
ATOM     89  C62 UNL A   1      15.823  49.711   7.789  1.00  0.00    +0.000 C 
ATOM     90  C63 UNL A   1      15.871  48.351   7.466  1.00  0.00    +0.000 C 
ATOM     91  C64 UNL A   1      16.260  47.945   6.184  1.00  0.00    +0.000 C 
ATOM     92  C65 UNL A   1      16.598  48.884   5.207  1.00  0.00    +0.000 C 
ATOM     95  C67 UNL A   1      16.577  50.238   5.529  1.00  0.00    +0.000 C 
ATOM     96  C68 UNL A   1      16.195  50.646   6.810  1.00  0.00    +0.000 C 
BRANCH   92   93
ATOM     93  O4  UNL A   1      16.934  48.358   3.991  1.00  0.00    +0.000 O 
BRANCH   93   94
ATOM    137  H39 UNL A   1      18.559  48.399   2.746  1.00  0.00    +0.000 H 
ATOM    138  H40 UNL A   1      18.445  49.732   3.870  1.00  0.00    +0.000 H 
ATOM    139  H41 UNL A   1      17.385  49.666   2.483  1.00  0.00    +0.000 H 
ATOM     94  C66 UNL A   1      17.890  49.084   3.226  1.00  0.00    +0.000 C 
ENDBRANCH   93   94
ENDBRANCH   92   93
ENDBRANCH   88   89
ENDBRANCH   10    9
ENDBRANCH   11   10
ENDBRANCH   12   11
ENDBRANCH   14   12
ENDBRANCH   15   14
ENDBRANCH   16   15
ENDBRANCH   17   16
ENDBRANCH   18   17
ENDBRANCH   19   18
ENDBRANCH   20   19
ENDBRANCH   21   20
ENDBRANCH   22   21
ENDBRANCH   24   22
ENDBRANCH   28   27
BRANCH   32   33
ATOM     33  C25 UNL A   1      17.885  55.362   0.360  1.00  0.00    +0.000 C 
ATOM     34  C26 UNL A   1      17.416  56.095  -0.740  1.00  0.00    +0.000 C 
ATOM     35  F1  UNL A   1      16.258  55.762  -1.328  1.00  0.00    +0.000 F 
ATOM     36  C27 UNL A   1      18.157  57.150  -1.266  1.00  0.00    +0.000 C 
ATOM     37  F2  UNL A   1      17.714  57.803  -2.350  1.00  0.00    +0.000 F 
ATOM     38  C28 UNL A   1      19.362  57.513  -0.684  1.00  0.00    +0.000 C 
ATOM     39  F3  UNL A   1      20.074  58.529  -1.191  1.00  0.00    +0.000 F 
ATOM     40  C29 UNL A   1      19.834  56.818   0.419  1.00  0.00    +0.000 C 
ATOM     41  F4  UNL A   1      20.993  57.175   0.991  1.00  0.00    +0.000 F 
ATOM     42  C30 UNL A   1      19.108  55.746   0.931  1.00  0.00    +0.000 C 
ATOM     43  F5  UNL A   1      19.599  55.080   1.987  1.00  0.00    +0.000 F 
ENDBRANCH   32   33
BRANCH   49   50
ATOM     50  C36 UNL A   1      16.562  48.436  -1.139  1.00  0.00    +0.000 C 
ATOM     51  C37 UNL A   1      15.800  48.196  -2.293  1.00  0.00    +0.000 C 
ATOM     52  F6  UNL A   1      14.642  48.848  -2.484  1.00  0.00    +0.000 F 
ATOM     53  C38 UNL A   1      16.209  47.260  -3.238  1.00  0.00    +0.000 C 
ATOM     54  F7  UNL A   1      15.445  47.019  -4.312  1.00  0.00    +0.000 F 
ATOM     55  C39 UNL A   1      17.398  46.568  -3.064  1.00  0.00    +0.000 C 
ATOM     56  F8  UNL A   1      17.794  45.672  -3.978  1.00  0.00    +0.000 F 
ATOM     57  C40 UNL A   1      18.174  46.799  -1.938  1.00  0.00    +0.000 C 
ATOM     58  F9  UNL A   1      19.328  46.139  -1.773  1.00  0.00    +0.000 F 
ATOM     59  C41 UNL A   1      17.756  47.716  -0.978  1.00  0.00    +0.000 C 
ATOM     60  F10 UNL A   1      18.521  47.912   0.106  1.00  0.00    +0.000 F 
ENDBRANCH   49   50
BRANCH   64   65
ATOM     65  C45 UNL A   1      12.061  48.232   4.177  1.00  0.00    +0.000 C 
ATOM     66  C46 UNL A   1      10.680  48.322   3.955  1.00  0.00    +0.000 C 
ATOM     67  F11 UNL A   1      10.176  49.380   3.302  1.00  0.00    +0.000 F 
ATOM     68  C47 UNL A   1       9.811  47.340   4.425  1.00  0.00    +0.000 C 
ATOM     69  F12 UNL A   1       8.492  47.464   4.224  1.00  0.00    +0.000 F 
ATOM     70  C48 UNL A   1      10.308  46.238   5.105  1.00  0.00    +0.000 C 
ATOM     71  F13 UNL A   1       9.473  45.289   5.547  1.00  0.00    +0.000 F 
ATOM     72  C49 UNL A   1      11.673  46.125   5.331  1.00  0.00    +0.000 C 
ATOM     73  F14 UNL A   1      12.159  45.057   5.978  1.00  0.00    +0.000 F 
ATOM     74  C50 UNL A   1      12.540  47.118   4.883  1.00  0.00    +0.000 C 
ATOM     75  F15 UNL A   1      13.854  46.985   5.117  1.00  0.00    +0.000 F 
ENDBRANCH   64   65
TORSDOF 23
ENDMDL
MODEL 2
REMARK VINA RESULT:      -8.6      1.750      3.558
ROOT
ATOM    129  H31 UNL A   1      13.549  46.905   1.827  1.00  0.00    +0.000 H 
ATOM    130  H32 UNL A   1      15.302  47.050  -0.035  1.00  0.00    +0.000 H 
ATOM    131  H33 UNL A   1      17.134  56.643   2.333  1.00  0.00    +0.000 H 
ATOM    132  H34 UNL A   1      15.737  56.383   4.464  1.00  0.00    +0.000 H 
ATOM     28  C21 UNL A   1      14.443  53.855   4.680  1.00  0.00    +0.000 C 
ATOM     29  C22 UNL A   1      15.430  54.295   3.637  1.00  0.00    +0.000 C 
ATOM     30  N5  UNL A   1      15.906  53.628   2.616  1.00  0.00    +0.000 N 
ATOM     31  C23 UNL A   1      16.736  54.513   1.940  1.00  0.00    +0.000 C 
ATOM     32  C24 UNL A   1      17.499  54.285   0.844  1.00  0.00    +0.000 C 
ATOM     44  C31 UNL A   1      17.595  53.015   0.172  1.00  0.00    +0.000 C 
ATOM     45  C32 UNL A   1      18.417  52.657  -0.883  1.00  0.00    +0.000 C 
ATOM     46  C33 UNL A   1      18.125  51.336  -1.236  1.00  0.00    +0.000 C 
ATOM     47  C34 UNL A   1      17.152  50.856  -0.373  1.00  0.00    +0.000 C 
ATOM     48  N6  UNL A   1      16.839  51.895   0.487  1.00  0.00    +0.000 N 
ATOM     49  C35 UNL A   1      16.552  49.546  -0.336  1.00  0.00    +0.000 C 
ATOM     61  C42 UNL A   1      15.630  49.141   0.573  1.00  0.00    +0.000 C 
ATOM     62  N7  UNL A   1      15.063  49.856   1.618  1.00  0.00    +0.000 N 
ATOM     63  C43 UNL A   1      14.219  49.038   2.198  1.00  0.00    +0.000 C 
ATOM     64  C44 UNL A   1      13.337  49.279   3.390  1.00  0.00    +0.000 C 
ATOM     76  C51 UNL A   1      13.411  50.456   4.039  1.00  0.00    +0.000 C 
ATOM     77  C52 UNL A   1      12.628  50.822   5.216  1.00  0.00    +0.000 C 
ATOM     78  C53 UNL A   1      12.919  52.086   5.559  1.00  0.00    +0.000 C 
ATOM     79  C54 UNL A   1      13.932  52.610   4.642  1.00  0.00    +0.000 C 
ATOM     80  N8  UNL A   1      14.178  51.566   3.785  1.00  0.00    +0.000 N 
ATOM     81  C55 UNL A   1      14.146  47.709   1.575  1.00  0.00    +0.000 C 
ATOM     82  C56 UNL A   1      15.048  47.815   0.609  1.00  0.00    +0.000 C 
ATOM     83  C57 UNL A   1      16.665  55.776   2.643  1.00  0.00    +0.000 C 
ATOM     84  C58 UNL A   1      15.922  55.677   3.736  1.00  0.00    +0.000 C 
ATOM    123  H25 UNL A   1      19.123  53.262  -1.331  1.00  0.00    +0.000 H 
ATOM    124  H26 UNL A   1      18.559  50.808  -2.008  1.00  0.00    +0.000 H 
ATOM    125  H27 UNL A   1      16.178  51.847   1.216  1.00  0.00    +0.000 H 
ATOM    126  H28 UNL A   1      11.958  50.208   5.705  1.00  0.00    +0.000 H 
ATOM    127  H29 UNL A   1      12.495  52.606   6.345  1.00  0.00    +0.000 H 
ATOM    128  H30 UNL A   1      14.841  51.610   3.059  1.00  0.00    +0.000 H 
ENDROOT
BRANCH   28   27
ATOM    122  H24 UNL A   1      15.625  54.646   6.989  1.00  0.00    +0.000 H 
ATOM    133  H35 UNL A   1      12.168  55.271   4.663  1.00  0.00    +0.000 H 
ATOM    134  H36 UNL A   1      11.349  56.846   6.314  1.00  0.00    +0.000 H 
ATOM     85  C59 UNL A   1      12.716  55.452   5.518  1.00  0.00    +0.000 C 
ATOM     86  C60 UNL A   1      12.226  56.328   6.483  1.00  0.00    +0.000 C 
ATOM     24  C17 UNL A   1      12.924  56.505   7.682  1.00  0.00    +0.000 C 
ATOM     25  C18 UNL A   1      14.173  55.904   7.861  1.00  0.00    +0.000 C 
ATOM     26  C19 UNL A   1      14.693  55.072   6.867  1.00  0.00    +0.000 C 
ATOM     27  C20 UNL A   1      13.952  54.812   5.703  1.00  0.00    +0.000 C 
ATOM    121  H23 UNL A   1      14.710  56.073   8.726  1.00  0.00    +0.000 H 
BRANCH   24   22
ATOM     22  C16 UNL A   1      12.375  57.344   8.769  1.00  0.00    +0.000 C 
ATOM     23  O3  UNL A   1      12.548  58.559   8.745  1.00  0.00    +0.000 O 
BRANCH   22   21
ATOM     21  N4  UNL A   1      11.687  56.768   9.807  1.00  0.00    +0.000 N 
ATOM    120  H22 UNL A   1      11.372  57.392  10.501  1.00  0.00    +0.000 H 
BRANCH   21   20
ATOM     20  C15 UNL A   1      11.353  55.370  10.034  1.00  0.00    +0.000 C 
ATOM    118  H20 UNL A   1      10.314  55.299  10.277  1.00  0.00    +0.000 H 
ATOM    119  H21 UNL A   1      11.582  54.829   9.141  1.00  0.00    +0.000 H 
BRANCH   20   19
ATOM     19  C14 UNL A   1      12.168  54.761  11.173  1.00  0.00    +0.000 C 
ATOM    116  H18 UNL A   1      12.546  55.561  11.775  1.00  0.00    +0.000 H 
ATOM    117  H19 UNL A   1      11.506  54.112  11.704  1.00  0.00    +0.000 H 
BRANCH   19   18
ATOM     18  C13 UNL A   1      13.352  53.901  10.726  1.00  0.00    +0.000 C 
ATOM    115  H17 UNL A   1      13.662  53.351  11.591  1.00  0.00    +0.000 H 
ATOM    114  H16 UNL A   1      14.108  54.553  10.340  1.00  0.00    +0.000 H 
BRANCH   18   17
ATOM     17  C12 UNL A   1      13.035  52.855   9.649  1.00  0.00    +0.000 C 
ATOM    113  H15 UNL A   1      13.337  53.287   8.718  1.00  0.00    +0.000 H 
ATOM    112  H14 UNL A   1      11.988  52.637   9.697  1.00  0.00    +0.000 H 
BRANCH   17   16
ATOM    110  H12 UNL A   1      13.095  50.730   9.792  1.00  0.00    +0.000 H 
ATOM    111  H13 UNL A   1      14.468  51.474   8.941  1.00  0.00    +0.000 H 
ATOM     16  C11 UNL A   1      13.804  51.533   9.777  1.00  0.00    +0.000 C 
BRANCH   16   15
ATOM    108  H10 UNL A   1      14.398  52.251  11.695  1.00  0.00    +0.000 H 
ATOM    109  H11 UNL A   1      14.475  50.502  11.509  1.00  0.00    +0.000 H 
ATOM     15  C10 UNL A   1      14.661  51.446  11.041  1.00  0.00    +0.000 C 
BRANCH   15   14
ATOM    107  H9  UNL A   1      16.425  52.440  10.578  1.00  0.00    +0.000 H 
ATOM     14  N3  UNL A   1      16.074  51.533  10.728  1.00  0.00    +0.000 N 
BRANCH   14   12
ATOM     12  C9  UNL A   1      16.981  50.515  10.615  1.00  0.00    +0.000 C 
ATOM     13  O2  UNL A   1      17.657  50.221  11.603  1.00  0.00    +0.000 O 
BRANCH   12   11
ATOM    105  H7  UNL A   1      16.633  50.342   8.514  1.00  0.00    +0.000 H 
ATOM    106  H8  UNL A   1      18.222  49.790   9.049  1.00  0.00    +0.000 H 
ATOM     11  C8  UNL A   1      17.175  49.808   9.268  1.00  0.00    +0.000 C 
BRANCH   11   10
ATOM     10  N2  UNL A   1      16.697  48.437   9.307  1.00  0.00    +0.000 N 
ATOM    104  H6  UNL A   1      17.371  47.723   9.227  1.00  0.00    +0.000 H 
BRANCH   10    9
ATOM      7  C6  UNL A   1      13.539  47.554  10.522  1.00  0.00    +0.000 C 
ATOM      8  N1  UNL A   1      14.885  47.854  10.631  1.00  0.00    +0.000 N 
ATOM      9  C7  UNL A   1      15.410  48.055   9.443  1.00  0.00    +0.000 C 
ATOM     87  S1  UNL A   1      14.304  47.836   8.135  1.00  0.00    +0.000 S 
ATOM     88  C61 UNL A   1      13.014  47.618   9.239  1.00  0.00    +0.000 C 
BRANCH    7    6
ATOM     97  C69 UNL A   1      12.430  45.926  12.026  1.00  0.00    +0.000 C 
ATOM     98  C70 UNL A   1      11.741  45.635  13.210  1.00  0.00    +0.000 C 
ATOM      3  C2  UNL A   1      11.344  46.671  14.060  1.00  0.00    +0.000 C 
ATOM      4  C3  UNL A   1      11.594  47.994  13.703  1.00  0.00    +0.000 C 
ATOM      5  C4  UNL A   1      12.291  48.286  12.531  1.00  0.00    +0.000 C 
ATOM    102  H4  UNL A   1      11.261  48.762  14.308  1.00  0.00    +0.000 H 
ATOM      6  C5  UNL A   1      12.734  47.251  11.696  1.00  0.00    +0.000 C 
ATOM    103  H5  UNL A   1      12.481  49.268  12.277  1.00  0.00    +0.000 H 
ATOM    142  H44 UNL A   1      12.714  45.161  11.395  1.00  0.00    +0.000 H 
ATOM    143  H45 UNL A   1      11.525  44.656  13.455  1.00  0.00    +0.000 H 
BRANCH    3    2
ATOM      2  O1  UNL A   1      10.664  46.496  15.233  1.00  0.00    +0.000 O 
BRANCH    2    1
ATOM      1  C1  UNL A   1      10.289  45.149  15.505  1.00  0.00    +0.000 C 
ATOM     99  H1  UNL A   1       9.249  45.018  15.289  1.00  0.00    +0.000 H 
ATOM    100  H2  UNL A   1      10.468  44.930  16.538  1.00  0.00    +0.000 H 
ATOM    101  H3  UNL A   1      10.868  44.487  14.895  1.00  0.00    +0.000 H 
ENDBRANCH    2    1
ENDBRANCH    3    2
ENDBRANCH    7    6
BRANCH   88   89
ATOM    135  H37 UNL A   1      11.540  49.546   8.033  1.00  0.00    +0.000 H 
ATOM    136  H38 UNL A   1       9.268  49.374   7.211  1.00  0.00    +0.000 H 
ATOM    140  H42 UNL A   1       9.052  45.406   8.559  1.00  0.00    +0.000 H 
ATOM    141  H43 UNL A   1      11.316  45.579   9.402  1.00  0.00    +0.000 H 
ATOM     89  C62 UNL A   1      11.629  47.569   8.768  1.00  0.00    +0.000 C 
ATOM     90  C63 UNL A   1      11.020  48.662   8.143  1.00  0.00    +0.000 C 
ATOM     91  C64 UNL A   1       9.708  48.560   7.666  1.00  0.00    +0.000 C 
ATOM     92  C65 UNL A   1       8.989  47.370   7.797  1.00  0.00    +0.000 C 
ATOM     95  C67 UNL A   1       9.579  46.286   8.440  1.00  0.00    +0.000 C 
ATOM     96  C68 UNL A   1      10.887  46.386   8.923  1.00  0.00    +0.000 C 
BRANCH   92   93
ATOM     93  O4  UNL A   1       7.729  47.394   7.266  1.00  0.00    +0.000 O 
BRANCH   93   94
ATOM    137  H39 UNL A   1       5.992  46.354   6.966  1.00  0.00    +0.000 H 
ATOM    138  H40 UNL A   1       6.833  45.989   8.453  1.00  0.00    +0.000 H 
ATOM    139  H41 UNL A   1       7.452  45.395   6.932  1.00  0.00    +0.000 H 
ATOM     94  C66 UNL A   1       6.953  46.210   7.414  1.00  0.00    +0.000 C 
ENDBRANCH   93   94
ENDBRANCH   92   93
ENDBRANCH   88   89
ENDBRANCH   10    9
ENDBRANCH   11   10
ENDBRANCH   12   11
ENDBRANCH   14   12
ENDBRANCH   15   14
ENDBRANCH   16   15
ENDBRANCH   17   16
ENDBRANCH   18   17
ENDBRANCH   19   18
ENDBRANCH   20   19
ENDBRANCH   21   20
ENDBRANCH   22   21
ENDBRANCH   24   22
ENDBRANCH   28   27
BRANCH   32   33
ATOM     33  C25 UNL A   1      18.291  55.438   0.300  1.00  0.00    +0.000 C 
ATOM     34  C26 UNL A   1      17.887  56.134  -0.848  1.00  0.00    +0.000 C 
ATOM     35  F1  UNL A   1      16.787  55.756  -1.516  1.00  0.00    +0.000 F 
ATOM     36  C27 UNL A   1      18.637  57.200  -1.340  1.00  0.00    +0.000 C 
ATOM     37  F2  UNL A   1      18.260  57.818  -2.468  1.00  0.00    +0.000 F 
ATOM     38  C28 UNL A   1      19.783  57.610  -0.676  1.00  0.00    +0.000 C 
ATOM     39  F3  UNL A   1      20.502  58.637  -1.149  1.00  0.00    +0.000 F 
ATOM     40  C29 UNL A   1      20.188  56.952   0.475  1.00  0.00    +0.000 C 
ATOM     41  F4  UNL A   1      21.289  57.354   1.125  1.00  0.00    +0.000 F 
ATOM     42  C30 UNL A   1      19.455  55.869   0.954  1.00  0.00    +0.000 C 
ATOM     43  F5  UNL A   1      19.883  55.239   2.059  1.00  0.00    +0.000 F 
ENDBRANCH   32   33
BRANCH   49   50
ATOM     50  C36 UNL A   1      16.985  48.546  -1.365  1.00  0.00    +0.000 C 
ATOM     51  C37 UNL A   1      18.083  47.701  -1.146  1.00  0.00    +0.000 C 
ATOM     52  F6  UNL A   1      18.805  47.811  -0.019  1.00  0.00    +0.000 F 
ATOM     53  C38 UNL A   1      18.465  46.762  -2.100  1.00  0.00    +0.000 C 
ATOM     54  F7  UNL A   1      19.541  45.993  -1.886  1.00  0.00    +0.000 F 
ATOM     55  C39 UNL A   1      17.741  46.630  -3.275  1.00  0.00    +0.000 C 
ATOM     56  F8  UNL A   1      18.106  45.721  -4.190  1.00  0.00    +0.000 F 
ATOM     57  C40 UNL A   1      16.644  47.446  -3.507  1.00  0.00    +0.000 C 
ATOM     58  F9  UNL A   1      15.938  47.312  -4.638  1.00  0.00    +0.000 F 
ATOM     59  C41 UNL A   1      16.275  48.403  -2.566  1.00  0.00    +0.000 C 
ATOM     60  F10 UNL A   1      15.215  49.185  -2.821  1.00  0.00    +0.000 F 
ENDBRANCH   49   50
BRANCH   64   65
ATOM     65  C45 UNL A   1      12.403  48.235   3.877  1.00  0.00    +0.000 C 
ATOM     66  C46 UNL A   1      12.845  47.216   4.731  1.00  0.00    +0.000 C 
ATOM     67  F11 UNL A   1      14.139  47.149   5.078  1.00  0.00    +0.000 F 
ATOM     68  C47 UNL A   1      11.965  46.247   5.209  1.00  0.00    +0.000 C 
ATOM     69  F12 UNL A   1      12.419  45.266   6.000  1.00  0.00    +0.000 F 
ATOM     70  C48 UNL A   1      10.624  46.293   4.861  1.00  0.00    +0.000 C 
ATOM     71  F13 UNL A   1       9.776  45.368   5.330  1.00  0.00    +0.000 F 
ATOM     72  C49 UNL A   1      10.163  47.298   4.022  1.00  0.00    +0.000 C 
ATOM     73  F14 UNL A   1       8.865  47.354   3.693  1.00  0.00    +0.000 F 
ATOM     74  C50 UNL A   1      11.046  48.253   3.525  1.00  0.00    +0.000 C 
ATOM     75  F15 UNL A   1      10.574  49.212   2.713  1.00  0.00    +0.000 F 
ENDBRANCH   64   65
TORSDOF 23
ENDMDL
MODEL 3
REMARK VINA RESULT:      -8.4      2.216      4.738
ROOT
ATOM    129  H31 UNL A   1      13.513  46.770   2.339  1.00  0.00    +0.000 H 
ATOM    130  H32 UNL A   1      15.257  46.992   0.477  1.00  0.00    +0.000 H 
ATOM    131  H33 UNL A   1      16.512  56.711   2.705  1.00  0.00    +0.000 H 
ATOM    132  H34 UNL A   1      15.129  56.400   4.839  1.00  0.00    +0.000 H 
ATOM     28  C21 UNL A   1      13.987  53.803   5.091  1.00  0.00    +0.000 C 
ATOM     29  C22 UNL A   1      14.948  54.285   4.042  1.00  0.00    +0.000 C 
ATOM     30  N5  UNL A   1      15.465  53.632   3.031  1.00  0.00    +0.000 N 
ATOM     31  C23 UNL A   1      16.242  54.555   2.344  1.00  0.00    +0.000 C 
ATOM     32  C24 UNL A   1      17.019  54.357   1.252  1.00  0.00    +0.000 C 
ATOM     44  C31 UNL A   1      17.191  53.086   0.599  1.00  0.00    +0.000 C 
ATOM     45  C32 UNL A   1      18.035  52.762  -0.451  1.00  0.00    +0.000 C 
ATOM     46  C33 UNL A   1      17.822  51.420  -0.785  1.00  0.00    +0.000 C 
ATOM     47  C34 UNL A   1      16.878  50.896   0.084  1.00  0.00    +0.000 C 
ATOM     48  N6  UNL A   1      16.503  51.928   0.929  1.00  0.00    +0.000 N 
ATOM     49  C35 UNL A   1      16.357  49.554   0.141  1.00  0.00    +0.000 C 
ATOM     61  C42 UNL A   1      15.460  49.108   1.054  1.00  0.00    +0.000 C 
ATOM     62  N7  UNL A   1      14.849  49.803   2.088  1.00  0.00    +0.000 N 
ATOM     63  C43 UNL A   1      14.055  48.945   2.680  1.00  0.00    +0.000 C 
ATOM     64  C44 UNL A   1      13.158  49.151   3.867  1.00  0.00    +0.000 C 
ATOM     76  C51 UNL A   1      13.160  50.340   4.499  1.00  0.00    +0.000 C 
ATOM     77  C52 UNL A   1      12.355  50.675   5.670  1.00  0.00    +0.000 C 
ATOM     78  C53 UNL A   1      12.570  51.959   5.995  1.00  0.00    +0.000 C 
ATOM     79  C54 UNL A   1      13.551  52.529   5.071  1.00  0.00    +0.000 C 
ATOM     80  N8  UNL A   1      13.861  51.489   4.230  1.00  0.00    +0.000 N 
ATOM     81  C55 UNL A   1      14.061  47.605   2.077  1.00  0.00    +0.000 C 
ATOM     82  C56 UNL A   1      14.957  47.751   1.110  1.00  0.00    +0.000 C 
ATOM     83  C57 UNL A   1      16.095  55.823   3.028  1.00  0.00    +0.000 C 
ATOM     84  C58 UNL A   1      15.357  55.695   4.121  1.00  0.00    +0.000 C 
ATOM    123  H25 UNL A   1      18.704  53.401  -0.907  1.00  0.00    +0.000 H 
ATOM    124  H26 UNL A   1      18.289  50.908  -1.549  1.00  0.00    +0.000 H 
ATOM    125  H27 UNL A   1      15.845  51.851   1.658  1.00  0.00    +0.000 H 
ATOM    126  H28 UNL A   1      11.722  50.029   6.167  1.00  0.00    +0.000 H 
ATOM    127  H29 UNL A   1      12.115  52.465   6.772  1.00  0.00    +0.000 H 
ATOM    128  H30 UNL A   1      14.521  51.562   3.503  1.00  0.00    +0.000 H 
ENDROOT
BRANCH   28   27
ATOM    122  H24 UNL A   1      11.803  55.401   4.927  1.00  0.00    +0.000 H 
ATOM    133  H35 UNL A   1      14.901  54.300   7.560  1.00  0.00    +0.000 H 
ATOM    134  H36 UNL A   1      14.018  55.822   9.227  1.00  0.00    +0.000 H 
ATOM     85  C59 UNL A   1      14.072  54.875   7.344  1.00  0.00    +0.000 C 
ATOM     86  C60 UNL A   1      13.589  55.775   8.289  1.00  0.00    +0.000 C 
ATOM     24  C17 UNL A   1      12.521  56.619   7.965  1.00  0.00    +0.000 C 
ATOM     25  C18 UNL A   1      11.858  56.472   6.743  1.00  0.00    +0.000 C 
ATOM     26  C19 UNL A   1      12.305  55.526   5.819  1.00  0.00    +0.000 C 
ATOM     27  C20 UNL A   1      13.438  54.744   6.099  1.00  0.00    +0.000 C 
ATOM    121  H23 UNL A   1      11.040  57.062   6.524  1.00  0.00    +0.000 H 
BRANCH   24   22
ATOM     22  C16 UNL A   1      12.057  57.659   8.907  1.00  0.00    +0.000 C 
ATOM     23  O3  UNL A   1      12.596  58.762   8.909  1.00  0.00    +0.000 O 
BRANCH   22   21
ATOM     21  N4  UNL A   1      11.037  57.391   9.785  1.00  0.00    +0.000 N 
ATOM    120  H22 UNL A   1      10.226  57.939   9.668  1.00  0.00    +0.000 H 
BRANCH   21   20
ATOM     20  C15 UNL A   1      10.976  56.418  10.865  1.00  0.00    +0.000 C 
ATOM    118  H20 UNL A   1      11.937  55.961  10.971  1.00  0.00    +0.000 H 
ATOM    119  H21 UNL A   1      10.690  56.935  11.757  1.00  0.00    +0.000 H 
BRANCH   20   19
ATOM     19  C14 UNL A   1       9.939  55.329  10.601  1.00  0.00    +0.000 C 
ATOM    116  H18 UNL A   1       9.650  54.911  11.542  1.00  0.00    +0.000 H 
ATOM    117  H19 UNL A   1       9.131  55.800  10.083  1.00  0.00    +0.000 H 
BRANCH   19   18
ATOM     18  C13 UNL A   1      10.422  54.188   9.702  1.00  0.00    +0.000 C 
ATOM    115  H17 UNL A   1      10.179  53.282  10.217  1.00  0.00    +0.000 H 
ATOM    114  H16 UNL A   1      11.472  54.318   9.537  1.00  0.00    +0.000 H 
BRANCH   18   17
ATOM     17  C12 UNL A   1       9.736  54.095   8.333  1.00  0.00    +0.000 C 
ATOM    113  H15 UNL A   1      10.388  54.585   7.640  1.00  0.00    +0.000 H 
ATOM    112  H14 UNL A   1       8.774  54.556   8.412  1.00  0.00    +0.000 H 
BRANCH   17   16
ATOM    110  H12 UNL A   1      10.474  52.321   7.412  1.00  0.00    +0.000 H 
ATOM    111  H13 UNL A   1       9.187  52.074   8.613  1.00  0.00    +0.000 H 
ATOM     16  C11 UNL A   1       9.538  52.670   7.798  1.00  0.00    +0.000 C 
BRANCH   16   15
ATOM    108  H10 UNL A   1       7.535  52.382   7.126  1.00  0.00    +0.000 H 
ATOM    109  H11 UNL A   1       8.482  53.504   6.154  1.00  0.00    +0.000 H 
ATOM     15  C10 UNL A   1       8.491  52.576   6.687  1.00  0.00    +0.000 C 
BRANCH   15   14
ATOM    107  H9  UNL A   1       9.675  51.589   5.293  1.00  0.00    +0.000 H 
ATOM     14  N3  UNL A   1       8.807  51.514   5.752  1.00  0.00    +0.000 N 
BRANCH   14   12
ATOM     12  C9  UNL A   1       8.053  50.420   5.426  1.00  0.00    +0.000 C 
ATOM     13  O2  UNL A   1       7.953  50.111   4.237  1.00  0.00    +0.000 O 
BRANCH   12   11
ATOM    105  H7  UNL A   1       7.346  50.211   7.431  1.00  0.00    +0.000 H 
ATOM    106  H8  UNL A   1       6.304  49.493   6.201  1.00  0.00    +0.000 H 
ATOM     11  C8  UNL A   1       7.313  49.644   6.523  1.00  0.00    +0.000 C 
BRANCH   11   10
ATOM     10  N2  UNL A   1       7.913  48.343   6.760  1.00  0.00    +0.000 N 
ATOM    104  H6  UNL A   1       7.573  47.587   6.227  1.00  0.00    +0.000 H 
BRANCH   10    9
ATOM      7  C6  UNL A   1      10.805  48.404   8.726  1.00  0.00    +0.000 C 
ATOM      8  N1  UNL A   1       9.985  48.810   7.687  1.00  0.00    +0.000 N 
ATOM      9  C7  UNL A   1       8.896  48.078   7.646  1.00  0.00    +0.000 C 
ATOM     87  S1  UNL A   1       8.840  46.826   8.833  1.00  0.00    +0.000 S 
ATOM     88  C61 UNL A   1      10.286  47.407   9.540  1.00  0.00    +0.000 C 
BRANCH    7    6
ATOM     97  C69 UNL A   1      12.166  50.329   9.487  1.00  0.00    +0.000 C 
ATOM     98  C70 UNL A   1      13.408  50.892   9.806  1.00  0.00    +0.000 C 
ATOM      3  C2  UNL A   1      14.581  50.164   9.593  1.00  0.00    +0.000 C 
ATOM      4  C3  UNL A   1      14.515  48.897   9.016  1.00  0.00    +0.000 C 
ATOM      5  C4  UNL A   1      13.279  48.329   8.708  1.00  0.00    +0.000 C 
ATOM    102  H4  UNL A   1      15.384  48.376   8.815  1.00  0.00    +0.000 H 
ATOM      6  C5  UNL A   1      12.095  49.034   8.964  1.00  0.00    +0.000 C 
ATOM    103  H5  UNL A   1      13.236  47.387   8.290  1.00  0.00    +0.000 H 
ATOM    142  H44 UNL A   1      11.302  50.872   9.636  1.00  0.00    +0.000 H 
ATOM    143  H45 UNL A   1      13.458  51.845  10.199  1.00  0.00    +0.000 H 
BRANCH    3    2
ATOM      2  O1  UNL A   1      15.840  50.621   9.864  1.00  0.00    +0.000 O 
BRANCH    2    1
ATOM      1  C1  UNL A   1      16.451  50.033  11.009  1.00  0.00    +0.000 C 
ATOM     99  H1  UNL A   1      16.404  48.967  10.929  1.00  0.00    +0.000 H 
ATOM    100  H2  UNL A   1      15.931  50.347  11.891  1.00  0.00    +0.000 H 
ATOM    101  H3  UNL A   1      17.472  50.343  11.068  1.00  0.00    +0.000 H 
ENDBRANCH    2    1
ENDBRANCH    3    2
ENDBRANCH    7    6
BRANCH   88   89
ATOM    135  H37 UNL A   1      12.063  45.420  10.028  1.00  0.00    +0.000 H 
ATOM    136  H38 UNL A   1      12.854  44.638  12.181  1.00  0.00    +0.000 H 
ATOM    140  H42 UNL A   1      10.361  47.395  14.128  1.00  0.00    +0.000 H 
ATOM    141  H43 UNL A   1       9.552  48.167  11.980  1.00  0.00    +0.000 H 
ATOM     89  C62 UNL A   1      10.756  46.876  10.822  1.00  0.00    +0.000 C 
ATOM     90  C63 UNL A   1      11.702  45.848  10.895  1.00  0.00    +0.000 C 
ATOM     91  C64 UNL A   1      12.160  45.400  12.139  1.00  0.00    +0.000 C 
ATOM     92  C65 UNL A   1      11.690  45.970  13.323  1.00  0.00    +0.000 C 
ATOM     95  C67 UNL A   1      10.730  46.977  13.260  1.00  0.00    +0.000 C 
ATOM     96  C68 UNL A   1      10.267  47.423  12.018  1.00  0.00    +0.000 C 
BRANCH   92   93
ATOM     93  O4  UNL A   1      12.235  45.460  14.469  1.00  0.00    +0.000 O 
BRANCH   93   94
ATOM    137  H39 UNL A   1      14.174  45.951  14.906  1.00  0.00    +0.000 H 
ATOM    138  H40 UNL A   1      13.028  46.213  16.198  1.00  0.00    +0.000 H 
ATOM    139  H41 UNL A   1      13.062  47.296  14.829  1.00  0.00    +0.000 H 
ATOM     94  C66 UNL A   1      13.183  46.281  15.143  1.00  0.00    +0.000 C 
ENDBRANCH   93   94
ENDBRANCH   92   93
ENDBRANCH   88   89
ENDBRANCH   10    9
ENDBRANCH   11   10
ENDBRANCH   12   11
ENDBRANCH   14   12
ENDBRANCH   15   14
ENDBRANCH   16   15
ENDBRANCH   17   16
ENDBRANCH   18   17
ENDBRANCH   19   18
ENDBRANCH   20   19
ENDBRANCH   21   20
ENDBRANCH   22   21
ENDBRANCH   24   22
ENDBRANCH   28   27
BRANCH   32   33
ATOM     33  C25 UNL A   1      17.742  55.547   0.692  1.00  0.00    +0.000 C 
ATOM     34  C26 UNL A   1      18.998  55.943   1.176  1.00  0.00    +0.000 C 
ATOM     35  F1  UNL A   1      19.571  55.278   2.190  1.00  0.00    +0.000 F 
ATOM     36  C27 UNL A   1      19.653  57.052   0.645  1.00  0.00    +0.000 C 
ATOM     37  F2  UNL A   1      20.828  57.443   1.158  1.00  0.00    +0.000 F 
ATOM     38  C28 UNL A   1      19.082  57.764  -0.399  1.00  0.00    +0.000 C 
ATOM     39  F3  UNL A   1      19.714  58.829  -0.910  1.00  0.00    +0.000 F 
ATOM     40  C29 UNL A   1      17.853  57.376  -0.909  1.00  0.00    +0.000 C 
ATOM     41  F4  UNL A   1      17.304  58.056  -1.926  1.00  0.00    +0.000 F 
ATOM     42  C30 UNL A   1      17.183  56.284  -0.363  1.00  0.00    +0.000 C 
ATOM     43  F5  UNL A   1      15.986  55.944  -0.865  1.00  0.00    +0.000 F 
ENDBRANCH   32   33
BRANCH   49   50
ATOM     50  C36 UNL A   1      16.851  48.566  -0.873  1.00  0.00    +0.000 C 
ATOM     51  C37 UNL A   1      18.046  47.857  -0.681  1.00  0.00    +0.000 C 
ATOM     52  F6  UNL A   1      18.803  48.093   0.402  1.00  0.00    +0.000 F 
ATOM     53  C38 UNL A   1      18.485  46.928  -1.620  1.00  0.00    +0.000 C 
ATOM     54  F7  UNL A   1      19.650  46.292  -1.434  1.00  0.00    +0.000 F 
ATOM     55  C39 UNL A   1      17.726  46.668  -2.751  1.00  0.00    +0.000 C 
ATOM     56  F8  UNL A   1      18.146  45.769  -3.650  1.00  0.00    +0.000 F 
ATOM     57  C40 UNL A   1      16.534  47.348  -2.954  1.00  0.00    +0.000 C 
ATOM     58  F9  UNL A   1      15.795  47.091  -4.042  1.00  0.00    +0.000 F 
ATOM     59  C41 UNL A   1      16.104  48.297  -2.030  1.00  0.00    +0.000 C 
ATOM     60  F10 UNL A   1      14.953  48.945  -2.258  1.00  0.00    +0.000 F 
ENDBRANCH   49   50
BRANCH   64   65
ATOM     65  C45 UNL A   1      12.286  48.060   4.369  1.00  0.00    +0.000 C 
ATOM     66  C46 UNL A   1      12.743  47.166   5.346  1.00  0.00    +0.000 C 
ATOM     67  F11 UNL A   1      14.000  47.261   5.803  1.00  0.00    +0.000 F 
ATOM     68  C47 UNL A   1      11.920  46.154   5.836  1.00  0.00    +0.000 C 
ATOM     69  F12 UNL A   1      12.390  45.294   6.749  1.00  0.00    +0.000 F 
ATOM     70  C48 UNL A   1      10.617  46.034   5.376  1.00  0.00    +0.000 C 
ATOM     71  F13 UNL A   1       9.822  45.069   5.855  1.00  0.00    +0.000 F 
ATOM     72  C49 UNL A   1      10.141  46.913   4.414  1.00  0.00    +0.000 C 
ATOM     73  F14 UNL A   1       8.880  46.808   3.975  1.00  0.00    +0.000 F 
ATOM     74  C50 UNL A   1      10.971  47.910   3.906  1.00  0.00    +0.000 C 
ATOM     75  F15 UNL A   1      10.487  48.745   2.974  1.00  0.00    +0.000 F 
ENDBRANCH   64   65
TORSDOF 23
ENDMDL
MODEL 4
REMARK VINA RESULT:      -7.9     46.832     51.720
ROOT
ATOM    129  H31 UNL A   1      50.599  22.614  12.457  1.00  0.00    +0.000 H 
ATOM    130  H32 UNL A   1      50.902  23.158  14.941  1.00  0.00    +0.000 H 
ATOM    131  H33 UNL A   1      60.302  19.617  14.650  1.00  0.00    +0.000 H 
ATOM    132  H34 UNL A   1      60.176  19.494  12.095  1.00  0.00    +0.000 H 
ATOM     28  C21 UNL A   1      57.605  20.127  11.047  1.00  0.00    +0.000 C 
ATOM     29  C22 UNL A   1      58.063  20.223  12.474  1.00  0.00    +0.000 C 
ATOM     30  N5  UNL A   1      57.397  20.612  13.532  1.00  0.00    +0.000 N 
ATOM     31  C23 UNL A   1      58.266  20.456  14.603  1.00  0.00    +0.000 C 
ATOM     32  C24 UNL A   1      58.064  20.767  15.906  1.00  0.00    +0.000 C 
ATOM     44  C31 UNL A   1      56.856  21.357  16.421  1.00  0.00    +0.000 C 
ATOM     45  C32 UNL A   1      56.592  21.802  17.706  1.00  0.00    +0.000 C 
ATOM     46  C33 UNL A   1      55.268  22.252  17.750  1.00  0.00    +0.000 C 
ATOM     47  C34 UNL A   1      54.720  22.128  16.483  1.00  0.00    +0.000 C 
ATOM     48  N6  UNL A   1      55.706  21.581  15.678  1.00  0.00    +0.000 N 
ATOM     49  C35 UNL A   1      53.396  22.481  16.039  1.00  0.00    +0.000 C 
ATOM     61  C42 UNL A   1      52.949  22.366  14.764  1.00  0.00    +0.000 C 
ATOM     62  N7  UNL A   1      53.617  21.891  13.645  1.00  0.00    +0.000 N 
ATOM     63  C43 UNL A   1      52.761  21.964  12.655  1.00  0.00    +0.000 C 
ATOM     64  C44 UNL A   1      52.951  21.592  11.212  1.00  0.00    +0.000 C 
ATOM     76  C51 UNL A   1      54.159  21.172  10.791  1.00  0.00    +0.000 C 
ATOM     77  C52 UNL A   1      54.491  20.793   9.421  1.00  0.00    +0.000 C 
ATOM     78  C53 UNL A   1      55.765  20.373   9.379  1.00  0.00    +0.000 C 
ATOM     79  C54 UNL A   1      56.348  20.481  10.717  1.00  0.00    +0.000 C 
ATOM     80  N8  UNL A   1      55.328  20.983  11.486  1.00  0.00    +0.000 N 
ATOM     81  C55 UNL A   1      51.442  22.483  13.039  1.00  0.00    +0.000 C 
ATOM     82  C56 UNL A   1      51.620  22.742  14.327  1.00  0.00    +0.000 C 
ATOM     83  C57 UNL A   1      59.493  19.899  14.073  1.00  0.00    +0.000 C 
ATOM     84  C58 UNL A   1      59.442  19.795  12.754  1.00  0.00    +0.000 C 
ATOM    123  H25 UNL A   1      57.258  21.801  18.494  1.00  0.00    +0.000 H 
ATOM    124  H26 UNL A   1      54.782  22.614  18.585  1.00  0.00    +0.000 H 
ATOM    125  H27 UNL A   1      55.607  21.382  14.719  1.00  0.00    +0.000 H 
ATOM    126  H28 UNL A   1      53.849  20.839   8.614  1.00  0.00    +0.000 H 
ATOM    127  H29 UNL A   1      56.255  20.029   8.538  1.00  0.00    +0.000 H 
ATOM    128  H30 UNL A   1      55.425  21.188  12.445  1.00  0.00    +0.000 H 
ENDROOT
BRANCH   28   27
ATOM    122  H24 UNL A   1      59.504  21.363   9.557  1.00  0.00    +0.000 H 
ATOM    133  H35 UNL A   1      57.759  17.586  10.214  1.00  0.00    +0.000 H 
ATOM    134  H36 UNL A   1      59.211  16.627   8.526  1.00  0.00    +0.000 H 
ATOM     85  C59 UNL A   1      58.418  18.190   9.699  1.00  0.00    +0.000 C 
ATOM     86  C60 UNL A   1      59.224  17.644   8.704  1.00  0.00    +0.000 C 
ATOM     24  C17 UNL A   1      60.052  18.477   7.944  1.00  0.00    +0.000 C 
ATOM     25  C18 UNL A   1      60.167  19.832   8.265  1.00  0.00    +0.000 C 
ATOM     26  C19 UNL A   1      59.403  20.368   9.304  1.00  0.00    +0.000 C 
ATOM     27  C20 UNL A   1      58.496  19.556  10.006  1.00  0.00    +0.000 C 
ATOM    121  H23 UNL A   1      60.815  20.436   7.736  1.00  0.00    +0.000 H 
BRANCH   24   22
ATOM     22  C16 UNL A   1      60.838  17.944   6.810  1.00  0.00    +0.000 C 
ATOM     23  O3  UNL A   1      61.274  16.798   6.859  1.00  0.00    +0.000 O 
BRANCH   22   21
ATOM     21  N4  UNL A   1      61.091  18.731   5.715  1.00  0.00    +0.000 N 
ATOM    120  H22 UNL A   1      62.044  18.880   5.516  1.00  0.00    +0.000 H 
BRANCH   21   20
ATOM     20  C15 UNL A   1      60.159  19.378   4.804  1.00  0.00    +0.000 C 
ATOM    118  H20 UNL A   1      59.581  20.091   5.353  1.00  0.00    +0.000 H 
ATOM    119  H21 UNL A   1      60.729  19.850   4.032  1.00  0.00    +0.000 H 
BRANCH   20   19
ATOM     19  C14 UNL A   1      59.211  18.379   4.143  1.00  0.00    +0.000 C 
ATOM    116  H18 UNL A   1      58.930  18.771   3.188  1.00  0.00    +0.000 H 
ATOM    117  H19 UNL A   1      59.744  17.455   4.080  1.00  0.00    +0.000 H 
BRANCH   19   18
ATOM     18  C13 UNL A   1      57.933  18.089   4.934  1.00  0.00    +0.000 C 
ATOM    115  H17 UNL A   1      58.125  18.411   5.936  1.00  0.00    +0.000 H 
ATOM    114  H16 UNL A   1      57.724  17.043   4.853  1.00  0.00    +0.000 H 
BRANCH   18   17
ATOM     17  C12 UNL A   1      56.688  18.858   4.473  1.00  0.00    +0.000 C 
ATOM    113  H15 UNL A   1      55.874  18.165   4.528  1.00  0.00    +0.000 H 
ATOM    112  H14 UNL A   1      56.870  19.222   3.483  1.00  0.00    +0.000 H 
BRANCH   17   16
ATOM    110  H12 UNL A   1      56.978  20.105   6.176  1.00  0.00    +0.000 H 
ATOM    111  H13 UNL A   1      56.331  20.923   4.736  1.00  0.00    +0.000 H 
ATOM     16  C11 UNL A   1      56.294  20.051   5.354  1.00  0.00    +0.000 C 
BRANCH   16   15
ATOM    108  H10 UNL A   1      54.774  20.639   6.729  1.00  0.00    +0.000 H 
ATOM    109  H11 UNL A   1      54.186  20.195   5.129  1.00  0.00    +0.000 H 
ATOM     15  C10 UNL A   1      54.873  19.953   5.913  1.00  0.00    +0.000 C 
BRANCH   15   14
ATOM    107  H9  UNL A   1      55.359  18.025   6.513  1.00  0.00    +0.000 H 
ATOM     14  N3  UNL A   1      54.581  18.613   6.382  1.00  0.00    +0.000 N 
BRANCH   14   12
ATOM     12  C9  UNL A   1      53.361  18.062   6.666  1.00  0.00    +0.000 C 
ATOM     13  O2  UNL A   1      52.790  18.406   7.703  1.00  0.00    +0.000 O 
BRANCH   12   11
ATOM    105  H7  UNL A   1      53.546  16.587   5.132  1.00  0.00    +0.000 H 
ATOM    106  H8  UNL A   1      52.301  16.250   6.335  1.00  0.00    +0.000 H 
ATOM     11  C8  UNL A   1      52.763  17.002   5.732  1.00  0.00    +0.000 C 
BRANCH   11   10
ATOM     10  N2  UNL A   1      51.751  17.567   4.857  1.00  0.00    +0.000 N 
ATOM    104  H6  UNL A   1      52.064  18.116   4.101  1.00  0.00    +0.000 H 
BRANCH   10    9
ATOM      7  C6  UNL A   1      48.271  17.884   4.703  1.00  0.00    +0.000 C 
ATOM      8  N1  UNL A   1      49.578  18.306   4.530  1.00  0.00    +0.000 N 
ATOM      9  C7  UNL A   1      50.417  17.405   4.988  1.00  0.00    +0.000 C 
ATOM     87  S1  UNL A   1      49.658  16.027   5.699  1.00  0.00    +0.000 S 
ATOM     88  C61 UNL A   1      48.120  16.604   5.217  1.00  0.00    +0.000 C 
BRANCH    7    6
ATOM     97  C69 UNL A   1      46.854  19.891   5.017  1.00  0.00    +0.000 C 
ATOM     98  C70 UNL A   1      45.834  20.744   4.575  1.00  0.00    +0.000 C 
ATOM      3  C2  UNL A   1      45.099  20.420   3.432  1.00  0.00    +0.000 C 
ATOM      4  C3  UNL A   1      45.350  19.224   2.762  1.00  0.00    +0.000 C 
ATOM      5  C4  UNL A   1      46.373  18.380   3.193  1.00  0.00    +0.000 C 
ATOM    102  H4  UNL A   1      44.777  18.962   1.944  1.00  0.00    +0.000 H 
ATOM      6  C5  UNL A   1      47.147  18.720   4.311  1.00  0.00    +0.000 C 
ATOM    103  H5  UNL A   1      46.561  17.500   2.687  1.00  0.00    +0.000 H 
ATOM    142  H44 UNL A   1      47.389  20.128   5.867  1.00  0.00    +0.000 H 
ATOM    143  H45 UNL A   1      45.625  21.611   5.094  1.00  0.00    +0.000 H 
BRANCH    3    2
ATOM      2  O1  UNL A   1      44.082  21.178   2.921  1.00  0.00    +0.000 O 
BRANCH    2    1
ATOM      1  C1  UNL A   1      44.428  21.929   1.761  1.00  0.00    +0.000 C 
ATOM     99  H1  UNL A   1      43.832  21.603   0.935  1.00  0.00    +0.000 H 
ATOM    100  H2  UNL A   1      45.464  21.777   1.534  1.00  0.00    +0.000 H 
ATOM    101  H3  UNL A   1      44.251  22.968   1.943  1.00  0.00    +0.000 H 
ENDBRANCH    2    1
ENDBRANCH    3    2
ENDBRANCH    7    6
BRANCH   88   89
ATOM    135  H37 UNL A   1      47.835  13.955   4.715  1.00  0.00    +0.000 H 
ATOM    136  H38 UNL A   1      45.852  12.597   5.019  1.00  0.00    +0.000 H 
ATOM    140  H42 UNL A   1      43.707  15.968   6.303  1.00  0.00    +0.000 H 
ATOM    141  H43 UNL A   1      45.682  17.334   5.983  1.00  0.00    +0.000 H 
ATOM     89  C62 UNL A   1      46.932  15.757   5.345  1.00  0.00    +0.000 C 
ATOM     90  C63 UNL A   1      46.964  14.388   5.059  1.00  0.00    +0.000 C 
ATOM     91  C64 UNL A   1      45.818  13.604   5.237  1.00  0.00    +0.000 C 
ATOM     92  C65 UNL A   1      44.631  14.169   5.708  1.00  0.00    +0.000 C 
ATOM     95  C67 UNL A   1      44.584  15.535   5.972  1.00  0.00    +0.000 C 
ATOM     96  C68 UNL A   1      45.726  16.321   5.789  1.00  0.00    +0.000 C 
BRANCH   92   93
ATOM     93  O4  UNL A   1      43.594  13.291   5.863  1.00  0.00    +0.000 O 
BRANCH   93   94
ATOM    137  H39 UNL A   1      42.021  13.179   7.168  1.00  0.00    +0.000 H 
ATOM    138  H40 UNL A   1      41.653  13.889   5.615  1.00  0.00    +0.000 H 
ATOM    139  H41 UNL A   1      42.568  14.796   6.794  1.00  0.00    +0.000 H 
ATOM     94  C66 UNL A   1      42.384  13.821   6.392  1.00  0.00    +0.000 C 
ENDBRANCH   93   94
ENDBRANCH   92   93
ENDBRANCH   88   89
ENDBRANCH   10    9
ENDBRANCH   11   10
ENDBRANCH   12   11
ENDBRANCH   14   12
ENDBRANCH   15   14
ENDBRANCH   16   15
ENDBRANCH   17   16
ENDBRANCH   18   17
ENDBRANCH   19   18
ENDBRANCH   20   19
ENDBRANCH   21   20
ENDBRANCH   22   21
ENDBRANCH   24   22
ENDBRANCH   28   27
BRANCH   32   33
ATOM     33  C25 UNL A   1      59.176  20.471  16.870  1.00  0.00    +0.000 C 
ATOM     34  C26 UNL A   1      60.206  21.391  17.114  1.00  0.00    +0.000 C 
ATOM     35  F1  UNL A   1      60.239  22.558  16.454  1.00  0.00    +0.000 F 
ATOM     36  C27 UNL A   1      61.232  21.097  18.009  1.00  0.00    +0.000 C 
ATOM     37  F2  UNL A   1      62.233  21.970  18.188  1.00  0.00    +0.000 F 
ATOM     38  C28 UNL A   1      61.228  19.896  18.701  1.00  0.00    +0.000 C 
ATOM     39  F3  UNL A   1      62.215  19.615  19.564  1.00  0.00    +0.000 F 
ATOM     40  C29 UNL A   1      60.207  18.981  18.494  1.00  0.00    +0.000 C 
ATOM     41  F4  UNL A   1      60.196  17.824  19.170  1.00  0.00    +0.000 F 
ATOM     42  C30 UNL A   1      59.195  19.261  17.579  1.00  0.00    +0.000 C 
ATOM     43  F5  UNL A   1      58.231  18.348  17.386  1.00  0.00    +0.000 F 
ENDBRANCH   32   33
BRANCH   49   50
ATOM     50  C36 UNL A   1      52.440  23.034  17.053  1.00  0.00    +0.000 C 
ATOM     51  C37 UNL A   1      52.266  24.416  17.216  1.00  0.00    +0.000 C 
ATOM     52  F6  UNL A   1      52.999  25.278  16.494  1.00  0.00    +0.000 F 
ATOM     53  C38 UNL A   1      51.360  24.918  18.146  1.00  0.00    +0.000 C 
ATOM     54  F7  UNL A   1      51.240  26.242  18.313  1.00  0.00    +0.000 F 
ATOM     55  C39 UNL A   1      50.593  24.051  18.909  1.00  0.00    +0.000 C 
ATOM     56  F8  UNL A   1      49.718  24.535  19.801  1.00  0.00    +0.000 F 
ATOM     57  C40 UNL A   1      50.740  22.680  18.755  1.00  0.00    +0.000 C 
ATOM     58  F9  UNL A   1      49.992  21.841  19.485  1.00  0.00    +0.000 F 
ATOM     59  C41 UNL A   1      51.662  22.175  17.844  1.00  0.00    +0.000 C 
ATOM     60  F10 UNL A   1      51.789  20.845  17.723  1.00  0.00    +0.000 F 
ENDBRANCH   49   50
BRANCH   64   65
ATOM     65  C45 UNL A   1      51.837  21.701  10.239  1.00  0.00    +0.000 C 
ATOM     66  C46 UNL A   1      51.064  20.582   9.901  1.00  0.00    +0.000 C 
ATOM     67  F11 UNL A   1      51.361  19.383  10.424  1.00  0.00    +0.000 F 
ATOM     68  C47 UNL A   1      50.003  20.686   9.004  1.00  0.00    +0.000 C 
ATOM     69  F12 UNL A   1      49.298  19.595   8.676  1.00  0.00    +0.000 F 
ATOM     70  C48 UNL A   1      49.680  21.914   8.448  1.00  0.00    +0.000 C 
ATOM     71  F13 UNL A   1      48.652  22.016   7.595  1.00  0.00    +0.000 F 
ATOM     72  C49 UNL A   1      50.427  23.037   8.774  1.00  0.00    +0.000 C 
ATOM     73  F14 UNL A   1      50.111  24.228   8.248  1.00  0.00    +0.000 F 
ATOM     74  C50 UNL A   1      51.504  22.930   9.651  1.00  0.00    +0.000 C 
ATOM     75  F15 UNL A   1      52.212  24.031   9.947  1.00  0.00    +0.000 F 
ENDBRANCH   64   65
TORSDOF 23
ENDMDL
MODEL 5
REMARK VINA RESULT:      -7.7     26.767     32.628
ROOT
ATOM    129  H31 UNL A   1      19.862  15.280   7.989  1.00  0.00    +0.000 H 
ATOM    130  H32 UNL A   1      17.525  15.289   9.036  1.00  0.00    +0.000 H 
ATOM    131  H33 UNL A   1      15.518  24.115   4.670  1.00  0.00    +0.000 H 
ATOM    132  H34 UNL A   1      17.649  23.903   3.264  1.00  0.00    +0.000 H 
ATOM     28  C21 UNL A   1      19.242  21.641   3.939  1.00  0.00    +0.000 C 
ATOM     29  C22 UNL A   1      17.882  21.996   4.467  1.00  0.00    +0.000 C 
ATOM     30  N5  UNL A   1      17.140  21.357   5.337  1.00  0.00    +0.000 N 
ATOM     31  C23 UNL A   1      16.007  22.140   5.514  1.00  0.00    +0.000 C 
ATOM     32  C24 UNL A   1      14.917  21.887   6.278  1.00  0.00    +0.000 C 
ATOM     44  C31 UNL A   1      14.736  20.693   7.061  1.00  0.00    +0.000 C 
ATOM     45  C32 UNL A   1      13.625  20.298   7.788  1.00  0.00    +0.000 C 
ATOM     46  C33 UNL A   1      13.927  19.092   8.428  1.00  0.00    +0.000 C 
ATOM     47  C34 UNL A   1      15.210  18.713   8.067  1.00  0.00    +0.000 C 
ATOM     48  N6  UNL A   1      15.693  19.702   7.226  1.00  0.00    +0.000 N 
ATOM     49  C35 UNL A   1      15.943  17.536   8.459  1.00  0.00    +0.000 C 
ATOM     61  C42 UNL A   1      17.187  17.216   8.026  1.00  0.00    +0.000 C 
ATOM     62  N7  UNL A   1      18.016  17.915   7.160  1.00  0.00    +0.000 N 
ATOM     63  C43 UNL A   1      19.116  17.210   7.064  1.00  0.00    +0.000 C 
ATOM     64  C44 UNL A   1      20.349  17.489   6.253  1.00  0.00    +0.000 C 
ATOM     76  C51 UNL A   1      20.380  18.564   5.443  1.00  0.00    +0.000 C 
ATOM     77  C52 UNL A   1      21.500  18.947   4.591  1.00  0.00    +0.000 C 
ATOM     78  C53 UNL A   1      21.203  20.098   3.968  1.00  0.00    +0.000 C 
ATOM     79  C54 UNL A   1      19.856  20.518   4.358  1.00  0.00    +0.000 C 
ATOM     80  N8  UNL A   1      19.437  19.536   5.220  1.00  0.00    +0.000 N 
ATOM     81  C55 UNL A   1      19.115  15.984   7.874  1.00  0.00    +0.000 C 
ATOM     82  C56 UNL A   1      17.906  16.020   8.415  1.00  0.00    +0.000 C 
ATOM     83  C57 UNL A   1      16.178  23.321   4.693  1.00  0.00    +0.000 C 
ATOM     84  C58 UNL A   1      17.291  23.250   3.977  1.00  0.00    +0.000 C 
ATOM    123  H25 UNL A   1      12.729  20.807   7.846  1.00  0.00    +0.000 H 
ATOM    124  H26 UNL A   1      13.301  18.573   9.063  1.00  0.00    +0.000 H 
ATOM    125  H27 UNL A   1      16.583  19.703   6.806  1.00  0.00    +0.000 H 
ATOM    126  H28 UNL A   1      22.381  18.419   4.484  1.00  0.00    +0.000 H 
ATOM    127  H29 UNL A   1      21.825  20.606   3.319  1.00  0.00    +0.000 H 
ATOM    128  H30 UNL A   1      18.545  19.531   5.639  1.00  0.00    +0.000 H 
ENDROOT
BRANCH   28   27
ATOM    122  H24 UNL A   1      21.036  23.583   4.539  1.00  0.00    +0.000 H 
ATOM    133  H35 UNL A   1      19.112  21.760   1.265  1.00  0.00    +0.000 H 
ATOM    134  H36 UNL A   1      20.282  23.252  -0.245  1.00  0.00    +0.000 H 
ATOM     85  C59 UNL A   1      19.748  22.480   1.643  1.00  0.00    +0.000 C 
ATOM     86  C60 UNL A   1      20.390  23.360   0.776  1.00  0.00    +0.000 C 
ATOM     24  C17 UNL A   1      21.181  24.393   1.291  1.00  0.00    +0.000 C 
ATOM     25  C18 UNL A   1      21.430  24.465   2.664  1.00  0.00    +0.000 C 
ATOM     26  C19 UNL A   1      20.835  23.545   3.529  1.00  0.00    +0.000 C 
ATOM     27  C20 UNL A   1      19.961  22.566   3.027  1.00  0.00    +0.000 C 
ATOM    121  H23 UNL A   1      22.053  25.198   3.039  1.00  0.00    +0.000 H 
BRANCH   24   22
ATOM     22  C16 UNL A   1      21.786  25.407   0.402  1.00  0.00    +0.000 C 
ATOM     23  O3  UNL A   1      22.280  26.421   0.886  1.00  0.00    +0.000 O 
BRANCH   22   21
ATOM     21  N4  UNL A   1      21.785  25.224  -0.958  1.00  0.00    +0.000 N 
ATOM    120  H22 UNL A   1      22.352  24.487  -1.283  1.00  0.00    +0.000 H 
BRANCH   21   20
ATOM     20  C15 UNL A   1      21.070  25.959  -1.991  1.00  0.00    +0.000 C 
ATOM    118  H20 UNL A   1      20.470  25.271  -2.549  1.00  0.00    +0.000 H 
ATOM    119  H21 UNL A   1      20.467  26.699  -1.509  1.00  0.00    +0.000 H 
BRANCH   20   19
ATOM     19  C14 UNL A   1      22.018  26.676  -2.948  1.00  0.00    +0.000 C 
ATOM    116  H18 UNL A   1      22.668  25.945  -3.381  1.00  0.00    +0.000 H 
ATOM    117  H19 UNL A   1      21.402  27.171  -3.668  1.00  0.00    +0.000 H 
BRANCH   19   18
ATOM     18  C13 UNL A   1      22.884  27.760  -2.301  1.00  0.00    +0.000 C 
ATOM    115  H17 UNL A   1      23.485  28.168  -3.088  1.00  0.00    +0.000 H 
ATOM    114  H16 UNL A   1      23.455  27.304  -1.519  1.00  0.00    +0.000 H 
BRANCH   18   17
ATOM     17  C12 UNL A   1      22.115  28.942  -1.698  1.00  0.00    +0.000 C 
ATOM    113  H15 UNL A   1      22.840  29.708  -1.519  1.00  0.00    +0.000 H 
ATOM    112  H14 UNL A   1      21.626  28.601  -0.809  1.00  0.00    +0.000 H 
BRANCH   17   16
ATOM    110  H12 UNL A   1      21.306  30.593  -2.775  1.00  0.00    +0.000 H 
ATOM    111  H13 UNL A   1      21.052  29.001  -3.523  1.00  0.00    +0.000 H 
ATOM     16  C11 UNL A   1      21.053  29.565  -2.615  1.00  0.00    +0.000 C 
BRANCH   16   15
ATOM    108  H10 UNL A   1      19.676  29.051  -1.070  1.00  0.00    +0.000 H 
ATOM    109  H11 UNL A   1      19.251  30.496  -1.983  1.00  0.00    +0.000 H 
ATOM     15  C10 UNL A   1      19.637  29.499  -2.041  1.00  0.00    +0.000 C 
BRANCH   15   14
ATOM    107  H9  UNL A   1      18.960  28.738  -3.851  1.00  0.00    +0.000 H 
ATOM     14  N3  UNL A   1      18.759  28.716  -2.888  1.00  0.00    +0.000 N 
BRANCH   14   12
ATOM     12  C9  UNL A   1      17.688  27.949  -2.519  1.00  0.00    +0.000 C 
ATOM     13  O2  UNL A   1      16.700  28.514  -2.043  1.00  0.00    +0.000 O 
BRANCH   12   11
ATOM    105  H7  UNL A   1      18.359  26.174  -3.499  1.00  0.00    +0.000 H 
ATOM    106  H8  UNL A   1      18.177  26.029  -1.750  1.00  0.00    +0.000 H 
ATOM     11  C8  UNL A   1      17.755  26.423  -2.651  1.00  0.00    +0.000 C 
BRANCH   11   10
ATOM     10  N2  UNL A   1      16.436  25.839  -2.825  1.00  0.00    +0.000 N 
ATOM    104  H6  UNL A   1      15.703  26.450  -3.068  1.00  0.00    +0.000 H 
BRANCH   10    9
ATOM      7  C6  UNL A   1      15.887  22.601  -1.623  1.00  0.00    +0.000 C 
ATOM      8  N1  UNL A   1      16.361  23.899  -1.558  1.00  0.00    +0.000 N 
ATOM      9  C7  UNL A   1      16.128  24.533  -2.685  1.00  0.00    +0.000 C 
ATOM     87  S1  UNL A   1      15.369  23.565  -3.897  1.00  0.00    +0.000 S 
ATOM     88  C61 UNL A   1      15.202  22.274  -2.785  1.00  0.00    +0.000 C 
BRANCH    7    6
ATOM     97  C69 UNL A   1      17.119  20.769  -0.500  1.00  0.00    +0.000 C 
ATOM     98  C70 UNL A   1      17.334  19.951   0.616  1.00  0.00    +0.000 C 
ATOM      3  C2  UNL A   1      16.478  20.032   1.718  1.00  0.00    +0.000 C 
ATOM      4  C3  UNL A   1      15.384  20.894   1.682  1.00  0.00    +0.000 C 
ATOM      5  C4  UNL A   1      15.174  21.718   0.577  1.00  0.00    +0.000 C 
ATOM    102  H4  UNL A   1      14.724  20.922   2.476  1.00  0.00    +0.000 H 
ATOM      6  C5  UNL A   1      16.055  21.677  -0.512  1.00  0.00    +0.000 C 
ATOM    103  H5  UNL A   1      14.367  22.361   0.560  1.00  0.00    +0.000 H 
ATOM    142  H44 UNL A   1      17.746  20.700  -1.316  1.00  0.00    +0.000 H 
ATOM    143  H45 UNL A   1      18.124  19.287   0.626  1.00  0.00    +0.000 H 
BRANCH    3    2
ATOM      2  O1  UNL A   1      16.596  19.278   2.851  1.00  0.00    +0.000 O 
BRANCH    2    1
ATOM      1  C1  UNL A   1      15.357  18.896   3.441  1.00  0.00    +0.000 C 
ATOM     99  H1  UNL A   1      15.081  19.612   4.186  1.00  0.00    +0.000 H 
ATOM    100  H2  UNL A   1      15.460  17.932   3.895  1.00  0.00    +0.000 H 
ATOM    101  H3  UNL A   1      14.601  18.855   2.686  1.00  0.00    +0.000 H 
ENDBRANCH    2    1
ENDBRANCH    3    2
ENDBRANCH    7    6
BRANCH   88   89
ATOM    135  H37 UNL A   1      12.524  21.903  -2.591  1.00  0.00    +0.000 H 
ATOM    136  H38 UNL A   1      11.250  19.948  -3.240  1.00  0.00    +0.000 H 
ATOM    140  H42 UNL A   1      14.782  17.996  -4.392  1.00  0.00    +0.000 H 
ATOM    141  H43 UNL A   1      16.063  19.941  -3.726  1.00  0.00    +0.000 H 
ATOM     89  C62 UNL A   1      14.401  21.096  -3.125  1.00  0.00    +0.000 C 
ATOM     90  C63 UNL A   1      13.010  21.079  -2.979  1.00  0.00    +0.000 C 
ATOM     91  C64 UNL A   1      12.275  19.950  -3.356  1.00  0.00    +0.000 C 
ATOM     92  C65 UNL A   1      12.911  18.827  -3.890  1.00  0.00    +0.000 C 
ATOM     95  C67 UNL A   1      14.298  18.827  -4.016  1.00  0.00    +0.000 C 
ATOM     96  C68 UNL A   1      15.035  19.951  -3.634  1.00  0.00    +0.000 C 
BRANCH   92   93
ATOM     93  O4  UNL A   1      12.078  17.802  -4.243  1.00  0.00    +0.000 O 
BRANCH   93   94
ATOM    137  H39 UNL A   1      13.079  16.655  -2.876  1.00  0.00    +0.000 H 
ATOM    138  H40 UNL A   1      12.421  15.785  -4.240  1.00  0.00    +0.000 H 
ATOM    139  H41 UNL A   1      11.360  16.363  -2.979  1.00  0.00    +0.000 H 
ATOM     94  C66 UNL A   1      12.245  16.575  -3.541  1.00  0.00    +0.000 C 
ENDBRANCH   93   94
ENDBRANCH   92   93
ENDBRANCH   88   89
ENDBRANCH   10    9
ENDBRANCH   11   10
ENDBRANCH   12   11
ENDBRANCH   14   12
ENDBRANCH   15   14
ENDBRANCH   16   15
ENDBRANCH   17   16
ENDBRANCH   18   17
ENDBRANCH   19   18
ENDBRANCH   20   19
ENDBRANCH   21   20
ENDBRANCH   22   21
ENDBRANCH   24   22
ENDBRANCH   28   27
BRANCH   32   33
ATOM     33  C25 UNL A   1      13.834  22.926   6.305  1.00  0.00    +0.000 C 
ATOM     34  C26 UNL A   1      13.655  23.776   7.406  1.00  0.00    +0.000 C 
ATOM     35  F1  UNL A   1      14.435  23.651   8.490  1.00  0.00    +0.000 F 
ATOM     36  C27 UNL A   1      12.642  24.733   7.415  1.00  0.00    +0.000 C 
ATOM     37  F2  UNL A   1      12.456  25.499   8.499  1.00  0.00    +0.000 F 
ATOM     38  C28 UNL A   1      11.815  24.880   6.312  1.00  0.00    +0.000 C 
ATOM     39  F3  UNL A   1      10.842  25.802   6.321  1.00  0.00    +0.000 F 
ATOM     40  C29 UNL A   1      11.990  24.067   5.203  1.00  0.00    +0.000 C 
ATOM     41  F4  UNL A   1      11.198  24.215   4.132  1.00  0.00    +0.000 F 
ATOM     42  C30 UNL A   1      12.983  23.091   5.202  1.00  0.00    +0.000 C 
ATOM     43  F5  UNL A   1      13.116  22.307   4.122  1.00  0.00    +0.000 F 
ENDBRANCH   32   33
BRANCH   49   50
ATOM     50  C36 UNL A   1      15.280  16.580   9.405  1.00  0.00    +0.000 C 
ATOM     51  C37 UNL A   1      14.576  15.461   8.938  1.00  0.00    +0.000 C 
ATOM     52  F6  UNL A   1      14.437  15.253   7.620  1.00  0.00    +0.000 F 
ATOM     53  C38 UNL A   1      13.981  14.568   9.826  1.00  0.00    +0.000 C 
ATOM     54  F7  UNL A   1      13.279  13.528   9.356  1.00  0.00    +0.000 F 
ATOM     55  C39 UNL A   1      14.104  14.761  11.194  1.00  0.00    +0.000 C 
ATOM     56  F8  UNL A   1      13.536  13.898  12.047  1.00  0.00    +0.000 F 
ATOM     57  C40 UNL A   1      14.808  15.854  11.678  1.00  0.00    +0.000 C 
ATOM     58  F9  UNL A   1      14.935  16.036  12.999  1.00  0.00    +0.000 F 
ATOM     59  C41 UNL A   1      15.382  16.762  10.793  1.00  0.00    +0.000 C 
ATOM     60  F10 UNL A   1      16.048  17.815  11.289  1.00  0.00    +0.000 F 
ENDBRANCH   49   50
BRANCH   64   65
ATOM     65  C45 UNL A   1      21.526  16.587   6.312  1.00  0.00    +0.000 C 
ATOM     66  C46 UNL A   1      21.671  15.532   5.402  1.00  0.00    +0.000 C 
ATOM     67  F11 UNL A   1      20.713  15.298   4.493  1.00  0.00    +0.000 F 
ATOM     68  C47 UNL A   1      22.786  14.697   5.440  1.00  0.00    +0.000 C 
ATOM     69  F12 UNL A   1      22.886  13.678   4.577  1.00  0.00    +0.000 F 
ATOM     70  C48 UNL A   1      23.788  14.918   6.374  1.00  0.00    +0.000 C 
ATOM     71  F13 UNL A   1      24.865  14.123   6.403  1.00  0.00    +0.000 F 
ATOM     72  C49 UNL A   1      23.669  15.961   7.280  1.00  0.00    +0.000 C 
ATOM     73  F14 UNL A   1      24.640  16.185   8.176  1.00  0.00    +0.000 F 
ATOM     74  C50 UNL A   1      22.543  16.781   7.259  1.00  0.00    +0.000 C 
ATOM     75  F15 UNL A   1      22.451  17.781   8.148  1.00  0.00    +0.000 F 
ENDBRANCH   64   65
TORSDOF 23
ENDMDL
MODEL 6
REMARK VINA RESULT:      -7.5     38.582     44.660
ROOT
ATOM    129  H31 UNL A   1      11.236  19.675  18.449  1.00  0.00    +0.000 H 
ATOM    130  H32 UNL A   1      11.690  18.324  16.322  1.00  0.00    +0.000 H 
ATOM    131  H33 UNL A   1      11.493   9.783  21.613  1.00  0.00    +0.000 H 
ATOM    132  H34 UNL A   1      10.595  11.061  23.643  1.00  0.00    +0.000 H 
ATOM     28  C21 UNL A   1      10.473  13.880  23.254  1.00  0.00    +0.000 C 
ATOM     29  C22 UNL A   1      10.824  12.828  22.241  1.00  0.00    +0.000 C 
ATOM     30  N5  UNL A   1      11.145  12.970  20.979  1.00  0.00    +0.000 N 
ATOM     31  C23 UNL A   1      11.429  11.691  20.517  1.00  0.00    +0.000 C 
ATOM     32  C24 UNL A   1      11.764  11.303  19.263  1.00  0.00    +0.000 C 
ATOM     44  C31 UNL A   1      11.869  12.195  18.138  1.00  0.00    +0.000 C 
ATOM     45  C32 UNL A   1      12.103  11.885  16.809  1.00  0.00    +0.000 C 
ATOM     46  C33 UNL A   1      12.173  13.081  16.086  1.00  0.00    +0.000 C 
ATOM     47  C34 UNL A   1      11.941  14.134  16.957  1.00  0.00    +0.000 C 
ATOM     48  N6  UNL A   1      11.753  13.576  18.211  1.00  0.00    +0.000 N 
ATOM     49  C35 UNL A   1      11.894  15.545  16.667  1.00  0.00    +0.000 C 
ATOM     61  C42 UNL A   1      11.617  16.514  17.574  1.00  0.00    +0.000 C 
ATOM     62  N7  UNL A   1      11.345  16.389  18.929  1.00  0.00    +0.000 N 
ATOM     63  C43 UNL A   1      11.159  17.607  19.374  1.00  0.00    +0.000 C 
ATOM     64  C44 UNL A   1      10.824  18.064  20.765  1.00  0.00    +0.000 C 
ATOM     76  C51 UNL A   1      10.612  17.148  21.729  1.00  0.00    +0.000 C 
ATOM     77  C52 UNL A   1      10.265  17.446  23.115  1.00  0.00    +0.000 C 
ATOM     78  C53 UNL A   1      10.186  16.297  23.803  1.00  0.00    +0.000 C 
ATOM     79  C54 UNL A   1      10.450  15.178  22.897  1.00  0.00    +0.000 C 
ATOM     80  N8  UNL A   1      10.672  15.778  21.683  1.00  0.00    +0.000 N 
ATOM     81  C55 UNL A   1      11.308  18.650  18.350  1.00  0.00    +0.000 C 
ATOM     82  C56 UNL A   1      11.557  17.928  17.266  1.00  0.00    +0.000 C 
ATOM     83  C57 UNL A   1      11.284  10.794  21.643  1.00  0.00    +0.000 C 
ATOM     84  C58 UNL A   1      10.849  11.437  22.717  1.00  0.00    +0.000 C 
ATOM    123  H25 UNL A   1      12.207  10.935  16.419  1.00  0.00    +0.000 H 
ATOM    124  H26 UNL A   1      12.366  13.164  15.076  1.00  0.00    +0.000 H 
ATOM    125  H27 UNL A   1      11.563  14.084  19.033  1.00  0.00    +0.000 H 
ATOM    126  H28 UNL A   1      10.107  18.389  23.504  1.00  0.00    +0.000 H 
ATOM    127  H29 UNL A   1       9.975  16.215  24.811  1.00  0.00    +0.000 H 
ATOM    128  H30 UNL A   1      10.858  15.272  20.858  1.00  0.00    +0.000 H 
ENDROOT
BRANCH   28   27
ATOM    122  H24 UNL A   1      12.191  13.976  25.349  1.00  0.00    +0.000 H 
ATOM    133  H35 UNL A   1       8.210  12.995  24.384  1.00  0.00    +0.000 H 
ATOM    134  H36 UNL A   1       7.803  12.397  26.697  1.00  0.00    +0.000 H 
ATOM     85  C59 UNL A   1       8.976  13.052  25.072  1.00  0.00    +0.000 C 
ATOM     86  C60 UNL A   1       8.750  12.672  26.392  1.00  0.00    +0.000 C 
ATOM     24  C17 UNL A   1       9.809  12.663  27.306  1.00  0.00    +0.000 C 
ATOM     25  C18 UNL A   1      11.062  13.154  26.930  1.00  0.00    +0.000 C 
ATOM     26  C19 UNL A   1      11.273  13.592  25.621  1.00  0.00    +0.000 C 
ATOM     27  C20 UNL A   1      10.240  13.511  24.673  1.00  0.00    +0.000 C 
ATOM    121  H23 UNL A   1      11.831  13.192  27.618  1.00  0.00    +0.000 H 
BRANCH   24   22
ATOM     22  C16 UNL A   1       9.624  12.162  28.685  1.00  0.00    +0.000 C 
ATOM     23  O3  UNL A   1       8.671  12.555  29.351  1.00  0.00    +0.000 O 
BRANCH   22   21
ATOM     21  N4  UNL A   1      10.520  11.273  29.223  1.00  0.00    +0.000 N 
ATOM    120  H22 UNL A   1      11.258  11.679  29.735  1.00  0.00    +0.000 H 
BRANCH   21   20
ATOM     20  C15 UNL A   1      10.542   9.820  29.150  1.00  0.00    +0.000 C 
ATOM    118  H20 UNL A   1      11.559   9.494  29.085  1.00  0.00    +0.000 H 
ATOM    119  H21 UNL A   1      10.067   9.440  30.029  1.00  0.00    +0.000 H 
BRANCH   20   19
ATOM     19  C14 UNL A   1       9.778   9.293  27.938  1.00  0.00    +0.000 C 
ATOM    116  H18 UNL A   1       9.774  10.059  27.190  1.00  0.00    +0.000 H 
ATOM    117  H19 UNL A   1      10.282   8.403  27.627  1.00  0.00    +0.000 H 
BRANCH   19   18
ATOM     18  C13 UNL A   1       8.328   8.895  28.218  1.00  0.00    +0.000 C 
ATOM    115  H17 UNL A   1       7.720   9.573  27.655  1.00  0.00    +0.000 H 
ATOM    114  H16 UNL A   1       8.167   8.952  29.275  1.00  0.00    +0.000 H 
BRANCH   18   17
ATOM     17  C12 UNL A   1       7.932   7.487  27.755  1.00  0.00    +0.000 C 
ATOM    113  H15 UNL A   1       7.322   7.078  28.533  1.00  0.00    +0.000 H 
ATOM    112  H14 UNL A   1       8.830   6.930  27.581  1.00  0.00    +0.000 H 
BRANCH   17   16
ATOM    110  H12 UNL A   1       6.484   8.319  26.432  1.00  0.00    +0.000 H 
ATOM    111  H13 UNL A   1       7.764   7.364  25.652  1.00  0.00    +0.000 H 
ATOM     16  C11 UNL A   1       7.086   7.434  26.476  1.00  0.00    +0.000 C 
BRANCH   16   15
ATOM    108  H10 UNL A   1       5.271   6.425  26.960  1.00  0.00    +0.000 H 
ATOM    109  H11 UNL A   1       5.933   6.028  25.377  1.00  0.00    +0.000 H 
ATOM     15  C10 UNL A   1       6.162   6.217  26.405  1.00  0.00    +0.000 C 
BRANCH   15   14
ATOM    107  H9  UNL A   1       7.152   5.130  27.872  1.00  0.00    +0.000 H 
ATOM     14  N3  UNL A   1       6.799   5.038  26.958  1.00  0.00    +0.000 N 
BRANCH   14   12
ATOM     12  C9  UNL A   1       6.972   3.814  26.371  1.00  0.00    +0.000 C 
ATOM     13  O2  UNL A   1       6.051   2.997  26.438  1.00  0.00    +0.000 O 
BRANCH   12   11
ATOM    105  H7  UNL A   1       8.110   2.947  24.785  1.00  0.00    +0.000 H 
ATOM    106  H8  UNL A   1       8.833   4.381  25.515  1.00  0.00    +0.000 H 
ATOM     11  C8  UNL A   1       8.306   3.468  25.699  1.00  0.00    +0.000 C 
BRANCH   11   10
ATOM     10  N2  UNL A   1       9.135   2.630  26.549  1.00  0.00    +0.000 N 
ATOM    104  H6  UNL A   1       9.025   1.655  26.463  1.00  0.00    +0.000 H 
BRANCH   10    9
ATOM      7  C6  UNL A   1      12.061   3.461  28.275  1.00  0.00    +0.000 C 
ATOM      8  N1  UNL A   1      11.325   2.844  27.279  1.00  0.00    +0.000 N 
ATOM      9  C7  UNL A   1      10.042   3.071  27.446  1.00  0.00    +0.000 C 
ATOM     87  S1  UNL A   1       9.664   3.998  28.852  1.00  0.00    +0.000 S 
ATOM     88  C61 UNL A   1      11.330   4.242  29.160  1.00  0.00    +0.000 C 
BRANCH    7    6
ATOM     97  C69 UNL A   1      14.097   2.260  29.017  1.00  0.00    +0.000 C 
ATOM     98  C70 UNL A   1      15.486   2.086  28.989  1.00  0.00    +0.000 C 
ATOM      3  C2  UNL A   1      16.290   2.989  28.290  1.00  0.00    +0.000 C 
ATOM      4  C3  UNL A   1      15.711   4.090  27.663  1.00  0.00    +0.000 C 
ATOM      5  C4  UNL A   1      14.327   4.260  27.679  1.00  0.00    +0.000 C 
ATOM    102  H4  UNL A   1      16.308   4.784  27.184  1.00  0.00    +0.000 H 
ATOM      6  C5  UNL A   1      13.508   3.332  28.337  1.00  0.00    +0.000 C 
ATOM    103  H5  UNL A   1      13.902   5.072  27.204  1.00  0.00    +0.000 H 
ATOM    142  H44 UNL A   1      13.506   1.597  29.542  1.00  0.00    +0.000 H 
ATOM    143  H45 UNL A   1      15.917   1.290  29.485  1.00  0.00    +0.000 H 
BRANCH    3    2
ATOM      2  O1  UNL A   1      17.652   2.913  28.205  1.00  0.00    +0.000 O 
BRANCH    2    1
ATOM      1  C1  UNL A   1      18.173   1.588  28.218  1.00  0.00    +0.000 C 
ATOM     99  H1  UNL A   1      17.387   0.897  28.441  1.00  0.00    +0.000 H 
ATOM    100  H2  UNL A   1      18.937   1.512  28.965  1.00  0.00    +0.000 H 
ATOM    101  H3  UNL A   1      18.589   1.358  27.260  1.00  0.00    +0.000 H 
ENDBRANCH    2    1
ENDBRANCH    3    2
ENDBRANCH    7    6
BRANCH   88   89
ATOM    135  H37 UNL A   1      11.794   6.906  28.967  1.00  0.00    +0.000 H 
ATOM    136  H38 UNL A   1      12.451   8.425  30.735  1.00  0.00    +0.000 H 
ATOM    140  H42 UNL A   1      12.536   5.245  33.472  1.00  0.00    +0.000 H 
ATOM    141  H43 UNL A   1      11.899   3.718  31.703  1.00  0.00    +0.000 H 
ATOM     89  C62 UNL A   1      11.769   5.185  30.191  1.00  0.00    +0.000 C 
ATOM     90  C63 UNL A   1      11.944   6.547  29.923  1.00  0.00    +0.000 C 
ATOM     91  C64 UNL A   1      12.320   7.424  30.946  1.00  0.00    +0.000 C 
ATOM     92  C65 UNL A   1      12.521   6.961  32.248  1.00  0.00    +0.000 C 
ATOM     95  C67 UNL A   1      12.373   5.603  32.518  1.00  0.00    +0.000 C 
ATOM     96  C68 UNL A   1      12.003   4.724  31.496  1.00  0.00    +0.000 C 
BRANCH   92   93
ATOM     93  O4  UNL A   1      12.860   7.923  33.159  1.00  0.00    +0.000 O 
BRANCH   93   94
ATOM    137  H39 UNL A   1      14.622   8.167  32.146  1.00  0.00    +0.000 H 
ATOM    138  H40 UNL A   1      14.775   7.984  33.876  1.00  0.00    +0.000 H 
ATOM    139  H41 UNL A   1      14.182   9.484  33.207  1.00  0.00    +0.000 H 
ATOM     94  C66 UNL A   1      14.193   8.420  33.093  1.00  0.00    +0.000 C 
ENDBRANCH   93   94
ENDBRANCH   92   93
ENDBRANCH   88   89
ENDBRANCH   10    9
ENDBRANCH   11   10
ENDBRANCH   12   11
ENDBRANCH   14   12
ENDBRANCH   15   14
ENDBRANCH   16   15
ENDBRANCH   17   16
ENDBRANCH   18   17
ENDBRANCH   19   18
ENDBRANCH   20   19
ENDBRANCH   21   20
ENDBRANCH   22   21
ENDBRANCH   24   22
ENDBRANCH   28   27
BRANCH   32   33
ATOM     33  C25 UNL A   1      12.044   9.845  19.041  1.00  0.00    +0.000 C 
ATOM     34  C26 UNL A   1      11.029   8.943  18.690  1.00  0.00    +0.000 C 
ATOM     35  F1  UNL A   1       9.760   9.364  18.580  1.00  0.00    +0.000 F 
ATOM     36  C27 UNL A   1      11.308   7.593  18.492  1.00  0.00    +0.000 C 
ATOM     37  F2  UNL A   1      10.314   6.740  18.207  1.00  0.00    +0.000 F 
ATOM     38  C28 UNL A   1      12.609   7.127  18.606  1.00  0.00    +0.000 C 
ATOM     39  F3  UNL A   1      12.876   5.828  18.413  1.00  0.00    +0.000 F 
ATOM     40  C29 UNL A   1      13.632   8.005  18.929  1.00  0.00    +0.000 C 
ATOM     41  F4  UNL A   1      14.892   7.558  19.029  1.00  0.00    +0.000 F 
ATOM     42  C30 UNL A   1      13.352   9.350  19.155  1.00  0.00    +0.000 C 
ATOM     43  F5  UNL A   1      14.360  10.172  19.484  1.00  0.00    +0.000 F 
ENDBRANCH   32   33
BRANCH   49   50
ATOM     50  C36 UNL A   1      12.153  15.980  15.257  1.00  0.00    +0.000 C 
ATOM     51  C37 UNL A   1      11.099  16.255  14.372  1.00  0.00    +0.000 C 
ATOM     52  F6  UNL A   1       9.827  16.079  14.762  1.00  0.00    +0.000 F 
ATOM     53  C38 UNL A   1      11.351  16.678  13.070  1.00  0.00    +0.000 C 
ATOM     54  F7  UNL A   1      10.330  16.896  12.230  1.00  0.00    +0.000 F 
ATOM     55  C39 UNL A   1      12.656  16.863  12.637  1.00  0.00    +0.000 C 
ATOM     56  F8  UNL A   1      12.896  17.276  11.386  1.00  0.00    +0.000 F 
ATOM     57  C40 UNL A   1      13.712  16.610  13.500  1.00  0.00    +0.000 C 
ATOM     58  F9  UNL A   1      14.973  16.798  13.086  1.00  0.00    +0.000 F 
ATOM     59  C41 UNL A   1      13.465  16.162  14.794  1.00  0.00    +0.000 C 
ATOM     60  F10 UNL A   1      14.506  15.917  15.603  1.00  0.00    +0.000 F 
ENDBRANCH   49   50
BRANCH   64   65
ATOM     65  C45 UNL A   1      10.699  19.506  21.090  1.00  0.00    +0.000 C 
ATOM     66  C46 UNL A   1       9.459  20.154  21.024  1.00  0.00    +0.000 C 
ATOM     67  F11 UNL A   1       8.374  19.480  20.616  1.00  0.00    +0.000 F 
ATOM     68  C47 UNL A   1       9.334  21.503  21.350  1.00  0.00    +0.000 C 
ATOM     69  F12 UNL A   1       8.143  22.107  21.251  1.00  0.00    +0.000 F 
ATOM     70  C48 UNL A   1      10.443  22.222  21.771  1.00  0.00    +0.000 C 
ATOM     71  F13 UNL A   1      10.321  23.516  22.096  1.00  0.00    +0.000 F 
ATOM     72  C49 UNL A   1      11.680  21.599  21.851  1.00  0.00    +0.000 C 
ATOM     73  F14 UNL A   1      12.752  22.286  22.269  1.00  0.00    +0.000 F 
ATOM     74  C50 UNL A   1      11.810  20.257  21.502  1.00  0.00    +0.000 C 
ATOM     75  F15 UNL A   1      13.018  19.679  21.585  1.00  0.00    +0.000 F 
ENDBRANCH   64   65
TORSDOF 23
ENDMDL
MODEL 7
REMARK VINA RESULT:      -7.4     38.851     44.945
ROOT
ATOM    129  H31 UNL A   1      11.308  19.584  18.591  1.00  0.00    +0.000 H 
ATOM    130  H32 UNL A   1      11.737  18.271  16.434  1.00  0.00    +0.000 H 
ATOM    131  H33 UNL A   1      11.469   9.626  21.551  1.00  0.00    +0.000 H 
ATOM    132  H34 UNL A   1      10.594  10.873  23.611  1.00  0.00    +0.000 H 
ATOM     28  C21 UNL A   1      10.501  13.700  23.280  1.00  0.00    +0.000 C 
ATOM     29  C22 UNL A   1      10.837  12.666  22.244  1.00  0.00    +0.000 C 
ATOM     30  N5  UNL A   1      11.153  12.829  20.984  1.00  0.00    +0.000 N 
ATOM     31  C23 UNL A   1      11.422  11.558  20.494  1.00  0.00    +0.000 C 
ATOM     32  C24 UNL A   1      11.746  11.191  19.231  1.00  0.00    +0.000 C 
ATOM     44  C31 UNL A   1      11.857  12.106  18.124  1.00  0.00    +0.000 C 
ATOM     45  C32 UNL A   1      12.081  11.820  16.788  1.00  0.00    +0.000 C 
ATOM     46  C33 UNL A   1      12.161  13.029  16.090  1.00  0.00    +0.000 C 
ATOM     47  C34 UNL A   1      11.945  14.067  16.982  1.00  0.00    +0.000 C 
ATOM     48  N6  UNL A   1      11.756  13.485  18.226  1.00  0.00    +0.000 N 
ATOM     49  C35 UNL A   1      11.912  15.484  16.722  1.00  0.00    +0.000 C 
ATOM     61  C42 UNL A   1      11.650  16.437  17.650  1.00  0.00    +0.000 C 
ATOM     62  N7  UNL A   1      11.382  16.287  19.003  1.00  0.00    +0.000 N 
ATOM     63  C43 UNL A   1      11.212  17.498  19.474  1.00  0.00    +0.000 C 
ATOM     64  C44 UNL A   1      10.888  17.931  20.875  1.00  0.00    +0.000 C 
ATOM     76  C51 UNL A   1      10.670  16.998  21.821  1.00  0.00    +0.000 C 
ATOM     77  C52 UNL A   1      10.333  17.271  23.215  1.00  0.00    +0.000 C 
ATOM     78  C53 UNL A   1      10.245  16.109  23.880  1.00  0.00    +0.000 C 
ATOM     79  C54 UNL A   1      10.491  15.006  22.950  1.00  0.00    +0.000 C 
ATOM     80  N8  UNL A   1      10.715  15.627  21.747  1.00  0.00    +0.000 N 
ATOM     81  C55 UNL A   1      11.368  18.560  18.470  1.00  0.00    +0.000 C 
ATOM     82  C56 UNL A   1      11.604  17.858  17.370  1.00  0.00    +0.000 C 
ATOM     83  C57 UNL A   1      11.271  10.639  21.603  1.00  0.00    +0.000 C 
ATOM     84  C58 UNL A   1      10.849  11.265  22.691  1.00  0.00    +0.000 C 
ATOM    123  H25 UNL A   1      12.172  10.877  16.379  1.00  0.00    +0.000 H 
ATOM    124  H26 UNL A   1      12.351  13.131  15.081  1.00  0.00    +0.000 H 
ATOM    125  H27 UNL A   1      11.575  13.978  19.059  1.00  0.00    +0.000 H 
ATOM    126  H28 UNL A   1      10.187  18.207  23.624  1.00  0.00    +0.000 H 
ATOM    127  H29 UNL A   1      10.036  16.008  24.886  1.00  0.00    +0.000 H 
ATOM    128  H30 UNL A   1      10.892  15.137  20.911  1.00  0.00    +0.000 H 
ENDROOT
BRANCH   28   27
ATOM    122  H24 UNL A   1      12.242  13.694  25.359  1.00  0.00    +0.000 H 
ATOM    133  H35 UNL A   1       8.224  12.858  24.411  1.00  0.00    +0.000 H 
ATOM    134  H36 UNL A   1       7.820  12.218  26.714  1.00  0.00    +0.000 H 
ATOM     85  C59 UNL A   1       8.997  12.875  25.093  1.00  0.00    +0.000 C 
ATOM     86  C60 UNL A   1       8.772  12.472  26.406  1.00  0.00    +0.000 C 
ATOM     24  C17 UNL A   1       9.839  12.408  27.309  1.00  0.00    +0.000 C 
ATOM     25  C18 UNL A   1      11.103  12.869  26.932  1.00  0.00    +0.000 C 
ATOM     26  C19 UNL A   1      11.315  13.332  25.631  1.00  0.00    +0.000 C 
ATOM     27  C20 UNL A   1      10.271  13.305  24.692  1.00  0.00    +0.000 C 
ATOM    121  H23 UNL A   1      11.879  12.868  27.612  1.00  0.00    +0.000 H 
BRANCH   24   22
ATOM     22  C16 UNL A   1       9.652  11.881  28.677  1.00  0.00    +0.000 C 
ATOM     23  O3  UNL A   1       8.804  12.380  29.410  1.00  0.00    +0.000 O 
BRANCH   22   21
ATOM     21  N4  UNL A   1      10.432  10.847  29.132  1.00  0.00    +0.000 N 
ATOM    120  H22 UNL A   1      11.229  11.116  29.644  1.00  0.00    +0.000 H 
BRANCH   21   20
ATOM     20  C15 UNL A   1      10.255   9.412  28.969  1.00  0.00    +0.000 C 
ATOM    118  H20 UNL A   1      11.177   8.988  28.630  1.00  0.00    +0.000 H 
ATOM    119  H21 UNL A   1       9.967   9.008  29.917  1.00  0.00    +0.000 H 
BRANCH   20   19
ATOM     19  C14 UNL A   1       9.158   9.077  27.962  1.00  0.00    +0.000 C 
ATOM    116  H18 UNL A   1       9.170   9.826  27.198  1.00  0.00    +0.000 H 
ATOM    117  H19 UNL A   1       9.374   8.097  27.595  1.00  0.00    +0.000 H 
BRANCH   19   18
ATOM     18  C13 UNL A   1       7.746   9.019  28.549  1.00  0.00    +0.000 C 
ATOM    115  H17 UNL A   1       7.330   9.997  28.419  1.00  0.00    +0.000 H 
ATOM    114  H16 UNL A   1       7.825   8.720  29.573  1.00  0.00    +0.000 H 
BRANCH   18   17
ATOM     17  C12 UNL A   1       6.783   8.052  27.847  1.00  0.00    +0.000 C 
ATOM    113  H15 UNL A   1       6.204   7.595  28.622  1.00  0.00    +0.000 H 
ATOM    112  H14 UNL A   1       7.366   7.354  27.283  1.00  0.00    +0.000 H 
BRANCH   17   16
ATOM    110  H12 UNL A   1       5.411   9.606  27.354  1.00  0.00    +0.000 H 
ATOM    111  H13 UNL A   1       6.292   8.906  25.978  1.00  0.00    +0.000 H 
ATOM     16  C11 UNL A   1       5.776   8.711  26.894  1.00  0.00    +0.000 C 
BRANCH   16   15
ATOM    108  H10 UNL A   1       3.887   7.845  27.372  1.00  0.00    +0.000 H 
ATOM    109  H11 UNL A   1       4.128   8.187  25.661  1.00  0.00    +0.000 H 
ATOM     15  C10 UNL A   1       4.581   7.818  26.557  1.00  0.00    +0.000 C 
BRANCH   15   14
ATOM    107  H9  UNL A   1       5.329   5.964  27.121  1.00  0.00    +0.000 H 
ATOM     14  N3  UNL A   1       4.993   6.447  26.332  1.00  0.00    +0.000 N 
BRANCH   14   12
ATOM     12  C9  UNL A   1       4.975   5.738  25.162  1.00  0.00    +0.000 C 
ATOM     13  O2  UNL A   1       3.882   5.415  24.690  1.00  0.00    +0.000 O 
BRANCH   12   11
ATOM    105  H7  UNL A   1       6.182   5.376  23.437  1.00  0.00    +0.000 H 
ATOM    106  H8  UNL A   1       7.063   5.975  24.843  1.00  0.00    +0.000 H 
ATOM     11  C8  UNL A   1       6.292   5.317  24.500  1.00  0.00    +0.000 C 
BRANCH   11   10
ATOM     10  N2  UNL A   1       6.664   3.959  24.858  1.00  0.00    +0.000 N 
ATOM    104  H6  UNL A   1       6.156   3.228  24.437  1.00  0.00    +0.000 H 
BRANCH   10    9
ATOM      7  C6  UNL A   1       9.410   2.481  26.441  1.00  0.00    +0.000 C 
ATOM      8  N1  UNL A   1       8.433   2.590  25.467  1.00  0.00    +0.000 N 
ATOM      9  C7  UNL A   1       7.646   3.611  25.716  1.00  0.00    +0.000 C 
ATOM     87  S1  UNL A   1       8.022   4.455  27.175  1.00  0.00    +0.000 S 
ATOM     88  C61 UNL A   1       9.418   3.489  27.394  1.00  0.00    +0.000 C 
BRANCH    7    6
ATOM     97  C69 UNL A   1      10.266   0.312  27.279  1.00  0.00    +0.000 C 
ATOM     98  C70 UNL A   1      11.152  -0.768  27.181  1.00  0.00    +0.000 C 
ATOM      3  C2  UNL A   1      12.170  -0.751  26.224  1.00  0.00    +0.000 C 
ATOM      4  C3  UNL A   1      12.331   0.362  25.403  1.00  0.00    +0.000 C 
ATOM      5  C4  UNL A   1      11.442   1.433  25.490  1.00  0.00    +0.000 C 
ATOM    102  H4  UNL A   1      13.110   0.396  24.726  1.00  0.00    +0.000 H 
ATOM      6  C5  UNL A   1      10.389   1.404  26.414  1.00  0.00    +0.000 C 
ATOM    103  H5  UNL A   1      11.559   2.251  24.872  1.00  0.00    +0.000 H 
ATOM    142  H44 UNL A   1       9.520   0.302  27.993  1.00  0.00    +0.000 H 
ATOM    143  H45 UNL A   1      11.055  -1.576  27.816  1.00  0.00    +0.000 H 
BRANCH    3    2
ATOM      2  O1  UNL A   1      13.089  -1.749  26.050  1.00  0.00    +0.000 O 
BRANCH    2    1
ATOM      1  C1  UNL A   1      14.156  -1.423  25.165  1.00  0.00    +0.000 C 
ATOM     99  H1  UNL A   1      14.332  -0.368  25.191  1.00  0.00    +0.000 H 
ATOM    100  H2  UNL A   1      13.895  -1.715  24.168  1.00  0.00    +0.000 H 
ATOM    101  H3  UNL A   1      15.042  -1.941  25.468  1.00  0.00    +0.000 H 
ENDBRANCH    2    1
ENDBRANCH    3    2
ENDBRANCH    7    6
BRANCH   88   89
ATOM    135  H37 UNL A   1       9.012   4.201  29.978  1.00  0.00    +0.000 H 
ATOM    136  H38 UNL A   1      10.687   4.663  31.666  1.00  0.00    +0.000 H 
ATOM    140  H42 UNL A   1      13.737   4.002  28.860  1.00  0.00    +0.000 H 
ATOM    141  H43 UNL A   1      12.066   3.558  27.163  1.00  0.00    +0.000 H 
ATOM     89  C62 UNL A   1      10.398   3.818  28.431  1.00  0.00    +0.000 C 
ATOM     90  C63 UNL A   1      10.014   4.151  29.735  1.00  0.00    +0.000 C 
ATOM     91  C64 UNL A   1      10.982   4.415  30.709  1.00  0.00    +0.000 C 
ATOM     92  C65 UNL A   1      12.343   4.345  30.404  1.00  0.00    +0.000 C 
ATOM     95  C67 UNL A   1      12.734   4.038  29.103  1.00  0.00    +0.000 C 
ATOM     96  C68 UNL A   1      11.768   3.780  28.126  1.00  0.00    +0.000 C 
BRANCH   92   93
ATOM     93  O4  UNL A   1      13.185   4.599  31.451  1.00  0.00    +0.000 O 
BRANCH   93   94
ATOM    137  H39 UNL A   1      14.363   2.927  31.384  1.00  0.00    +0.000 H 
ATOM    138  H40 UNL A   1      12.994   2.832  32.464  1.00  0.00    +0.000 H 
ATOM    139  H41 UNL A   1      14.385   3.794  32.900  1.00  0.00    +0.000 H 
ATOM     94  C66 UNL A   1      13.767   3.468  32.089  1.00  0.00    +0.000 C 
ENDBRANCH   93   94
ENDBRANCH   92   93
ENDBRANCH   88   89
ENDBRANCH   10    9
ENDBRANCH   11   10
ENDBRANCH   12   11
ENDBRANCH   14   12
ENDBRANCH   15   14
ENDBRANCH   16   15
ENDBRANCH   17   16
ENDBRANCH   18   17
ENDBRANCH   19   18
ENDBRANCH   20   19
ENDBRANCH   21   20
ENDBRANCH   22   21
ENDBRANCH   24   22
ENDBRANCH   28   27
BRANCH   32   33
ATOM     33  C25 UNL A   1      12.010   9.735  18.978  1.00  0.00    +0.000 C 
ATOM     34  C26 UNL A   1      13.296   9.188  19.090  1.00  0.00    +0.000 C 
ATOM     35  F1  UNL A   1      14.340   9.973  19.394  1.00  0.00    +0.000 F 
ATOM     36  C27 UNL A   1      13.522   7.835  18.849  1.00  0.00    +0.000 C 
ATOM     37  F2  UNL A   1      14.767   7.343  18.912  1.00  0.00    +0.000 F 
ATOM     38  C28 UNL A   1      12.464   6.999  18.526  1.00  0.00    +0.000 C 
ATOM     39  F3  UNL A   1      12.682   5.697  18.296  1.00  0.00    +0.000 F 
ATOM     40  C29 UNL A   1      11.180   7.514  18.434  1.00  0.00    +0.000 C 
ATOM     41  F4  UNL A   1      10.154   6.706  18.133  1.00  0.00    +0.000 F 
ATOM     42  C30 UNL A   1      10.955   8.872  18.648  1.00  0.00    +0.000 C 
ATOM     43  F5  UNL A   1       9.705   9.345  18.532  1.00  0.00    +0.000 F 
ENDBRANCH   32   33
BRANCH   49   50
ATOM     50  C36 UNL A   1      12.169  15.945  15.319  1.00  0.00    +0.000 C 
ATOM     51  C37 UNL A   1      13.474  16.139  14.841  1.00  0.00    +0.000 C 
ATOM     52  F6  UNL A   1      14.524  15.962  15.658  1.00  0.00    +0.000 F 
ATOM     53  C38 UNL A   1      13.702  16.548  13.531  1.00  0.00    +0.000 C 
ATOM     54  F7  UNL A   1      14.955  16.765  13.108  1.00  0.00    +0.000 F 
ATOM     55  C39 UNL A   1      12.635  16.743  12.666  1.00  0.00    +0.000 C 
ATOM     56  F8  UNL A   1      12.857  17.131  11.403  1.00  0.00    +0.000 F 
ATOM     57  C40 UNL A   1      11.337  16.544  13.114  1.00  0.00    +0.000 C 
ATOM     58  F9  UNL A   1      10.307  16.723  12.277  1.00  0.00    +0.000 F 
ATOM     59  C41 UNL A   1      11.104  16.160  14.431  1.00  0.00    +0.000 C 
ATOM     60  F10 UNL A   1       9.839  15.985  14.839  1.00  0.00    +0.000 F 
ENDBRANCH   49   50
BRANCH   64   65
ATOM     65  C45 UNL A   1      10.781  19.367  21.230  1.00  0.00    +0.000 C 
ATOM     66  C46 UNL A   1      11.919  20.112  21.566  1.00  0.00    +0.000 C 
ATOM     67  F11 UNL A   1      13.118  19.514  21.618  1.00  0.00    +0.000 F 
ATOM     68  C47 UNL A   1      11.824  21.467  21.877  1.00  0.00    +0.000 C 
ATOM     69  F12 UNL A   1      12.923  22.150  22.224  1.00  0.00    +0.000 F 
ATOM     70  C48 UNL A   1      10.595  22.107  21.834  1.00  0.00    +0.000 C 
ATOM     71  F13 UNL A   1      10.506  23.412  22.122  1.00  0.00    +0.000 F 
ATOM     72  C49 UNL A   1       9.456  21.390  21.497  1.00  0.00    +0.000 C 
ATOM     73  F14 UNL A   1       8.267  22.007  21.442  1.00  0.00    +0.000 F 
ATOM     74  C50 UNL A   1       9.545  20.030  21.209  1.00  0.00    +0.000 C 
ATOM     75  F15 UNL A   1       8.428  19.360  20.888  1.00  0.00    +0.000 F 
ENDBRANCH   64   65
TORSDOF 23
ENDMDL
MODEL 8
REMARK VINA RESULT:      -7.3     44.212     48.085
ROOT
ATOM    129  H31 UNL A   1      19.247  42.295  50.026  1.00  0.00    +0.000 H 
ATOM    130  H32 UNL A   1      17.854  40.147  50.090  1.00  0.00    +0.000 H 
ATOM    131  H33 UNL A   1      25.272  35.114  45.547  1.00  0.00    +0.000 H 
ATOM    132  H34 UNL A   1      26.835  37.114  45.885  1.00  0.00    +0.000 H 
ATOM     28  C21 UNL A   1      25.545  39.397  46.996  1.00  0.00    +0.000 C 
ATOM     29  C22 UNL A   1      24.966  38.027  46.787  1.00  0.00    +0.000 C 
ATOM     30  N5  UNL A   1      23.765  37.586  47.063  1.00  0.00    +0.000 N 
ATOM     31  C23 UNL A   1      23.735  36.270  46.621  1.00  0.00    +0.000 C 
ATOM     32  C24 UNL A   1      22.729  35.368  46.723  1.00  0.00    +0.000 C 
ATOM     44  C31 UNL A   1      21.464  35.632  47.356  1.00  0.00    +0.000 C 
ATOM     45  C32 UNL A   1      20.421  34.755  47.599  1.00  0.00    +0.000 C 
ATOM     46  C33 UNL A   1      19.375  35.472  48.191  1.00  0.00    +0.000 C 
ATOM     47  C34 UNL A   1      19.782  36.786  48.355  1.00  0.00    +0.000 C 
ATOM     48  N6  UNL A   1      21.067  36.869  47.842  1.00  0.00    +0.000 N 
ATOM     49  C35 UNL A   1      19.055  37.886  48.938  1.00  0.00    +0.000 C 
ATOM     61  C42 UNL A   1      19.544  39.140  49.100  1.00  0.00    +0.000 C 
ATOM     62  N7  UNL A   1      20.789  39.643  48.750  1.00  0.00    +0.000 N 
ATOM     63  C43 UNL A   1      20.778  40.907  49.096  1.00  0.00    +0.000 C 
ATOM     64  C44 UNL A   1      21.866  41.934  48.960  1.00  0.00    +0.000 C 
ATOM     76  C51 UNL A   1      23.067  41.564  48.476  1.00  0.00    +0.000 C 
ATOM     77  C52 UNL A   1      24.216  42.448  48.304  1.00  0.00    +0.000 C 
ATOM     78  C53 UNL A   1      25.221  41.754  47.748  1.00  0.00    +0.000 C 
ATOM     79  C54 UNL A   1      24.795  40.368  47.551  1.00  0.00    +0.000 C 
ATOM     80  N8  UNL A   1      23.509  40.343  48.031  1.00  0.00    +0.000 N 
ATOM     81  C55 UNL A   1      19.513  41.354  49.696  1.00  0.00    +0.000 C 
ATOM     82  C56 UNL A   1      18.808  40.232  49.703  1.00  0.00    +0.000 C 
ATOM     83  C57 UNL A   1      25.024  35.998  46.020  1.00  0.00    +0.000 C 
ATOM     84  C58 UNL A   1      25.843  37.031  46.154  1.00  0.00    +0.000 C 
ATOM    123  H25 UNL A   1      20.416  33.746  47.382  1.00  0.00    +0.000 H 
ATOM    124  H26 UNL A   1      18.456  35.087  48.458  1.00  0.00    +0.000 H 
ATOM    125  H27 UNL A   1      21.617  37.686  47.826  1.00  0.00    +0.000 H 
ATOM    126  H28 UNL A   1      24.250  43.445  48.567  1.00  0.00    +0.000 H 
ATOM    127  H29 UNL A   1      26.147  42.137  47.498  1.00  0.00    +0.000 H 
ATOM    128  H30 UNL A   1      22.958  39.527  48.053  1.00  0.00    +0.000 H 
ENDROOT
BRANCH   28   27
ATOM    122  H24 UNL A   1      26.295  40.665  44.720  1.00  0.00    +0.000 H 
ATOM    133  H35 UNL A   1      27.888  38.904  48.200  1.00  0.00    +0.000 H 
ATOM    134  H36 UNL A   1      30.127  39.430  47.434  1.00  0.00    +0.000 H 
ATOM     85  C59 UNL A   1      28.024  39.366  47.287  1.00  0.00    +0.000 C 
ATOM     86  C60 UNL A   1      29.313  39.633  46.833  1.00  0.00    +0.000 C 
ATOM     24  C17 UNL A   1      29.503  40.176  45.558  1.00  0.00    +0.000 C 
ATOM     25  C18 UNL A   1      28.401  40.568  44.792  1.00  0.00    +0.000 C 
ATOM     26  C19 UNL A   1      27.108  40.356  45.274  1.00  0.00    +0.000 C 
ATOM     27  C20 UNL A   1      26.910  39.720  46.511  1.00  0.00    +0.000 C 
ATOM    121  H23 UNL A   1      28.543  41.014  43.872  1.00  0.00    +0.000 H 
BRANCH   24   22
ATOM     22  C16 UNL A   1      30.860  40.370  45.005  1.00  0.00    +0.000 C 
ATOM     23  O3  UNL A   1      31.641  41.133  45.566  1.00  0.00    +0.000 O 
BRANCH   22   21
ATOM     21  N4  UNL A   1      31.242  39.713  43.862  1.00  0.00    +0.000 N 
ATOM    120  H22 UNL A   1      31.246  40.262  43.044  1.00  0.00    +0.000 H 
BRANCH   21   20
ATOM     20  C15 UNL A   1      31.640  38.326  43.680  1.00  0.00    +0.000 C 
ATOM    118  H20 UNL A   1      32.404  38.282  42.932  1.00  0.00    +0.000 H 
ATOM    119  H21 UNL A   1      31.996  37.961  44.621  1.00  0.00    +0.000 H 
BRANCH   20   19
ATOM     19  C14 UNL A   1      30.473  37.443  43.246  1.00  0.00    +0.000 C 
ATOM    116  H18 UNL A   1      29.576  38.024  43.311  1.00  0.00    +0.000 H 
ATOM    117  H19 UNL A   1      30.694  37.119  42.251  1.00  0.00    +0.000 H 
BRANCH   19   18
ATOM     18  C13 UNL A   1      30.281  36.176  44.082  1.00  0.00    +0.000 C 
ATOM    115  H17 UNL A   1      30.845  36.325  44.980  1.00  0.00    +0.000 H 
ATOM    114  H16 UNL A   1      30.615  35.342  43.501  1.00  0.00    +0.000 H 
BRANCH   18   17
ATOM     17  C12 UNL A   1      28.840  35.895  44.528  1.00  0.00    +0.000 C 
ATOM    113  H15 UNL A   1      28.290  35.678  43.635  1.00  0.00    +0.000 H 
ATOM    112  H14 UNL A   1      28.481  36.757  45.051  1.00  0.00    +0.000 H 
BRANCH   17   16
ATOM    110  H12 UNL A   1      27.629  34.587  45.696  1.00  0.00    +0.000 H 
ATOM    111  H13 UNL A   1      29.028  33.825  44.906  1.00  0.00    +0.000 H 
ATOM     16  C11 UNL A   1      28.666  34.676  45.443  1.00  0.00    +0.000 C 
BRANCH   16   15
ATOM    108  H10 UNL A   1      29.402  33.834  47.259  1.00  0.00    +0.000 H 
ATOM    109  H11 UNL A   1      30.490  34.984  46.488  1.00  0.00    +0.000 H 
ATOM     15  C10 UNL A   1      29.473  34.767  46.739  1.00  0.00    +0.000 C 
BRANCH   15   14
ATOM    107  H9  UNL A   1      29.086  36.741  47.256  1.00  0.00    +0.000 H 
ATOM     14  N3  UNL A   1      28.977  35.825  47.598  1.00  0.00    +0.000 N 
BRANCH   14   12
ATOM     12  C9  UNL A   1      28.377  35.711  48.823  1.00  0.00    +0.000 C 
ATOM     13  O2  UNL A   1      27.623  34.756  49.019  1.00  0.00    +0.000 O 
BRANCH   12   11
ATOM    105  H7  UNL A   1      29.660  36.951  49.998  1.00  0.00    +0.000 H 
ATOM    106  H8  UNL A   1      28.110  37.680  49.577  1.00  0.00    +0.000 H 
ATOM     11  C8  UNL A   1      28.607  36.787  49.891  1.00  0.00    +0.000 C 
BRANCH   11   10
ATOM     10  N2  UNL A   1      28.060  36.393  51.178  1.00  0.00    +0.000 N 
ATOM    104  H6  UNL A   1      28.660  35.910  51.792  1.00  0.00    +0.000 H 
BRANCH   10    9
ATOM      7  C6  UNL A   1      24.969  36.316  52.812  1.00  0.00    +0.000 C 
ATOM      8  N1  UNL A   1      26.213  35.824  52.458  1.00  0.00    +0.000 N 
ATOM      9  C7  UNL A   1      26.802  36.630  51.605  1.00  0.00    +0.000 C 
ATOM     87  S1  UNL A   1      25.850  37.997  51.150  1.00  0.00    +0.000 S 
ATOM     88  C61 UNL A   1      24.648  37.560  52.288  1.00  0.00    +0.000 C 
BRANCH    7    6
ATOM     97  C69 UNL A   1      23.106  34.735  53.220  1.00  0.00    +0.000 C 
ATOM     98  C70 UNL A   1      22.336  33.960  54.097  1.00  0.00    +0.000 C 
ATOM      3  C2  UNL A   1      22.549  34.044  55.475  1.00  0.00    +0.000 C 
ATOM      4  C3  UNL A   1      23.494  34.936  55.976  1.00  0.00    +0.000 C 
ATOM      5  C4  UNL A   1      24.271  35.700  55.105  1.00  0.00    +0.000 C 
ATOM    102  H4  UNL A   1      23.621  35.033  56.997  1.00  0.00    +0.000 H 
ATOM      6  C5  UNL A   1      24.097  35.586  53.719  1.00  0.00    +0.000 C 
ATOM    103  H5  UNL A   1      24.976  36.351  55.482  1.00  0.00    +0.000 H 
ATOM    142  H44 UNL A   1      22.941  34.678  52.203  1.00  0.00    +0.000 H 
ATOM    143  H45 UNL A   1      21.610  33.326  53.725  1.00  0.00    +0.000 H 
BRANCH    3    2
ATOM      2  O1  UNL A   1      21.850  33.337  56.413  1.00  0.00    +0.000 O 
BRANCH    2    1
ATOM      1  C1  UNL A   1      22.526  33.175  57.657  1.00  0.00    +0.000 C 
ATOM     99  H1  UNL A   1      21.870  33.448  58.457  1.00  0.00    +0.000 H 
ATOM    100  H2  UNL A   1      23.392  33.805  57.677  1.00  0.00    +0.000 H 
ATOM    101  H3  UNL A   1      22.824  32.155  57.771  1.00  0.00    +0.000 H 
ENDBRANCH    2    1
ENDBRANCH    3    2
ENDBRANCH    7    6
BRANCH   88   89
ATOM    135  H37 UNL A   1      22.168  37.670  51.201  1.00  0.00    +0.000 H 
ATOM    136  H38 UNL A   1      20.354  39.159  51.801  1.00  0.00    +0.000 H 
ATOM    140  H42 UNL A   1      22.796  41.024  54.660  1.00  0.00    +0.000 H 
ATOM    141  H43 UNL A   1      24.619  39.551  54.049  1.00  0.00    +0.000 H 
ATOM     89  C62 UNL A   1      23.541  38.470  52.591  1.00  0.00    +0.000 C 
ATOM     90  C63 UNL A   1      22.306  38.375  51.941  1.00  0.00    +0.000 C 
ATOM     91  C64 UNL A   1      21.259  39.235  52.290  1.00  0.00    +0.000 C 
ATOM     92  C65 UNL A   1      21.422  40.192  53.294  1.00  0.00    +0.000 C 
ATOM     95  C67 UNL A   1      22.656  40.308  53.929  1.00  0.00    +0.000 C 
ATOM     96  C68 UNL A   1      23.706  39.455  53.577  1.00  0.00    +0.000 C 
BRANCH   92   93
ATOM     93  O4  UNL A   1      20.315  40.950  53.557  1.00  0.00    +0.000 O 
BRANCH   93   94
ATOM    137  H39 UNL A   1      19.111  40.407  55.121  1.00  0.00    +0.000 H 
ATOM    138  H40 UNL A   1      19.270  39.216  53.854  1.00  0.00    +0.000 H 
ATOM    139  H41 UNL A   1      18.293  40.640  53.595  1.00  0.00    +0.000 H 
ATOM     94  C66 UNL A   1      19.177  40.260  54.063  1.00  0.00    +0.000 C 
ENDBRANCH   93   94
ENDBRANCH   92   93
ENDBRANCH   88   89
ENDBRANCH   10    9
ENDBRANCH   11   10
ENDBRANCH   12   11
ENDBRANCH   14   12
ENDBRANCH   15   14
ENDBRANCH   16   15
ENDBRANCH   17   16
ENDBRANCH   18   17
ENDBRANCH   19   18
ENDBRANCH   20   19
ENDBRANCH   21   20
ENDBRANCH   22   21
ENDBRANCH   24   22
ENDBRANCH   28   27
BRANCH   32   33
ATOM     33  C25 UNL A   1      22.957  34.007  46.132  1.00  0.00    +0.000 C 
ATOM     34  C26 UNL A   1      22.409  33.638  44.894  1.00  0.00    +0.000 C 
ATOM     35  F1  UNL A   1      21.628  34.495  44.220  1.00  0.00    +0.000 F 
ATOM     36  C27 UNL A   1      22.629  32.370  44.363  1.00  0.00    +0.000 C 
ATOM     37  F2  UNL A   1      22.054  32.022  43.204  1.00  0.00    +0.000 F 
ATOM     38  C28 UNL A   1      23.427  31.460  45.041  1.00  0.00    +0.000 C 
ATOM     39  F3  UNL A   1      23.639  30.241  44.527  1.00  0.00    +0.000 F 
ATOM     40  C29 UNL A   1      23.998  31.812  46.254  1.00  0.00    +0.000 C 
ATOM     41  F4  UNL A   1      24.779  30.938  46.905  1.00  0.00    +0.000 F 
ATOM     42  C30 UNL A   1      23.758  33.070  46.801  1.00  0.00    +0.000 C 
ATOM     43  F5  UNL A   1      24.309  33.373  47.985  1.00  0.00    +0.000 F 
ENDBRANCH   32   33
BRANCH   49   50
ATOM     50  C36 UNL A   1      17.658  37.627  49.417  1.00  0.00    +0.000 C 
ATOM     51  C37 UNL A   1      16.613  37.369  48.517  1.00  0.00    +0.000 C 
ATOM     52  F6  UNL A   1      16.839  37.401  47.195  1.00  0.00    +0.000 F 
ATOM     53  C38 UNL A   1      15.324  37.110  48.974  1.00  0.00    +0.000 C 
ATOM     54  F7  UNL A   1      14.334  36.906  48.095  1.00  0.00    +0.000 F 
ATOM     55  C39 UNL A   1      15.061  37.076  50.335  1.00  0.00    +0.000 C 
ATOM     56  F8  UNL A   1      13.821  36.821  50.773  1.00  0.00    +0.000 F 
ATOM     57  C40 UNL A   1      16.082  37.315  51.243  1.00  0.00    +0.000 C 
ATOM     58  F9  UNL A   1      15.832  37.273  52.558  1.00  0.00    +0.000 F 
ATOM     59  C41 UNL A   1      17.367  37.599  50.789  1.00  0.00    +0.000 C 
ATOM     60  F10 UNL A   1      18.333  37.836  51.689  1.00  0.00    +0.000 F 
ENDBRANCH   49   50
BRANCH   64   65
ATOM     65  C45 UNL A   1      21.647  43.342  49.369  1.00  0.00    +0.000 C 
ATOM     66  C46 UNL A   1      21.914  43.760  50.680  1.00  0.00    +0.000 C 
ATOM     67  F11 UNL A   1      22.327  42.870  51.594  1.00  0.00    +0.000 F 
ATOM     68  C47 UNL A   1      21.731  45.088  51.062  1.00  0.00    +0.000 C 
ATOM     69  F12 UNL A   1      21.966  45.456  52.328  1.00  0.00    +0.000 F 
ATOM     70  C48 UNL A   1      21.302  46.026  50.135  1.00  0.00    +0.000 C 
ATOM     71  F13 UNL A   1      21.137  47.304  50.500  1.00  0.00    +0.000 F 
ATOM     72  C49 UNL A   1      21.038  45.635  48.830  1.00  0.00    +0.000 C 
ATOM     73  F14 UNL A   1      20.634  46.540  47.928  1.00  0.00    +0.000 F 
ATOM     74  C50 UNL A   1      21.197  44.304  48.453  1.00  0.00    +0.000 C 
ATOM     75  F15 UNL A   1      20.933  43.953  47.185  1.00  0.00    +0.000 F 
ENDBRANCH   64   65
TORSDOF 23
ENDMDL
MODEL 9
REMARK VINA RESULT:      -7.3     43.629     49.979
ROOT
ATOM    129  H31 UNL A   1       8.897   1.088  27.360  1.00  0.00    +0.000 H 
ATOM    130  H32 UNL A   1      10.734   2.199  28.755  1.00  0.00    +0.000 H 
ATOM    131  H33 UNL A   1       7.462  11.283  25.969  1.00  0.00    +0.000 H 
ATOM    132  H34 UNL A   1       5.366  10.216  24.954  1.00  0.00    +0.000 H 
ATOM     28  C21 UNL A   1       5.394   7.369  25.009  1.00  0.00    +0.000 C 
ATOM     29  C22 UNL A   1       6.389   8.308  25.627  1.00  0.00    +0.000 C 
ATOM     30  N5  UNL A   1       7.469   8.033  26.315  1.00  0.00    +0.000 N 
ATOM     31  C23 UNL A   1       8.056   9.259  26.602  1.00  0.00    +0.000 C 
ATOM     32  C24 UNL A   1       9.168   9.511  27.334  1.00  0.00    +0.000 C 
ATOM     44  C31 UNL A   1       9.957   8.499  27.985  1.00  0.00    +0.000 C 
ATOM     45  C32 UNL A   1      11.041   8.661  28.831  1.00  0.00    +0.000 C 
ATOM     46  C33 UNL A   1      11.519   7.393  29.179  1.00  0.00    +0.000 C 
ATOM     47  C34 UNL A   1      10.707   6.441  28.584  1.00  0.00    +0.000 C 
ATOM     48  N6  UNL A   1       9.751   7.133  27.858  1.00  0.00    +0.000 N 
ATOM     49  C35 UNL A   1      10.795   5.005  28.672  1.00  0.00    +0.000 C 
ATOM     61  C42 UNL A   1       9.930   4.138  28.090  1.00  0.00    +0.000 C 
ATOM     62  N7  UNL A   1       8.822   4.409  27.299  1.00  0.00    +0.000 N 
ATOM     63  C43 UNL A   1       8.323   3.245  26.965  1.00  0.00    +0.000 C 
ATOM     64  C44 UNL A   1       7.115   2.940  26.126  1.00  0.00    +0.000 C 
ATOM     76  C51 UNL A   1       6.356   3.953  25.667  1.00  0.00    +0.000 C 
ATOM     77  C52 UNL A   1       5.151   3.805  24.857  1.00  0.00    +0.000 C 
ATOM     78  C53 UNL A   1       4.688   5.023  24.535  1.00  0.00    +0.000 C 
ATOM     79  C54 UNL A   1       5.550   6.038  25.141  1.00  0.00    +0.000 C 
ATOM     80  N8  UNL A   1       6.502   5.310  25.811  1.00  0.00    +0.000 N 
ATOM     81  C55 UNL A   1       9.070   2.096  27.497  1.00  0.00    +0.000 C 
ATOM     82  C56 UNL A   1      10.020   2.696  28.200  1.00  0.00    +0.000 C 
ATOM     83  C57 UNL A   1       7.236  10.275  25.977  1.00  0.00    +0.000 C 
ATOM     84  C58 UNL A   1       6.159   9.745  25.416  1.00  0.00    +0.000 C 
ATOM    123  H25 UNL A   1      11.429   9.563  29.150  1.00  0.00    +0.000 H 
ATOM    124  H26 UNL A   1      12.338   7.200  29.776  1.00  0.00    +0.000 H 
ATOM    125  H27 UNL A   1       9.032   6.717  27.330  1.00  0.00    +0.000 H 
ATOM    126  H28 UNL A   1       4.724   2.908  24.576  1.00  0.00    +0.000 H 
ATOM    127  H29 UNL A   1       3.858   5.213  23.952  1.00  0.00    +0.000 H 
ATOM    128  H30 UNL A   1       7.221   5.723  26.343  1.00  0.00    +0.000 H 
ENDROOT
BRANCH   28   27
ATOM    122  H24 UNL A   1       2.965   8.299  25.775  1.00  0.00    +0.000 H 
ATOM    133  H35 UNL A   1       5.330   7.666  22.347  1.00  0.00    +0.000 H 
ATOM    134  H36 UNL A   1       3.539   8.525  20.959  1.00  0.00    +0.000 H 
ATOM     85  C59 UNL A   1       4.440   7.958  22.779  1.00  0.00    +0.000 C 
ATOM     86  C60 UNL A   1       3.398   8.415  21.976  1.00  0.00    +0.000 C 
ATOM     24  C17 UNL A   1       2.161   8.725  22.549  1.00  0.00    +0.000 C 
ATOM     25  C18 UNL A   1       2.006   8.698  23.938  1.00  0.00    +0.000 C 
ATOM     26  C19 UNL A   1       3.070   8.297  24.749  1.00  0.00    +0.000 C 
ATOM     27  C20 UNL A   1       4.285   7.890  24.172  1.00  0.00    +0.000 C 
ATOM    121  H23 UNL A   1       1.107   8.973  24.364  1.00  0.00    +0.000 H 
BRANCH   24   22
ATOM     22  C16 UNL A   1       1.005   9.108  21.711  1.00  0.00    +0.000 C 
ATOM     23  O3  UNL A   1       0.538   8.300  20.914  1.00  0.00    +0.000 O 
BRANCH   22   21
ATOM     21  N4  UNL A   1       0.464  10.365  21.813  1.00  0.00    +0.000 N 
ATOM    120  H22 UNL A   1      -0.259  10.564  21.174  1.00  0.00    +0.000 H 
BRANCH   21   20
ATOM     20  C15 UNL A   1       0.802  11.448  22.724  1.00  0.00    +0.000 C 
ATOM    118  H20 UNL A   1      -0.094  11.972  22.983  1.00  0.00    +0.000 H 
ATOM    119  H21 UNL A   1       1.265  11.018  23.587  1.00  0.00    +0.000 H 
BRANCH   20   19
ATOM     19  C14 UNL A   1       1.788  12.435  22.105  1.00  0.00    +0.000 C 
ATOM    116  H18 UNL A   1       2.477  11.882  21.502  1.00  0.00    +0.000 H 
ATOM    117  H19 UNL A   1       1.204  13.134  21.544  1.00  0.00    +0.000 H 
BRANCH   19   18
ATOM     18  C13 UNL A   1       2.592  13.257  23.116  1.00  0.00    +0.000 C 
ATOM    115  H17 UNL A   1       2.324  12.882  24.082  1.00  0.00    +0.000 H 
ATOM    114  H16 UNL A   1       2.348  14.289  22.973  1.00  0.00    +0.000 H 
BRANCH   18   17
ATOM     17  C12 UNL A   1       4.116  13.113  23.014  1.00  0.00    +0.000 C 
ATOM    113  H15 UNL A   1       4.516  13.557  23.902  1.00  0.00    +0.000 H 
ATOM    112  H14 UNL A   1       4.436  13.597  22.114  1.00  0.00    +0.000 H 
BRANCH   17   16
ATOM    110  H12 UNL A   1       4.944  11.402  23.978  1.00  0.00    +0.000 H 
ATOM    111  H13 UNL A   1       3.835  11.054  22.633  1.00  0.00    +0.000 H 
ATOM     16  C11 UNL A   1       4.635  11.669  22.988  1.00  0.00    +0.000 C 
BRANCH   16   15
ATOM    108  H10 UNL A   1       6.212  10.478  22.185  1.00  0.00    +0.000 H 
ATOM    109  H11 UNL A   1       5.470  11.588  21.036  1.00  0.00    +0.000 H 
ATOM     15  C10 UNL A   1       5.818  11.463  22.040  1.00  0.00    +0.000 C 
BRANCH   15   14
ATOM    107  H9  UNL A   1       6.615  13.206  22.840  1.00  0.00    +0.000 H 
ATOM     14  N3  UNL A   1       6.867  12.433  22.286  1.00  0.00    +0.000 N 
BRANCH   14   12
ATOM     12  C9  UNL A   1       8.162  12.411  21.844  1.00  0.00    +0.000 C 
ATOM     13  O2  UNL A   1       8.372  12.574  20.640  1.00  0.00    +0.000 O 
BRANCH   12   11
ATOM    105  H7  UNL A   1      10.237  12.321  22.342  1.00  0.00    +0.000 H 
ATOM    106  H8  UNL A   1       9.175  12.772  23.677  1.00  0.00    +0.000 H 
ATOM     11  C8  UNL A   1       9.303  12.132  22.830  1.00  0.00    +0.000 C 
BRANCH   11   10
ATOM     10  N2  UNL A   1       9.287  10.756  23.295  1.00  0.00    +0.000 N 
ATOM    104  H6  UNL A   1       9.212  10.610  24.266  1.00  0.00    +0.000 H 
BRANCH   10    9
ATOM      7  C6  UNL A   1       8.800   7.652  21.757  1.00  0.00    +0.000 C 
ATOM      8  N1  UNL A   1       8.602   8.614  22.733  1.00  0.00    +0.000 N 
ATOM      9  C7  UNL A   1       9.366   9.659  22.513  1.00  0.00    +0.000 C 
ATOM     87  S1  UNL A   1      10.403   9.501  21.141  1.00  0.00    +0.000 S 
ATOM     88  C61 UNL A   1       9.663   8.013  20.731  1.00  0.00    +0.000 C 
BRANCH    7    6
ATOM     97  C69 UNL A   1       6.893   6.213  21.103  1.00  0.00    +0.000 C 
ATOM     98  C70 UNL A   1       6.272   4.959  21.061  1.00  0.00    +0.000 C 
ATOM      3  C2  UNL A   1       6.850   3.870  21.720  1.00  0.00    +0.000 C 
ATOM      4  C3  UNL A   1       8.017   4.049  22.459  1.00  0.00    +0.000 C 
ATOM      5  C4  UNL A   1       8.644   5.294  22.492  1.00  0.00    +0.000 C 
ATOM    102  H4  UNL A   1       8.420   3.256  22.984  1.00  0.00    +0.000 H 
ATOM      6  C5  UNL A   1       8.097   6.379  21.795  1.00  0.00    +0.000 C 
ATOM    103  H5  UNL A   1       9.514   5.417  23.033  1.00  0.00    +0.000 H 
ATOM    142  H44 UNL A   1       6.460   7.018  20.623  1.00  0.00    +0.000 H 
ATOM    143  H45 UNL A   1       5.387   4.837  20.543  1.00  0.00    +0.000 H 
BRANCH    3    2
ATOM      2  O1  UNL A   1       6.323   2.609  21.745  1.00  0.00    +0.000 O 
BRANCH    2    1
ATOM      1  C1  UNL A   1       6.221   1.984  20.469  1.00  0.00    +0.000 C 
ATOM     99  H1  UNL A   1       5.346   2.340  19.967  1.00  0.00    +0.000 H 
ATOM    100  H2  UNL A   1       6.152   0.923  20.596  1.00  0.00    +0.000 H 
ATOM    101  H3  UNL A   1       7.088   2.217  19.888  1.00  0.00    +0.000 H 
ENDBRANCH    2    1
ENDBRANCH    3    2
ENDBRANCH    7    6
BRANCH   88   89
ATOM    135  H37 UNL A   1      11.674   6.313  20.088  1.00  0.00    +0.000 H 
ATOM    136  H38 UNL A   1      12.058   5.211  17.966  1.00  0.00    +0.000 H 
ATOM    140  H42 UNL A   1       8.705   7.134  16.330  1.00  0.00    +0.000 H 
ATOM    141  H43 UNL A   1       8.329   8.255  18.445  1.00  0.00    +0.000 H 
ATOM     89  C62 UNL A   1       9.954   7.361  19.453  1.00  0.00    +0.000 C 
ATOM     90  C63 UNL A   1      11.036   6.487  19.297  1.00  0.00    +0.000 C 
ATOM     91  C64 UNL A   1      11.254   5.849  18.071  1.00  0.00    +0.000 C 
ATOM     92  C65 UNL A   1      10.399   6.065  16.988  1.00  0.00    +0.000 C 
ATOM     95  C67 UNL A   1       9.334   6.952  17.128  1.00  0.00    +0.000 C 
ATOM     96  C68 UNL A   1       9.117   7.595  18.350  1.00  0.00    +0.000 C 
BRANCH   92   93
ATOM     93  O4  UNL A   1      10.707   5.362  15.857  1.00  0.00    +0.000 O 
BRANCH   93   94
ATOM    137  H39 UNL A   1      12.178   4.142  15.123  1.00  0.00    +0.000 H 
ATOM    138  H40 UNL A   1      11.035   3.370  16.195  1.00  0.00    +0.000 H 
ATOM    139  H41 UNL A   1      12.249   4.446  16.842  1.00  0.00    +0.000 H 
ATOM     94  C66 UNL A   1      11.597   4.262  16.014  1.00  0.00    +0.000 C 
ENDBRANCH   93   94
ENDBRANCH   92   93
ENDBRANCH   88   89
ENDBRANCH   10    9
ENDBRANCH   11   10
ENDBRANCH   12   11
ENDBRANCH   14   12
ENDBRANCH   15   14
ENDBRANCH   16   15
ENDBRANCH   17   16
ENDBRANCH   18   17
ENDBRANCH   19   18
ENDBRANCH   20   19
ENDBRANCH   21   20
ENDBRANCH   22   21
ENDBRANCH   24   22
ENDBRANCH   28   27
BRANCH   32   33
ATOM     33  C25 UNL A   1       9.599  10.943  27.467  1.00  0.00    +0.000 C 
ATOM     34  C26 UNL A   1      10.627  11.480  26.679  1.00  0.00    +0.000 C 
ATOM     35  F1  UNL A   1      11.282  10.705  25.802  1.00  0.00    +0.000 F 
ATOM     36  C27 UNL A   1      11.015  12.811  26.818  1.00  0.00    +0.000 C 
ATOM     37  F2  UNL A   1      12.035  13.289  26.092  1.00  0.00    +0.000 F 
ATOM     38  C28 UNL A   1      10.362  13.635  27.721  1.00  0.00    +0.000 C 
ATOM     39  F3  UNL A   1      10.735  14.916  27.854  1.00  0.00    +0.000 F 
ATOM     40  C29 UNL A   1       9.326  13.132  28.493  1.00  0.00    +0.000 C 
ATOM     41  F4  UNL A   1       8.686  13.930  29.359  1.00  0.00    +0.000 F 
ATOM     42  C30 UNL A   1       8.954  11.795  28.376  1.00  0.00    +0.000 C 
ATOM     43  F5  UNL A   1       7.961  11.332  29.150  1.00  0.00    +0.000 F 
ENDBRANCH   32   33
BRANCH   49   50
ATOM     50  C36 UNL A   1      11.914   4.418  29.478  1.00  0.00    +0.000 C 
ATOM     51  C37 UNL A   1      11.871   4.397  30.880  1.00  0.00    +0.000 C 
ATOM     52  F6  UNL A   1      10.839   4.956  31.532  1.00  0.00    +0.000 F 
ATOM     53  C38 UNL A   1      12.907   3.832  31.619  1.00  0.00    +0.000 C 
ATOM     54  F7  UNL A   1      12.863   3.859  32.958  1.00  0.00    +0.000 F 
ATOM     55  C39 UNL A   1      13.988   3.253  30.972  1.00  0.00    +0.000 C 
ATOM     56  F8  UNL A   1      14.981   2.704  31.685  1.00  0.00    +0.000 F 
ATOM     57  C40 UNL A   1      14.044   3.251  29.586  1.00  0.00    +0.000 C 
ATOM     58  F9  UNL A   1      15.084   2.683  28.960  1.00  0.00    +0.000 F 
ATOM     59  C41 UNL A   1      13.023   3.837  28.845  1.00  0.00    +0.000 C 
ATOM     60  F10 UNL A   1      13.109   3.829  27.507  1.00  0.00    +0.000 F 
ENDBRANCH   49   50
BRANCH   64   65
ATOM     65  C45 UNL A   1       6.730   1.541  25.815  1.00  0.00    +0.000 C 
ATOM     66  C46 UNL A   1       7.422   0.804  24.845  1.00  0.00    +0.000 C 
ATOM     67  F11 UNL A   1       8.416   1.379  24.151  1.00  0.00    +0.000 F 
ATOM     68  C47 UNL A   1       7.078  -0.517  24.566  1.00  0.00    +0.000 C 
ATOM     69  F12 UNL A   1       7.737  -1.191  23.614  1.00  0.00    +0.000 F 
ATOM     70  C48 UNL A   1       6.052  -1.132  25.268  1.00  0.00    +0.000 C 
ATOM     71  F13 UNL A   1       5.730  -2.406  25.008  1.00  0.00    +0.000 F 
ATOM     72  C49 UNL A   1       5.358  -0.423  26.238  1.00  0.00    +0.000 C 
ATOM     73  F14 UNL A   1       4.374  -1.016  26.927  1.00  0.00    +0.000 F 
ATOM     74  C50 UNL A   1       5.685   0.905  26.501  1.00  0.00    +0.000 C 
ATOM     75  F15 UNL A   1       4.996   1.569  27.441  1.00  0.00    +0.000 F 
ENDBRANCH   64   65
TORSDOF 23
ENDMDL
MODEL 10
REMARK VINA RESULT:      -7.3     44.155     47.621
ROOT
ATOM    129  H31 UNL A   1      29.450  42.729  46.870  1.00  0.00    +0.000 H 
ATOM    130  H32 UNL A   1      28.617  44.820  48.091  1.00  0.00    +0.000 H 
ATOM    131  H33 UNL A   1      19.592  40.584  49.353  1.00  0.00    +0.000 H 
ATOM    132  H34 UNL A   1      20.534  38.340  48.554  1.00  0.00    +0.000 H 
ATOM     28  C21 UNL A   1      23.228  38.492  47.643  1.00  0.00    +0.000 C 
ATOM     29  C22 UNL A   1      22.416  39.577  48.292  1.00  0.00    +0.000 C 
ATOM     30  N5  UNL A   1      22.759  40.808  48.577  1.00  0.00    +0.000 N 
ATOM     31  C23 UNL A   1      21.623  41.401  49.114  1.00  0.00    +0.000 C 
ATOM     32  C24 UNL A   1      21.479  42.653  49.609  1.00  0.00    +0.000 C 
ATOM     44  C31 UNL A   1      22.540  43.624  49.681  1.00  0.00    +0.000 C 
ATOM     45  C32 UNL A   1      22.520  44.883  50.257  1.00  0.00    +0.000 C 
ATOM     46  C33 UNL A   1      23.765  45.484  50.038  1.00  0.00    +0.000 C 
ATOM     47  C34 UNL A   1      24.574  44.583  49.364  1.00  0.00    +0.000 C 
ATOM     48  N6  UNL A   1      23.811  43.446  49.155  1.00  0.00    +0.000 N 
ATOM     49  C35 UNL A   1      25.942  44.747  48.942  1.00  0.00    +0.000 C 
ATOM     61  C42 UNL A   1      26.681  43.795  48.320  1.00  0.00    +0.000 C 
ATOM     62  N7  UNL A   1      26.313  42.511  47.946  1.00  0.00    +0.000 N 
ATOM     63  C43 UNL A   1      27.365  41.988  47.366  1.00  0.00    +0.000 C 
ATOM     64  C44 UNL A   1      27.537  40.616  46.778  1.00  0.00    +0.000 C 
ATOM     76  C51 UNL A   1      26.532  39.726  46.874  1.00  0.00    +0.000 C 
ATOM     77  C52 UNL A   1      26.564  38.358  46.364  1.00  0.00    +0.000 C 
ATOM     78  C53 UNL A   1      25.373  37.781  46.586  1.00  0.00    +0.000 C 
ATOM     79  C54 UNL A   1      24.503  38.730  47.281  1.00  0.00    +0.000 C 
ATOM     80  N8  UNL A   1      25.282  39.851  47.428  1.00  0.00    +0.000 N 
ATOM     81  C55 UNL A   1      28.522  42.892  47.294  1.00  0.00    +0.000 C 
ATOM     82  C56 UNL A   1      28.062  43.968  47.916  1.00  0.00    +0.000 C 
ATOM     83  C57 UNL A   1      20.571  40.407  49.075  1.00  0.00    +0.000 C 
ATOM     84  C58 UNL A   1      21.025  39.243  48.635  1.00  0.00    +0.000 C 
ATOM    123  H25 UNL A   1      21.725  45.305  50.761  1.00  0.00    +0.000 H 
ATOM    124  H26 UNL A   1      24.034  46.436  50.329  1.00  0.00    +0.000 H 
ATOM    125  H27 UNL A   1      24.125  42.631  48.700  1.00  0.00    +0.000 H 
ATOM    126  H28 UNL A   1      27.372  37.908  45.906  1.00  0.00    +0.000 H 
ATOM    127  H29 UNL A   1      25.113  36.820  46.310  1.00  0.00    +0.000 H 
ATOM    128  H30 UNL A   1      24.973  40.666  47.885  1.00  0.00    +0.000 H 
ENDROOT
BRANCH   28   27
ATOM    122  H24 UNL A   1      21.871  37.761  45.412  1.00  0.00    +0.000 H 
ATOM    133  H35 UNL A   1      23.227  36.245  49.101  1.00  0.00    +0.000 H 
ATOM    134  H36 UNL A   1      22.234  34.096  48.576  1.00  0.00    +0.000 H 
ATOM     85  C59 UNL A   1      22.706  36.120  48.219  1.00  0.00    +0.000 C 
ATOM     86  C60 UNL A   1      22.105  34.897  47.936  1.00  0.00    +0.000 C 
ATOM     24  C17 UNL A   1      21.325  34.753  46.784  1.00  0.00    +0.000 C 
ATOM     25  C18 UNL A   1      21.252  35.794  45.854  1.00  0.00    +0.000 C 
ATOM     26  C19 UNL A   1      21.905  37.001  46.108  1.00  0.00    +0.000 C 
ATOM     27  C20 UNL A   1      22.609  37.185  47.310  1.00  0.00    +0.000 C 
ATOM    121  H23 UNL A   1      20.715  35.671  44.981  1.00  0.00    +0.000 H 
BRANCH   24   22
ATOM     22  C16 UNL A   1      20.586  33.502  46.513  1.00  0.00    +0.000 C 
ATOM     23  O3  UNL A   1      19.677  33.158  47.263  1.00  0.00    +0.000 O 
BRANCH   22   21
ATOM     21  N4  UNL A   1      20.922  32.720  45.436  1.00  0.00    +0.000 N 
ATOM    120  H22 UNL A   1      20.365  32.848  44.634  1.00  0.00    +0.000 H 
BRANCH   21   20
ATOM     20  C15 UNL A   1      21.979  31.729  45.305  1.00  0.00    +0.000 C 
ATOM    118  H20 UNL A   1      22.585  31.753  46.187  1.00  0.00    +0.000 H 
ATOM    119  H21 UNL A   1      21.517  30.773  45.176  1.00  0.00    +0.000 H 
BRANCH   20   19
ATOM     19  C14 UNL A   1      22.866  31.990  44.091  1.00  0.00    +0.000 C 
ATOM    116  H18 UNL A   1      23.686  31.303  44.125  1.00  0.00    +0.000 H 
ATOM    117  H19 UNL A   1      22.245  31.862  43.230  1.00  0.00    +0.000 H 
BRANCH   19   18
ATOM     18  C13 UNL A   1      23.436  33.408  44.006  1.00  0.00    +0.000 C 
ATOM    115  H17 UNL A   1      22.608  34.069  44.155  1.00  0.00    +0.000 H 
ATOM    114  H16 UNL A   1      23.906  33.519  43.051  1.00  0.00    +0.000 H 
BRANCH   18   17
ATOM     17  C12 UNL A   1      24.467  33.766  45.084  1.00  0.00    +0.000 C 
ATOM    113  H15 UNL A   1      25.164  32.955  45.111  1.00  0.00    +0.000 H 
ATOM    112  H14 UNL A   1      23.944  33.910  46.007  1.00  0.00    +0.000 H 
BRANCH   17   16
ATOM    110  H12 UNL A   1      24.685  35.714  44.248  1.00  0.00    +0.000 H 
ATOM    111  H13 UNL A   1      25.591  35.426  45.750  1.00  0.00    +0.000 H 
ATOM     16  C11 UNL A   1      25.292  35.029  44.803  1.00  0.00    +0.000 C 
BRANCH   16   15
ATOM    108  H10 UNL A   1      26.501  33.786  43.562  1.00  0.00    +0.000 H 
ATOM    109  H11 UNL A   1      26.661  35.513  43.252  1.00  0.00    +0.000 H 
ATOM     15  C10 UNL A   1      26.568  34.758  44.005  1.00  0.00    +0.000 C 
BRANCH   15   14
ATOM    107  H9  UNL A   1      27.877  34.038  45.448  1.00  0.00    +0.000 H 
ATOM     14  N3  UNL A   1      27.743  34.810  44.853  1.00  0.00    +0.000 N 
BRANCH   14   12
ATOM     12  C9  UNL A   1      28.689  35.796  44.931  1.00  0.00    +0.000 C 
ATOM     13  O2  UNL A   1      28.997  36.395  43.899  1.00  0.00    +0.000 O 
BRANCH   12   11
ATOM    105  H7  UNL A   1      30.419  35.865  46.182  1.00  0.00    +0.000 H 
ATOM    106  H8  UNL A   1      29.228  37.128  46.497  1.00  0.00    +0.000 H 
ATOM     11  C8  UNL A   1      29.377  36.094  46.269  1.00  0.00    +0.000 C 
BRANCH   11   10
ATOM     10  N2  UNL A   1      28.812  35.306  47.351  1.00  0.00    +0.000 N 
ATOM    104  H6  UNL A   1      28.962  34.333  47.325  1.00  0.00    +0.000 H 
BRANCH   10    9
ATOM      7  C6  UNL A   1      27.539  37.235  49.976  1.00  0.00    +0.000 C 
ATOM      8  N1  UNL A   1      28.465  36.891  49.007  1.00  0.00    +0.000 N 
ATOM      9  C7  UNL A   1      28.099  35.791  48.390  1.00  0.00    +0.000 C 
ATOM     87  S1  UNL A   1      26.641  35.092  48.994  1.00  0.00    +0.000 S 
ATOM     88  C61 UNL A   1      26.408  36.432  50.033  1.00  0.00    +0.000 C 
BRANCH    7    6
ATOM     97  C69 UNL A   1      27.488  39.685  50.339  1.00  0.00    +0.000 C 
ATOM     98  C70 UNL A   1      27.579  40.792  51.192  1.00  0.00    +0.000 C 
ATOM      3  C2  UNL A   1      27.925  40.614  52.534  1.00  0.00    +0.000 C 
ATOM      4  C3  UNL A   1      28.227  39.339  53.008  1.00  0.00    +0.000 C 
ATOM      5  C4  UNL A   1      28.125  38.234  52.164  1.00  0.00    +0.000 C 
ATOM    102  H4  UNL A   1      28.527  39.212  53.988  1.00  0.00    +0.000 H 
ATOM      6  C5  UNL A   1      27.732  38.398  50.829  1.00  0.00    +0.000 C 
ATOM    103  H5  UNL A   1      28.340  37.291  52.524  1.00  0.00    +0.000 H 
ATOM    142  H44 UNL A   1      27.241  39.819  49.346  1.00  0.00    +0.000 H 
ATOM    143  H45 UNL A   1      27.391  41.740  50.830  1.00  0.00    +0.000 H 
BRANCH    3    2
ATOM      2  O1  UNL A   1      28.047  41.625  53.446  1.00  0.00    +0.000 O 
BRANCH    2    1
ATOM      1  C1  UNL A   1      26.885  42.437  53.588  1.00  0.00    +0.000 C 
ATOM     99  H1  UNL A   1      26.128  42.099  52.912  1.00  0.00    +0.000 H 
ATOM    100  H2  UNL A   1      27.132  43.455  53.366  1.00  0.00    +0.000 H 
ATOM    101  H3  UNL A   1      26.523  42.369  54.593  1.00  0.00    +0.000 H 
ENDBRANCH    2    1
ENDBRANCH    3    2
ENDBRANCH    7    6
BRANCH   88   89
ATOM    135  H37 UNL A   1      24.953  38.679  50.461  1.00  0.00    +0.000 H 
ATOM    136  H38 UNL A   1      22.838  38.872  51.627  1.00  0.00    +0.000 H 
ATOM    140  H42 UNL A   1      22.888  34.758  52.454  1.00  0.00    +0.000 H 
ATOM    141  H43 UNL A   1      25.013  34.563  51.307  1.00  0.00    +0.000 H 
ATOM     89  C62 UNL A   1      25.151  36.599  50.766  1.00  0.00    +0.000 C 
ATOM     90  C63 UNL A   1      24.517  37.841  50.876  1.00  0.00    +0.000 C 
ATOM     91  C64 UNL A   1      23.294  37.950  51.548  1.00  0.00    +0.000 C 
ATOM     92  C65 UNL A   1      22.683  36.828  52.111  1.00  0.00    +0.000 C 
ATOM     95  C67 UNL A   1      23.320  35.592  52.026  1.00  0.00    +0.000 C 
ATOM     96  C68 UNL A   1      24.545  35.481  51.362  1.00  0.00    +0.000 C 
BRANCH   92   93
ATOM     93  O4  UNL A   1      21.480  37.065  52.715  1.00  0.00    +0.000 O 
BRANCH   93   94
ATOM    137  H39 UNL A   1      21.652  35.368  53.845  1.00  0.00    +0.000 H 
ATOM    138  H40 UNL A   1      20.158  36.251  54.047  1.00  0.00    +0.000 H 
ATOM    139  H41 UNL A   1      21.637  36.866  54.745  1.00  0.00    +0.000 H 
ATOM     94  C66 UNL A   1      21.215  36.343  53.912  1.00  0.00    +0.000 C 
ENDBRANCH   93   94
ENDBRANCH   92   93
ENDBRANCH   88   89
ENDBRANCH   10    9
ENDBRANCH   11   10
ENDBRANCH   12   11
ENDBRANCH   14   12
ENDBRANCH   15   14
ENDBRANCH   16   15
ENDBRANCH   17   16
ENDBRANCH   18   17
ENDBRANCH   19   18
ENDBRANCH   20   19
ENDBRANCH   21   20
ENDBRANCH   22   21
ENDBRANCH   24   22
ENDBRANCH   28   27
BRANCH   32   33
ATOM     33  C25 UNL A   1      20.121  43.048  50.111  1.00  0.00    +0.000 C 
ATOM     34  C26 UNL A   1      19.686  42.715  51.403  1.00  0.00    +0.000 C 
ATOM     35  F1  UNL A   1      20.473  41.995  52.216  1.00  0.00    +0.000 F 
ATOM     36  C27 UNL A   1      18.421  43.087  51.850  1.00  0.00    +0.000 C 
ATOM     37  F2  UNL A   1      18.006  42.714  53.069  1.00  0.00    +0.000 F 
ATOM     38  C28 UNL A   1      17.582  43.826  51.030  1.00  0.00    +0.000 C 
ATOM     39  F3  UNL A   1      16.365  44.185  51.462  1.00  0.00    +0.000 F 
ATOM     40  C29 UNL A   1      18.000  44.186  49.758  1.00  0.00    +0.000 C 
ATOM     41  F4  UNL A   1      17.195  44.910  48.968  1.00  0.00    +0.000 F 
ATOM     42  C30 UNL A   1      19.254  43.792  49.298  1.00  0.00    +0.000 C 
ATOM     43  F5  UNL A   1      19.623  44.140  48.056  1.00  0.00    +0.000 F 
ENDBRANCH   32   33
BRANCH   49   50
ATOM     50  C36 UNL A   1      26.611  46.059  49.222  1.00  0.00    +0.000 C 
ATOM     51  C37 UNL A   1      26.423  47.168  48.384  1.00  0.00    +0.000 C 
ATOM     52  F6  UNL A   1      25.675  47.057  47.275  1.00  0.00    +0.000 F 
ATOM     53  C38 UNL A   1      27.032  48.388  48.665  1.00  0.00    +0.000 C 
ATOM     54  F7  UNL A   1      26.871  49.422  47.829  1.00  0.00    +0.000 F 
ATOM     55  C39 UNL A   1      27.815  48.531  49.801  1.00  0.00    +0.000 C 
ATOM     56  F8  UNL A   1      28.396  49.707  50.074  1.00  0.00    +0.000 F 
ATOM     57  C40 UNL A   1      28.003  47.450  50.651  1.00  0.00    +0.000 C 
ATOM     58  F9  UNL A   1      28.751  47.589  51.754  1.00  0.00    +0.000 F 
ATOM     59  C41 UNL A   1      27.416  46.222  50.360  1.00  0.00    +0.000 C 
ATOM     60  F10 UNL A   1      27.623  45.193  51.194  1.00  0.00    +0.000 F 
ENDBRANCH   49   50
BRANCH   64   65
ATOM     65  C45 UNL A   1      28.802  40.219  46.113  1.00  0.00    +0.000 C 
ATOM     66  C46 UNL A   1      28.946  40.316  44.723  1.00  0.00    +0.000 C 
ATOM     67  F11 UNL A   1      27.914  40.727  43.972  1.00  0.00    +0.000 F 
ATOM     68  C47 UNL A   1      30.141  39.966  44.098  1.00  0.00    +0.000 C 
ATOM     69  F12 UNL A   1      30.243  40.040  42.765  1.00  0.00    +0.000 F 
ATOM     70  C48 UNL A   1      31.221  39.535  44.854  1.00  0.00    +0.000 C 
ATOM     71  F13 UNL A   1      32.373  39.209  44.254  1.00  0.00    +0.000 F 
ATOM     72  C49 UNL A   1      31.103  39.438  46.233  1.00  0.00    +0.000 C 
ATOM     73  F14 UNL A   1      32.148  39.033  46.968  1.00  0.00    +0.000 F 
ATOM     74  C50 UNL A   1      29.901  39.765  46.857  1.00  0.00    +0.000 C 
ATOM     75  F15 UNL A   1      29.814  39.659  48.191  1.00  0.00    +0.000 F 
ENDBRANCH   64   65
TORSDOF 23
ENDMDL
