MODEL 1
REMARK VINA RESULT:     -11.1      0.000      0.000
ROOT
ATOM     33  C23 UNL A   1      26.069  36.156  45.614  1.00  0.00    +0.000 C 
ATOM     34  C24 UNL A   1      27.375  36.033  44.883  1.00  0.00    +0.000 C 
ATOM     35  N5  UNL A   1      28.457  36.763  44.991  1.00  0.00    +0.000 N 
ATOM     36  C25 UNL A   1      29.385  36.193  44.129  1.00  0.00    +0.000 C 
ATOM     37  C26 UNL A   1      30.640  36.614  43.842  1.00  0.00    +0.000 C 
ATOM     49  C33 UNL A   1      31.248  37.792  44.405  1.00  0.00    +0.000 C 
ATOM     50  C34 UNL A   1      32.478  38.353  44.110  1.00  0.00    +0.000 C 
ATOM     51  C35 UNL A   1      32.674  39.449  44.959  1.00  0.00    +0.000 C 
ATOM     52  C36 UNL A   1      31.545  39.602  45.747  1.00  0.00    +0.000 C 
ATOM     53  N6  UNL A   1      30.674  38.585  45.389  1.00  0.00    +0.000 N 
ATOM     54  C37 UNL A   1      31.280  40.598  46.754  1.00  0.00    +0.000 C 
ATOM     66  C44 UNL A   1      30.115  40.721  47.436  1.00  0.00    +0.000 C 
ATOM     67  N7  UNL A   1      28.967  39.946  47.348  1.00  0.00    +0.000 N 
ATOM     68  C45 UNL A   1      28.126  40.448  48.219  1.00  0.00    +0.000 C 
ATOM     69  C46 UNL A   1      26.724  40.008  48.543  1.00  0.00    +0.000 C 
ATOM     81  C53 UNL A   1      26.185  38.974  47.869  1.00  0.00    +0.000 C 
ATOM     82  C54 UNL A   1      24.845  38.435  48.083  1.00  0.00    +0.000 C 
ATOM     83  C55 UNL A   1      24.678  37.358  47.300  1.00  0.00    +0.000 C 
ATOM     84  C56 UNL A   1      25.884  37.157  46.496  1.00  0.00    +0.000 C 
ATOM     85  N8  UNL A   1      26.715  38.180  46.881  1.00  0.00    +0.000 N 
ATOM     86  C57 UNL A   1      28.653  41.595  48.971  1.00  0.00    +0.000 C 
ATOM     87  C58 UNL A   1      29.856  41.740  48.432  1.00  0.00    +0.000 C 
ATOM     88  C59 UNL A   1      28.757  35.027  43.546  1.00  0.00    +0.000 C 
ATOM     89  C60 UNL A   1      27.493  34.920  43.929  1.00  0.00    +0.000 C 
ATOM    119  H25 UNL A   1      33.137  38.021  43.389  1.00  0.00    +0.000 H 
ATOM    120  H26 UNL A   1      33.518  40.041  44.992  1.00  0.00    +0.000 H 
ATOM    121  H27 UNL A   1      29.779  38.446  45.775  1.00  0.00    +0.000 H 
ATOM    122  H28 UNL A   1      24.141  38.820  48.732  1.00  0.00    +0.000 H 
ATOM    123  H29 UNL A   1      23.833  36.766  47.271  1.00  0.00    +0.000 H 
ATOM    124  H30 UNL A   1      27.605  38.330  46.488  1.00  0.00    +0.000 H 
ATOM    125  H31 UNL A   1      28.204  42.143  49.722  1.00  0.00    +0.000 H 
ATOM    126  H32 UNL A   1      30.522  42.484  48.691  1.00  0.00    +0.000 H 
ATOM    127  H33 UNL A   1      29.232  34.365  42.912  1.00  0.00    +0.000 H 
ATOM    128  H34 UNL A   1      26.778  34.236  43.634  1.00  0.00    +0.000 H 
ENDROOT
BRANCH   33   32
ATOM    129  H35 UNL A   1      24.015  36.178  43.896  1.00  0.00    +0.000 H 
ATOM    130  H36 UNL A   1      22.274  34.519  43.587  1.00  0.00    +0.000 H 
ATOM    117  H23 UNL A   1      24.066  32.087  46.513  1.00  0.00    +0.000 H 
ATOM    118  H24 UNL A   1      25.682  33.838  46.975  1.00  0.00    +0.000 H 
ATOM     90  C61 UNL A   1      24.019  35.316  44.463  1.00  0.00    +0.000 C 
ATOM     91  C62 UNL A   1      23.042  34.346  44.255  1.00  0.00    +0.000 C 
ATOM     29  C19 UNL A   1      23.102  33.137  44.953  1.00  0.00    +0.000 C 
ATOM     30  C20 UNL A   1      24.056  32.958  45.959  1.00  0.00    +0.000 C 
ATOM     31  C21 UNL A   1      24.996  33.959  46.214  1.00  0.00    +0.000 C 
ATOM     32  C22 UNL A   1      25.010  35.130  45.439  1.00  0.00    +0.000 C 
BRANCH   29   27
ATOM     27  C18 UNL A   1      22.161  32.032  44.662  1.00  0.00    +0.000 C 
ATOM     28  O5  UNL A   1      22.594  30.959  44.252  1.00  0.00    +0.000 O 
BRANCH   27   26
ATOM     26  N4  UNL A   1      20.809  32.211  44.822  1.00  0.00    +0.000 N 
ATOM    116  H22 UNL A   1      20.257  31.923  44.058  1.00  0.00    +0.000 H 
BRANCH   26   25
ATOM     25  C17 UNL A   1      20.069  32.759  45.946  1.00  0.00    +0.000 C 
ATOM    114  H20 UNL A   1      19.431  31.996  46.339  1.00  0.00    +0.000 H 
ATOM    115  H21 UNL A   1      20.785  33.091  46.668  1.00  0.00    +0.000 H 
BRANCH   25   24
ATOM    113  H19 UNL A   1      19.732  34.442  44.760  1.00  0.00    +0.000 H 
ATOM    112  H18 UNL A   1      19.093  34.569  46.435  1.00  0.00    +0.000 H 
ATOM     24  C16 UNL A   1      19.212  33.960  45.563  1.00  0.00    +0.000 C 
BRANCH   24   23
ATOM    111  H17 UNL A   1      17.142  34.201  45.633  1.00  0.00    +0.000 H 
ATOM    110  H16 UNL A   1      17.685  32.584  45.058  1.00  0.00    +0.000 H 
ATOM     23  C15 UNL A   1      17.818  33.645  45.018  1.00  0.00    +0.000 C 
BRANCH   23   22
ATOM    108  H14 UNL A   1      17.884  35.098  43.481  1.00  0.00    +0.000 H 
ATOM    109  H15 UNL A   1      18.013  33.378  42.959  1.00  0.00    +0.000 H 
ATOM     22  C14 UNL A   1      17.525  34.095  43.585  1.00  0.00    +0.000 C 
BRANCH   22   21
ATOM    106  H12 UNL A   1      15.621  35.004  43.460  1.00  0.00    +0.000 H 
ATOM    107  H13 UNL A   1      16.088  33.931  42.088  1.00  0.00    +0.000 H 
ATOM     21  C13 UNL A   1      16.061  34.080  43.148  1.00  0.00    +0.000 C 
BRANCH   21   20
ATOM    105  H11 UNL A   1      14.217  33.361  43.842  1.00  0.00    +0.000 H 
ATOM     20  C12 UNL A   1      15.194  32.950  43.687  1.00  0.00    +0.000 C 
ATOM    104  H10 UNL A   1      15.641  32.586  44.589  1.00  0.00    +0.000 H 
BRANCH   20   19
ATOM     19  N3  UNL A   1      15.031  31.830  42.776  1.00  0.00    +0.000 N 
ATOM    103  H9  UNL A   1      14.096  31.598  42.574  1.00  0.00    +0.000 H 
BRANCH   19   17
ATOM     17  C11 UNL A   1      15.967  31.039  42.148  1.00  0.00    +0.000 C 
ATOM     18  O4  UNL A   1      16.635  31.517  41.229  1.00  0.00    +0.000 O 
BRANCH   17   16
ATOM    131  H37 UNL A   1      14.902  28.655  41.347  1.00  0.00    +0.000 H 
ATOM    100  H6  UNL A   1      16.839  26.173  44.134  1.00  0.00    +0.000 H 
ATOM    101  H7  UNL A   1      18.312  28.022  44.722  1.00  0.00    +0.000 H 
ATOM     11  C6  UNL A   1      15.706  27.305  42.756  1.00  0.00    +0.000 C 
ATOM     12  C7  UNL A   1      16.710  27.101  43.702  1.00  0.00    +0.000 C 
ATOM     13  C8  UNL A   1      17.536  28.169  44.059  1.00  0.00    +0.000 C 
ATOM     14  C9  UNL A   1      17.311  29.438  43.517  1.00  0.00    +0.000 C 
ATOM     16  C10 UNL A   1      16.281  29.653  42.588  1.00  0.00    +0.000 C 
ATOM     92  C63 UNL A   1      15.554  28.551  42.138  1.00  0.00    +0.000 C 
BRANCH   11   10
ATOM     10  C5  UNL A   1      14.689  26.259  42.516  1.00  0.00    +0.000 C 
ATOM     99  H5  UNL A   1      13.785  26.506  42.082  1.00  0.00    +0.000 H 
BRANCH   10    9
ATOM      9  N2  UNL A   1      14.935  25.033  42.851  1.00  0.00    +0.000 N 
BRANCH    9    8
ATOM     97  H3  UNL A   1      13.621  20.722  42.567  1.00  0.00    +0.000 H 
ATOM     98  H4  UNL A   1      14.441  22.663  43.772  1.00  0.00    +0.000 H 
ATOM    132  H38 UNL A   1      14.221  24.955  40.260  1.00  0.00    +0.000 H 
ATOM    133  H39 UNL A   1      13.383  23.025  39.047  1.00  0.00    +0.000 H 
ATOM      6  C2  UNL A   1      13.743  21.622  42.078  1.00  0.00    +0.000 C 
ATOM      5  C1  UNL A   1      13.443  21.732  40.719  1.00  0.00    +0.000 C 
ATOM      7  C3  UNL A   1      14.210  22.744  42.770  1.00  0.00    +0.000 C 
ATOM      8  C4  UNL A   1      14.372  23.975  42.124  1.00  0.00    +0.000 C 
ATOM     93  C64 UNL A   1      14.082  24.061  40.755  1.00  0.00    +0.000 C 
ATOM     94  C65 UNL A   1      13.609  22.948  40.052  1.00  0.00    +0.000 C 
BRANCH    5    2
ATOM      2  S1  UNL A   1      12.842  20.319  39.841  1.00  0.00    +0.000 S 
ATOM      3  O1  UNL A   1      13.642  20.118  38.658  1.00  0.00    +0.000 O 
ATOM      4  O2  UNL A   1      11.398  20.382  39.807  1.00  0.00    +0.000 O 
BRANCH    2    1
ATOM      1  N1  UNL A   1      13.237  19.048  40.867  1.00  0.00    +0.000 N 
ATOM     95  H1  UNL A   1      12.998  18.163  40.420  1.00  0.00    +0.000 H 
ATOM     96  H2  UNL A   1      12.717  19.140  41.739  1.00  0.00    +0.000 H 
ENDBRANCH    2    1
ENDBRANCH    5    2
ENDBRANCH    9    8
ENDBRANCH   10    9
ENDBRANCH   11   10
BRANCH   14   15
ATOM    102  H8  UNL A   1      19.049  30.270  44.087  1.00  0.00    +0.000 H 
ATOM     15  O3  UNL A   1      18.137  30.438  43.959  1.00  0.00    +0.000 O 
ENDBRANCH   14   15
ENDBRANCH   17   16
ENDBRANCH   19   17
ENDBRANCH   20   19
ENDBRANCH   21   20
ENDBRANCH   22   21
ENDBRANCH   23   22
ENDBRANCH   24   23
ENDBRANCH   25   24
ENDBRANCH   26   25
ENDBRANCH   27   26
ENDBRANCH   29   27
ENDBRANCH   33   32
BRANCH   37   38
ATOM     38  C27 UNL A   1      31.447  35.790  42.881  1.00  0.00    +0.000 C 
ATOM     39  C28 UNL A   1      32.196  34.681  43.303  1.00  0.00    +0.000 C 
ATOM     40  F1  UNL A   1      32.240  34.351  44.602  1.00  0.00    +0.000 F 
ATOM     41  C29 UNL A   1      32.942  33.932  42.395  1.00  0.00    +0.000 C 
ATOM     42  F2  UNL A   1      33.694  32.912  42.830  1.00  0.00    +0.000 F 
ATOM     43  C30 UNL A   1      32.921  34.250  41.046  1.00  0.00    +0.000 C 
ATOM     44  F3  UNL A   1      33.635  33.526  40.173  1.00  0.00    +0.000 F 
ATOM     45  C31 UNL A   1      32.166  35.325  40.602  1.00  0.00    +0.000 C 
ATOM     46  F4  UNL A   1      32.133  35.627  39.297  1.00  0.00    +0.000 F 
ATOM     47  C32 UNL A   1      31.444  36.096  41.511  1.00  0.00    +0.000 C 
ATOM     48  F5  UNL A   1      30.740  37.141  41.052  1.00  0.00    +0.000 F 
ENDBRANCH   37   38
BRANCH   54   55
ATOM     65  F10 UNL A   1      31.248  43.302  45.860  1.00  0.00    +0.000 F 
ATOM     55  C38 UNL A   1      32.368  41.583  47.066  1.00  0.00    +0.000 C 
ATOM     56  C39 UNL A   1      33.500  41.211  47.807  1.00  0.00    +0.000 C 
ATOM     57  F6  UNL A   1      33.598  39.971  48.309  1.00  0.00    +0.000 F 
ATOM     58  C40 UNL A   1      34.520  42.122  48.062  1.00  0.00    +0.000 C 
ATOM     59  F7  UNL A   1      35.573  41.755  48.808  1.00  0.00    +0.000 F 
ATOM     60  C41 UNL A   1      34.445  43.412  47.557  1.00  0.00    +0.000 C 
ATOM     61  F8  UNL A   1      35.435  44.284  47.793  1.00  0.00    +0.000 F 
ATOM     62  C42 UNL A   1      33.342  43.797  46.811  1.00  0.00    +0.000 C 
ATOM     63  F9  UNL A   1      33.275  45.038  46.309  1.00  0.00    +0.000 F 
ATOM     64  C43 UNL A   1      32.306  42.898  46.578  1.00  0.00    +0.000 C 
ENDBRANCH   54   55
BRANCH   69   70
ATOM     70  C47 UNL A   1      25.928  40.696  49.592  1.00  0.00    +0.000 C 
ATOM     71  C48 UNL A   1      25.948  40.252  50.921  1.00  0.00    +0.000 C 
ATOM     72  F11 UNL A   1      26.663  39.166  51.252  1.00  0.00    +0.000 F 
ATOM     73  C49 UNL A   1      25.213  40.903  51.909  1.00  0.00    +0.000 C 
ATOM     74  F12 UNL A   1      25.224  40.437  53.165  1.00  0.00    +0.000 F 
ATOM     75  C50 UNL A   1      24.464  42.026  51.592  1.00  0.00    +0.000 C 
ATOM     76  F13 UNL A   1      23.767  42.660  52.546  1.00  0.00    +0.000 F 
ATOM     77  C51 UNL A   1      24.436  42.491  50.285  1.00  0.00    +0.000 C 
ATOM     78  F14 UNL A   1      23.730  43.588  49.979  1.00  0.00    +0.000 F 
ATOM     79  C52 UNL A   1      25.149  41.824  49.292  1.00  0.00    +0.000 C 
ATOM     80  F15 UNL A   1      25.104  42.294  48.036  1.00  0.00    +0.000 F 
ENDBRANCH   69   70
TORSDOF 21
ENDMDL
MODEL 2
REMARK VINA RESULT:     -10.9      3.181      5.238
ROOT
ATOM     33  C23 UNL A   1      23.746  37.574  46.903  1.00  0.00    +0.000 C 
ATOM     34  C24 UNL A   1      25.112  38.110  46.586  1.00  0.00    +0.000 C 
ATOM     35  N5  UNL A   1      25.626  39.282  46.862  1.00  0.00    +0.000 N 
ATOM     36  C25 UNL A   1      26.932  39.242  46.392  1.00  0.00    +0.000 C 
ATOM     37  C26 UNL A   1      27.861  40.229  46.392  1.00  0.00    +0.000 C 
ATOM     49  C33 UNL A   1      27.629  41.557  46.897  1.00  0.00    +0.000 C 
ATOM     50  C34 UNL A   1      28.474  42.653  46.860  1.00  0.00    +0.000 C 
ATOM     51  C35 UNL A   1      27.852  43.708  47.537  1.00  0.00    +0.000 C 
ATOM     52  C36 UNL A   1      26.599  43.286  47.952  1.00  0.00    +0.000 C 
ATOM     53  N6  UNL A   1      26.472  41.968  47.543  1.00  0.00    +0.000 N 
ATOM     54  C37 UNL A   1      25.594  44.027  48.671  1.00  0.00    +0.000 C 
ATOM     66  C44 UNL A   1      24.358  43.559  48.980  1.00  0.00    +0.000 C 
ATOM     67  N7  UNL A   1      23.805  42.316  48.711  1.00  0.00    +0.000 N 
ATOM     68  C45 UNL A   1      22.599  42.340  49.225  1.00  0.00    +0.000 C 
ATOM     69  C46 UNL A   1      21.548  41.264  49.224  1.00  0.00    +0.000 C 
ATOM     81  C53 UNL A   1      21.803  40.094  48.609  1.00  0.00    +0.000 C 
ATOM     82  C54 UNL A   1      20.884  38.962  48.535  1.00  0.00    +0.000 C 
ATOM     83  C55 UNL A   1      21.500  37.938  47.925  1.00  0.00    +0.000 C 
ATOM     84  C56 UNL A   1      22.843  38.356  47.524  1.00  0.00    +0.000 C 
ATOM     85  N8  UNL A   1      22.926  39.660  47.947  1.00  0.00    +0.000 N 
ATOM     86  C57 UNL A   1      22.256  43.604  49.894  1.00  0.00    +0.000 C 
ATOM     87  C58 UNL A   1      23.350  44.322  49.686  1.00  0.00    +0.000 C 
ATOM     88  C59 UNL A   1      27.148  37.913  45.859  1.00  0.00    +0.000 C 
ATOM     89  C60 UNL A   1      26.035  37.196  45.896  1.00  0.00    +0.000 C 
ATOM    119  H25 UNL A   1      29.402  42.687  46.410  1.00  0.00    +0.000 H 
ATOM    120  H26 UNL A   1      28.258  44.642  47.701  1.00  0.00    +0.000 H 
ATOM    121  H27 UNL A   1      25.677  41.405  47.688  1.00  0.00    +0.000 H 
ATOM    122  H28 UNL A   1      19.916  38.951  48.895  1.00  0.00    +0.000 H 
ATOM    123  H29 UNL A   1      21.091  37.004  47.765  1.00  0.00    +0.000 H 
ATOM    124  H30 UNL A   1      23.714  40.229  47.791  1.00  0.00    +0.000 H 
ATOM    125  H31 UNL A   1      21.391  43.862  50.393  1.00  0.00    +0.000 H 
ATOM    126  H32 UNL A   1      23.468  45.302  49.990  1.00  0.00    +0.000 H 
ATOM    127  H33 UNL A   1      28.051  37.570  45.497  1.00  0.00    +0.000 H 
ATOM    128  H34 UNL A   1      25.860  36.244  45.535  1.00  0.00    +0.000 H 
ENDROOT
BRANCH   33   32
ATOM    129  H35 UNL A   1      22.878  36.511  44.603  1.00  0.00    +0.000 H 
ATOM    130  H36 UNL A   1      22.324  34.203  44.108  1.00  0.00    +0.000 H 
ATOM    117  H23 UNL A   1      23.443  33.093  48.007  1.00  0.00    +0.000 H 
ATOM    118  H24 UNL A   1      23.791  35.429  48.569  1.00  0.00    +0.000 H 
ATOM     90  C61 UNL A   1      22.985  35.789  45.332  1.00  0.00    +0.000 C 
ATOM     91  C62 UNL A   1      22.705  34.457  45.033  1.00  0.00    +0.000 C 
ATOM     29  C19 UNL A   1      22.942  33.465  45.989  1.00  0.00    +0.000 C 
ATOM     30  C20 UNL A   1      23.322  33.821  47.286  1.00  0.00    +0.000 C 
ATOM     31  C21 UNL A   1      23.538  35.164  47.605  1.00  0.00    +0.000 C 
ATOM     32  C22 UNL A   1      23.411  36.155  46.618  1.00  0.00    +0.000 C 
BRANCH   29   27
ATOM     27  C18 UNL A   1      22.785  32.030  45.663  1.00  0.00    +0.000 C 
ATOM     28  O5  UNL A   1      23.775  31.359  45.388  1.00  0.00    +0.000 O 
BRANCH   27   26
ATOM     26  N4  UNL A   1      21.538  31.455  45.642  1.00  0.00    +0.000 N 
ATOM    116  H22 UNL A   1      21.524  30.494  45.423  1.00  0.00    +0.000 H 
BRANCH   26   25
ATOM     25  C17 UNL A   1      20.235  32.048  45.893  1.00  0.00    +0.000 C 
ATOM    114  H20 UNL A   1      19.569  31.280  46.225  1.00  0.00    +0.000 H 
ATOM    115  H21 UNL A   1      20.368  32.809  46.633  1.00  0.00    +0.000 H 
BRANCH   25   24
ATOM    113  H19 UNL A   1      19.303  31.909  44.032  1.00  0.00    +0.000 H 
ATOM    112  H18 UNL A   1      20.395  33.325  44.215  1.00  0.00    +0.000 H 
ATOM     24  C16 UNL A   1      19.637  32.711  44.657  1.00  0.00    +0.000 C 
BRANCH   24   23
ATOM    111  H17 UNL A   1      18.787  34.528  45.227  1.00  0.00    +0.000 H 
ATOM    110  H16 UNL A   1      17.779  33.084  45.601  1.00  0.00    +0.000 H 
ATOM     23  C15 UNL A   1      18.405  33.587  44.893  1.00  0.00    +0.000 C 
BRANCH   23   22
ATOM    108  H14 UNL A   1      17.782  34.911  43.364  1.00  0.00    +0.000 H 
ATOM    109  H15 UNL A   1      17.794  33.159  42.946  1.00  0.00    +0.000 H 
ATOM     22  C14 UNL A   1      17.549  33.911  43.666  1.00  0.00    +0.000 C 
BRANCH   22   21
ATOM    106  H12 UNL A   1      15.759  34.498  44.624  1.00  0.00    +0.000 H 
ATOM    107  H13 UNL A   1      15.627  34.054  42.882  1.00  0.00    +0.000 H 
ATOM     21  C13 UNL A   1      16.035  33.820  43.843  1.00  0.00    +0.000 C 
BRANCH   21   20
ATOM    105  H11 UNL A   1      14.540  32.630  44.707  1.00  0.00    +0.000 H 
ATOM     20  C12 UNL A   1      15.464  32.453  44.197  1.00  0.00    +0.000 C 
ATOM    104  H10 UNL A   1      16.182  31.937  44.801  1.00  0.00    +0.000 H 
BRANCH   20   19
ATOM     19  N3  UNL A   1      15.151  31.618  43.050  1.00  0.00    +0.000 N 
ATOM    103  H9  UNL A   1      14.217  31.674  42.744  1.00  0.00    +0.000 H 
BRANCH   19   17
ATOM     17  C11 UNL A   1      15.943  30.759  42.320  1.00  0.00    +0.000 C 
ATOM     18  O4  UNL A   1      16.565  31.197  41.351  1.00  0.00    +0.000 O 
BRANCH   17   16
ATOM    131  H37 UNL A   1      14.792  28.480  41.350  1.00  0.00    +0.000 H 
ATOM    100  H6  UNL A   1      16.458  25.761  44.091  1.00  0.00    +0.000 H 
ATOM    101  H7  UNL A   1      17.997  27.494  44.839  1.00  0.00    +0.000 H 
ATOM     11  C6  UNL A   1      15.454  27.020  42.723  1.00  0.00    +0.000 C 
ATOM     12  C7  UNL A   1      16.399  26.715  43.702  1.00  0.00    +0.000 C 
ATOM     13  C8  UNL A   1      17.263  27.716  44.150  1.00  0.00    +0.000 C 
ATOM     14  C9  UNL A   1      17.132  29.020  43.665  1.00  0.00    +0.000 C 
ATOM     16  C10 UNL A   1      16.160  29.338  42.703  1.00  0.00    +0.000 C 
ATOM     92  C63 UNL A   1      15.399  28.301  42.165  1.00  0.00    +0.000 C 
BRANCH   11   10
ATOM     10  C5  UNL A   1      14.395  26.046  42.384  1.00  0.00    +0.000 C 
ATOM     99  H5  UNL A   1      13.567  25.948  42.993  1.00  0.00    +0.000 H 
BRANCH   10    9
ATOM      9  N2  UNL A   1      14.509  25.316  41.320  1.00  0.00    +0.000 N 
BRANCH    9    8
ATOM     97  H3  UNL A   1      12.841  21.719  39.159  1.00  0.00    +0.000 H 
ATOM     98  H4  UNL A   1      13.762  23.963  39.241  1.00  0.00    +0.000 H 
ATOM    132  H38 UNL A   1      14.175  23.657  43.410  1.00  0.00    +0.000 H 
ATOM    133  H39 UNL A   1      13.271  21.405  43.338  1.00  0.00    +0.000 H 
ATOM      6  C2  UNL A   1      13.129  22.128  40.062  1.00  0.00    +0.000 C 
ATOM      5  C1  UNL A   1      12.988  21.398  41.243  1.00  0.00    +0.000 C 
ATOM      7  C3  UNL A   1      13.665  23.419  40.113  1.00  0.00    +0.000 C 
ATOM      8  C4  UNL A   1      14.071  23.985  41.327  1.00  0.00    +0.000 C 
ATOM     93  C64 UNL A   1      13.904  23.243  42.505  1.00  0.00    +0.000 C 
ATOM     94  C65 UNL A   1      13.374  21.949  42.467  1.00  0.00    +0.000 C 
BRANCH    5    2
ATOM      2  S1  UNL A   1      12.320  19.762  41.184  1.00  0.00    +0.000 S 
ATOM      3  O1  UNL A   1      11.213  19.666  42.102  1.00  0.00    +0.000 O 
ATOM      4  O2  UNL A   1      13.417  18.820  41.180  1.00  0.00    +0.000 O 
BRANCH    2    1
ATOM      1  N1  UNL A   1      11.633  19.696  39.651  1.00  0.00    +0.000 N 
ATOM     95  H1  UNL A   1      12.068  20.398  39.053  1.00  0.00    +0.000 H 
ATOM     96  H2  UNL A   1      10.632  19.879  39.719  1.00  0.00    +0.000 H 
ENDBRANCH    2    1
ENDBRANCH    5    2
ENDBRANCH    9    8
ENDBRANCH   10    9
ENDBRANCH   11   10
BRANCH   14   15
ATOM    102  H8  UNL A   1      17.651  30.751  44.545  1.00  0.00    +0.000 H 
ATOM     15  O3  UNL A   1      17.988  29.950  44.195  1.00  0.00    +0.000 O 
ENDBRANCH   14   15
ENDBRANCH   17   16
ENDBRANCH   19   17
ENDBRANCH   20   19
ENDBRANCH   21   20
ENDBRANCH   22   21
ENDBRANCH   23   22
ENDBRANCH   24   23
ENDBRANCH   25   24
ENDBRANCH   26   25
ENDBRANCH   27   26
ENDBRANCH   29   27
ENDBRANCH   33   32
BRANCH   37   38
ATOM     38  C27 UNL A   1      29.218  39.907  45.836  1.00  0.00    +0.000 C 
ATOM     39  C28 UNL A   1      30.258  39.433  46.648  1.00  0.00    +0.000 C 
ATOM     40  F1  UNL A   1      30.072  39.291  47.970  1.00  0.00    +0.000 F 
ATOM     41  C29 UNL A   1      31.512  39.144  46.113  1.00  0.00    +0.000 C 
ATOM     42  F2  UNL A   1      32.507  38.746  46.919  1.00  0.00    +0.000 F 
ATOM     43  C30 UNL A   1      31.737  39.284  44.752  1.00  0.00    +0.000 C 
ATOM     44  F3  UNL A   1      32.942  39.002  44.238  1.00  0.00    +0.000 F 
ATOM     45  C31 UNL A   1      30.716  39.725  43.925  1.00  0.00    +0.000 C 
ATOM     46  F4  UNL A   1      30.927  39.849  42.608  1.00  0.00    +0.000 F 
ATOM     47  C32 UNL A   1      29.471  40.045  44.462  1.00  0.00    +0.000 C 
ATOM     48  F5  UNL A   1      28.509  40.488  43.638  1.00  0.00    +0.000 F 
ENDBRANCH   37   38
BRANCH   54   55
ATOM     65  F10 UNL A   1      25.185  46.312  47.021  1.00  0.00    +0.000 F 
ATOM     55  C38 UNL A   1      25.928  45.425  49.101  1.00  0.00    +0.000 C 
ATOM     56  C39 UNL A   1      26.500  45.686  50.355  1.00  0.00    +0.000 C 
ATOM     57  F6  UNL A   1      26.700  44.685  51.226  1.00  0.00    +0.000 F 
ATOM     58  C40 UNL A   1      26.839  46.982  50.731  1.00  0.00    +0.000 C 
ATOM     59  F7  UNL A   1      27.347  47.212  51.951  1.00  0.00    +0.000 F 
ATOM     60  C41 UNL A   1      26.643  48.036  49.852  1.00  0.00    +0.000 C 
ATOM     61  F8  UNL A   1      26.983  49.282  50.212  1.00  0.00    +0.000 F 
ATOM     62  C42 UNL A   1      26.092  47.800  48.602  1.00  0.00    +0.000 C 
ATOM     63  F9  UNL A   1      25.915  48.816  47.746  1.00  0.00    +0.000 F 
ATOM     64  C43 UNL A   1      25.724  46.509  48.233  1.00  0.00    +0.000 C 
ENDBRANCH   54   55
BRANCH   69   70
ATOM     70  C47 UNL A   1      20.235  41.474  49.889  1.00  0.00    +0.000 C 
ATOM     71  C48 UNL A   1      19.188  42.130  49.228  1.00  0.00    +0.000 C 
ATOM     72  F11 UNL A   1      19.376  42.614  47.992  1.00  0.00    +0.000 F 
ATOM     73  C49 UNL A   1      17.952  42.315  49.846  1.00  0.00    +0.000 C 
ATOM     74  F12 UNL A   1      16.979  42.975  49.204  1.00  0.00    +0.000 F 
ATOM     75  C50 UNL A   1      17.732  41.826  51.124  1.00  0.00    +0.000 C 
ATOM     76  F13 UNL A   1      16.539  41.993  51.711  1.00  0.00    +0.000 F 
ATOM     77  C51 UNL A   1      18.751  41.164  51.794  1.00  0.00    +0.000 C 
ATOM     78  F14 UNL A   1      18.536  40.673  53.022  1.00  0.00    +0.000 F 
ATOM     79  C52 UNL A   1      19.995  41.003  51.188  1.00  0.00    +0.000 C 
ATOM     80  F15 UNL A   1      20.963  40.360  51.859  1.00  0.00    +0.000 F 
ENDBRANCH   69   70
TORSDOF 21
ENDMDL
MODEL 3
REMARK VINA RESULT:     -10.8     41.426     45.218
ROOT
ATOM     33  C23 UNL A   1      13.705  53.528   5.733  1.00  0.00    +0.000 C 
ATOM     34  C24 UNL A   1      14.644  54.057   4.687  1.00  0.00    +0.000 C 
ATOM     35  N5  UNL A   1      15.174  53.439   3.661  1.00  0.00    +0.000 N 
ATOM     36  C25 UNL A   1      15.924  54.396   2.991  1.00  0.00    +0.000 C 
ATOM     37  C26 UNL A   1      16.706  54.240   1.895  1.00  0.00    +0.000 C 
ATOM     49  C33 UNL A   1      16.907  52.986   1.216  1.00  0.00    +0.000 C 
ATOM     50  C34 UNL A   1      17.749  52.706   0.154  1.00  0.00    +0.000 C 
ATOM     51  C35 UNL A   1      17.555  51.371  -0.218  1.00  0.00    +0.000 C 
ATOM     52  C36 UNL A   1      16.630  50.804   0.644  1.00  0.00    +0.000 C 
ATOM     53  N6  UNL A   1      16.248  51.804   1.525  1.00  0.00    +0.000 N 
ATOM     54  C37 UNL A   1      16.126  49.455   0.661  1.00  0.00    +0.000 C 
ATOM     66  C44 UNL A   1      15.268  48.958   1.587  1.00  0.00    +0.000 C 
ATOM     67  N7  UNL A   1      14.684  49.603   2.668  1.00  0.00    +0.000 N 
ATOM     68  C45 UNL A   1      13.920  48.710   3.249  1.00  0.00    +0.000 C 
ATOM     69  C46 UNL A   1      13.057  48.856   4.473  1.00  0.00    +0.000 C 
ATOM     81  C53 UNL A   1      13.032  50.033   5.126  1.00  0.00    +0.000 C 
ATOM     82  C54 UNL A   1      12.238  50.320   6.317  1.00  0.00    +0.000 C 
ATOM     83  C55 UNL A   1      12.393  51.613   6.644  1.00  0.00    +0.000 C 
ATOM     84  C56 UNL A   1      13.332  52.235   5.711  1.00  0.00    +0.000 C 
ATOM     85  N8  UNL A   1      13.681  51.214   4.860  1.00  0.00    +0.000 N 
ATOM     86  C57 UNL A   1      13.923  47.396   2.591  1.00  0.00    +0.000 C 
ATOM     87  C58 UNL A   1      14.785  47.593   1.604  1.00  0.00    +0.000 C 
ATOM     88  C59 UNL A   1      15.740  55.646   3.695  1.00  0.00    +0.000 C 
ATOM     89  C60 UNL A   1      15.010  55.478   4.788  1.00  0.00    +0.000 C 
ATOM    119  H25 UNL A   1      18.408  53.366  -0.286  1.00  0.00    +0.000 H 
ATOM    120  H26 UNL A   1      18.021  50.890  -1.003  1.00  0.00    +0.000 H 
ATOM    121  H27 UNL A   1      15.606  51.693   2.263  1.00  0.00    +0.000 H 
ATOM    122  H28 UNL A   1      11.652  49.639   6.825  1.00  0.00    +0.000 H 
ATOM    123  H29 UNL A   1      11.923  52.091   7.428  1.00  0.00    +0.000 H 
ATOM    124  H30 UNL A   1      14.334  51.319   4.130  1.00  0.00    +0.000 H 
ATOM    125  H31 UNL A   1      13.393  46.545   2.834  1.00  0.00    +0.000 H 
ATOM    126  H32 UNL A   1      15.075  46.865   0.932  1.00  0.00    +0.000 H 
ATOM    127  H33 UNL A   1      16.128  56.552   3.387  1.00  0.00    +0.000 H 
ATOM    128  H34 UNL A   1      14.764  56.163   5.520  1.00  0.00    +0.000 H 
ENDROOT
BRANCH   33   32
ATOM    129  H35 UNL A   1      14.609  54.091   8.190  1.00  0.00    +0.000 H 
ATOM    130  H36 UNL A   1      13.662  55.578   9.854  1.00  0.00    +0.000 H 
ATOM    117  H23 UNL A   1      10.600  56.639   7.173  1.00  0.00    +0.000 H 
ATOM    118  H24 UNL A   1      11.422  54.993   5.589  1.00  0.00    +0.000 H 
ATOM     90  C61 UNL A   1      13.749  54.620   7.977  1.00  0.00    +0.000 C 
ATOM     91  C62 UNL A   1      13.230  55.506   8.920  1.00  0.00    +0.000 C 
ATOM     29  C19 UNL A   1      12.122  56.295   8.597  1.00  0.00    +0.000 C 
ATOM     30  C20 UNL A   1      11.451  56.095   7.387  1.00  0.00    +0.000 C 
ATOM     31  C21 UNL A   1      11.933  55.160   6.469  1.00  0.00    +0.000 C 
ATOM     32  C22 UNL A   1      13.110  54.444   6.740  1.00  0.00    +0.000 C 
BRANCH   29   27
ATOM     27  C18 UNL A   1      11.626  57.340   9.521  1.00  0.00    +0.000 C 
ATOM     28  O5  UNL A   1      12.053  58.486   9.424  1.00  0.00    +0.000 O 
BRANCH   27   26
ATOM     26  N4  UNL A   1      10.715  57.026  10.499  1.00  0.00    +0.000 N 
ATOM    116  H22 UNL A   1       9.772  57.047  10.214  1.00  0.00    +0.000 H 
BRANCH   26   25
ATOM     25  C17 UNL A   1      10.930  56.667  11.891  1.00  0.00    +0.000 C 
ATOM    114  H20 UNL A   1      11.706  57.288  12.287  1.00  0.00    +0.000 H 
ATOM    115  H21 UNL A   1      10.003  56.810  12.405  1.00  0.00    +0.000 H 
BRANCH   25   24
ATOM    113  H19 UNL A   1      11.899  54.954  11.197  1.00  0.00    +0.000 H 
ATOM    112  H18 UNL A   1      10.441  54.634  12.197  1.00  0.00    +0.000 H 
ATOM     24  C16 UNL A   1      11.335  55.208  12.071  1.00  0.00    +0.000 C 
BRANCH   24   23
ATOM    111  H17 UNL A   1      11.674  54.302  13.919  1.00  0.00    +0.000 H 
ATOM    110  H16 UNL A   1      12.571  55.843  13.668  1.00  0.00    +0.000 H 
ATOM     23  C15 UNL A   1      12.256  54.907  13.255  1.00  0.00    +0.000 C 
BRANCH   23   22
ATOM    108  H14 UNL A   1      13.790  54.279  11.940  1.00  0.00    +0.000 H 
ATOM    109  H15 UNL A   1      14.232  54.396  13.682  1.00  0.00    +0.000 H 
ATOM     22  C14 UNL A   1      13.511  54.086  12.955  1.00  0.00    +0.000 C 
BRANCH   22   21
ATOM    106  H12 UNL A   1      12.690  52.386  13.906  1.00  0.00    +0.000 H 
ATOM    107  H13 UNL A   1      13.106  52.205  12.161  1.00  0.00    +0.000 H 
ATOM     21  C13 UNL A   1      13.396  52.572  13.123  1.00  0.00    +0.000 C 
BRANCH   21   20
ATOM    105  H11 UNL A   1      14.374  50.871  13.864  1.00  0.00    +0.000 H 
ATOM     20  C12 UNL A   1      14.674  51.819  13.468  1.00  0.00    +0.000 C 
ATOM    104  H10 UNL A   1      15.230  52.407  14.169  1.00  0.00    +0.000 H 
BRANCH   20   19
ATOM     19  N3  UNL A   1      15.533  51.539  12.329  1.00  0.00    +0.000 N 
ATOM    103  H9  UNL A   1      16.489  51.451  12.547  1.00  0.00    +0.000 H 
BRANCH   19   17
ATOM     17  C11 UNL A   1      15.231  51.378  10.995  1.00  0.00    +0.000 C 
ATOM     18  O4  UNL A   1      15.249  52.363  10.254  1.00  0.00    +0.000 O 
BRANCH   17   16
ATOM    131  H37 UNL A   1      12.938  50.343   9.931  1.00  0.00    +0.000 H 
ATOM    100  H6  UNL A   1      14.317  46.431   9.242  1.00  0.00    +0.000 H 
ATOM    101  H7  UNL A   1      16.595  47.185   9.657  1.00  0.00    +0.000 H 
ATOM     11  C6  UNL A   1      13.450  48.316   9.640  1.00  0.00    +0.000 C 
ATOM     12  C7  UNL A   1      14.500  47.407   9.521  1.00  0.00    +0.000 C 
ATOM     13  C8  UNL A   1      15.803  47.834   9.787  1.00  0.00    +0.000 C 
ATOM     14  C9  UNL A   1      16.035  49.139  10.227  1.00  0.00    +0.000 C 
ATOM     16  C10 UNL A   1      14.976  50.048  10.379  1.00  0.00    +0.000 C 
ATOM     92  C63 UNL A   1      13.701  49.650   9.978  1.00  0.00    +0.000 C 
BRANCH   11   10
ATOM     10  C5  UNL A   1      12.050  47.846   9.573  1.00  0.00    +0.000 C 
ATOM     99  H5  UNL A   1      11.316  48.460   9.186  1.00  0.00    +0.000 H 
BRANCH   10    9
ATOM      9  N2  UNL A   1      11.747  46.662  10.000  1.00  0.00    +0.000 N 
BRANCH    9    8
ATOM     97  H3  UNL A   1       9.469  47.564  13.792  1.00  0.00    +0.000 H 
ATOM     98  H4  UNL A   1       9.864  47.752  11.405  1.00  0.00    +0.000 H 
ATOM    132  H38 UNL A   1      13.138  45.140  11.727  1.00  0.00    +0.000 H 
ATOM    133  H39 UNL A   1      12.741  44.931  14.113  1.00  0.00    +0.000 H 
ATOM      6  C2  UNL A   1      10.245  47.045  13.353  1.00  0.00    +0.000 C 
ATOM      5  C1  UNL A   1      11.077  46.235  14.127  1.00  0.00    +0.000 C 
ATOM      7  C3  UNL A   1      10.473  47.146  11.977  1.00  0.00    +0.000 C 
ATOM      8  C4  UNL A   1      11.514  46.441  11.364  1.00  0.00    +0.000 C 
ATOM     93  C64 UNL A   1      12.350  45.646  12.160  1.00  0.00    +0.000 C 
ATOM     94  C65 UNL A   1      12.130  45.532  13.537  1.00  0.00    +0.000 C 
BRANCH    5    2
ATOM      2  S1  UNL A   1      10.787  46.095  15.866  1.00  0.00    +0.000 S 
ATOM      3  O1  UNL A   1       9.844  47.106  16.274  1.00  0.00    +0.000 O 
ATOM      4  O2  UNL A   1      12.058  45.898  16.527  1.00  0.00    +0.000 O 
BRANCH    2    1
ATOM      1  N1  UNL A   1       9.959  44.637  15.989  1.00  0.00    +0.000 N 
ATOM     95  H1  UNL A   1      10.563  43.938  16.420  1.00  0.00    +0.000 H 
ATOM     96  H2  UNL A   1       9.685  44.323  15.058  1.00  0.00    +0.000 H 
ENDBRANCH    2    1
ENDBRANCH    5    2
ENDBRANCH    9    8
ENDBRANCH   10    9
ENDBRANCH   11   10
BRANCH   14   15
ATOM    102  H8  UNL A   1      17.532  50.224  11.015  1.00  0.00    +0.000 H 
ATOM     15  O3  UNL A   1      17.337  49.459  10.512  1.00  0.00    +0.000 O 
ENDBRANCH   14   15
ENDBRANCH   17   16
ENDBRANCH   19   17
ENDBRANCH   20   19
ENDBRANCH   21   20
ENDBRANCH   22   21
ENDBRANCH   23   22
ENDBRANCH   24   23
ENDBRANCH   25   24
ENDBRANCH   26   25
ENDBRANCH   27   26
ENDBRANCH   29   27
ENDBRANCH   33   32
BRANCH   37   38
ATOM     38  C27 UNL A   1      17.397  55.458   1.355  1.00  0.00    +0.000 C 
ATOM     39  C28 UNL A   1      16.745  56.365   0.506  1.00  0.00    +0.000 C 
ATOM     40  F1  UNL A   1      15.480  56.139   0.120  1.00  0.00    +0.000 F 
ATOM     41  C29 UNL A   1      17.406  57.488   0.012  1.00  0.00    +0.000 C 
ATOM     42  F2  UNL A   1      16.780  58.310  -0.842  1.00  0.00    +0.000 F 
ATOM     43  C30 UNL A   1      18.715  57.748   0.389  1.00  0.00    +0.000 C 
ATOM     44  F3  UNL A   1      19.349  58.830  -0.084  1.00  0.00    +0.000 F 
ATOM     45  C31 UNL A   1      19.371  56.879   1.248  1.00  0.00    +0.000 C 
ATOM     46  F4  UNL A   1      20.631  57.135   1.625  1.00  0.00    +0.000 F 
ATOM     47  C32 UNL A   1      18.723  55.739   1.719  1.00  0.00    +0.000 C 
ATOM     48  F5  UNL A   1      19.392  54.909   2.533  1.00  0.00    +0.000 F 
ENDBRANCH   37   38
BRANCH   54   55
ATOM     65  F10 UNL A   1      14.556  48.782  -1.618  1.00  0.00    +0.000 F 
ATOM     55  C38 UNL A   1      16.594  48.520  -0.416  1.00  0.00    +0.000 C 
ATOM     56  C39 UNL A   1      17.845  47.889  -0.342  1.00  0.00    +0.000 C 
ATOM     57  F6  UNL A   1      18.680  48.165   0.671  1.00  0.00    +0.000 F 
ATOM     58  C40 UNL A   1      18.255  46.997  -1.328  1.00  0.00    +0.000 C 
ATOM     59  F7  UNL A   1      19.472  46.437  -1.258  1.00  0.00    +0.000 F 
ATOM     60  C41 UNL A   1      17.413  46.693  -2.388  1.00  0.00    +0.000 C 
ATOM     61  F8  UNL A   1      17.806  45.824  -3.329  1.00  0.00    +0.000 F 
ATOM     62  C42 UNL A   1      16.167  47.295  -2.473  1.00  0.00    +0.000 C 
ATOM     63  F9  UNL A   1      15.346  46.992  -3.488  1.00  0.00    +0.000 F 
ATOM     64  C43 UNL A   1      15.765  48.210  -1.505  1.00  0.00    +0.000 C 
ENDBRANCH   54   55
BRANCH   69   70
ATOM     70  C47 UNL A   1      12.234  47.722   4.970  1.00  0.00    +0.000 C 
ATOM     71  C48 UNL A   1      12.712  46.869   5.973  1.00  0.00    +0.000 C 
ATOM     72  F11 UNL A   1      13.945  47.046   6.470  1.00  0.00    +0.000 F 
ATOM     73  C49 UNL A   1      11.936  45.814   6.450  1.00  0.00    +0.000 C 
ATOM     74  F12 UNL A   1      12.431  44.993   7.386  1.00  0.00    +0.000 F 
ATOM     75  C50 UNL A   1      10.660  45.608   5.951  1.00  0.00    +0.000 C 
ATOM     76  F13 UNL A   1       9.909  44.602   6.420  1.00  0.00    +0.000 F 
ATOM     77  C51 UNL A   1      10.161  46.447   4.965  1.00  0.00    +0.000 C 
ATOM     78  F14 UNL A   1       8.919  46.264   4.495  1.00  0.00    +0.000 F 
ATOM     79  C52 UNL A   1      10.946  47.484   4.469  1.00  0.00    +0.000 C 
ATOM     80  F15 UNL A   1      10.439  48.280   3.514  1.00  0.00    +0.000 F 
ENDBRANCH   69   70
TORSDOF 21
ENDMDL
MODEL 4
REMARK VINA RESULT:     -10.7     42.276     46.004
ROOT
ATOM     33  C23 UNL A   1      14.440  53.992   4.725  1.00  0.00    +0.000 C 
ATOM     34  C24 UNL A   1      15.418  54.388   3.658  1.00  0.00    +0.000 C 
ATOM     35  N5  UNL A   1      15.896  53.676   2.668  1.00  0.00    +0.000 N 
ATOM     36  C25 UNL A   1      16.722  54.533   1.952  1.00  0.00    +0.000 C 
ATOM     37  C26 UNL A   1      17.489  54.257   0.869  1.00  0.00    +0.000 C 
ATOM     49  C33 UNL A   1      17.587  52.957   0.256  1.00  0.00    +0.000 C 
ATOM     50  C34 UNL A   1      18.404  52.555  -0.787  1.00  0.00    +0.000 C 
ATOM     51  C35 UNL A   1      18.101  51.223  -1.090  1.00  0.00    +0.000 C 
ATOM     52  C36 UNL A   1      17.133  50.779  -0.204  1.00  0.00    +0.000 C 
ATOM     53  N6  UNL A   1      16.834  51.851   0.623  1.00  0.00    +0.000 N 
ATOM     54  C37 UNL A   1      16.521  49.477  -0.119  1.00  0.00    +0.000 C 
ATOM     66  C44 UNL A   1      15.626  49.101   0.828  1.00  0.00    +0.000 C 
ATOM     67  N7  UNL A   1      15.096  49.846   1.872  1.00  0.00    +0.000 N 
ATOM     68  C45 UNL A   1      14.262  49.050   2.495  1.00  0.00    +0.000 C 
ATOM     69  C46 UNL A   1      13.414  49.328   3.706  1.00  0.00    +0.000 C 
ATOM     81  C53 UNL A   1      13.485  50.536   4.297  1.00  0.00    +0.000 C 
ATOM     82  C54 UNL A   1      12.717  50.948   5.468  1.00  0.00    +0.000 C 
ATOM     83  C55 UNL A   1      12.976  52.239   5.729  1.00  0.00    +0.000 C 
ATOM     84  C56 UNL A   1      13.963  52.733   4.769  1.00  0.00    +0.000 C 
ATOM     85  N8  UNL A   1      14.228  51.645   3.974  1.00  0.00    +0.000 N 
ATOM     86  C57 UNL A   1      14.158  47.707   1.905  1.00  0.00    +0.000 C 
ATOM     87  C58 UNL A   1      15.034  47.782   0.913  1.00  0.00    +0.000 C 
ATOM     88  C59 UNL A   1      16.640  55.829   2.590  1.00  0.00    +0.000 C 
ATOM     89  C60 UNL A   1      15.900  55.777   3.687  1.00  0.00    +0.000 C 
ATOM    119  H25 UNL A   1      19.114  53.136  -1.257  1.00  0.00    +0.000 H 
ATOM    120  H26 UNL A   1      18.527  50.665  -1.847  1.00  0.00    +0.000 H 
ATOM    121  H27 UNL A   1      16.185  51.830   1.363  1.00  0.00    +0.000 H 
ATOM    122  H28 UNL A   1      12.077  50.344   6.008  1.00  0.00    +0.000 H 
ATOM    123  H29 UNL A   1      12.547  52.794   6.486  1.00  0.00    +0.000 H 
ATOM    124  H30 UNL A   1      14.887  51.658   3.242  1.00  0.00    +0.000 H 
ATOM    125  H31 UNL A   1      13.560  46.916   2.190  1.00  0.00    +0.000 H 
ATOM    126  H32 UNL A   1      15.263  46.999   0.281  1.00  0.00    +0.000 H 
ATOM    127  H33 UNL A   1      17.101  56.683   2.237  1.00  0.00    +0.000 H 
ATOM    128  H34 UNL A   1      15.710  56.517   4.381  1.00  0.00    +0.000 H 
ENDROOT
BRANCH   33   32
ATOM    129  H35 UNL A   1      15.443  54.673   7.114  1.00  0.00    +0.000 H 
ATOM    130  H36 UNL A   1      14.621  56.317   8.694  1.00  0.00    +0.000 H 
ATOM    117  H23 UNL A   1      11.539  57.350   6.025  1.00  0.00    +0.000 H 
ATOM    118  H24 UNL A   1      12.230  55.560   4.540  1.00  0.00    +0.000 H 
ATOM     90  C61 UNL A   1      14.604  55.230   6.887  1.00  0.00    +0.000 C 
ATOM     91  C62 UNL A   1      14.159  56.204   7.779  1.00  0.00    +0.000 C 
ATOM     29  C19 UNL A   1      13.083  57.026   7.430  1.00  0.00    +0.000 C 
ATOM     30  C20 UNL A   1      12.367  56.779   6.255  1.00  0.00    +0.000 C 
ATOM     31  C21 UNL A   1      12.774  55.759   5.392  1.00  0.00    +0.000 C 
ATOM     32  C22 UNL A   1      13.922  55.003   5.682  1.00  0.00    +0.000 C 
BRANCH   29   27
ATOM     27  C18 UNL A   1      12.667  58.155   8.292  1.00  0.00    +0.000 C 
ATOM     28  O5  UNL A   1      13.361  59.166   8.342  1.00  0.00    +0.000 O 
BRANCH   27   26
ATOM     26  N4  UNL A   1      11.527  58.066   9.052  1.00  0.00    +0.000 N 
ATOM    116  H22 UNL A   1      10.762  58.592   8.721  1.00  0.00    +0.000 H 
BRANCH   26   25
ATOM     25  C17 UNL A   1      11.277  57.314  10.270  1.00  0.00    +0.000 C 
ATOM    114  H20 UNL A   1      12.133  57.399  10.905  1.00  0.00    +0.000 H 
ATOM    115  H21 UNL A   1      10.400  57.724  10.725  1.00  0.00    +0.000 H 
BRANCH   25   24
ATOM    113  H19 UNL A   1      11.464  55.622   9.064  1.00  0.00    +0.000 H 
ATOM    112  H18 UNL A   1       9.951  55.685  10.031  1.00  0.00    +0.000 H 
ATOM     24  C16 UNL A   1      11.010  55.835  10.009  1.00  0.00    +0.000 C 
BRANCH   24   23
ATOM    111  H17 UNL A   1      10.948  54.043  11.074  1.00  0.00    +0.000 H 
ATOM    110  H16 UNL A   1      11.813  55.380  11.915  1.00  0.00    +0.000 H 
ATOM     23  C15 UNL A   1      11.642  54.854  10.999  1.00  0.00    +0.000 C 
BRANCH   23   22
ATOM    108  H14 UNL A   1      13.081  54.370   9.524  1.00  0.00    +0.000 H 
ATOM    109  H15 UNL A   1      13.712  54.685  11.182  1.00  0.00    +0.000 H 
ATOM     22  C14 UNL A   1      12.966  54.214  10.577  1.00  0.00    +0.000 C 
BRANCH   22   21
ATOM    106  H12 UNL A   1      12.345  52.428  11.522  1.00  0.00    +0.000 H 
ATOM    107  H13 UNL A   1      13.065  52.256   9.878  1.00  0.00    +0.000 H 
ATOM     21  C13 UNL A   1      13.119  52.717  10.842  1.00  0.00    +0.000 C 
BRANCH   21   20
ATOM    105  H11 UNL A   1      14.233  51.391  12.026  1.00  0.00    +0.000 H 
ATOM     20  C12 UNL A   1      14.446  52.256  11.431  1.00  0.00    +0.000 C 
ATOM    104  H10 UNL A   1      14.858  53.063  12.000  1.00  0.00    +0.000 H 
BRANCH   20   19
ATOM     19  N3  UNL A   1      15.431  51.846  10.444  1.00  0.00    +0.000 N 
ATOM    103  H9  UNL A   1      16.367  51.965  10.725  1.00  0.00    +0.000 H 
BRANCH   19   17
ATOM     17  C11 UNL A   1      15.274  51.320   9.181  1.00  0.00    +0.000 C 
ATOM     18  O4  UNL A   1      15.482  52.040   8.203  1.00  0.00    +0.000 O 
BRANCH   17   16
ATOM    131  H37 UNL A   1      12.899  50.133   8.541  1.00  0.00    +0.000 H 
ATOM    100  H6  UNL A   1      14.152  46.127   8.787  1.00  0.00    +0.000 H 
ATOM    101  H7  UNL A   1      16.467  46.880   8.873  1.00  0.00    +0.000 H 
ATOM     11  C6  UNL A   1      13.351  48.081   8.743  1.00  0.00    +0.000 C 
ATOM     12  C7  UNL A   1      14.373  47.135   8.801  1.00  0.00    +0.000 C 
ATOM     13  C8  UNL A   1      15.698  47.568   8.878  1.00  0.00    +0.000 C 
ATOM     14  C9  UNL A   1      15.983  48.934   8.961  1.00  0.00    +0.000 C 
ATOM     16  C10 UNL A   1      14.954  49.888   8.936  1.00  0.00    +0.000 C 
ATOM     92  C63 UNL A   1      13.648  49.447   8.719  1.00  0.00    +0.000 C 
BRANCH   11   10
ATOM     10  C5  UNL A   1      11.940  47.659   8.873  1.00  0.00    +0.000 C 
ATOM     99  H5  UNL A   1      11.181  48.281   8.551  1.00  0.00    +0.000 H 
BRANCH   10    9
ATOM      9  N2  UNL A   1      11.658  46.506   9.392  1.00  0.00    +0.000 N 
BRANCH    9    8
ATOM     97  H3  UNL A   1      10.872  48.030  13.569  1.00  0.00    +0.000 H 
ATOM     98  H4  UNL A   1      10.720  48.161  11.151  1.00  0.00    +0.000 H 
ATOM    132  H38 UNL A   1      12.748  44.499  10.810  1.00  0.00    +0.000 H 
ATOM    133  H39 UNL A   1      12.892  44.348  13.229  1.00  0.00    +0.000 H 
ATOM      6  C2  UNL A   1      11.266  47.277  12.984  1.00  0.00    +0.000 C 
ATOM      5  C1  UNL A   1      11.894  46.180  13.576  1.00  0.00    +0.000 C 
ATOM      7  C3  UNL A   1      11.176  47.346  11.590  1.00  0.00    +0.000 C 
ATOM      8  C4  UNL A   1      11.696  46.329  10.782  1.00  0.00    +0.000 C 
ATOM     93  C64 UNL A   1      12.338  45.243  11.394  1.00  0.00    +0.000 C 
ATOM     94  C65 UNL A   1      12.431  45.159  12.786  1.00  0.00    +0.000 C 
BRANCH    5    2
ATOM      2  S1  UNL A   1      12.002  46.081  15.338  1.00  0.00    +0.000 S 
ATOM      3  O1  UNL A   1      13.380  45.894  15.721  1.00  0.00    +0.000 O 
ATOM      4  O2  UNL A   1      10.935  45.230  15.815  1.00  0.00    +0.000 O 
BRANCH    2    1
ATOM      1  N1  UNL A   1      11.614  47.644  15.822  1.00  0.00    +0.000 N 
ATOM     95  H1  UNL A   1      12.443  48.235  15.759  1.00  0.00    +0.000 H 
ATOM     96  H2  UNL A   1      11.279  47.628  16.785  1.00  0.00    +0.000 H 
ENDBRANCH    2    1
ENDBRANCH    5    2
ENDBRANCH    9    8
ENDBRANCH   10    9
ENDBRANCH   11   10
BRANCH   14   15
ATOM    102  H8  UNL A   1      17.963  48.737   8.679  1.00  0.00    +0.000 H 
ATOM     15  O3  UNL A   1      17.306  49.268   9.084  1.00  0.00    +0.000 O 
ENDBRANCH   14   15
ENDBRANCH   17   16
ENDBRANCH   19   17
ENDBRANCH   20   19
ENDBRANCH   21   20
ENDBRANCH   22   21
ENDBRANCH   23   22
ENDBRANCH   24   23
ENDBRANCH   25   24
ENDBRANCH   26   25
ENDBRANCH   27   26
ENDBRANCH   29   27
ENDBRANCH   33   32
BRANCH   37   38
ATOM     38  C27 UNL A   1      18.276  55.386   0.269  1.00  0.00    +0.000 C 
ATOM     39  C28 UNL A   1      19.472  55.843   0.842  1.00  0.00    +0.000 C 
ATOM     40  F1  UNL A   1      19.926  55.298   1.981  1.00  0.00    +0.000 F 
ATOM     41  C29 UNL A   1      20.185  56.896   0.272  1.00  0.00    +0.000 C 
ATOM     42  F2  UNL A   1      21.295  57.352   0.869  1.00  0.00    +0.000 F 
ATOM     43  C30 UNL A   1      19.740  57.483  -0.903  1.00  0.00    +0.000 C 
ATOM     44  F3  UNL A   1      20.429  58.492  -1.453  1.00  0.00    +0.000 F 
ATOM     45  C31 UNL A   1      18.575  57.029  -1.503  1.00  0.00    +0.000 C 
ATOM     46  F4  UNL A   1      18.149  57.586  -2.645  1.00  0.00    +0.000 F 
ATOM     47  C32 UNL A   1      17.843  55.998  -0.917  1.00  0.00    +0.000 C 
ATOM     48  F5  UNL A   1      16.709  55.596  -1.512  1.00  0.00    +0.000 F 
ENDBRANCH   37   38
BRANCH   54   55
ATOM     65  F10 UNL A   1      15.058  49.031  -2.522  1.00  0.00    +0.000 F 
ATOM     55  C38 UNL A   1      16.911  48.453  -1.144  1.00  0.00    +0.000 C 
ATOM     56  C39 UNL A   1      18.025  47.621  -0.957  1.00  0.00    +0.000 C 
ATOM     57  F6  UNL A   1      18.806  47.772   0.123  1.00  0.00    +0.000 F 
ATOM     58  C40 UNL A   1      18.358  46.650  -1.897  1.00  0.00    +0.000 C 
ATOM     59  F7  UNL A   1      19.451  45.893  -1.717  1.00  0.00    +0.000 F 
ATOM     60  C41 UNL A   1      17.570  46.471  -3.024  1.00  0.00    +0.000 C 
ATOM     61  F8  UNL A   1      17.886  45.527  -3.921  1.00  0.00    +0.000 F 
ATOM     62  C42 UNL A   1      16.457  47.273  -3.222  1.00  0.00    +0.000 C 
ATOM     63  F9  UNL A   1      15.685  47.092  -4.303  1.00  0.00    +0.000 F 
ATOM     64  C43 UNL A   1      16.137  48.265  -2.299  1.00  0.00    +0.000 C 
ENDBRANCH   54   55
BRANCH   69   70
ATOM     70  C47 UNL A   1      12.501  48.293   4.258  1.00  0.00    +0.000 C 
ATOM     71  C48 UNL A   1      11.153  48.245   3.881  1.00  0.00    +0.000 C 
ATOM     72  F11 UNL A   1      10.660  49.167   3.041  1.00  0.00    +0.000 F 
ATOM     73  C49 UNL A   1      10.299  47.267   4.387  1.00  0.00    +0.000 C 
ATOM     74  F12 UNL A   1       9.006  47.265   4.036  1.00  0.00    +0.000 F 
ATOM     75  C50 UNL A   1      10.782  46.304   5.258  1.00  0.00    +0.000 C 
ATOM     76  F13 UNL A   1       9.963  45.356   5.734  1.00  0.00    +0.000 F 
ATOM     77  C51 UNL A   1      12.117  46.325   5.638  1.00  0.00    +0.000 C 
ATOM     78  F14 UNL A   1      12.593  45.383   6.464  1.00  0.00    +0.000 F 
ATOM     79  C52 UNL A   1      12.964  47.318   5.154  1.00  0.00    +0.000 C 
ATOM     80  F15 UNL A   1      14.250  47.316   5.538  1.00  0.00    +0.000 F 
ENDBRANCH   69   70
TORSDOF 21
ENDMDL
MODEL 5
REMARK VINA RESULT:     -10.6     42.021     45.771
ROOT
ATOM     33  C23 UNL A   1      13.622  53.584   5.706  1.00  0.00    +0.000 C 
ATOM     34  C24 UNL A   1      14.549  54.087   4.637  1.00  0.00    +0.000 C 
ATOM     35  N5  UNL A   1      15.061  53.447   3.616  1.00  0.00    +0.000 N 
ATOM     36  C25 UNL A   1      15.808  54.386   2.917  1.00  0.00    +0.000 C 
ATOM     37  C26 UNL A   1      16.573  54.204   1.814  1.00  0.00    +0.000 C 
ATOM     49  C33 UNL A   1      16.757  52.937   1.155  1.00  0.00    +0.000 C 
ATOM     50  C34 UNL A   1      17.582  52.632   0.087  1.00  0.00    +0.000 C 
ATOM     51  C35 UNL A   1      17.375  51.291  -0.257  1.00  0.00    +0.000 C 
ATOM     52  C36 UNL A   1      16.458  50.747   0.628  1.00  0.00    +0.000 C 
ATOM     53  N6  UNL A   1      16.095  51.765   1.495  1.00  0.00    +0.000 N 
ATOM     54  C37 UNL A   1      15.947  49.401   0.678  1.00  0.00    +0.000 C 
ATOM     66  C44 UNL A   1      15.099  48.927   1.625  1.00  0.00    +0.000 C 
ATOM     67  N7  UNL A   1      14.534  49.596   2.701  1.00  0.00    +0.000 N 
ATOM     68  C45 UNL A   1      13.773  48.719   3.310  1.00  0.00    +0.000 C 
ATOM     69  C46 UNL A   1      12.928  48.892   4.543  1.00  0.00    +0.000 C 
ATOM     81  C53 UNL A   1      12.920  50.082   5.174  1.00  0.00    +0.000 C 
ATOM     82  C54 UNL A   1      12.144  50.396   6.370  1.00  0.00    +0.000 C 
ATOM     83  C55 UNL A   1      12.311  51.693   6.671  1.00  0.00    +0.000 C 
ATOM     84  C56 UNL A   1      13.241  52.292   5.713  1.00  0.00    +0.000 C 
ATOM     85  N8  UNL A   1      13.572  51.254   4.877  1.00  0.00    +0.000 N 
ATOM     86  C57 UNL A   1      13.759  47.393   2.676  1.00  0.00    +0.000 C 
ATOM     87  C58 UNL A   1      14.608  47.566   1.673  1.00  0.00    +0.000 C 
ATOM     88  C59 UNL A   1      15.641  55.650   3.601  1.00  0.00    +0.000 C 
ATOM     89  C60 UNL A   1      14.926  55.507   4.707  1.00  0.00    +0.000 C 
ATOM    119  H25 UNL A   1      18.239  53.280  -0.375  1.00  0.00    +0.000 H 
ATOM    120  H26 UNL A   1      17.827  50.793  -1.039  1.00  0.00    +0.000 H 
ATOM    121  H27 UNL A   1      15.462  51.672   2.244  1.00  0.00    +0.000 H 
ATOM    122  H28 UNL A   1      11.561  49.729   6.899  1.00  0.00    +0.000 H 
ATOM    123  H29 UNL A   1      11.855  52.190   7.453  1.00  0.00    +0.000 H 
ATOM    124  H30 UNL A   1      14.215  51.341   4.136  1.00  0.00    +0.000 H 
ATOM    125  H31 UNL A   1      13.226  46.550   2.942  1.00  0.00    +0.000 H 
ATOM    126  H32 UNL A   1      14.884  46.823   1.011  1.00  0.00    +0.000 H 
ATOM    127  H33 UNL A   1      16.030  56.547   3.271  1.00  0.00    +0.000 H 
ATOM    128  H34 UNL A   1      14.694  56.207   5.429  1.00  0.00    +0.000 H 
ENDROOT
BRANCH   33   32
ATOM    129  H35 UNL A   1      14.603  54.241   8.110  1.00  0.00    +0.000 H 
ATOM    130  H36 UNL A   1      13.689  55.766   9.758  1.00  0.00    +0.000 H 
ATOM    117  H23 UNL A   1      10.515  56.687   7.157  1.00  0.00    +0.000 H 
ATOM    118  H24 UNL A   1      11.309  55.004   5.599  1.00  0.00    +0.000 H 
ATOM     90  C61 UNL A   1      13.727  54.749   7.911  1.00  0.00    +0.000 C 
ATOM     91  C62 UNL A   1      13.226  55.656   8.843  1.00  0.00    +0.000 C 
ATOM     29  C19 UNL A   1      12.093  56.415   8.535  1.00  0.00    +0.000 C 
ATOM     30  C20 UNL A   1      11.383  56.165   7.358  1.00  0.00    +0.000 C 
ATOM     31  C21 UNL A   1      11.848  55.208   6.454  1.00  0.00    +0.000 C 
ATOM     32  C22 UNL A   1      13.048  54.521   6.705  1.00  0.00    +0.000 C 
BRANCH   29   27
ATOM     27  C18 UNL A   1      11.612  57.481   9.443  1.00  0.00    +0.000 C 
ATOM     28  O5  UNL A   1      12.054  58.620   9.328  1.00  0.00    +0.000 O 
BRANCH   27   26
ATOM     26  N4  UNL A   1      10.696  57.196  10.425  1.00  0.00    +0.000 N 
ATOM    116  H22 UNL A   1       9.754  57.211  10.136  1.00  0.00    +0.000 H 
BRANCH   26   25
ATOM     25  C17 UNL A   1      10.905  56.874  11.827  1.00  0.00    +0.000 C 
ATOM    114  H20 UNL A   1      11.659  57.524  12.217  1.00  0.00    +0.000 H 
ATOM    115  H21 UNL A   1       9.969  57.002  12.328  1.00  0.00    +0.000 H 
BRANCH   25   24
ATOM    113  H19 UNL A   1      12.069  55.231  11.279  1.00  0.00    +0.000 H 
ATOM    112  H18 UNL A   1      10.476  54.811  11.997  1.00  0.00    +0.000 H 
ATOM     24  C16 UNL A   1      11.347  55.430  12.044  1.00  0.00    +0.000 C 
BRANCH   24   23
ATOM    111  H17 UNL A   1      11.347  54.601  13.958  1.00  0.00    +0.000 H 
ATOM    110  H16 UNL A   1      12.370  56.073  13.783  1.00  0.00    +0.000 H 
ATOM     23  C15 UNL A   1      12.059  55.137  13.366  1.00  0.00    +0.000 C 
BRANCH   23   22
ATOM    108  H14 UNL A   1      13.763  54.400  12.350  1.00  0.00    +0.000 H 
ATOM    109  H15 UNL A   1      13.883  54.492  14.145  1.00  0.00    +0.000 H 
ATOM     22  C14 UNL A   1      13.289  54.230  13.295  1.00  0.00    +0.000 C 
BRANCH   22   21
ATOM    106  H12 UNL A   1      12.409  52.577  14.275  1.00  0.00    +0.000 H 
ATOM    107  H13 UNL A   1      12.614  52.434  12.490  1.00  0.00    +0.000 H 
ATOM     21  C13 UNL A   1      13.042  52.728  13.425  1.00  0.00    +0.000 C 
BRANCH   21   20
ATOM    105  H11 UNL A   1      13.913  50.832  13.639  1.00  0.00    +0.000 H 
ATOM     20  C12 UNL A   1      14.268  51.842  13.600  1.00  0.00    +0.000 C 
ATOM    104  H10 UNL A   1      14.773  52.141  14.495  1.00  0.00    +0.000 H 
BRANCH   20   19
ATOM     19  N3  UNL A   1      15.216  51.905  12.500  1.00  0.00    +0.000 N 
ATOM    103  H9  UNL A   1      16.135  52.140  12.764  1.00  0.00    +0.000 H 
BRANCH   19   17
ATOM     17  C11 UNL A   1      15.044  51.691  11.151  1.00  0.00    +0.000 C 
ATOM     18  O4  UNL A   1      15.126  52.648  10.378  1.00  0.00    +0.000 O 
BRANCH   17   16
ATOM    131  H37 UNL A   1      12.847  50.573   9.974  1.00  0.00    +0.000 H 
ATOM    100  H6  UNL A   1      14.343  46.672   9.509  1.00  0.00    +0.000 H 
ATOM    101  H7  UNL A   1      16.574  47.487  10.048  1.00  0.00    +0.000 H 
ATOM     11  C6  UNL A   1      13.416  48.550   9.785  1.00  0.00    +0.000 C 
ATOM     12  C7  UNL A   1      14.489  47.660   9.767  1.00  0.00    +0.000 C 
ATOM     13  C8  UNL A   1      15.763  48.123  10.103  1.00  0.00    +0.000 C 
ATOM     14  C9  UNL A   1      15.939  49.447  10.513  1.00  0.00    +0.000 C 
ATOM     16  C10 UNL A   1      14.855  50.337  10.565  1.00  0.00    +0.000 C 
ATOM     92  C63 UNL A   1      13.617  49.899  10.094  1.00  0.00    +0.000 C 
BRANCH   11   10
ATOM     10  C5  UNL A   1      12.032  48.048   9.642  1.00  0.00    +0.000 C 
ATOM     99  H5  UNL A   1      11.758  47.154  10.078  1.00  0.00    +0.000 H 
BRANCH   10    9
ATOM      9  N2  UNL A   1      11.165  48.735   8.968  1.00  0.00    +0.000 N 
BRANCH    9    8
ATOM     97  H3  UNL A   1       7.960  45.657   9.766  1.00  0.00    +0.000 H 
ATOM     98  H4  UNL A   1      10.086  46.737  10.214  1.00  0.00    +0.000 H 
ATOM    132  H38 UNL A   1       9.363  49.479   7.115  1.00  0.00    +0.000 H 
ATOM    133  H39 UNL A   1       7.226  48.418   6.669  1.00  0.00    +0.000 H 
ATOM      6  C2  UNL A   1       8.255  46.472   9.206  1.00  0.00    +0.000 C 
ATOM      5  C1  UNL A   1       7.438  46.958   8.184  1.00  0.00    +0.000 C 
ATOM      7  C3  UNL A   1       9.477  47.100   9.465  1.00  0.00    +0.000 C 
ATOM      8  C4  UNL A   1       9.888  48.213   8.722  1.00  0.00    +0.000 C 
ATOM     93  C64 UNL A   1       9.062  48.676   7.688  1.00  0.00    +0.000 C 
ATOM     94  C65 UNL A   1       7.835  48.060   7.422  1.00  0.00    +0.000 C 
BRANCH    5    2
ATOM      2  S1  UNL A   1       5.886  46.174   7.860  1.00  0.00    +0.000 S 
ATOM      3  O1  UNL A   1       6.092  45.065   6.961  1.00  0.00    +0.000 O 
ATOM      4  O2  UNL A   1       4.896  47.201   7.621  1.00  0.00    +0.000 O 
BRANCH    2    1
ATOM      1  N1  UNL A   1       5.502  45.481   9.342  1.00  0.00    +0.000 N 
ATOM     95  H1  UNL A   1       4.840  44.719   9.200  1.00  0.00    +0.000 H 
ATOM     96  H2  UNL A   1       5.085  46.186   9.949  1.00  0.00    +0.000 H 
ENDBRANCH    2    1
ENDBRANCH    5    2
ENDBRANCH    9    8
ENDBRANCH   10    9
ENDBRANCH   11   10
BRANCH   14   15
ATOM    102  H8  UNL A   1      17.759  50.264  10.267  1.00  0.00    +0.000 H 
ATOM     15  O3  UNL A   1      17.213  49.802  10.873  1.00  0.00    +0.000 O 
ENDBRANCH   14   15
ENDBRANCH   17   16
ENDBRANCH   19   17
ENDBRANCH   20   19
ENDBRANCH   21   20
ENDBRANCH   22   21
ENDBRANCH   23   22
ENDBRANCH   24   23
ENDBRANCH   25   24
ENDBRANCH   26   25
ENDBRANCH   27   26
ENDBRANCH   29   27
ENDBRANCH   33   32
BRANCH   37   38
ATOM     38  C27 UNL A   1      17.263  55.408   1.241  1.00  0.00    +0.000 C 
ATOM     39  C28 UNL A   1      16.627  56.266   0.332  1.00  0.00    +0.000 C 
ATOM     40  F1  UNL A   1      15.379  56.003  -0.083  1.00  0.00    +0.000 F 
ATOM     41  C29 UNL A   1      17.288  57.376  -0.191  1.00  0.00    +0.000 C 
ATOM     42  F2  UNL A   1      16.678  58.149  -1.100  1.00  0.00    +0.000 F 
ATOM     43  C30 UNL A   1      18.580  57.673   0.215  1.00  0.00    +0.000 C 
ATOM     44  F3  UNL A   1      19.213  58.743  -0.285  1.00  0.00    +0.000 F 
ATOM     45  C31 UNL A   1      19.220  56.854   1.134  1.00  0.00    +0.000 C 
ATOM     46  F4  UNL A   1      20.463  57.146   1.538  1.00  0.00    +0.000 F 
ATOM     47  C32 UNL A   1      18.573  55.726   1.634  1.00  0.00    +0.000 C 
ATOM     48  F5  UNL A   1      19.227  54.944   2.507  1.00  0.00    +0.000 F 
ENDBRANCH   37   38
BRANCH   54   55
ATOM     65  F10 UNL A   1      18.520  48.181   0.647  1.00  0.00    +0.000 F 
ATOM     55  C38 UNL A   1      16.393  48.443  -0.388  1.00  0.00    +0.000 C 
ATOM     56  C39 UNL A   1      15.560  48.112  -1.466  1.00  0.00    +0.000 C 
ATOM     57  F6  UNL A   1      14.312  48.601  -1.529  1.00  0.00    +0.000 F 
ATOM     58  C40 UNL A   1      15.995  47.249  -2.469  1.00  0.00    +0.000 C 
ATOM     59  F7  UNL A   1      15.166  46.915  -3.469  1.00  0.00    +0.000 F 
ATOM     60  C41 UNL A   1      17.279  46.728  -2.429  1.00  0.00    +0.000 C 
ATOM     61  F8  UNL A   1      17.700  45.908  -3.403  1.00  0.00    +0.000 F 
ATOM     62  C42 UNL A   1      18.124  47.053  -1.380  1.00  0.00    +0.000 C 
ATOM     63  F9  UNL A   1      19.371  46.561  -1.348  1.00  0.00    +0.000 F 
ATOM     64  C43 UNL A   1      17.683  47.891  -0.360  1.00  0.00    +0.000 C 
ENDBRANCH   54   55
BRANCH   69   70
ATOM     70  C47 UNL A   1      12.105  47.774   5.073  1.00  0.00    +0.000 C 
ATOM     71  C48 UNL A   1      10.846  47.485   4.531  1.00  0.00    +0.000 C 
ATOM     72  F11 UNL A   1      10.351  48.248   3.545  1.00  0.00    +0.000 F 
ATOM     73  C49 UNL A   1      10.079  46.428   5.017  1.00  0.00    +0.000 C 
ATOM     74  F12 UNL A   1       8.864  46.195   4.503  1.00  0.00    +0.000 F 
ATOM     75  C50 UNL A   1      10.566  45.626   6.037  1.00  0.00    +0.000 C 
ATOM     76  F13 UNL A   1       9.833  44.602   6.495  1.00  0.00    +0.000 F 
ATOM     77  C51 UNL A   1      11.815  45.886   6.582  1.00  0.00    +0.000 C 
ATOM     78  F14 UNL A   1      12.299  45.100   7.554  1.00  0.00    +0.000 F 
ATOM     79  C52 UNL A   1      12.571  46.959   6.115  1.00  0.00    +0.000 C 
ATOM     80  F15 UNL A   1      13.775  47.189   6.661  1.00  0.00    +0.000 F 
ENDBRANCH   69   70
TORSDOF 21
ENDMDL
MODEL 6
REMARK VINA RESULT:     -10.4     40.699     47.128
ROOT
ATOM     33  C23 UNL A   1      53.787  19.833  11.724  1.00  0.00    +0.000 C 
ATOM     34  C24 UNL A   1      55.177  19.277  11.604  1.00  0.00    +0.000 C 
ATOM     35  N5  UNL A   1      56.157  19.302  12.472  1.00  0.00    +0.000 N 
ATOM     36  C25 UNL A   1      57.203  18.607  11.880  1.00  0.00    +0.000 C 
ATOM     37  C26 UNL A   1      58.455  18.400  12.356  1.00  0.00    +0.000 C 
ATOM     49  C33 UNL A   1      58.936  18.903  13.617  1.00  0.00    +0.000 C 
ATOM     50  C34 UNL A   1      60.212  18.825  14.146  1.00  0.00    +0.000 C 
ATOM     51  C35 UNL A   1      60.189  19.389  15.427  1.00  0.00    +0.000 C 
ATOM     52  C36 UNL A   1      58.912  19.865  15.675  1.00  0.00    +0.000 C 
ATOM     53  N6  UNL A   1      58.156  19.569  14.552  1.00  0.00    +0.000 N 
ATOM     54  C37 UNL A   1      58.415  20.535  16.850  1.00  0.00    +0.000 C 
ATOM     66  C44 UNL A   1      57.161  21.033  16.987  1.00  0.00    +0.000 C 
ATOM     67  N7  UNL A   1      56.106  21.000  16.086  1.00  0.00    +0.000 N 
ATOM     68  C45 UNL A   1      55.102  21.593  16.685  1.00  0.00    +0.000 C 
ATOM     69  C46 UNL A   1      53.712  21.848  16.171  1.00  0.00    +0.000 C 
ATOM     81  C53 UNL A   1      53.387  21.458  14.924  1.00  0.00    +0.000 C 
ATOM     82  C54 UNL A   1      52.079  21.632  14.300  1.00  0.00    +0.000 C 
ATOM     83  C55 UNL A   1      52.092  21.051  13.090  1.00  0.00    +0.000 C 
ATOM     84  C56 UNL A   1      53.424  20.502  12.835  1.00  0.00    +0.000 C 
ATOM     85  N8  UNL A   1      54.135  20.815  13.968  1.00  0.00    +0.000 N 
ATOM     86  C57 UNL A   1      55.405  22.059  18.045  1.00  0.00    +0.000 C 
ATOM     87  C58 UNL A   1      56.681  21.722  18.167  1.00  0.00    +0.000 C 
ATOM     88  C59 UNL A   1      56.722  18.129  10.602  1.00  0.00    +0.000 C 
ATOM     89  C60 UNL A   1      55.498  18.571  10.355  1.00  0.00    +0.000 C 
ATOM    119  H25 UNL A   1      61.038  18.422  13.678  1.00  0.00    +0.000 H 
ATOM    120  H26 UNL A   1      60.989  19.441  16.077  1.00  0.00    +0.000 H 
ATOM    121  H27 UNL A   1      57.205  19.798  14.433  1.00  0.00    +0.000 H 
ATOM    122  H28 UNL A   1      51.274  22.122  14.721  1.00  0.00    +0.000 H 
ATOM    123  H29 UNL A   1      51.289  20.999  12.443  1.00  0.00    +0.000 H 
ATOM    124  H30 UNL A   1      55.088  20.599  14.083  1.00  0.00    +0.000 H 
ATOM    125  H31 UNL A   1      54.785  22.526  18.726  1.00  0.00    +0.000 H 
ATOM    126  H32 UNL A   1      57.258  21.925  18.998  1.00  0.00    +0.000 H 
ATOM    127  H33 UNL A   1      57.263  17.523   9.965  1.00  0.00    +0.000 H 
ATOM    128  H34 UNL A   1      54.921  18.452   9.507  1.00  0.00    +0.000 H 
ENDROOT
BRANCH   33   32
ATOM    129  H35 UNL A   1      52.167  17.716  11.468  1.00  0.00    +0.000 H 
ATOM    130  H36 UNL A   1      50.515  17.266   9.751  1.00  0.00    +0.000 H 
ATOM    117  H23 UNL A   1      51.364  20.973   7.954  1.00  0.00    +0.000 H 
ATOM    118  H24 UNL A   1      53.164  21.327   9.543  1.00  0.00    +0.000 H 
ATOM     90  C61 UNL A   1      52.008  18.403  10.714  1.00  0.00    +0.000 C 
ATOM     91  C62 UNL A   1      51.029  18.161   9.753  1.00  0.00    +0.000 C 
ATOM     29  C19 UNL A   1      50.746  19.133   8.788  1.00  0.00    +0.000 C 
ATOM     30  C20 UNL A   1      51.537  20.281   8.701  1.00  0.00    +0.000 C 
ATOM     31  C21 UNL A   1      52.563  20.493   9.625  1.00  0.00    +0.000 C 
ATOM     32  C22 UNL A   1      52.780  19.574  10.664  1.00  0.00    +0.000 C 
BRANCH   29   27
ATOM     27  C18 UNL A   1      49.625  18.968   7.836  1.00  0.00    +0.000 C 
ATOM     28  O5  UNL A   1      48.765  19.840   7.756  1.00  0.00    +0.000 O 
BRANCH   27   26
ATOM     26  N4  UNL A   1      49.529  17.836   7.065  1.00  0.00    +0.000 N 
ATOM    116  H22 UNL A   1      50.379  17.361   6.913  1.00  0.00    +0.000 H 
BRANCH   26   25
ATOM     25  C17 UNL A   1      48.365  17.232   6.439  1.00  0.00    +0.000 C 
ATOM    114  H20 UNL A   1      48.026  16.426   7.056  1.00  0.00    +0.000 H 
ATOM    115  H21 UNL A   1      47.623  17.996   6.338  1.00  0.00    +0.000 H 
BRANCH   25   24
ATOM    113  H19 UNL A   1      49.618  17.076   4.779  1.00  0.00    +0.000 H 
ATOM    112  H18 UNL A   1      47.863  17.003   4.399  1.00  0.00    +0.000 H 
ATOM     24  C16 UNL A   1      48.656  16.688   5.045  1.00  0.00    +0.000 C 
BRANCH   24   23
ATOM    111  H17 UNL A   1      49.352  14.865   5.779  1.00  0.00    +0.000 H 
ATOM    110  H16 UNL A   1      49.235  14.949   3.985  1.00  0.00    +0.000 H 
ATOM     23  C15 UNL A   1      48.779  15.168   4.928  1.00  0.00    +0.000 C 
BRANCH   23   22
ATOM    108  H14 UNL A   1      47.674  13.388   4.626  1.00  0.00    +0.000 H 
ATOM    109  H15 UNL A   1      47.198  14.392   6.044  1.00  0.00    +0.000 H 
ATOM     22  C14 UNL A   1      47.478  14.367   5.012  1.00  0.00    +0.000 C 
BRANCH   22   21
ATOM    106  H12 UNL A   1      46.638  15.348   3.339  1.00  0.00    +0.000 H 
ATOM    107  H13 UNL A   1      45.606  14.105   4.140  1.00  0.00    +0.000 H 
ATOM     21  C13 UNL A   1      46.276  14.931   4.256  1.00  0.00    +0.000 C 
BRANCH   21   20
ATOM    105  H11 UNL A   1      46.153  16.574   5.554  1.00  0.00    +0.000 H 
ATOM     20  C12 UNL A   1      45.463  16.008   4.962  1.00  0.00    +0.000 C 
ATOM    104  H10 UNL A   1      44.708  15.526   5.548  1.00  0.00    +0.000 H 
BRANCH   20   19
ATOM     19  N3  UNL A   1      44.812  16.952   4.070  1.00  0.00    +0.000 N 
ATOM    103  H9  UNL A   1      43.836  16.843   3.998  1.00  0.00    +0.000 H 
BRANCH   19   17
ATOM     17  C11 UNL A   1      45.333  17.974   3.307  1.00  0.00    +0.000 C 
ATOM     18  O4  UNL A   1      46.457  17.842   2.818  1.00  0.00    +0.000 O 
BRANCH   17   16
ATOM    131  H37 UNL A   1      42.831  18.240   2.243  1.00  0.00    +0.000 H 
ATOM    100  H6  UNL A   1      42.865  22.407   1.684  1.00  0.00    +0.000 H 
ATOM    101  H7  UNL A   1      44.876  22.551   3.049  1.00  0.00    +0.000 H 
ATOM     11  C6  UNL A   1      42.749  20.300   1.794  1.00  0.00    +0.000 C 
ATOM     12  C7  UNL A   1      43.308  21.551   2.051  1.00  0.00    +0.000 C 
ATOM     13  C8  UNL A   1      44.477  21.630   2.811  1.00  0.00    +0.000 C 
ATOM     14  C9  UNL A   1      45.107  20.462   3.249  1.00  0.00    +0.000 C 
ATOM     16  C10 UNL A   1      44.564  19.199   2.964  1.00  0.00    +0.000 C 
ATOM     92  C63 UNL A   1      43.325  19.142   2.325  1.00  0.00    +0.000 C 
BRANCH   11   10
ATOM     10  C5  UNL A   1      41.641  20.168   0.824  1.00  0.00    +0.000 C 
ATOM     99  H5  UNL A   1      41.840  20.122  -0.188  1.00  0.00    +0.000 H 
BRANCH   10    9
ATOM      9  N2  UNL A   1      40.418  20.109   1.248  1.00  0.00    +0.000 N 
BRANCH    9    8
ATOM     97  H3  UNL A   1      38.837  23.273  -1.559  1.00  0.00    +0.000 H 
ATOM     98  H4  UNL A   1      40.602  22.170  -0.311  1.00  0.00    +0.000 H 
ATOM    132  H38 UNL A   1      37.847  19.335   1.107  1.00  0.00    +0.000 H 
ATOM    133  H39 UNL A   1      36.076  20.420  -0.151  1.00  0.00    +0.000 H 
ATOM      6  C2  UNL A   1      38.627  22.434  -0.997  1.00  0.00    +0.000 C 
ATOM      5  C1  UNL A   1      37.328  21.928  -0.945  1.00  0.00    +0.000 C 
ATOM      7  C3  UNL A   1      39.643  21.792  -0.281  1.00  0.00    +0.000 C 
ATOM      8  C4  UNL A   1      39.377  20.646   0.478  1.00  0.00    +0.000 C 
ATOM     93  C64 UNL A   1      38.062  20.163   0.532  1.00  0.00    +0.000 C 
ATOM     94  C65 UNL A   1      37.039  20.793  -0.184  1.00  0.00    +0.000 C 
BRANCH    5    2
ATOM      2  S1  UNL A   1      36.042  22.729  -1.857  1.00  0.00    +0.000 S 
ATOM      3  O1  UNL A   1      35.332  21.749  -2.640  1.00  0.00    +0.000 O 
ATOM      4  O2  UNL A   1      36.575  23.947  -2.426  1.00  0.00    +0.000 O 
BRANCH    2    1
ATOM      1  N1  UNL A   1      34.968  23.199  -0.652  1.00  0.00    +0.000 N 
ATOM     95  H1  UNL A   1      34.355  22.419  -0.419  1.00  0.00    +0.000 H 
ATOM     96  H2  UNL A   1      34.409  23.985  -0.983  1.00  0.00    +0.000 H 
ENDBRANCH    2    1
ENDBRANCH    5    2
ENDBRANCH    9    8
ENDBRANCH   10    9
ENDBRANCH   11   10
BRANCH   14   15
ATOM    102  H8  UNL A   1      46.982  21.111   3.564  1.00  0.00    +0.000 H 
ATOM     15  O3  UNL A   1      46.275  20.630   3.945  1.00  0.00    +0.000 O 
ENDBRANCH   14   15
ENDBRANCH   17   16
ENDBRANCH   19   17
ENDBRANCH   20   19
ENDBRANCH   21   20
ENDBRANCH   22   21
ENDBRANCH   23   22
ENDBRANCH   24   23
ENDBRANCH   25   24
ENDBRANCH   26   25
ENDBRANCH   27   26
ENDBRANCH   29   27
ENDBRANCH   33   32
BRANCH   37   38
ATOM     38  C27 UNL A   1      59.393  17.584  11.513  1.00  0.00    +0.000 C 
ATOM     39  C28 UNL A   1      59.444  16.185  11.602  1.00  0.00    +0.000 C 
ATOM     40  F1  UNL A   1      58.670  15.536  12.486  1.00  0.00    +0.000 F 
ATOM     41  C29 UNL A   1      60.325  15.448  10.814  1.00  0.00    +0.000 C 
ATOM     42  F2  UNL A   1      60.395  14.117  10.957  1.00  0.00    +0.000 F 
ATOM     43  C30 UNL A   1      61.140  16.089   9.894  1.00  0.00    +0.000 C 
ATOM     44  F3  UNL A   1      61.984  15.379   9.134  1.00  0.00    +0.000 F 
ATOM     45  C31 UNL A   1      61.088  17.469   9.770  1.00  0.00    +0.000 C 
ATOM     46  F4  UNL A   1      61.865  18.091   8.872  1.00  0.00    +0.000 F 
ATOM     47  C32 UNL A   1      60.231  18.212  10.579  1.00  0.00    +0.000 C 
ATOM     48  F5  UNL A   1      60.218  19.547  10.447  1.00  0.00    +0.000 F 
ENDBRANCH   37   38
BRANCH   54   55
ATOM     65  F10 UNL A   1      60.012  22.862  17.235  1.00  0.00    +0.000 F 
ATOM     55  C38 UNL A   1      59.355  20.708  18.007  1.00  0.00    +0.000 C 
ATOM     56  C39 UNL A   1      59.524  19.700  18.967  1.00  0.00    +0.000 C 
ATOM     57  F6  UNL A   1      58.793  18.577  18.902  1.00  0.00    +0.000 F 
ATOM     58  C40 UNL A   1      60.424  19.856  20.018  1.00  0.00    +0.000 C 
ATOM     59  F7  UNL A   1      60.540  18.895  20.947  1.00  0.00    +0.000 F 
ATOM     60  C41 UNL A   1      61.194  21.006  20.111  1.00  0.00    +0.000 C 
ATOM     61  F8  UNL A   1      62.069  21.148  21.116  1.00  0.00    +0.000 F 
ATOM     62  C42 UNL A   1      61.052  22.009  19.165  1.00  0.00    +0.000 C 
ATOM     63  F9  UNL A   1      61.805  23.115  19.246  1.00  0.00    +0.000 F 
ATOM     64  C43 UNL A   1      60.132  21.870  18.130  1.00  0.00    +0.000 C 
ENDBRANCH   54   55
BRANCH   69   70
ATOM     70  C47 UNL A   1      52.693  22.522  17.019  1.00  0.00    +0.000 C 
ATOM     71  C48 UNL A   1      52.449  23.896  16.898  1.00  0.00    +0.000 C 
ATOM     72  F11 UNL A   1      53.167  24.630  16.036  1.00  0.00    +0.000 F 
ATOM     73  C49 UNL A   1      51.485  24.526  17.682  1.00  0.00    +0.000 C 
ATOM     74  F12 UNL A   1      51.294  25.848  17.570  1.00  0.00    +0.000 F 
ATOM     75  C50 UNL A   1      50.730  23.791  18.583  1.00  0.00    +0.000 C 
ATOM     76  F13 UNL A   1      49.794  24.396  19.327  1.00  0.00    +0.000 F 
ATOM     77  C51 UNL A   1      50.947  22.427  18.713  1.00  0.00    +0.000 C 
ATOM     78  F14 UNL A   1      50.205  21.709  19.567  1.00  0.00    +0.000 F 
ATOM     79  C52 UNL A   1      51.929  21.801  17.949  1.00  0.00    +0.000 C 
ATOM     80  F15 UNL A   1      52.119  20.481  18.095  1.00  0.00    +0.000 F 
ENDBRANCH   69   70
TORSDOF 21
ENDMDL
MODEL 7
REMARK VINA RESULT:     -10.4     42.222     45.942
ROOT
ATOM     33  C23 UNL A   1      13.850  53.735   5.341  1.00  0.00    +0.000 C 
ATOM     34  C24 UNL A   1      14.793  54.217   4.276  1.00  0.00    +0.000 C 
ATOM     35  N5  UNL A   1      15.314  53.558   3.272  1.00  0.00    +0.000 N 
ATOM     36  C25 UNL A   1      16.074  54.482   2.568  1.00  0.00    +0.000 C 
ATOM     37  C26 UNL A   1      16.852  54.280   1.477  1.00  0.00    +0.000 C 
ATOM     49  C33 UNL A   1      17.038  53.001   0.841  1.00  0.00    +0.000 C 
ATOM     50  C34 UNL A   1      17.875  52.675  -0.212  1.00  0.00    +0.000 C 
ATOM     51  C35 UNL A   1      17.666  51.330  -0.537  1.00  0.00    +0.000 C 
ATOM     52  C36 UNL A   1      16.736  50.804   0.345  1.00  0.00    +0.000 C 
ATOM     53  N6  UNL A   1      16.367  51.838   1.192  1.00  0.00    +0.000 N 
ATOM     54  C37 UNL A   1      16.217  49.462   0.410  1.00  0.00    +0.000 C 
ATOM     66  C44 UNL A   1      15.355  49.007   1.353  1.00  0.00    +0.000 C 
ATOM     67  N7  UNL A   1      14.780  49.695   2.412  1.00  0.00    +0.000 N 
ATOM     68  C45 UNL A   1      14.008  48.831   3.025  1.00  0.00    +0.000 C 
ATOM     69  C46 UNL A   1      13.149  49.029   4.244  1.00  0.00    +0.000 C 
ATOM     81  C53 UNL A   1      13.138  50.228   4.856  1.00  0.00    +0.000 C 
ATOM     82  C54 UNL A   1      12.349  50.565   6.038  1.00  0.00    +0.000 C 
ATOM     83  C55 UNL A   1      12.519  51.866   6.320  1.00  0.00    +0.000 C 
ATOM     84  C56 UNL A   1      13.463  52.445   5.364  1.00  0.00    +0.000 C 
ATOM     85  N8  UNL A   1      13.800  51.392   4.549  1.00  0.00    +0.000 N 
ATOM     86  C57 UNL A   1      13.995  47.495   2.413  1.00  0.00    +0.000 C 
ATOM     87  C58 UNL A   1      14.858  47.649   1.418  1.00  0.00    +0.000 C 
ATOM     88  C59 UNL A   1      15.905  55.758   3.229  1.00  0.00    +0.000 C 
ATOM     89  C60 UNL A   1      15.176  55.636   4.328  1.00  0.00    +0.000 C 
ATOM    119  H25 UNL A   1      18.540  53.313  -0.675  1.00  0.00    +0.000 H 
ATOM    120  H26 UNL A   1      18.125  50.817  -1.305  1.00  0.00    +0.000 H 
ATOM    121  H27 UNL A   1      15.724  51.759   1.934  1.00  0.00    +0.000 H 
ATOM    122  H28 UNL A   1      11.757  49.909   6.570  1.00  0.00    +0.000 H 
ATOM    123  H29 UNL A   1      12.055  52.377   7.088  1.00  0.00    +0.000 H 
ATOM    124  H30 UNL A   1      14.452  51.464   3.815  1.00  0.00    +0.000 H 
ATOM    125  H31 UNL A   1      13.456  46.659   2.686  1.00  0.00    +0.000 H 
ATOM    126  H32 UNL A   1      15.138  46.894   0.771  1.00  0.00    +0.000 H 
ATOM    127  H33 UNL A   1      16.303  56.648   2.890  1.00  0.00    +0.000 H 
ATOM    128  H34 UNL A   1      14.938  56.349   5.036  1.00  0.00    +0.000 H 
ENDROOT
BRANCH   33   32
ATOM    129  H35 UNL A   1      14.839  54.478   7.717  1.00  0.00    +0.000 H 
ATOM    130  H36 UNL A   1      13.913  56.034   9.329  1.00  0.00    +0.000 H 
ATOM    117  H23 UNL A   1      10.702  56.825   6.729  1.00  0.00    +0.000 H 
ATOM    118  H24 UNL A   1      11.512  55.111   5.213  1.00  0.00    +0.000 H 
ATOM     90  C61 UNL A   1      13.953  54.965   7.511  1.00  0.00    +0.000 C 
ATOM     91  C62 UNL A   1      13.444  55.889   8.421  1.00  0.00    +0.000 C 
ATOM     29  C19 UNL A   1      12.296  56.620   8.102  1.00  0.00    +0.000 C 
ATOM     30  C20 UNL A   1      11.581  56.324   6.938  1.00  0.00    +0.000 C 
ATOM     31  C21 UNL A   1      12.055  55.349   6.057  1.00  0.00    +0.000 C 
ATOM     32  C22 UNL A   1      13.268  54.690   6.318  1.00  0.00    +0.000 C 
BRANCH   29   27
ATOM     27  C18 UNL A   1      11.803  57.703   8.982  1.00  0.00    +0.000 C 
ATOM     28  O5  UNL A   1      12.490  58.706   9.150  1.00  0.00    +0.000 O 
BRANCH   27   26
ATOM     26  N4  UNL A   1      10.599  57.578   9.630  1.00  0.00    +0.000 N 
ATOM    116  H22 UNL A   1       9.815  57.884   9.116  1.00  0.00    +0.000 H 
BRANCH   26   25
ATOM     25  C17 UNL A   1      10.305  57.064  10.956  1.00  0.00    +0.000 C 
ATOM    114  H20 UNL A   1      10.316  57.879  11.649  1.00  0.00    +0.000 H 
ATOM    115  H21 UNL A   1       9.346  56.591  10.911  1.00  0.00    +0.000 H 
BRANCH   25   24
ATOM    113  H19 UNL A   1      12.275  56.414  11.183  1.00  0.00    +0.000 H 
ATOM    112  H18 UNL A   1      11.080  55.097  10.924  1.00  0.00    +0.000 H 
ATOM     24  C16 UNL A   1      11.310  56.016  11.422  1.00  0.00    +0.000 C 
BRANCH   24   23
ATOM    111  H17 UNL A   1      10.439  55.203  13.134  1.00  0.00    +0.000 H 
ATOM    110  H16 UNL A   1      11.429  56.678  13.430  1.00  0.00    +0.000 H 
ATOM     23  C15 UNL A   1      11.342  55.737  12.927  1.00  0.00    +0.000 C 
BRANCH   23   22
ATOM    108  H14 UNL A   1      13.317  54.987  12.796  1.00  0.00    +0.000 H 
ATOM    109  H15 UNL A   1      12.621  55.117  14.452  1.00  0.00    +0.000 H 
ATOM     22  C14 UNL A   1      12.470  54.835  13.432  1.00  0.00    +0.000 C 
BRANCH   22   21
ATOM    106  H12 UNL A   1      11.409  53.171  14.190  1.00  0.00    +0.000 H 
ATOM    107  H13 UNL A   1      11.922  53.076  12.464  1.00  0.00    +0.000 H 
ATOM     21  C13 UNL A   1      12.183  53.335  13.469  1.00  0.00    +0.000 C 
BRANCH   21   20
ATOM    105  H11 UNL A   1      13.010  51.417  13.664  1.00  0.00    +0.000 H 
ATOM     20  C12 UNL A   1      13.347  52.420  13.827  1.00  0.00    +0.000 C 
ATOM    104  H10 UNL A   1      13.620  52.609  14.844  1.00  0.00    +0.000 H 
BRANCH   20   19
ATOM     19  N3  UNL A   1      14.528  52.599  12.999  1.00  0.00    +0.000 N 
ATOM    103  H9  UNL A   1      15.343  52.844  13.494  1.00  0.00    +0.000 H 
BRANCH   19   17
ATOM     17  C11 UNL A   1      14.697  52.484  11.637  1.00  0.00    +0.000 C 
ATOM     18  O4  UNL A   1      14.708  53.506  10.947  1.00  0.00    +0.000 O 
BRANCH   17   16
ATOM    131  H37 UNL A   1      13.073  50.955  10.060  1.00  0.00    +0.000 H 
ATOM    100  H6  UNL A   1      15.603  47.621   9.659  1.00  0.00    +0.000 H 
ATOM    101  H7  UNL A   1      17.433  48.926  10.598  1.00  0.00    +0.000 H 
ATOM     11  C6  UNL A   1      14.180  49.169   9.870  1.00  0.00    +0.000 C 
ATOM     12  C7  UNL A   1      15.442  48.587   9.985  1.00  0.00    +0.000 C 
ATOM     13  C8  UNL A   1      16.483  49.326  10.549  1.00  0.00    +0.000 C 
ATOM     14  C9  UNL A   1      16.240  50.609  11.047  1.00  0.00    +0.000 C 
ATOM     16  C10 UNL A   1      14.963  51.185  10.962  1.00  0.00    +0.000 C 
ATOM     92  C63 UNL A   1      13.969  50.491  10.273  1.00  0.00    +0.000 C 
BRANCH   11   10
ATOM     10  C5  UNL A   1      13.016  48.347   9.475  1.00  0.00    +0.000 C 
ATOM     99  H5  UNL A   1      13.012  47.332   9.663  1.00  0.00    +0.000 H 
BRANCH   10    9
ATOM      9  N2  UNL A   1      12.002  48.904   8.893  1.00  0.00    +0.000 N 
BRANCH    9    8
ATOM     97  H3  UNL A   1       7.811  48.593   7.242  1.00  0.00    +0.000 H 
ATOM     98  H4  UNL A   1       9.992  49.640   7.435  1.00  0.00    +0.000 H 
ATOM    132  H38 UNL A   1      11.223  46.622  10.084  1.00  0.00    +0.000 H 
ATOM    133  H39 UNL A   1       9.051  45.556   9.886  1.00  0.00    +0.000 H 
ATOM      6  C2  UNL A   1       8.537  48.171   7.842  1.00  0.00    +0.000 C 
ATOM      5  C1  UNL A   1       8.271  46.998   8.551  1.00  0.00    +0.000 C 
ATOM      7  C3  UNL A   1       9.797  48.768   7.951  1.00  0.00    +0.000 C 
ATOM      8  C4  UNL A   1      10.796  48.204   8.752  1.00  0.00    +0.000 C 
ATOM     93  C64 UNL A   1      10.505  47.036   9.470  1.00  0.00    +0.000 C 
ATOM     94  C65 UNL A   1       9.251  46.425   9.366  1.00  0.00    +0.000 C 
BRANCH    5    2
ATOM      2  S1  UNL A   1       6.683  46.233   8.408  1.00  0.00    +0.000 S 
ATOM      3  O1  UNL A   1       5.943  46.442   9.627  1.00  0.00    +0.000 O 
ATOM      4  O2  UNL A   1       6.858  44.926   7.813  1.00  0.00    +0.000 O 
BRANCH    2    1
ATOM      1  N1  UNL A   1       5.916  47.182   7.252  1.00  0.00    +0.000 N 
ATOM     95  H1  UNL A   1       6.046  46.766   6.330  1.00  0.00    +0.000 H 
ATOM     96  H2  UNL A   1       6.316  48.120   7.263  1.00  0.00    +0.000 H 
ENDBRANCH    2    1
ENDBRANCH    5    2
ENDBRANCH    9    8
ENDBRANCH   10    9
ENDBRANCH   11   10
BRANCH   14   15
ATOM    102  H8  UNL A   1      17.301  51.420  12.549  1.00  0.00    +0.000 H 
ATOM     15  O3  UNL A   1      17.307  51.243  11.629  1.00  0.00    +0.000 O 
ENDBRANCH   14   15
ENDBRANCH   17   16
ENDBRANCH   19   17
ENDBRANCH   20   19
ENDBRANCH   21   20
ENDBRANCH   22   21
ENDBRANCH   23   22
ENDBRANCH   24   23
ENDBRANCH   25   24
ENDBRANCH   26   25
ENDBRANCH   27   26
ENDBRANCH   29   27
ENDBRANCH   33   32
BRANCH   37   38
ATOM     38  C27 UNL A   1      17.555  55.471   0.894  1.00  0.00    +0.000 C 
ATOM     39  C28 UNL A   1      18.837  55.856   1.314  1.00  0.00    +0.000 C 
ATOM     40  F1  UNL A   1      19.459  55.178   2.291  1.00  0.00    +0.000 F 
ATOM     41  C29 UNL A   1      19.470  56.968   0.762  1.00  0.00    +0.000 C 
ATOM     42  F2  UNL A   1      20.671  57.348   1.220  1.00  0.00    +0.000 F 
ATOM     43  C30 UNL A   1      18.852  57.691  -0.246  1.00  0.00    +0.000 C 
ATOM     44  F3  UNL A   1      19.464  58.759  -0.779  1.00  0.00    +0.000 F 
ATOM     45  C31 UNL A   1      17.596  57.314  -0.697  1.00  0.00    +0.000 C 
ATOM     46  F4  UNL A   1      17.003  58.004  -1.681  1.00  0.00    +0.000 F 
ATOM     47  C32 UNL A   1      16.948  56.222  -0.125  1.00  0.00    +0.000 C 
ATOM     48  F5  UNL A   1      15.725  55.895  -0.570  1.00  0.00    +0.000 F 
ENDBRANCH   37   38
BRANCH   54   55
ATOM     65  F10 UNL A   1      14.667  48.784  -1.882  1.00  0.00    +0.000 F 
ATOM     55  C38 UNL A   1      16.672  48.485  -0.635  1.00  0.00    +0.000 C 
ATOM     56  C39 UNL A   1      17.900  47.816  -0.522  1.00  0.00    +0.000 C 
ATOM     57  F6  UNL A   1      18.726  48.088   0.499  1.00  0.00    +0.000 F 
ATOM     58  C40 UNL A   1      18.298  46.885  -1.478  1.00  0.00    +0.000 C 
ATOM     59  F7  UNL A   1      19.494  46.288  -1.372  1.00  0.00    +0.000 F 
ATOM     60  C41 UNL A   1      17.466  46.584  -2.546  1.00  0.00    +0.000 C 
ATOM     61  F8  UNL A   1      17.846  45.678  -3.458  1.00  0.00    +0.000 F 
ATOM     62  C42 UNL A   1      16.242  47.223  -2.669  1.00  0.00    +0.000 C 
ATOM     63  F9  UNL A   1      15.430  46.923  -3.692  1.00  0.00    +0.000 F 
ATOM     64  C43 UNL A   1      15.853  48.176  -1.731  1.00  0.00    +0.000 C 
ENDBRANCH   54   55
BRANCH   69   70
ATOM     70  C47 UNL A   1      12.314  47.922   4.782  1.00  0.00    +0.000 C 
ATOM     71  C48 UNL A   1      12.786  47.096   5.809  1.00  0.00    +0.000 C 
ATOM     72  F11 UNL A   1      14.024  47.273   6.295  1.00  0.00    +0.000 F 
ATOM     73  C49 UNL A   1      12.000  46.067   6.324  1.00  0.00    +0.000 C 
ATOM     74  F12 UNL A   1      12.488  45.270   7.284  1.00  0.00    +0.000 F 
ATOM     75  C50 UNL A   1      10.718  45.861   5.838  1.00  0.00    +0.000 C 
ATOM     76  F13 UNL A   1       9.958  44.879   6.342  1.00  0.00    +0.000 F 
ATOM     77  C51 UNL A   1      10.225  46.673   4.827  1.00  0.00    +0.000 C 
ATOM     78  F14 UNL A   1       8.979  46.491   4.369  1.00  0.00    +0.000 F 
ATOM     79  C52 UNL A   1      11.020  47.685   4.294  1.00  0.00    +0.000 C 
ATOM     80  F15 UNL A   1      10.519  48.455   3.316  1.00  0.00    +0.000 F 
ENDBRANCH   69   70
TORSDOF 21
ENDMDL
MODEL 8
REMARK VINA RESULT:     -10.3      1.022      7.266
ROOT
ATOM     33  C23 UNL A   1      26.116  35.074  45.986  1.00  0.00    +0.000 C 
ATOM     34  C24 UNL A   1      25.887  36.242  46.902  1.00  0.00    +0.000 C 
ATOM     35  N5  UNL A   1      26.677  37.252  47.169  1.00  0.00    +0.000 N 
ATOM     36  C25 UNL A   1      25.965  38.068  48.037  1.00  0.00    +0.000 C 
ATOM     37  C26 UNL A   1      26.369  39.211  48.644  1.00  0.00    +0.000 C 
ATOM     49  C33 UNL A   1      27.677  39.791  48.488  1.00  0.00    +0.000 C 
ATOM     50  C34 UNL A   1      28.213  40.895  49.130  1.00  0.00    +0.000 C 
ATOM     51  C35 UNL A   1      29.489  41.128  48.605  1.00  0.00    +0.000 C 
ATOM     52  C36 UNL A   1      29.770  40.141  47.674  1.00  0.00    +0.000 C 
ATOM     53  N6  UNL A   1      28.653  39.322  47.620  1.00  0.00    +0.000 N 
ATOM     54  C37 UNL A   1      30.964  39.959  46.889  1.00  0.00    +0.000 C 
ATOM     66  C44 UNL A   1      31.187  38.921  46.045  1.00  0.00    +0.000 C 
ATOM     67  N7  UNL A   1      30.355  37.854  45.737  1.00  0.00    +0.000 N 
ATOM     68  C45 UNL A   1      31.008  37.130  44.860  1.00  0.00    +0.000 C 
ATOM     69  C46 UNL A   1      30.588  35.853  44.186  1.00  0.00    +0.000 C 
ATOM     81  C53 UNL A   1      29.395  35.307  44.493  1.00  0.00    +0.000 C 
ATOM     82  C54 UNL A   1      28.855  34.080  43.914  1.00  0.00    +0.000 C 
ATOM     83  C55 UNL A   1      27.614  33.884  44.385  1.00  0.00    +0.000 C 
ATOM     84  C56 UNL A   1      27.288  34.949  45.335  1.00  0.00    +0.000 C 
ATOM     85  N8  UNL A   1      28.415  35.733  45.356  1.00  0.00    +0.000 N 
ATOM     86  C57 UNL A   1      32.329  37.667  44.502  1.00  0.00    +0.000 C 
ATOM     87  C58 UNL A   1      32.401  38.741  45.276  1.00  0.00    +0.000 C 
ATOM     88  C59 UNL A   1      24.662  37.464  48.212  1.00  0.00    +0.000 C 
ATOM     89  C60 UNL A   1      24.585  36.300  47.583  1.00  0.00    +0.000 C 
ATOM    119  H25 UNL A   1      27.752  41.448  49.868  1.00  0.00    +0.000 H 
ATOM    120  H26 UNL A   1      30.116  41.905  48.867  1.00  0.00    +0.000 H 
ATOM    121  H27 UNL A   1      28.564  38.523  47.051  1.00  0.00    +0.000 H 
ATOM    122  H28 UNL A   1      29.348  33.464  43.249  1.00  0.00    +0.000 H 
ATOM    123  H29 UNL A   1      26.989  33.107  44.120  1.00  0.00    +0.000 H 
ATOM    124  H30 UNL A   1      28.512  36.524  45.934  1.00  0.00    +0.000 H 
ATOM    125  H31 UNL A   1      33.017  37.304  43.824  1.00  0.00    +0.000 H 
ATOM    126  H32 UNL A   1      33.219  39.368  45.324  1.00  0.00    +0.000 H 
ATOM    127  H33 UNL A   1      23.892  37.884  48.756  1.00  0.00    +0.000 H 
ATOM    128  H34 UNL A   1      23.815  35.613  47.574  1.00  0.00    +0.000 H 
ENDROOT
BRANCH   33   32
ATOM    129  H35 UNL A   1      24.341  35.091  43.980  1.00  0.00    +0.000 H 
ATOM    130  H36 UNL A   1      22.551  33.521  43.521  1.00  0.00    +0.000 H 
ATOM    117  H23 UNL A   1      23.721  31.211  46.835  1.00  0.00    +0.000 H 
ATOM    118  H24 UNL A   1      25.371  32.891  47.420  1.00  0.00    +0.000 H 
ATOM     90  C61 UNL A   1      24.202  34.275  44.596  1.00  0.00    +0.000 C 
ATOM     91  C62 UNL A   1      23.199  33.352  44.306  1.00  0.00    +0.000 C 
ATOM     29  C19 UNL A   1      23.071  32.197  45.083  1.00  0.00    +0.000 C 
ATOM     30  C20 UNL A   1      23.853  32.037  46.231  1.00  0.00    +0.000 C 
ATOM     31  C21 UNL A   1      24.814  32.996  46.558  1.00  0.00    +0.000 C 
ATOM     32  C22 UNL A   1      25.024  34.103  45.720  1.00  0.00    +0.000 C 
BRANCH   29   27
ATOM     27  C18 UNL A   1      22.108  31.132  44.726  1.00  0.00    +0.000 C 
ATOM     28  O5  UNL A   1      22.454  29.956  44.787  1.00  0.00    +0.000 O 
BRANCH   27   26
ATOM     26  N4  UNL A   1      20.842  31.454  44.302  1.00  0.00    +0.000 N 
ATOM    116  H22 UNL A   1      20.625  31.173  43.383  1.00  0.00    +0.000 H 
BRANCH   26   25
ATOM     25  C17 UNL A   1      19.774  32.146  45.004  1.00  0.00    +0.000 C 
ATOM    114  H20 UNL A   1      18.878  31.568  44.915  1.00  0.00    +0.000 H 
ATOM    115  H21 UNL A   1      20.079  32.255  46.023  1.00  0.00    +0.000 H 
BRANCH   25   24
ATOM    113  H19 UNL A   1      20.425  33.850  43.992  1.00  0.00    +0.000 H 
ATOM    112  H18 UNL A   1      19.198  34.162  45.267  1.00  0.00    +0.000 H 
ATOM     24  C16 UNL A   1      19.509  33.542  44.452  1.00  0.00    +0.000 C 
BRANCH   24   23
ATOM    111  H17 UNL A   1      18.354  32.651  42.961  1.00  0.00    +0.000 H 
ATOM    110  H16 UNL A   1      18.774  34.374  42.649  1.00  0.00    +0.000 H 
ATOM     23  C15 UNL A   1      18.445  33.641  43.356  1.00  0.00    +0.000 C 
BRANCH   23   22
ATOM    108  H14 UNL A   1      17.092  34.332  44.829  1.00  0.00    +0.000 H 
ATOM    109  H15 UNL A   1      16.726  34.798  43.128  1.00  0.00    +0.000 H 
ATOM     22  C14 UNL A   1      17.035  34.029  43.804  1.00  0.00    +0.000 C 
BRANCH   22   21
ATOM    106  H12 UNL A   1      15.065  33.338  44.135  1.00  0.00    +0.000 H 
ATOM    107  H13 UNL A   1      15.892  32.723  42.656  1.00  0.00    +0.000 H 
ATOM     21  C13 UNL A   1      15.961  32.947  43.700  1.00  0.00    +0.000 C 
BRANCH   21   20
ATOM    105  H11 UNL A   1      15.318  31.220  44.700  1.00  0.00    +0.000 H 
ATOM     20  C12 UNL A   1      16.259  31.615  44.375  1.00  0.00    +0.000 C 
ATOM    104  H10 UNL A   1      16.938  31.794  45.183  1.00  0.00    +0.000 H 
BRANCH   20   19
ATOM     19  N3  UNL A   1      16.848  30.616  43.500  1.00  0.00    +0.000 N 
ATOM    103  H9  UNL A   1      17.832  30.607  43.490  1.00  0.00    +0.000 H 
BRANCH   19   17
ATOM     17  C11 UNL A   1      16.258  29.679  42.680  1.00  0.00    +0.000 C 
ATOM     18  O4  UNL A   1      15.815  30.035  41.586  1.00  0.00    +0.000 O 
BRANCH   17   16
ATOM    131  H37 UNL A   1      14.727  27.680  41.623  1.00  0.00    +0.000 H 
ATOM    100  H6  UNL A   1      15.847  24.611  44.269  1.00  0.00    +0.000 H 
ATOM    101  H7  UNL A   1      17.665  26.010  45.086  1.00  0.00    +0.000 H 
ATOM     11  C6  UNL A   1      15.101  26.078  42.944  1.00  0.00    +0.000 C 
ATOM     12  C7  UNL A   1      15.964  25.573  43.915  1.00  0.00    +0.000 C 
ATOM     13  C8  UNL A   1      16.990  26.386  44.403  1.00  0.00    +0.000 C 
ATOM     14  C9  UNL A   1      17.101  27.708  43.965  1.00  0.00    +0.000 C 
ATOM     16  C10 UNL A   1      16.213  28.230  43.011  1.00  0.00    +0.000 C 
ATOM     92  C63 UNL A   1      15.283  27.366  42.432  1.00  0.00    +0.000 C 
BRANCH   11   10
ATOM     10  C5  UNL A   1      13.887  25.322  42.565  1.00  0.00    +0.000 C 
ATOM     99  H5  UNL A   1      13.204  25.044  43.286  1.00  0.00    +0.000 H 
BRANCH   10    9
ATOM      9  N2  UNL A   1      13.684  25.011  41.324  1.00  0.00    +0.000 N 
BRANCH    9    8
ATOM     97  H3  UNL A   1      12.681  20.767  42.494  1.00  0.00    +0.000 H 
ATOM     98  H4  UNL A   1      13.155  23.096  42.986  1.00  0.00    +0.000 H 
ATOM    132  H38 UNL A   1      13.474  23.914  38.878  1.00  0.00    +0.000 H 
ATOM    133  H39 UNL A   1      12.983  21.590  38.373  1.00  0.00    +0.000 H 
ATOM      6  C2  UNL A   1      12.844  21.436  41.725  1.00  0.00    +0.000 C 
ATOM      5  C1  UNL A   1      12.798  21.008  40.397  1.00  0.00    +0.000 C 
ATOM      7  C3  UNL A   1      13.112  22.780  42.004  1.00  0.00    +0.000 C 
ATOM      8  C4  UNL A   1      13.325  23.702  40.974  1.00  0.00    +0.000 C 
ATOM     93  C64 UNL A   1      13.293  23.250  39.647  1.00  0.00    +0.000 C 
ATOM     94  C65 UNL A   1      13.021  21.910  39.354  1.00  0.00    +0.000 C 
BRANCH    5    2
ATOM      2  S1  UNL A   1      12.449  19.312  40.038  1.00  0.00    +0.000 S 
ATOM      3  O1  UNL A   1      13.395  18.828  39.064  1.00  0.00    +0.000 O 
ATOM      4  O2  UNL A   1      11.020  19.163  39.882  1.00  0.00    +0.000 O 
BRANCH    2    1
ATOM      1  N1  UNL A   1      12.852  18.537  41.474  1.00  0.00    +0.000 N 
ATOM     95  H1  UNL A   1      13.360  17.677  41.266  1.00  0.00    +0.000 H 
ATOM     96  H2  UNL A   1      12.002  18.314  41.991  1.00  0.00    +0.000 H 
ENDBRANCH    2    1
ENDBRANCH    5    2
ENDBRANCH    9    8
ENDBRANCH   10    9
ENDBRANCH   11   10
BRANCH   14   15
ATOM    102  H8  UNL A   1      19.000  28.247  44.344  1.00  0.00    +0.000 H 
ATOM     15  O3  UNL A   1      18.105  28.450  44.532  1.00  0.00    +0.000 O 
ENDBRANCH   14   15
ENDBRANCH   17   16
ENDBRANCH   19   17
ENDBRANCH   20   19
ENDBRANCH   21   20
ENDBRANCH   22   21
ENDBRANCH   23   22
ENDBRANCH   24   23
ENDBRANCH   25   24
ENDBRANCH   26   25
ENDBRANCH   27   26
ENDBRANCH   29   27
ENDBRANCH   33   32
BRANCH   37   38
ATOM     38  C27 UNL A   1      25.380  39.916  49.527  1.00  0.00    +0.000 C 
ATOM     39  C28 UNL A   1      24.515  40.903  49.032  1.00  0.00    +0.000 C 
ATOM     40  F1  UNL A   1      24.580  41.273  47.743  1.00  0.00    +0.000 F 
ATOM     41  C29 UNL A   1      23.607  41.548  49.869  1.00  0.00    +0.000 C 
ATOM     42  F2  UNL A   1      22.831  42.527  49.384  1.00  0.00    +0.000 F 
ATOM     43  C30 UNL A   1      23.518  41.192  51.206  1.00  0.00    +0.000 C 
ATOM     44  F3  UNL A   1      22.642  41.810  52.009  1.00  0.00    +0.000 F 
ATOM     45  C31 UNL A   1      24.344  40.200  51.712  1.00  0.00    +0.000 C 
ATOM     46  F4  UNL A   1      24.251  39.844  53.000  1.00  0.00    +0.000 F 
ATOM     47  C32 UNL A   1      25.275  39.575  50.885  1.00  0.00    +0.000 C 
ATOM     48  F5  UNL A   1      26.073  38.633  51.410  1.00  0.00    +0.000 F 
ENDBRANCH   37   38
BRANCH   54   55
ATOM     65  F10 UNL A   1      30.865  42.513  45.630  1.00  0.00    +0.000 F 
ATOM     55  C38 UNL A   1      32.050  40.986  47.019  1.00  0.00    +0.000 C 
ATOM     56  C39 UNL A   1      33.212  40.728  47.761  1.00  0.00    +0.000 C 
ATOM     57  F6  UNL A   1      33.345  39.571  48.426  1.00  0.00    +0.000 F 
ATOM     58  C40 UNL A   1      34.230  41.674  47.848  1.00  0.00    +0.000 C 
ATOM     59  F7  UNL A   1      35.315  41.421  48.596  1.00  0.00    +0.000 F 
ATOM     60  C41 UNL A   1      34.121  42.879  47.172  1.00  0.00    +0.000 C 
ATOM     61  F8  UNL A   1      35.108  43.783  47.247  1.00  0.00    +0.000 F 
ATOM     62  C42 UNL A   1      32.987  43.150  46.422  1.00  0.00    +0.000 C 
ATOM     63  F9  UNL A   1      32.886  44.309  45.756  1.00  0.00    +0.000 F 
ATOM     64  C43 UNL A   1      31.954  42.219  46.357  1.00  0.00    +0.000 C 
ENDBRANCH   54   55
BRANCH   69   70
ATOM     70  C47 UNL A   1      31.466  35.186  43.190  1.00  0.00    +0.000 C 
ATOM     71  C48 UNL A   1      31.421  35.543  41.836  1.00  0.00    +0.000 C 
ATOM     72  F11 UNL A   1      30.548  36.471  41.417  1.00  0.00    +0.000 F 
ATOM     73  C49 UNL A   1      32.253  34.928  40.902  1.00  0.00    +0.000 C 
ATOM     74  F12 UNL A   1      32.167  35.265  39.608  1.00  0.00    +0.000 F 
ATOM     75  C50 UNL A   1      33.163  33.964  41.308  1.00  0.00    +0.000 C 
ATOM     76  F13 UNL A   1      33.972  33.383  40.412  1.00  0.00    +0.000 F 
ATOM     77  C51 UNL A   1      33.233  33.602  42.646  1.00  0.00    +0.000 C 
ATOM     78  F14 UNL A   1      34.124  32.685  43.046  1.00  0.00    +0.000 F 
ATOM     79  C52 UNL A   1      32.382  34.196  43.575  1.00  0.00    +0.000 C 
ATOM     80  F15 UNL A   1      32.469  33.826  44.862  1.00  0.00    +0.000 F 
ENDBRANCH   69   70
TORSDOF 21
ENDMDL
MODEL 9
REMARK VINA RESULT:     -10.3     27.207     32.846
ROOT
ATOM     33  C23 UNL A   1      45.820  13.820  50.220  1.00  0.00    +0.000 C 
ATOM     34  C24 UNL A   1      45.835  14.726  49.022  1.00  0.00    +0.000 C 
ATOM     35  N5  UNL A   1      46.855  15.163  48.328  1.00  0.00    +0.000 N 
ATOM     36  C25 UNL A   1      46.314  15.925  47.301  1.00  0.00    +0.000 C 
ATOM     37  C26 UNL A   1      46.961  16.634  46.345  1.00  0.00    +0.000 C 
ATOM     49  C33 UNL A   1      48.394  16.728  46.236  1.00  0.00    +0.000 C 
ATOM     50  C34 UNL A   1      49.144  17.493  45.360  1.00  0.00    +0.000 C 
ATOM     51  C35 UNL A   1      50.497  17.205  45.577  1.00  0.00    +0.000 C 
ATOM     52  C36 UNL A   1      50.592  16.301  46.622  1.00  0.00    +0.000 C 
ATOM     53  N6  UNL A   1      49.295  16.025  47.024  1.00  0.00    +0.000 N 
ATOM     54  C37 UNL A   1      51.776  15.726  47.208  1.00  0.00    +0.000 C 
ATOM     66  C44 UNL A   1      51.787  14.896  48.281  1.00  0.00    +0.000 C 
ATOM     67  N7  UNL A   1      50.715  14.410  49.017  1.00  0.00    +0.000 N 
ATOM     68  C45 UNL A   1      51.234  13.632  49.937  1.00  0.00    +0.000 C 
ATOM     69  C46 UNL A   1      50.539  12.849  51.016  1.00  0.00    +0.000 C 
ATOM     81  C53 UNL A   1      49.198  12.925  51.127  1.00  0.00    +0.000 C 
ATOM     82  C54 UNL A   1      48.393  12.217  52.116  1.00  0.00    +0.000 C 
ATOM     83  C55 UNL A   1      47.095  12.459  51.877  1.00  0.00    +0.000 C 
ATOM     84  C56 UNL A   1      46.979  13.377  50.744  1.00  0.00    +0.000 C 
ATOM     85  N8  UNL A   1      48.280  13.622  50.379  1.00  0.00    +0.000 N 
ATOM     86  C57 UNL A   1      52.699  13.527  49.878  1.00  0.00    +0.000 C 
ATOM     87  C58 UNL A   1      52.987  14.341  48.872  1.00  0.00    +0.000 C 
ATOM     88  C59 UNL A   1      44.875  15.850  47.433  1.00  0.00    +0.000 C 
ATOM     89  C60 UNL A   1      44.528  15.175  48.519  1.00  0.00    +0.000 C 
ATOM    119  H25 UNL A   1      48.772  18.160  44.668  1.00  0.00    +0.000 H 
ATOM    120  H26 UNL A   1      51.289  17.600  45.047  1.00  0.00    +0.000 H 
ATOM    121  H27 UNL A   1      49.047  15.419  47.760  1.00  0.00    +0.000 H 
ATOM    122  H28 UNL A   1      48.761  11.624  52.876  1.00  0.00    +0.000 H 
ATOM    123  H29 UNL A   1      46.304  12.061  52.408  1.00  0.00    +0.000 H 
ATOM    124  H30 UNL A   1      48.531  14.237  49.652  1.00  0.00    +0.000 H 
ATOM    125  H31 UNL A   1      53.335  12.965  50.465  1.00  0.00    +0.000 H 
ATOM    126  H32 UNL A   1      53.945  14.553  48.552  1.00  0.00    +0.000 H 
ATOM    127  H33 UNL A   1      44.205  16.268  46.769  1.00  0.00    +0.000 H 
ATOM    128  H34 UNL A   1      43.587  15.008  48.910  1.00  0.00    +0.000 H 
ENDROOT
BRANCH   33   32
ATOM    129  H35 UNL A   1      44.437  14.811  52.289  1.00  0.00    +0.000 H 
ATOM    130  H36 UNL A   1      42.336  14.041  53.221  1.00  0.00    +0.000 H 
ATOM    117  H23 UNL A   1      42.109  11.061  50.261  1.00  0.00    +0.000 H 
ATOM    118  H24 UNL A   1      44.312  11.692  49.462  1.00  0.00    +0.000 H 
ATOM     90  C61 UNL A   1      43.952  14.005  51.865  1.00  0.00    +0.000 C 
ATOM     91  C62 UNL A   1      42.724  13.591  52.377  1.00  0.00    +0.000 C 
ATOM     29  C19 UNL A   1      42.018  12.562  51.746  1.00  0.00    +0.000 C 
ATOM     30  C20 UNL A   1      42.606  11.857  50.692  1.00  0.00    +0.000 C 
ATOM     31  C21 UNL A   1      43.867  12.230  50.221  1.00  0.00    +0.000 C 
ATOM     32  C22 UNL A   1      44.532  13.335  50.779  1.00  0.00    +0.000 C 
BRANCH   29   27
ATOM     27  C18 UNL A   1      40.654  12.186  52.179  1.00  0.00    +0.000 C 
ATOM     28  O5  UNL A   1      39.713  12.934  51.934  1.00  0.00    +0.000 O 
BRANCH   27   26
ATOM     26  N4  UNL A   1      40.443  11.022  52.874  1.00  0.00    +0.000 N 
ATOM    116  H22 UNL A   1      39.520  10.676  52.840  1.00  0.00    +0.000 H 
BRANCH   26   25
ATOM     25  C17 UNL A   1      41.372  10.221  53.653  1.00  0.00    +0.000 C 
ATOM    114  H20 UNL A   1      42.239  10.811  53.861  1.00  0.00    +0.000 H 
ATOM    115  H21 UNL A   1      40.867   9.923  54.548  1.00  0.00    +0.000 H 
BRANCH   25   24
ATOM    113  H19 UNL A   1      42.771   9.173  52.513  1.00  0.00    +0.000 H 
ATOM    112  H18 UNL A   1      41.061   8.713  52.204  1.00  0.00    +0.000 H 
ATOM     24  C16 UNL A   1      41.810   8.951  52.930  1.00  0.00    +0.000 C 
BRANCH   24   23
ATOM    111  H17 UNL A   1      41.784   6.881  53.183  1.00  0.00    +0.000 H 
ATOM    110  H16 UNL A   1      41.391   7.818  54.669  1.00  0.00    +0.000 H 
ATOM     23  C15 UNL A   1      42.019   7.716  53.809  1.00  0.00    +0.000 C 
BRANCH   23   22
ATOM    108  H14 UNL A   1      43.739   8.303  54.893  1.00  0.00    +0.000 H 
ATOM    109  H15 UNL A   1      43.396   6.536  54.838  1.00  0.00    +0.000 H 
ATOM     22  C14 UNL A   1      43.445   7.460  54.302  1.00  0.00    +0.000 C 
BRANCH   22   21
ATOM    106  H12 UNL A   1      44.664   8.184  52.735  1.00  0.00    +0.000 H 
ATOM    107  H13 UNL A   1      45.367   6.878  53.759  1.00  0.00    +0.000 H 
ATOM     21  C13 UNL A   1      44.514   7.248  53.231  1.00  0.00    +0.000 C 
BRANCH   21   20
ATOM    105  H11 UNL A   1      43.258   5.792  52.395  1.00  0.00    +0.000 H 
ATOM     20  C12 UNL A   1      44.219   6.203  52.164  1.00  0.00    +0.000 C 
ATOM    104  H10 UNL A   1      45.002   5.473  52.186  1.00  0.00    +0.000 H 
BRANCH   20   19
ATOM     19  N3  UNL A   1      44.129   6.732  50.813  1.00  0.00    +0.000 N 
ATOM    103  H9  UNL A   1      43.237   7.064  50.561  1.00  0.00    +0.000 H 
BRANCH   19   17
ATOM     17  C11 UNL A   1      45.083   6.845  49.827  1.00  0.00    +0.000 C 
ATOM     18  O4  UNL A   1      45.175   5.954  48.979  1.00  0.00    +0.000 O 
BRANCH   17   16
ATOM    131  H37 UNL A   1      44.572   9.252  48.642  1.00  0.00    +0.000 H 
ATOM    100  H6  UNL A   1      48.433  10.890  48.936  1.00  0.00    +0.000 H 
ATOM    101  H7  UNL A   1      49.055   9.093  50.458  1.00  0.00    +0.000 H 
ATOM     11  C6  UNL A   1      46.480  10.154  48.610  1.00  0.00    +0.000 C 
ATOM     12  C7  UNL A   1      47.762  10.138  49.158  1.00  0.00    +0.000 C 
ATOM     13  C8  UNL A   1      48.126   9.093  50.009  1.00  0.00    +0.000 C 
ATOM     14  C9  UNL A   1      47.233   8.046  50.252  1.00  0.00    +0.000 C 
ATOM     16  C10 UNL A   1      45.953   8.042  49.676  1.00  0.00    +0.000 C 
ATOM     92  C63 UNL A   1      45.554   9.159  48.942  1.00  0.00    +0.000 C 
BRANCH   11   10
ATOM     10  C5  UNL A   1      46.137  11.124  47.549  1.00  0.00    +0.000 C 
ATOM     99  H5  UNL A   1      46.209  12.138  47.730  1.00  0.00    +0.000 H 
BRANCH   10    9
ATOM      9  N2  UNL A   1      45.747  10.699  46.389  1.00  0.00    +0.000 N 
BRANCH    9    8
ATOM     97  H3  UNL A   1      42.069  10.725  43.771  1.00  0.00    +0.000 H 
ATOM     98  H4  UNL A   1      43.730   9.633  45.163  1.00  0.00    +0.000 H 
ATOM    132  H38 UNL A   1      45.560  13.338  45.911  1.00  0.00    +0.000 H 
ATOM    133  H39 UNL A   1      43.893  14.444  44.535  1.00  0.00    +0.000 H 
ATOM      6  C2  UNL A   1      42.807  11.281  44.230  1.00  0.00    +0.000 C 
ATOM      5  C1  UNL A   1      42.860  12.664  44.051  1.00  0.00    +0.000 C 
ATOM      7  C3  UNL A   1      43.763  10.656  45.036  1.00  0.00    +0.000 C 
ATOM      8  C4  UNL A   1      44.764  11.397  45.674  1.00  0.00    +0.000 C 
ATOM     93  C64 UNL A   1      44.813  12.782  45.468  1.00  0.00    +0.000 C 
ATOM     94  C65 UNL A   1      43.860  13.421  44.668  1.00  0.00    +0.000 C 
BRANCH    5    2
ATOM      2  S1  UNL A   1      41.648  13.462  43.040  1.00  0.00    +0.000 S 
ATOM      3  O1  UNL A   1      42.312  14.290  42.065  1.00  0.00    +0.000 O 
ATOM      4  O2  UNL A   1      40.591  13.954  43.896  1.00  0.00    +0.000 O 
BRANCH    2    1
ATOM      1  N1  UNL A   1      40.993  12.183  42.166  1.00  0.00    +0.000 N 
ATOM     95  H1  UNL A   1      40.782  11.412  42.799  1.00  0.00    +0.000 H 
ATOM     96  H2  UNL A   1      41.664  11.873  41.464  1.00  0.00    +0.000 H 
ENDBRANCH    2    1
ENDBRANCH    5    2
ENDBRANCH    9    8
ENDBRANCH   10    9
ENDBRANCH   11   10
BRANCH   14   15
ATOM    102  H8  UNL A   1      47.161   6.278  51.205  1.00  0.00    +0.000 H 
ATOM     15  O3  UNL A   1      47.690   7.037  51.059  1.00  0.00    +0.000 O 
ENDBRANCH   14   15
ENDBRANCH   17   16
ENDBRANCH   19   17
ENDBRANCH   20   19
ENDBRANCH   21   20
ENDBRANCH   22   21
ENDBRANCH   23   22
ENDBRANCH   24   23
ENDBRANCH   25   24
ENDBRANCH   26   25
ENDBRANCH   27   26
ENDBRANCH   29   27
ENDBRANCH   33   32
BRANCH   37   38
ATOM     38  C27 UNL A   1      46.124  17.359  45.330  1.00  0.00    +0.000 C 
ATOM     39  C28 UNL A   1      45.623  18.647  45.566  1.00  0.00    +0.000 C 
ATOM     40  F1  UNL A   1      45.852  19.257  46.739  1.00  0.00    +0.000 F 
ATOM     41  C29 UNL A   1      44.844  19.300  44.612  1.00  0.00    +0.000 C 
ATOM     42  F2  UNL A   1      44.330  20.508  44.883  1.00  0.00    +0.000 F 
ATOM     43  C30 UNL A   1      44.585  18.695  43.392  1.00  0.00    +0.000 C 
ATOM     44  F3  UNL A   1      43.839  19.326  42.474  1.00  0.00    +0.000 F 
ATOM     45  C31 UNL A   1      45.093  17.433  43.126  1.00  0.00    +0.000 C 
ATOM     46  F4  UNL A   1      44.856  16.852  41.942  1.00  0.00    +0.000 F 
ATOM     47  C32 UNL A   1      45.845  16.765  44.089  1.00  0.00    +0.000 C 
ATOM     48  F5  UNL A   1      46.306  15.536  43.808  1.00  0.00    +0.000 F 
ENDBRANCH   37   38
BRANCH   54   55
ATOM     65  F10 UNL A   1      53.143  18.168  47.742  1.00  0.00    +0.000 F 
ATOM     55  C38 UNL A   1      53.101  16.080  46.599  1.00  0.00    +0.000 C 
ATOM     56  C39 UNL A   1      53.739  15.223  45.691  1.00  0.00    +0.000 C 
ATOM     57  F6  UNL A   1      53.200  14.029  45.398  1.00  0.00    +0.000 F 
ATOM     58  C40 UNL A   1      54.951  15.575  45.104  1.00  0.00    +0.000 C 
ATOM     59  F7  UNL A   1      55.563  14.721  44.270  1.00  0.00    +0.000 F 
ATOM     60  C41 UNL A   1      55.532  16.802  45.388  1.00  0.00    +0.000 C 
ATOM     61  F8  UNL A   1      56.693  17.144  44.812  1.00  0.00    +0.000 F 
ATOM     62  C42 UNL A   1      54.912  17.670  46.273  1.00  0.00    +0.000 C 
ATOM     63  F9  UNL A   1      55.465  18.862  46.538  1.00  0.00    +0.000 F 
ATOM     64  C43 UNL A   1      53.715  17.309  46.884  1.00  0.00    +0.000 C 
ENDBRANCH   54   55
BRANCH   69   70
ATOM     70  C47 UNL A   1      51.306  11.995  51.960  1.00  0.00    +0.000 C 
ATOM     71  C48 UNL A   1      51.660  10.683  51.620  1.00  0.00    +0.000 C 
ATOM     72  F11 UNL A   1      51.270  10.168  50.444  1.00  0.00    +0.000 F 
ATOM     73  C49 UNL A   1      52.391   9.885  52.498  1.00  0.00    +0.000 C 
ATOM     74  F12 UNL A   1      52.687   8.622  52.162  1.00  0.00    +0.000 F 
ATOM     75  C50 UNL A   1      52.803  10.392  53.720  1.00  0.00    +0.000 C 
ATOM     76  F13 UNL A   1      53.518   9.628  54.558  1.00  0.00    +0.000 F 
ATOM     77  C51 UNL A   1      52.474  11.692  54.074  1.00  0.00    +0.000 C 
ATOM     78  F14 UNL A   1      52.888  12.193  55.246  1.00  0.00    +0.000 F 
ATOM     79  C52 UNL A   1      51.720  12.481  53.209  1.00  0.00    +0.000 C 
ATOM     80  F15 UNL A   1      51.414  13.735  53.576  1.00  0.00    +0.000 F 
ENDBRANCH   69   70
TORSDOF 21
ENDMDL
MODEL 10
REMARK VINA RESULT:     -10.2     42.788     46.740
ROOT
ATOM     33  C23 UNL A   1      13.110  49.680   3.791  1.00  0.00    +0.000 C 
ATOM     34  C24 UNL A   1      13.085  51.134   4.168  1.00  0.00    +0.000 C 
ATOM     35  N5  UNL A   1      13.742  52.137   3.642  1.00  0.00    +0.000 N 
ATOM     36  C25 UNL A   1      13.318  53.267   4.328  1.00  0.00    +0.000 C 
ATOM     37  C26 UNL A   1      13.742  54.547   4.191  1.00  0.00    +0.000 C 
ATOM     49  C33 UNL A   1      14.766  54.966   3.269  1.00  0.00    +0.000 C 
ATOM     50  C34 UNL A   1      15.329  56.221   3.118  1.00  0.00    +0.000 C 
ATOM     51  C35 UNL A   1      16.231  56.170   2.049  1.00  0.00    +0.000 C 
ATOM     52  C36 UNL A   1      16.268  54.872   1.567  1.00  0.00    +0.000 C 
ATOM     53  N6  UNL A   1      15.371  54.142   2.331  1.00  0.00    +0.000 N 
ATOM     54  C37 UNL A   1      17.057  54.337   0.487  1.00  0.00    +0.000 C 
ATOM     66  C44 UNL A   1      17.086  53.031   0.120  1.00  0.00    +0.000 C 
ATOM     67  N7  UNL A   1      16.384  51.960   0.654  1.00  0.00    +0.000 N 
ATOM     68  C45 UNL A   1      16.737  50.912  -0.051  1.00  0.00    +0.000 C 
ATOM     69  C46 UNL A   1      16.292  49.482   0.093  1.00  0.00    +0.000 C 
ATOM     81  C53 UNL A   1      15.428  49.155   1.073  1.00  0.00    +0.000 C 
ATOM     82  C54 UNL A   1      14.906  47.816   1.325  1.00  0.00    +0.000 C 
ATOM     83  C55 UNL A   1      14.008  47.877   2.321  1.00  0.00    +0.000 C 
ATOM     84  C56 UNL A   1      13.925  49.254   2.808  1.00  0.00    +0.000 C 
ATOM     85  N8  UNL A   1      14.823  49.938   2.026  1.00  0.00    +0.000 N 
ATOM     86  C57 UNL A   1      17.696  51.205  -1.125  1.00  0.00    +0.000 C 
ATOM     87  C58 UNL A   1      17.900  52.504  -0.956  1.00  0.00    +0.000 C 
ATOM     88  C59 UNL A   1      12.310  52.834   5.272  1.00  0.00    +0.000 C 
ATOM     89  C60 UNL A   1      12.176  51.516   5.259  1.00  0.00    +0.000 C 
ATOM    119  H25 UNL A   1      15.121  57.051   3.695  1.00  0.00    +0.000 H 
ATOM    120  H26 UNL A   1      16.776  56.966   1.682  1.00  0.00    +0.000 H 
ATOM    121  H27 UNL A   1      15.191  53.179   2.226  1.00  0.00    +0.000 H 
ATOM    122  H28 UNL A   1      15.182  46.960   0.818  1.00  0.00    +0.000 H 
ATOM    123  H29 UNL A   1      13.463  47.079   2.685  1.00  0.00    +0.000 H 
ATOM    124  H30 UNL A   1      15.016  50.897   2.138  1.00  0.00    +0.000 H 
ATOM    125  H31 UNL A   1      18.102  50.566  -1.827  1.00  0.00    +0.000 H 
ATOM    126  H32 UNL A   1      18.556  53.067  -1.520  1.00  0.00    +0.000 H 
ATOM    127  H33 UNL A   1      11.768  53.469   5.879  1.00  0.00    +0.000 H 
ATOM    128  H34 UNL A   1      11.588  50.914   5.858  1.00  0.00    +0.000 H 
ENDROOT
BRANCH   33   32
ATOM    129  H35 UNL A   1      13.578  48.057   5.869  1.00  0.00    +0.000 H 
ATOM    130  H36 UNL A   1      12.074  46.484   6.938  1.00  0.00    +0.000 H 
ATOM    117  H23 UNL A   1       8.984  47.666   4.342  1.00  0.00    +0.000 H 
ATOM    118  H24 UNL A   1      10.544  49.080   3.134  1.00  0.00    +0.000 H 
ATOM     90  C61 UNL A   1      12.607  47.965   5.534  1.00  0.00    +0.000 C 
ATOM     91  C62 UNL A   1      11.733  47.091   6.176  1.00  0.00    +0.000 C 
ATOM     29  C19 UNL A   1      10.392  47.036   5.786  1.00  0.00    +0.000 C 
ATOM     30  C20 UNL A   1       9.961  47.749   4.664  1.00  0.00    +0.000 C 
ATOM     31  C21 UNL A   1      10.854  48.576   3.978  1.00  0.00    +0.000 C 
ATOM     32  C22 UNL A   1      12.175  48.721   4.434  1.00  0.00    +0.000 C 
BRANCH   29   27
ATOM     27  C18 UNL A   1       9.406  46.220   6.531  1.00  0.00    +0.000 C 
ATOM     28  O5  UNL A   1       8.407  45.801   5.953  1.00  0.00    +0.000 O 
BRANCH   27   26
ATOM     26  N4  UNL A   1       9.590  45.956   7.865  1.00  0.00    +0.000 N 
ATOM    116  H22 UNL A   1      10.121  45.149   8.062  1.00  0.00    +0.000 H 
BRANCH   26   25
ATOM     25  C17 UNL A   1       9.122  46.685   9.032  1.00  0.00    +0.000 C 
ATOM    114  H20 UNL A   1       8.124  46.371   9.252  1.00  0.00    +0.000 H 
ATOM    115  H21 UNL A   1       9.795  46.470   9.835  1.00  0.00    +0.000 H 
BRANCH   25   24
ATOM    113  H19 UNL A   1       8.389  48.580   9.505  1.00  0.00    +0.000 H 
ATOM    112  H18 UNL A   1       8.907  48.386   7.795  1.00  0.00    +0.000 H 
ATOM     24  C16 UNL A   1       9.122  48.196   8.826  1.00  0.00    +0.000 C 
BRANCH   24   23
ATOM    111  H17 UNL A   1      10.134  49.923   9.411  1.00  0.00    +0.000 H 
ATOM    110  H16 UNL A   1      11.079  48.836   8.331  1.00  0.00    +0.000 H 
ATOM     23  C15 UNL A   1      10.424  48.922   9.173  1.00  0.00    +0.000 C 
BRANCH   23   22
ATOM    108  H14 UNL A   1      11.053  49.140  11.182  1.00  0.00    +0.000 H 
ATOM    109  H15 UNL A   1      10.766  47.455  10.615  1.00  0.00    +0.000 H 
ATOM     22  C14 UNL A   1      11.182  48.417  10.403  1.00  0.00    +0.000 C 
BRANCH   22   21
ATOM    106  H12 UNL A   1      13.075  48.990   9.658  1.00  0.00    +0.000 H 
ATOM    107  H13 UNL A   1      13.066  48.107  11.230  1.00  0.00    +0.000 H 
ATOM     21  C13 UNL A   1      12.681  48.179  10.234  1.00  0.00    +0.000 C 
BRANCH   21   20
ATOM    105  H11 UNL A   1      12.255  46.551   8.983  1.00  0.00    +0.000 H 
ATOM     20  C12 UNL A   1      13.099  46.883   9.552  1.00  0.00    +0.000 C 
ATOM    104  H10 UNL A   1      13.392  46.185  10.308  1.00  0.00    +0.000 H 
BRANCH   20   19
ATOM     19  N3  UNL A   1      14.200  47.026   8.614  1.00  0.00    +0.000 N 
ATOM    103  H9  UNL A   1      14.084  46.538   7.767  1.00  0.00    +0.000 H 
BRANCH   19   17
ATOM     17  C11 UNL A   1      15.380  47.729   8.713  1.00  0.00    +0.000 C 
ATOM     18  O4  UNL A   1      16.301  47.260   9.385  1.00  0.00    +0.000 O 
BRANCH   17   16
ATOM    131  H37 UNL A   1      15.455  50.311   9.601  1.00  0.00    +0.000 H 
ATOM    100  H6  UNL A   1      15.834  52.211   5.870  1.00  0.00    +0.000 H 
ATOM    101  H7  UNL A   1      16.308  50.053   4.845  1.00  0.00    +0.000 H 
ATOM     11  C6  UNL A   1      15.526  51.406   7.799  1.00  0.00    +0.000 C 
ATOM     12  C7  UNL A   1      15.808  51.348   6.435  1.00  0.00    +0.000 C 
ATOM     13  C8  UNL A   1      16.052  50.107   5.843  1.00  0.00    +0.000 C 
ATOM     14  C9  UNL A   1      15.950  48.939   6.602  1.00  0.00    +0.000 C 
ATOM     16  C10 UNL A   1      15.634  48.991   7.969  1.00  0.00    +0.000 C 
ATOM     92  C63 UNL A   1      15.530  50.243   8.575  1.00  0.00    +0.000 C 
BRANCH   11   10
ATOM     10  C5  UNL A   1      15.058  52.670   8.407  1.00  0.00    +0.000 C 
ATOM     99  H5  UNL A   1      15.732  53.425   8.616  1.00  0.00    +0.000 H 
BRANCH   10    9
ATOM      9  N2  UNL A   1      13.802  52.829   8.678  1.00  0.00    +0.000 N 
BRANCH    9    8
ATOM     97  H3  UNL A   1      14.510  52.282  13.103  1.00  0.00    +0.000 H 
ATOM     98  H4  UNL A   1      15.206  52.869  10.853  1.00  0.00    +0.000 H 
ATOM    132  H38 UNL A   1      11.323  52.116   9.440  1.00  0.00    +0.000 H 
ATOM    133  H39 UNL A   1      10.611  51.544  11.689  1.00  0.00    +0.000 H 
ATOM      6  C2  UNL A   1      13.832  52.252  12.326  1.00  0.00    +0.000 C 
ATOM      5  C1  UNL A   1      12.510  51.869  12.560  1.00  0.00    +0.000 C 
ATOM      7  C3  UNL A   1      14.227  52.594  11.029  1.00  0.00    +0.000 C 
ATOM      8  C4  UNL A   1      13.317  52.569   9.966  1.00  0.00    +0.000 C 
ATOM     93  C64 UNL A   1      11.999  52.165  10.218  1.00  0.00    +0.000 C 
ATOM     94  C65 UNL A   1      11.588  51.825  11.511  1.00  0.00    +0.000 C 
BRANCH    5    2
ATOM      2  S1  UNL A   1      12.001  51.445  14.200  1.00  0.00    +0.000 S 
ATOM      3  O1  UNL A   1      11.028  50.383  14.136  1.00  0.00    +0.000 O 
ATOM      4  O2  UNL A   1      11.778  52.667  14.940  1.00  0.00    +0.000 O 
BRANCH    2    1
ATOM      1  N1  UNL A   1      13.384  50.743  14.849  1.00  0.00    +0.000 N 
ATOM     95  H1  UNL A   1      13.694  49.983  14.245  1.00  0.00    +0.000 H 
ATOM     96  H2  UNL A   1      13.175  50.377  15.777  1.00  0.00    +0.000 H 
ENDBRANCH    2    1
ENDBRANCH    5    2
ENDBRANCH    9    8
ENDBRANCH   10    9
ENDBRANCH   11   10
BRANCH   14   15
ATOM    102  H8  UNL A   1      15.985  47.712   5.011  1.00  0.00    +0.000 H 
ATOM     15  O3  UNL A   1      16.156  47.762   5.930  1.00  0.00    +0.000 O 
ENDBRANCH   14   15
ENDBRANCH   17   16
ENDBRANCH   19   17
ENDBRANCH   20   19
ENDBRANCH   21   20
ENDBRANCH   22   21
ENDBRANCH   23   22
ENDBRANCH   24   23
ENDBRANCH   25   24
ENDBRANCH   26   25
ENDBRANCH   27   26
ENDBRANCH   29   27
ENDBRANCH   33   32
BRANCH   37   38
ATOM     38  C27 UNL A   1      13.092  55.591   5.053  1.00  0.00    +0.000 C 
ATOM     39  C28 UNL A   1      13.640  55.984   6.282  1.00  0.00    +0.000 C 
ATOM     40  F1  UNL A   1      14.756  55.398   6.742  1.00  0.00    +0.000 F 
ATOM     41  C29 UNL A   1      13.018  56.952   7.068  1.00  0.00    +0.000 C 
ATOM     42  F2  UNL A   1      13.530  57.271   8.265  1.00  0.00    +0.000 F 
ATOM     43  C30 UNL A   1      11.861  57.573   6.623  1.00  0.00    +0.000 C 
ATOM     44  F3  UNL A   1      11.266  58.507   7.378  1.00  0.00    +0.000 F 
ATOM     45  C31 UNL A   1      11.316  57.220   5.398  1.00  0.00    +0.000 C 
ATOM     46  F4  UNL A   1      10.206  57.828   4.959  1.00  0.00    +0.000 F 
ATOM     47  C32 UNL A   1      11.918  56.230   4.624  1.00  0.00    +0.000 C 
ATOM     48  F5  UNL A   1      11.354  55.898   3.453  1.00  0.00    +0.000 F 
ENDBRANCH   37   38
BRANCH   54   55
ATOM     65  F10 UNL A   1      19.606  55.224   1.398  1.00  0.00    +0.000 F 
ATOM     55  C38 UNL A   1      17.924  55.288  -0.285  1.00  0.00    +0.000 C 
ATOM     56  C39 UNL A   1      17.505  55.827  -1.510  1.00  0.00    +0.000 C 
ATOM     57  F6  UNL A   1      16.336  55.447  -2.049  1.00  0.00    +0.000 F 
ATOM     58  C40 UNL A   1      18.300  56.736  -2.202  1.00  0.00    +0.000 C 
ATOM     59  F7  UNL A   1      17.897  57.207  -3.391  1.00  0.00    +0.000 F 
ATOM     60  C41 UNL A   1      19.513  57.147  -1.669  1.00  0.00    +0.000 C 
ATOM     61  F8  UNL A   1      20.271  58.032  -2.331  1.00  0.00    +0.000 F 
ATOM     62  C42 UNL A   1      19.941  56.637  -0.454  1.00  0.00    +0.000 C 
ATOM     63  F9  UNL A   1      21.106  57.043   0.070  1.00  0.00    +0.000 F 
ATOM     64  C43 UNL A   1      19.162  55.705   0.227  1.00  0.00    +0.000 C 
ENDBRANCH   54   55
BRANCH   69   70
ATOM     70  C47 UNL A   1      16.790  48.428  -0.829  1.00  0.00    +0.000 C 
ATOM     71  C48 UNL A   1      18.009  47.779  -0.592  1.00  0.00    +0.000 C 
ATOM     72  F11 UNL A   1      18.764  48.136   0.458  1.00  0.00    +0.000 F 
ATOM     73  C49 UNL A   1      18.471  46.781  -1.447  1.00  0.00    +0.000 C 
ATOM     74  F12 UNL A   1      19.656  46.201  -1.216  1.00  0.00    +0.000 F 
ATOM     75  C50 UNL A   1      17.712  46.395  -2.541  1.00  0.00    +0.000 C 
ATOM     76  F13 UNL A   1      18.151  45.426  -3.355  1.00  0.00    +0.000 F 
ATOM     77  C51 UNL A   1      16.497  47.016  -2.790  1.00  0.00    +0.000 C 
ATOM     78  F14 UNL A   1      15.750  46.631  -3.834  1.00  0.00    +0.000 F 
ATOM     79  C52 UNL A   1      16.047  48.032  -1.951  1.00  0.00    +0.000 C 
ATOM     80  F15 UNL A   1      14.868  48.617  -2.216  1.00  0.00    +0.000 F 
ENDBRANCH   69   70
TORSDOF 21
ENDMDL
