MODEL 1
REMARK VINA RESULT:     -11.1      0.000      0.000
ROOT
ATOM    129  H39 UNL A   1      55.288  19.968  12.822  1.00  0.00    +0.000 H 
ATOM    130  H40 UNL A   1      59.974  18.150  12.701  1.00  0.00    +0.000 H 
ATOM    131  H41 UNL A   1      60.172  18.848  15.157  1.00  0.00    +0.000 H 
ATOM    132  H42 UNL A   1      50.883  22.676  14.922  1.00  0.00    +0.000 H 
ATOM    133  H43 UNL A   1      50.531  21.669  12.594  1.00  0.00    +0.000 H 
ATOM     31  C26 UNL A   1      52.859  20.430  11.517  1.00  0.00    +0.000 C 
ATOM     32  C27 UNL A   1      52.686  21.025  12.885  1.00  0.00    +0.000 C 
ATOM     33  N3  UNL A   1      53.547  21.102  13.868  1.00  0.00    +0.000 N 
ATOM     34  C28 UNL A   1      52.889  21.769  14.893  1.00  0.00    +0.000 C 
ATOM     35  C29 UNL A   1      53.333  22.042  16.142  1.00  0.00    +0.000 C 
ATOM     47  C36 UNL A   1      54.631  21.672  16.641  1.00  0.00    +0.000 C 
ATOM     48  C37 UNL A   1      55.159  21.872  17.904  1.00  0.00    +0.000 C 
ATOM     49  C38 UNL A   1      56.464  21.370  17.918  1.00  0.00    +0.000 C 
ATOM     50  C39 UNL A   1      56.735  20.823  16.674  1.00  0.00    +0.000 C 
ATOM     51  N4  UNL A   1      55.604  21.020  15.900  1.00  0.00    +0.000 N 
ATOM     52  C40 UNL A   1      57.939  20.171  16.226  1.00  0.00    +0.000 C 
ATOM     64  C47 UNL A   1      58.125  19.642  14.992  1.00  0.00    +0.000 C 
ATOM     65  N5  UNL A   1      57.245  19.601  13.920  1.00  0.00    +0.000 N 
ATOM     66  C48 UNL A   1      57.887  18.999  12.949  1.00  0.00    +0.000 C 
ATOM     67  C49 UNL A   1      57.410  18.665  11.563  1.00  0.00    +0.000 C 
ATOM     79  C56 UNL A   1      56.163  19.012  11.192  1.00  0.00    +0.000 C 
ATOM     80  C57 UNL A   1      55.562  18.751   9.887  1.00  0.00    +0.000 C 
ATOM     81  C58 UNL A   1      54.319  19.258   9.868  1.00  0.00    +0.000 C 
ATOM     82  C59 UNL A   1      54.024  19.849  11.173  1.00  0.00    +0.000 C 
ATOM     83  N6  UNL A   1      55.178  19.663  11.893  1.00  0.00    +0.000 N 
ATOM     84  C60 UNL A   1      59.262  18.606  13.291  1.00  0.00    +0.000 C 
ATOM     85  C61 UNL A   1      59.344  18.992  14.558  1.00  0.00    +0.000 C 
ATOM     86  C62 UNL A   1      51.576  22.120  14.397  1.00  0.00    +0.000 C 
ATOM     87  C63 UNL A   1      51.380  21.633  13.181  1.00  0.00    +0.000 C 
ATOM    124  H34 UNL A   1      54.673  22.315  18.700  1.00  0.00    +0.000 H 
ATOM    125  H35 UNL A   1      57.115  21.403  18.718  1.00  0.00    +0.000 H 
ATOM    126  H36 UNL A   1      55.506  20.738  14.960  1.00  0.00    +0.000 H 
ATOM    127  H37 UNL A   1      56.020  18.258   9.105  1.00  0.00    +0.000 H 
ATOM    128  H38 UNL A   1      53.674  19.234   9.062  1.00  0.00    +0.000 H 
ENDROOT
BRANCH   31   30
ATOM    134  H44 UNL A   1      52.345  22.424   9.805  1.00  0.00    +0.000 H 
ATOM    135  H45 UNL A   1      50.499  22.644   8.249  1.00  0.00    +0.000 H 
ATOM    123  H33 UNL A   1      50.872  18.662  11.003  1.00  0.00    +0.000 H 
ATOM     88  C64 UNL A   1      51.652  21.664   9.716  1.00  0.00    +0.000 C 
ATOM     89  C65 UNL A   1      50.614  21.777   8.795  1.00  0.00    +0.000 C 
ATOM    122  H32 UNL A   1      49.134  18.808   9.314  1.00  0.00    +0.000 H 
ATOM     27  C22 UNL A   1      49.727  20.711   8.611  1.00  0.00    +0.000 C 
ATOM     28  C23 UNL A   1      49.813  19.577   9.425  1.00  0.00    +0.000 C 
ATOM     29  C24 UNL A   1      50.820  19.489  10.388  1.00  0.00    +0.000 C 
ATOM     30  C25 UNL A   1      51.761  20.522  10.523  1.00  0.00    +0.000 C 
BRANCH   27   25
ATOM     25  C21 UNL A   1      48.669  20.768   7.581  1.00  0.00    +0.000 C 
ATOM     26  O3  UNL A   1      48.184  21.852   7.266  1.00  0.00    +0.000 O 
BRANCH   25   24
ATOM    121  H31 UNL A   1      47.974  18.890   7.606  1.00  0.00    +0.000 H 
ATOM     24  N2  UNL A   1      48.224  19.615   6.987  1.00  0.00    +0.000 N 
BRANCH   24   23
ATOM    119  H29 UNL A   1      48.440  20.135   5.002  1.00  0.00    +0.000 H 
ATOM     23  C20 UNL A   1      48.069  19.310   5.575  1.00  0.00    +0.000 C 
ATOM    120  H30 UNL A   1      48.618  18.416   5.370  1.00  0.00    +0.000 H 
BRANCH   23   22
ATOM    118  H28 UNL A   1      46.517  19.359   4.170  1.00  0.00    +0.000 H 
ATOM    117  H27 UNL A   1      45.995  19.630   5.859  1.00  0.00    +0.000 H 
ATOM     22  C19 UNL A   1      46.613  19.063   5.194  1.00  0.00    +0.000 C 
BRANCH   22   21
ATOM    115  H25 UNL A   1      47.014  16.986   5.043  1.00  0.00    +0.000 H 
ATOM    116  H26 UNL A   1      45.772  17.458   6.246  1.00  0.00    +0.000 H 
ATOM     21  C18 UNL A   1      46.166  17.600   5.261  1.00  0.00    +0.000 C 
BRANCH   21   20
ATOM    113  H23 UNL A   1      45.314  16.287   3.826  1.00  0.00    +0.000 H 
ATOM    114  H24 UNL A   1      44.153  17.138   4.892  1.00  0.00    +0.000 H 
ATOM     20  C17 UNL A   1      45.040  17.208   4.297  1.00  0.00    +0.000 C 
BRANCH   20   19
ATOM     19  C16 UNL A   1      44.734  18.229   3.198  1.00  0.00    +0.000 C 
ATOM    111  H21 UNL A   1      45.331  19.099   3.373  1.00  0.00    +0.000 H 
ATOM    112  H22 UNL A   1      44.957  17.753   2.266  1.00  0.00    +0.000 H 
BRANCH   19   18
ATOM     18  C15 UNL A   1      43.270  18.659   3.131  1.00  0.00    +0.000 C 
ATOM    109  H19 UNL A   1      42.656  17.854   3.476  1.00  0.00    +0.000 H 
ATOM    110  H20 UNL A   1      43.148  19.525   3.749  1.00  0.00    +0.000 H 
BRANCH   18   17
ATOM     17  N1  UNL A   1      42.876  19.007   1.779  1.00  0.00    +0.000 N 
ATOM    108  H18 UNL A   1      42.881  18.250   1.150  1.00  0.00    +0.000 H 
BRANCH   17   15
ATOM     15  C14 UNL A   1      42.495  20.197   1.219  1.00  0.00    +0.000 C 
ATOM     16  O2  UNL A   1      43.342  21.096   1.236  1.00  0.00    +0.000 O 
BRANCH   15   13
ATOM      2  C2  UNL A   1      36.538  21.056   2.128  1.00  0.00    +0.000 C 
ATOM      3  C3  UNL A   1      37.881  20.690   2.398  1.00  0.00    +0.000 C 
ATOM      5  C5  UNL A   1      38.875  20.947   1.435  1.00  0.00    +0.000 C 
ATOM      6  C6  UNL A   1      38.564  21.609   0.233  1.00  0.00    +0.000 C 
ATOM      7  C7  UNL A   1      37.225  21.934  -0.062  1.00  0.00    +0.000 C 
ATOM    101  H11 UNL A   1      39.560  22.952  -1.058  1.00  0.00    +0.000 H 
ATOM      9  C9  UNL A   1      36.233  21.647   0.889  1.00  0.00    +0.000 C 
ATOM    102  H12 UNL A   1      39.555  21.275  -1.593  1.00  0.00    +0.000 H 
ATOM     11  C10 UNL A   1      39.655  21.930  -0.753  1.00  0.00    +0.000 C 
ATOM     12  C11 UNL A   1      41.026  21.723  -0.144  1.00  0.00    +0.000 C 
ATOM     13  C12 UNL A   1      41.072  20.400   0.623  1.00  0.00    +0.000 C 
ATOM    103  H13 UNL A   1      41.238  22.529   0.528  1.00  0.00    +0.000 H 
ATOM    104  H14 UNL A   1      41.754  21.697  -0.927  1.00  0.00    +0.000 H 
ATOM     90  O4  UNL A   1      40.149  20.520   1.732  1.00  0.00    +0.000 O 
BRANCH    2    1
ATOM      1  C1  UNL A   1      35.485  20.815   3.181  1.00  0.00    +0.000 C 
ATOM     91  H1  UNL A   1      35.676  21.443   4.026  1.00  0.00    +0.000 H 
ATOM     92  H2  UNL A   1      35.510  19.790   3.484  1.00  0.00    +0.000 H 
ATOM     93  H3  UNL A   1      34.520  21.044   2.778  1.00  0.00    +0.000 H 
ENDBRANCH    2    1
BRANCH    3    4
ATOM      4  C4  UNL A   1      38.239  20.012   3.699  1.00  0.00    +0.000 C 
ATOM     94  H4  UNL A   1      38.868  20.657   4.276  1.00  0.00    +0.000 H 
ATOM     95  H5  UNL A   1      38.759  19.099   3.495  1.00  0.00    +0.000 H 
ATOM     96  H6  UNL A   1      37.347  19.799   4.250  1.00  0.00    +0.000 H 
ENDBRANCH    3    4
BRANCH    7    8
ATOM     97  H7  UNL A   1      36.443  21.846  -2.032  1.00  0.00    +0.000 H 
ATOM     98  H8  UNL A   1      37.760  22.976  -1.830  1.00  0.00    +0.000 H 
ATOM     99  H9  UNL A   1      36.172  23.368  -1.216  1.00  0.00    +0.000 H 
ATOM      8  C8  UNL A   1      36.874  22.577  -1.381  1.00  0.00    +0.000 C 
ENDBRANCH    7    8
BRANCH    9   10
ATOM     10  O1  UNL A   1      34.946  21.974   0.554  1.00  0.00    +0.000 O 
ATOM    100  H10 UNL A   1      34.478  21.454  -0.069  1.00  0.00    +0.000 H 
ENDBRANCH    9   10
BRANCH   13   14
ATOM    105  H15 UNL A   1      39.626  19.092  -0.281  1.00  0.00    +0.000 H 
ATOM    106  H16 UNL A   1      40.995  18.261   0.418  1.00  0.00    +0.000 H 
ATOM    107  H17 UNL A   1      41.171  19.114  -1.097  1.00  0.00    +0.000 H 
ATOM     14  C13 UNL A   1      40.686  19.119  -0.143  1.00  0.00    +0.000 C 
ENDBRANCH   13   14
ENDBRANCH   15   13
ENDBRANCH   17   15
ENDBRANCH   18   17
ENDBRANCH   19   18
ENDBRANCH   20   19
ENDBRANCH   21   20
ENDBRANCH   22   21
ENDBRANCH   23   22
ENDBRANCH   24   23
ENDBRANCH   25   24
ENDBRANCH   27   25
ENDBRANCH   31   30
BRANCH   35   36
ATOM     36  C30 UNL A   1      52.402  22.768  17.066  1.00  0.00    +0.000 C 
ATOM     37  C31 UNL A   1      51.610  22.075  17.995  1.00  0.00    +0.000 C 
ATOM     38  F1  UNL A   1      51.632  20.735  18.033  1.00  0.00    +0.000 F 
ATOM     39  C32 UNL A   1      50.769  22.759  18.870  1.00  0.00    +0.000 C 
ATOM     40  F2  UNL A   1      49.995  22.075  19.723  1.00  0.00    +0.000 F 
ATOM     41  C33 UNL A   1      50.725  24.145  18.852  1.00  0.00    +0.000 C 
ATOM     42  F3  UNL A   1      49.923  24.801  19.700  1.00  0.00    +0.000 F 
ATOM     43  C34 UNL A   1      51.509  24.850  17.951  1.00  0.00    +0.000 C 
ATOM     44  F4  UNL A   1      51.476  26.189  17.940  1.00  0.00    +0.000 F 
ATOM     45  C35 UNL A   1      52.333  24.168  17.057  1.00  0.00    +0.000 C 
ATOM     46  F5  UNL A   1      53.071  24.877  16.191  1.00  0.00    +0.000 F 
ENDBRANCH   35   36
BRANCH   52   53
ATOM     53  C41 UNL A   1      59.069  20.058  17.204  1.00  0.00    +0.000 C 
ATOM     54  C42 UNL A   1      59.876  21.162  17.517  1.00  0.00    +0.000 C 
ATOM     55  F6  UNL A   1      59.700  22.328  16.880  1.00  0.00    +0.000 F 
ATOM     56  C43 UNL A   1      60.884  21.060  18.472  1.00  0.00    +0.000 C 
ATOM     57  F7  UNL A   1      61.664  22.119  18.734  1.00  0.00    +0.000 F 
ATOM     58  C44 UNL A   1      61.086  19.866  19.148  1.00  0.00    +0.000 C 
ATOM     59  F8  UNL A   1      62.049  19.775  20.076  1.00  0.00    +0.000 F 
ATOM     60  C45 UNL A   1      60.295  18.764  18.858  1.00  0.00    +0.000 C 
ATOM     61  F9  UNL A   1      60.481  17.614  19.519  1.00  0.00    +0.000 F 
ATOM     62  C46 UNL A   1      59.302  18.856  17.887  1.00  0.00    +0.000 C 
ATOM     63  F10 UNL A   1      58.552  17.775  17.627  1.00  0.00    +0.000 F 
ENDBRANCH   52   53
BRANCH   67   68
ATOM     68  C50 UNL A   1      58.280  17.928  10.613  1.00  0.00    +0.000 C 
ATOM     69  C51 UNL A   1      59.134  18.618   9.742  1.00  0.00    +0.000 C 
ATOM     70  F11 UNL A   1      59.136  19.960   9.733  1.00  0.00    +0.000 F 
ATOM     71  C52 UNL A   1      59.966  17.936   8.859  1.00  0.00    +0.000 C 
ATOM     72  F12 UNL A   1      60.751  18.621   8.017  1.00  0.00    +0.000 F 
ATOM     73  C53 UNL A   1      59.978  16.549   8.845  1.00  0.00    +0.000 C 
ATOM     74  F13 UNL A   1      60.787  15.892   8.002  1.00  0.00    +0.000 F 
ATOM     75  C54 UNL A   1      59.147  15.844   9.703  1.00  0.00    +0.000 C 
ATOM     76  F14 UNL A   1      59.165  14.503   9.700  1.00  0.00    +0.000 F 
ATOM     77  C55 UNL A   1      58.297  16.526  10.571  1.00  0.00    +0.000 C 
ATOM     78  F15 UNL A   1      57.502  15.819  11.388  1.00  0.00    +0.000 F 
ENDBRANCH   67   68
TORSDOF 20
ENDMDL
MODEL 2
REMARK VINA RESULT:     -10.8     27.395     33.371
ROOT
ATOM    129  H39 UNL A   1      48.925  51.671  19.343  1.00  0.00    +0.000 H 
ATOM    130  H40 UNL A   1      52.788  51.007  22.493  1.00  0.00    +0.000 H 
ATOM    131  H41 UNL A   1      53.610  53.322  21.769  1.00  0.00    +0.000 H 
ATOM    132  H42 UNL A   1      45.935  54.150  15.336  1.00  0.00    +0.000 H 
ATOM    133  H43 UNL A   1      44.901  52.016  16.301  1.00  0.00    +0.000 H 
ATOM     31  C26 UNL A   1      46.542  50.719  18.235  1.00  0.00    +0.000 C 
ATOM     32  C27 UNL A   1      46.794  52.032  17.550  1.00  0.00    +0.000 C 
ATOM     33  N3  UNL A   1      47.800  52.857  17.688  1.00  0.00    +0.000 N 
ATOM     34  C28 UNL A   1      47.555  53.900  16.805  1.00  0.00    +0.000 C 
ATOM     35  C29 UNL A   1      48.273  55.033  16.619  1.00  0.00    +0.000 C 
ATOM     47  C36 UNL A   1      49.475  55.359  17.338  1.00  0.00    +0.000 C 
ATOM     48  C37 UNL A   1      50.254  56.499  17.246  1.00  0.00    +0.000 C 
ATOM     49  C38 UNL A   1      51.340  56.360  18.116  1.00  0.00    +0.000 C 
ATOM     50  C39 UNL A   1      51.216  55.150  18.779  1.00  0.00    +0.000 C 
ATOM     51  N4  UNL A   1      50.072  54.544  18.288  1.00  0.00    +0.000 N 
ATOM     52  C40 UNL A   1      52.081  54.587  19.784  1.00  0.00    +0.000 C 
ATOM     64  C47 UNL A   1      51.885  53.398  20.404  1.00  0.00    +0.000 C 
ATOM     65  N5  UNL A   1      50.855  52.485  20.230  1.00  0.00    +0.000 N 
ATOM     66  C48 UNL A   1      51.113  51.490  21.043  1.00  0.00    +0.000 C 
ATOM     67  C49 UNL A   1      50.322  50.235  21.284  1.00  0.00    +0.000 C 
ATOM     79  C56 UNL A   1      49.183  50.029  20.597  1.00  0.00    +0.000 C 
ATOM     80  C57 UNL A   1      48.312  48.865  20.727  1.00  0.00    +0.000 C 
ATOM     81  C58 UNL A   1      47.284  48.988  19.871  1.00  0.00    +0.000 C 
ATOM     82  C59 UNL A   1      47.409  50.258  19.156  1.00  0.00    +0.000 C 
ATOM     83  N6  UNL A   1      48.569  50.805  19.646  1.00  0.00    +0.000 N 
ATOM     84  C60 UNL A   1      52.354  51.652  21.816  1.00  0.00    +0.000 C 
ATOM     85  C61 UNL A   1      52.767  52.846  21.411  1.00  0.00    +0.000 C 
ATOM     86  C62 UNL A   1      46.333  53.581  16.099  1.00  0.00    +0.000 C 
ATOM     87  C63 UNL A   1      45.792  52.465  16.563  1.00  0.00    +0.000 C 
ATOM    124  H34 UNL A   1      50.065  57.312  16.639  1.00  0.00    +0.000 H 
ATOM    125  H35 UNL A   1      52.103  57.042  18.242  1.00  0.00    +0.000 H 
ATOM    126  H36 UNL A   1      49.731  53.664  18.572  1.00  0.00    +0.000 H 
ATOM    127  H37 UNL A   1      48.461  48.074  21.373  1.00  0.00    +0.000 H 
ATOM    128  H38 UNL A   1      46.529  48.298  19.738  1.00  0.00    +0.000 H 
ENDROOT
BRANCH   31   30
ATOM    134  H44 UNL A   1      44.053  50.881  19.211  1.00  0.00    +0.000 H 
ATOM    135  H45 UNL A   1      42.134  49.490  18.701  1.00  0.00    +0.000 H 
ATOM    123  H33 UNL A   1      46.361  48.691  16.448  1.00  0.00    +0.000 H 
ATOM     88  C64 UNL A   1      44.132  50.134  18.503  1.00  0.00    +0.000 C 
ATOM     89  C65 UNL A   1      43.018  49.361  18.184  1.00  0.00    +0.000 C 
ATOM    122  H32 UNL A   1      44.390  47.426  15.809  1.00  0.00    +0.000 H 
ATOM     27  C22 UNL A   1      43.100  48.410  17.163  1.00  0.00    +0.000 C 
ATOM     28  C23 UNL A   1      44.323  48.156  16.536  1.00  0.00    +0.000 C 
ATOM     29  C24 UNL A   1      45.453  48.892  16.896  1.00  0.00    +0.000 C 
ATOM     30  C25 UNL A   1      45.360  49.903  17.865  1.00  0.00    +0.000 C 
BRANCH   27   25
ATOM     25  C21 UNL A   1      41.912  47.635  16.745  1.00  0.00    +0.000 C 
ATOM     26  O3  UNL A   1      40.792  48.125  16.867  1.00  0.00    +0.000 O 
BRANCH   25   24
ATOM    121  H31 UNL A   1      42.085  46.315  15.250  1.00  0.00    +0.000 H 
ATOM     24  N2  UNL A   1      42.061  46.371  16.233  1.00  0.00    +0.000 N 
BRANCH   24   23
ATOM    119  H29 UNL A   1      42.718  44.417  16.309  1.00  0.00    +0.000 H 
ATOM     23  C20 UNL A   1      42.187  45.105  16.934  1.00  0.00    +0.000 C 
ATOM    120  H30 UNL A   1      42.712  45.287  17.847  1.00  0.00    +0.000 H 
BRANCH   23   22
ATOM    118  H28 UNL A   1      40.797  43.543  16.813  1.00  0.00    +0.000 H 
ATOM    117  H27 UNL A   1      40.070  45.172  16.941  1.00  0.00    +0.000 H 
ATOM     22  C19 UNL A   1      40.830  44.503  17.286  1.00  0.00    +0.000 C 
BRANCH   22   21
ATOM    115  H25 UNL A   1      40.661  45.194  19.284  1.00  0.00    +0.000 H 
ATOM    116  H26 UNL A   1      39.643  43.783  18.855  1.00  0.00    +0.000 H 
ATOM     21  C18 UNL A   1      40.601  44.253  18.779  1.00  0.00    +0.000 C 
BRANCH   21   20
ATOM    113  H23 UNL A   1      41.303  42.294  19.205  1.00  0.00    +0.000 H 
ATOM    114  H24 UNL A   1      42.561  43.563  19.076  1.00  0.00    +0.000 H 
ATOM     20  C17 UNL A   1      41.594  43.295  19.449  1.00  0.00    +0.000 C 
BRANCH   20   19
ATOM     19  C16 UNL A   1      41.682  43.404  20.973  1.00  0.00    +0.000 C 
ATOM    111  H21 UNL A   1      42.013  44.391  21.220  1.00  0.00    +0.000 H 
ATOM    112  H22 UNL A   1      40.706  43.186  21.353  1.00  0.00    +0.000 H 
BRANCH   19   18
ATOM     18  C15 UNL A   1      42.637  42.403  21.619  1.00  0.00    +0.000 C 
ATOM    109  H19 UNL A   1      42.311  42.208  22.620  1.00  0.00    +0.000 H 
ATOM    110  H20 UNL A   1      42.629  41.507  21.033  1.00  0.00    +0.000 H 
BRANCH   18   17
ATOM     17  N1  UNL A   1      43.997  42.907  21.656  1.00  0.00    +0.000 N 
ATOM    108  H18 UNL A   1      44.683  42.232  21.448  1.00  0.00    +0.000 H 
BRANCH   17   15
ATOM     15  C14 UNL A   1      44.501  44.151  21.926  1.00  0.00    +0.000 C 
ATOM     16  O2  UNL A   1      44.201  44.628  23.025  1.00  0.00    +0.000 O 
BRANCH   15   13
ATOM      2  C2  UNL A   1      49.964  45.122  19.422  1.00  0.00    +0.000 C 
ATOM      3  C3  UNL A   1      48.995  44.705  20.370  1.00  0.00    +0.000 C 
ATOM      5  C5  UNL A   1      47.627  44.811  20.053  1.00  0.00    +0.000 C 
ATOM      6  C6  UNL A   1      47.210  45.273  18.792  1.00  0.00    +0.000 C 
ATOM      7  C7  UNL A   1      48.165  45.732  17.862  1.00  0.00    +0.000 C 
ATOM    101  H11 UNL A   1      45.595  44.872  17.490  1.00  0.00    +0.000 H 
ATOM      9  C9  UNL A   1      49.526  45.653  18.195  1.00  0.00    +0.000 C 
ATOM    102  H12 UNL A   1      45.428  46.338  18.451  1.00  0.00    +0.000 H 
ATOM     11  C10 UNL A   1      45.744  45.316  18.453  1.00  0.00    +0.000 C 
ATOM     12  C11 UNL A   1      44.921  44.562  19.476  1.00  0.00    +0.000 C 
ATOM     13  C12 UNL A   1      45.376  44.919  20.892  1.00  0.00    +0.000 C 
ATOM    103  H13 UNL A   1      45.043  43.510  19.321  1.00  0.00    +0.000 H 
ATOM    104  H14 UNL A   1      43.892  44.832  19.362  1.00  0.00    +0.000 H 
ATOM     90  O4  UNL A   1      46.735  44.442  21.035  1.00  0.00    +0.000 O 
BRANCH    2    1
ATOM      1  C1  UNL A   1      51.428  44.968  19.751  1.00  0.00    +0.000 C 
ATOM     91  H1  UNL A   1      51.723  45.737  20.433  1.00  0.00    +0.000 H 
ATOM     92  H2  UNL A   1      52.005  45.045  18.854  1.00  0.00    +0.000 H 
ATOM     93  H3  UNL A   1      51.593  44.011  20.200  1.00  0.00    +0.000 H 
ENDBRANCH    2    1
BRANCH    3    4
ATOM      4  C4  UNL A   1      49.426  44.172  21.716  1.00  0.00    +0.000 C 
ATOM     94  H4  UNL A   1      49.252  44.915  22.466  1.00  0.00    +0.000 H 
ATOM     95  H5  UNL A   1      50.468  43.932  21.688  1.00  0.00    +0.000 H 
ATOM     96  H6  UNL A   1      48.863  43.292  21.949  1.00  0.00    +0.000 H 
ENDBRANCH    3    4
BRANCH    7    8
ATOM     97  H7  UNL A   1      46.922  46.991  16.693  1.00  0.00    +0.000 H 
ATOM     98  H8  UNL A   1      47.383  45.501  15.905  1.00  0.00    +0.000 H 
ATOM     99  H9  UNL A   1      48.542  46.798  16.068  1.00  0.00    +0.000 H 
ATOM      8  C8  UNL A   1      47.721  46.297  16.536  1.00  0.00    +0.000 C 
ENDBRANCH    7    8
BRANCH    9   10
ATOM     10  O1  UNL A   1      50.415  46.117  17.264  1.00  0.00    +0.000 O 
ATOM    100  H10 UNL A   1      50.113  46.644  16.549  1.00  0.00    +0.000 H 
ENDBRANCH    9   10
BRANCH   13   14
ATOM    105  H15 UNL A   1      44.930  46.528  22.247  1.00  0.00    +0.000 H 
ATOM    106  H16 UNL A   1      44.827  46.971  20.559  1.00  0.00    +0.000 H 
ATOM    107  H17 UNL A   1      46.390  46.768  21.315  1.00  0.00    +0.000 H 
ATOM     14  C13 UNL A   1      45.382  46.410  21.283  1.00  0.00    +0.000 C 
ENDBRANCH   13   14
ENDBRANCH   15   13
ENDBRANCH   17   15
ENDBRANCH   18   17
ENDBRANCH   19   18
ENDBRANCH   20   19
ENDBRANCH   21   20
ENDBRANCH   22   21
ENDBRANCH   23   22
ENDBRANCH   24   23
ENDBRANCH   25   24
ENDBRANCH   27   25
ENDBRANCH   31   30
BRANCH   35   36
ATOM     36  C30 UNL A   1      47.770  56.013  15.602  1.00  0.00    +0.000 C 
ATOM     37  C31 UNL A   1      47.122  57.197  15.989  1.00  0.00    +0.000 C 
ATOM     38  F1  UNL A   1      46.890  57.445  17.286  1.00  0.00    +0.000 F 
ATOM     39  C32 UNL A   1      46.684  58.116  15.039  1.00  0.00    +0.000 C 
ATOM     40  F2  UNL A   1      46.035  59.221  15.430  1.00  0.00    +0.000 F 
ATOM     41  C33 UNL A   1      46.910  57.885  13.691  1.00  0.00    +0.000 C 
ATOM     42  F3  UNL A   1      46.496  58.775  12.779  1.00  0.00    +0.000 F 
ATOM     43  C34 UNL A   1      47.560  56.728  13.287  1.00  0.00    +0.000 C 
ATOM     44  F4  UNL A   1      47.789  56.508  11.985  1.00  0.00    +0.000 F 
ATOM     45  C35 UNL A   1      47.978  55.794  14.233  1.00  0.00    +0.000 C 
ATOM     46  F5  UNL A   1      48.594  54.680  13.811  1.00  0.00    +0.000 F 
ENDBRANCH   35   36
BRANCH   52   53
ATOM     53  C41 UNL A   1      53.285  55.385  20.185  1.00  0.00    +0.000 C 
ATOM     54  C42 UNL A   1      54.524  55.202  19.555  1.00  0.00    +0.000 C 
ATOM     55  F6  UNL A   1      54.675  54.244  18.629  1.00  0.00    +0.000 F 
ATOM     56  C43 UNL A   1      55.621  55.991  19.894  1.00  0.00    +0.000 C 
ATOM     57  F7  UNL A   1      56.804  55.779  19.301  1.00  0.00    +0.000 F 
ATOM     58  C44 UNL A   1      55.492  56.991  20.847  1.00  0.00    +0.000 C 
ATOM     59  F8  UNL A   1      56.545  57.757  21.161  1.00  0.00    +0.000 F 
ATOM     60  C45 UNL A   1      54.273  57.193  21.477  1.00  0.00    +0.000 C 
ATOM     61  F9  UNL A   1      54.144  58.166  22.388  1.00  0.00    +0.000 F 
ATOM     62  C46 UNL A   1      53.181  56.390  21.158  1.00  0.00    +0.000 C 
ATOM     63  F10 UNL A   1      52.015  56.608  21.783  1.00  0.00    +0.000 F 
ENDBRANCH   52   53
BRANCH   67   68
ATOM     68  C50 UNL A   1      50.760  49.239  22.295  1.00  0.00    +0.000 C 
ATOM     69  C51 UNL A   1      50.334  49.338  23.627  1.00  0.00    +0.000 C 
ATOM     70  F11 UNL A   1      49.558  50.364  24.005  1.00  0.00    +0.000 F 
ATOM     71  C52 UNL A   1      50.726  48.401  24.579  1.00  0.00    +0.000 C 
ATOM     72  F12 UNL A   1      50.327  48.534  25.850  1.00  0.00    +0.000 F 
ATOM     73  C53 UNL A   1      51.532  47.333  24.214  1.00  0.00    +0.000 C 
ATOM     74  F13 UNL A   1      51.901  46.425  25.128  1.00  0.00    +0.000 F 
ATOM     75  C54 UNL A   1      51.961  47.211  22.900  1.00  0.00    +0.000 C 
ATOM     76  F14 UNL A   1      52.731  46.174  22.541  1.00  0.00    +0.000 F 
ATOM     77  C55 UNL A   1      51.588  48.161  21.952  1.00  0.00    +0.000 C 
ATOM     78  F15 UNL A   1      52.019  48.020  20.690  1.00  0.00    +0.000 F 
ENDBRANCH   67   68
TORSDOF 20
ENDMDL
MODEL 3
REMARK VINA RESULT:     -10.7     27.528     33.474
ROOT
ATOM    129  H39 UNL A   1      48.950  51.808  19.236  1.00  0.00    +0.000 H 
ATOM    130  H40 UNL A   1      52.800  51.206  22.414  1.00  0.00    +0.000 H 
ATOM    131  H41 UNL A   1      53.632  53.500  21.640  1.00  0.00    +0.000 H 
ATOM    132  H42 UNL A   1      45.981  54.204  15.163  1.00  0.00    +0.000 H 
ATOM    133  H43 UNL A   1      44.937  52.095  16.173  1.00  0.00    +0.000 H 
ATOM     31  C26 UNL A   1      46.567  50.838  18.141  1.00  0.00    +0.000 C 
ATOM     32  C27 UNL A   1      46.826  52.134  17.428  1.00  0.00    +0.000 C 
ATOM     33  N3  UNL A   1      47.834  52.960  17.551  1.00  0.00    +0.000 N 
ATOM     34  C28 UNL A   1      47.595  53.983  16.643  1.00  0.00    +0.000 C 
ATOM     35  C29 UNL A   1      48.317  55.109  16.434  1.00  0.00    +0.000 C 
ATOM     47  C36 UNL A   1      49.518  55.448  17.149  1.00  0.00    +0.000 C 
ATOM     48  C37 UNL A   1      50.300  56.584  17.034  1.00  0.00    +0.000 C 
ATOM     49  C38 UNL A   1      51.382  56.461  17.911  1.00  0.00    +0.000 C 
ATOM     50  C39 UNL A   1      51.253  55.267  18.601  1.00  0.00    +0.000 C 
ATOM     51  N4  UNL A   1      50.108  54.653  18.120  1.00  0.00    +0.000 N 
ATOM     52  C40 UNL A   1      52.113  54.725  19.622  1.00  0.00    +0.000 C 
ATOM     64  C47 UNL A   1      51.911  53.551  20.268  1.00  0.00    +0.000 C 
ATOM     65  N5  UNL A   1      50.879  52.637  20.111  1.00  0.00    +0.000 N 
ATOM     66  C48 UNL A   1      51.131  51.660  20.947  1.00  0.00    +0.000 C 
ATOM     67  C49 UNL A   1      50.336  50.413  21.214  1.00  0.00    +0.000 C 
ATOM     79  C56 UNL A   1      49.199  50.194  20.527  1.00  0.00    +0.000 C 
ATOM     80  C57 UNL A   1      48.324  49.036  20.681  1.00  0.00    +0.000 C 
ATOM     81  C58 UNL A   1      47.300  49.143  19.819  1.00  0.00    +0.000 C 
ATOM     82  C59 UNL A   1      47.430  50.396  19.076  1.00  0.00    +0.000 C 
ATOM     83  N6  UNL A   1      48.590  50.951  19.557  1.00  0.00    +0.000 N 
ATOM     84  C60 UNL A   1      52.370  51.836  21.720  1.00  0.00    +0.000 C 
ATOM     85  C61 UNL A   1      52.788  53.020  21.290  1.00  0.00    +0.000 C 
ATOM     86  C62 UNL A   1      46.374  53.652  15.941  1.00  0.00    +0.000 C 
ATOM     87  C63 UNL A   1      45.829  52.547  16.428  1.00  0.00    +0.000 C 
ATOM    124  H34 UNL A   1      50.116  57.384  16.408  1.00  0.00    +0.000 H 
ATOM    125  H35 UNL A   1      52.147  57.144  18.024  1.00  0.00    +0.000 H 
ATOM    126  H36 UNL A   1      49.764  53.781  18.423  1.00  0.00    +0.000 H 
ATOM    127  H37 UNL A   1      48.469  48.259  21.345  1.00  0.00    +0.000 H 
ATOM    128  H38 UNL A   1      46.542  48.452  19.699  1.00  0.00    +0.000 H 
ENDROOT
BRANCH   31   30
ATOM    134  H44 UNL A   1      44.080  51.020  19.116  1.00  0.00    +0.000 H 
ATOM    135  H45 UNL A   1      42.159  49.622  18.630  1.00  0.00    +0.000 H 
ATOM    123  H33 UNL A   1      46.384  48.781  16.390  1.00  0.00    +0.000 H 
ATOM     88  C64 UNL A   1      44.157  50.261  18.421  1.00  0.00    +0.000 C 
ATOM     89  C65 UNL A   1      43.042  49.484  18.116  1.00  0.00    +0.000 C 
ATOM    122  H32 UNL A   1      44.411  47.507  15.773  1.00  0.00    +0.000 H 
ATOM     27  C22 UNL A   1      43.122  48.515  17.111  1.00  0.00    +0.000 C 
ATOM     28  C23 UNL A   1      44.345  48.249  16.488  1.00  0.00    +0.000 C 
ATOM     29  C24 UNL A   1      45.476  48.990  16.834  1.00  0.00    +0.000 C 
ATOM     30  C25 UNL A   1      45.384  50.018  17.786  1.00  0.00    +0.000 C 
BRANCH   27   25
ATOM     25  C21 UNL A   1      41.934  47.735  16.707  1.00  0.00    +0.000 C 
ATOM     26  O3  UNL A   1      40.814  48.225  16.829  1.00  0.00    +0.000 O 
BRANCH   25   24
ATOM    121  H31 UNL A   1      42.107  46.399  15.225  1.00  0.00    +0.000 H 
ATOM     24  N2  UNL A   1      42.081  46.466  16.207  1.00  0.00    +0.000 N 
BRANCH   24   23
ATOM    119  H29 UNL A   1      42.761  44.521  16.316  1.00  0.00    +0.000 H 
ATOM     23  C20 UNL A   1      42.204  45.206  16.921  1.00  0.00    +0.000 C 
ATOM    120  H30 UNL A   1      42.701  45.401  17.847  1.00  0.00    +0.000 H 
BRANCH   23   22
ATOM    118  H28 UNL A   1      40.797  43.674  16.687  1.00  0.00    +0.000 H 
ATOM    117  H27 UNL A   1      40.089  45.292  16.964  1.00  0.00    +0.000 H 
ATOM     22  C19 UNL A   1      40.846  44.589  17.240  1.00  0.00    +0.000 C 
BRANCH   22   21
ATOM    115  H25 UNL A   1      40.541  45.118  19.271  1.00  0.00    +0.000 H 
ATOM    116  H26 UNL A   1      39.760  43.598  18.732  1.00  0.00    +0.000 H 
ATOM     21  C18 UNL A   1      40.635  44.213  18.709  1.00  0.00    +0.000 C 
BRANCH   21   20
ATOM    113  H23 UNL A   1      41.594  42.354  19.075  1.00  0.00    +0.000 H 
ATOM    114  H24 UNL A   1      42.672  43.780  18.972  1.00  0.00    +0.000 H 
ATOM     20  C17 UNL A   1      41.753  43.377  19.344  1.00  0.00    +0.000 C 
BRANCH   20   19
ATOM     19  C16 UNL A   1      41.843  43.457  20.870  1.00  0.00    +0.000 C 
ATOM    111  H21 UNL A   1      42.142  44.448  21.138  1.00  0.00    +0.000 H 
ATOM    112  H22 UNL A   1      40.875  43.199  21.249  1.00  0.00    +0.000 H 
BRANCH   19   18
ATOM     18  C15 UNL A   1      42.832  42.474  21.493  1.00  0.00    +0.000 C 
ATOM    109  H19 UNL A   1      42.499  42.222  22.478  1.00  0.00    +0.000 H 
ATOM    110  H20 UNL A   1      42.875  41.604  20.869  1.00  0.00    +0.000 H 
BRANCH   18   17
ATOM     17  N1  UNL A   1      44.167  43.037  21.576  1.00  0.00    +0.000 N 
ATOM    108  H18 UNL A   1      44.889  42.384  21.431  1.00  0.00    +0.000 H 
BRANCH   17   15
ATOM     15  C14 UNL A   1      44.604  44.312  21.817  1.00  0.00    +0.000 C 
ATOM     16  O2  UNL A   1      44.242  44.813  22.886  1.00  0.00    +0.000 O 
BRANCH   15   13
ATOM      2  C2  UNL A   1      50.094  45.358  19.404  1.00  0.00    +0.000 C 
ATOM      3  C3  UNL A   1      49.116  44.937  20.340  1.00  0.00    +0.000 C 
ATOM      5  C5  UNL A   1      47.753  45.008  19.994  1.00  0.00    +0.000 C 
ATOM      6  C6  UNL A   1      47.350  45.439  18.718  1.00  0.00    +0.000 C 
ATOM      7  C7  UNL A   1      48.314  45.903  17.799  1.00  0.00    +0.000 C 
ATOM    101  H11 UNL A   1      45.771  44.981  17.392  1.00  0.00    +0.000 H 
ATOM      9  C9  UNL A   1      49.669  45.859  18.160  1.00  0.00    +0.000 C 
ATOM    102  H12 UNL A   1      45.553  46.459  18.323  1.00  0.00    +0.000 H 
ATOM     11  C10 UNL A   1      45.891  45.444  18.349  1.00  0.00    +0.000 C 
ATOM     12  C11 UNL A   1      45.064  44.690  19.369  1.00  0.00    +0.000 C 
ATOM     13  C12 UNL A   1      45.483  45.081  20.787  1.00  0.00    +0.000 C 
ATOM    103  H13 UNL A   1      45.212  43.638  19.234  1.00  0.00    +0.000 H 
ATOM    104  H14 UNL A   1      44.032  44.936  19.230  1.00  0.00    +0.000 H 
ATOM     90  O4  UNL A   1      46.849  44.636  20.965  1.00  0.00    +0.000 O 
BRANCH    2    1
ATOM      1  C1  UNL A   1      51.554  45.242  19.764  1.00  0.00    +0.000 C 
ATOM     91  H1  UNL A   1      51.819  46.029  20.438  1.00  0.00    +0.000 H 
ATOM     92  H2  UNL A   1      52.147  45.316  18.877  1.00  0.00    +0.000 H 
ATOM     93  H3  UNL A   1      51.731  44.296  20.233  1.00  0.00    +0.000 H 
ENDBRANCH    2    1
BRANCH    3    4
ATOM      4  C4  UNL A   1      49.531  44.436  21.703  1.00  0.00    +0.000 C 
ATOM     94  H4  UNL A   1      50.473  44.866  21.969  1.00  0.00    +0.000 H 
ATOM     95  H5  UNL A   1      49.620  43.370  21.680  1.00  0.00    +0.000 H 
ATOM     96  H6  UNL A   1      48.794  44.716  22.427  1.00  0.00    +0.000 H 
ENDBRANCH    3    4
BRANCH    7    8
ATOM     97  H7  UNL A   1      48.186  45.754  15.687  1.00  0.00    +0.000 H 
ATOM     98  H8  UNL A   1      48.341  47.388  16.286  1.00  0.00    +0.000 H 
ATOM     99  H9  UNL A   1      46.820  46.543  16.437  1.00  0.00    +0.000 H 
ATOM      8  C8  UNL A   1      47.884  46.435  16.455  1.00  0.00    +0.000 C 
ENDBRANCH    7    8
BRANCH    9   10
ATOM     10  O1  UNL A   1      50.567  46.327  17.238  1.00  0.00    +0.000 O 
ATOM    100  H10 UNL A   1      50.804  47.234  17.233  1.00  0.00    +0.000 H 
ENDBRANCH    9   10
BRANCH   13   14
ATOM    105  H15 UNL A   1      44.432  46.904  21.230  1.00  0.00    +0.000 H 
ATOM    106  H16 UNL A   1      45.947  47.143  20.391  1.00  0.00    +0.000 H 
ATOM    107  H17 UNL A   1      45.945  46.729  22.089  1.00  0.00    +0.000 H 
ATOM     14  C13 UNL A   1      45.449  46.578  21.152  1.00  0.00    +0.000 C 
ENDBRANCH   13   14
ENDBRANCH   15   13
ENDBRANCH   17   15
ENDBRANCH   18   17
ENDBRANCH   19   18
ENDBRANCH   20   19
ENDBRANCH   21   20
ENDBRANCH   22   21
ENDBRANCH   23   22
ENDBRANCH   24   23
ENDBRANCH   25   24
ENDBRANCH   27   25
ENDBRANCH   31   30
BRANCH   35   36
ATOM     36  C30 UNL A   1      47.820  56.067  15.394  1.00  0.00    +0.000 C 
ATOM     37  C31 UNL A   1      48.034  55.834  14.026  1.00  0.00    +0.000 C 
ATOM     38  F1  UNL A   1      48.744  54.769  13.627  1.00  0.00    +0.000 F 
ATOM     39  C32 UNL A   1      47.543  56.714  13.065  1.00  0.00    +0.000 C 
ATOM     40  F2  UNL A   1      47.793  56.490  11.767  1.00  0.00    +0.000 F 
ATOM     41  C33 UNL A   1      46.806  57.824  13.448  1.00  0.00    +0.000 C 
ATOM     42  F3  UNL A   1      46.327  58.664  12.521  1.00  0.00    +0.000 F 
ATOM     43  C34 UNL A   1      46.571  58.066  14.793  1.00  0.00    +0.000 C 
ATOM     44  F4  UNL A   1      45.850  59.133  15.165  1.00  0.00    +0.000 F 
ATOM     45  C35 UNL A   1      47.082  57.203  15.760  1.00  0.00    +0.000 C 
ATOM     46  F5  UNL A   1      46.847  57.469  17.053  1.00  0.00    +0.000 F 
ENDBRANCH   35   36
BRANCH   52   53
ATOM     53  C41 UNL A   1      53.318  55.528  20.008  1.00  0.00    +0.000 C 
ATOM     54  C42 UNL A   1      54.563  55.314  19.400  1.00  0.00    +0.000 C 
ATOM     55  F6  UNL A   1      54.718  54.322  18.511  1.00  0.00    +0.000 F 
ATOM     56  C43 UNL A   1      55.661  56.107  19.724  1.00  0.00    +0.000 C 
ATOM     57  F7  UNL A   1      56.850  55.866  19.153  1.00  0.00    +0.000 F 
ATOM     58  C44 UNL A   1      55.528  57.141  20.639  1.00  0.00    +0.000 C 
ATOM     59  F8  UNL A   1      56.583  57.911  20.938  1.00  0.00    +0.000 F 
ATOM     60  C45 UNL A   1      54.303  57.374  21.247  1.00  0.00    +0.000 C 
ATOM     61  F9  UNL A   1      54.171  58.380  22.121  1.00  0.00    +0.000 F 
ATOM     62  C46 UNL A   1      53.210  56.568  20.943  1.00  0.00    +0.000 C 
ATOM     63  F10 UNL A   1      52.038  56.816  21.546  1.00  0.00    +0.000 F 
ENDBRANCH   52   53
BRANCH   67   68
ATOM     68  C50 UNL A   1      50.768  49.439  22.249  1.00  0.00    +0.000 C 
ATOM     69  C51 UNL A   1      51.621  48.377  21.919  1.00  0.00    +0.000 C 
ATOM     70  F11 UNL A   1      52.020  48.211  20.650  1.00  0.00    +0.000 F 
ATOM     71  C52 UNL A   1      52.044  47.468  22.885  1.00  0.00    +0.000 C 
ATOM     72  F12 UNL A   1      52.837  46.446  22.538  1.00  0.00    +0.000 F 
ATOM     73  C53 UNL A   1      51.641  47.616  24.204  1.00  0.00    +0.000 C 
ATOM     74  F13 UNL A   1      52.057  46.747  25.135  1.00  0.00    +0.000 F 
ATOM     75  C54 UNL A   1      50.803  48.663  24.555  1.00  0.00    +0.000 C 
ATOM     76  F14 UNL A   1      50.421  48.816  25.831  1.00  0.00    +0.000 F 
ATOM     77  C55 UNL A   1      50.360  49.560  23.585  1.00  0.00    +0.000 C 
ATOM     78  F15 UNL A   1      49.547  50.562  23.952  1.00  0.00    +0.000 F 
ENDBRANCH   67   68
TORSDOF 20
ENDMDL
MODEL 4
REMARK VINA RESULT:     -10.6     30.395     35.838
ROOT
ATOM    129  H39 UNL A   1      18.521  19.593   5.746  1.00  0.00    +0.000 H 
ATOM    130  H40 UNL A   1      19.814  15.164   7.745  1.00  0.00    +0.000 H 
ATOM    131  H41 UNL A   1      17.543  15.179   8.927  1.00  0.00    +0.000 H 
ATOM    132  H42 UNL A   1      15.447  24.191   5.007  1.00  0.00    +0.000 H 
ATOM    133  H43 UNL A   1      17.537  24.034   3.537  1.00  0.00    +0.000 H 
ATOM     31  C26 UNL A   1      19.140  21.739   4.065  1.00  0.00    +0.000 C 
ATOM     32  C27 UNL A   1      17.809  22.086   4.667  1.00  0.00    +0.000 C 
ATOM     33  N3  UNL A   1      17.101  21.425   5.547  1.00  0.00    +0.000 N 
ATOM     34  C28 UNL A   1      15.972  22.198   5.781  1.00  0.00    +0.000 C 
ATOM     35  C29 UNL A   1      14.905  21.917   6.565  1.00  0.00    +0.000 C 
ATOM     47  C36 UNL A   1      14.759  20.710   7.333  1.00  0.00    +0.000 C 
ATOM     48  C37 UNL A   1      13.698  20.318   8.130  1.00  0.00    +0.000 C 
ATOM     49  C38 UNL A   1      14.013  19.081   8.702  1.00  0.00    +0.000 C 
ATOM     50  C39 UNL A   1      15.254  18.684   8.229  1.00  0.00    +0.000 C 
ATOM     51  N4  UNL A   1      15.702  19.695   7.396  1.00  0.00    +0.000 N 
ATOM     52  C40 UNL A   1      15.977  17.474   8.520  1.00  0.00    +0.000 C 
ATOM     64  C47 UNL A   1      17.187  17.145   8.004  1.00  0.00    +0.000 C 
ATOM     65  N5  UNL A   1      17.977  17.860   7.114  1.00  0.00    +0.000 N 
ATOM     66  C48 UNL A   1      19.053  17.137   6.926  1.00  0.00    +0.000 C 
ATOM     67  C49 UNL A   1      20.239  17.415   6.046  1.00  0.00    +0.000 C 
ATOM     79  C56 UNL A   1      20.276  18.553   5.327  1.00  0.00    +0.000 C 
ATOM     80  C57 UNL A   1      21.354  18.955   4.429  1.00  0.00    +0.000 C 
ATOM     81  C58 UNL A   1      21.061  20.156   3.902  1.00  0.00    +0.000 C 
ATOM     82  C59 UNL A   1      19.757  20.591   4.402  1.00  0.00    +0.000 C 
ATOM     83  N6  UNL A   1      19.368  19.581   5.246  1.00  0.00    +0.000 N 
ATOM     84  C60 UNL A   1      19.077  15.884   7.696  1.00  0.00    +0.000 C 
ATOM     85  C61 UNL A   1      17.902  15.924   8.310  1.00  0.00    +0.000 C 
ATOM     86  C62 UNL A   1      16.111  23.402   4.989  1.00  0.00    +0.000 C 
ATOM     87  C63 UNL A   1      17.202  23.356   4.239  1.00  0.00    +0.000 C 
ATOM    124  H34 UNL A   1      12.824  20.847   8.278  1.00  0.00    +0.000 H 
ATOM    125  H35 UNL A   1      13.422  18.553   9.363  1.00  0.00    +0.000 H 
ATOM    126  H36 UNL A   1      16.564  19.694   6.918  1.00  0.00    +0.000 H 
ATOM    127  H37 UNL A   1      22.205  18.406   4.230  1.00  0.00    +0.000 H 
ATOM    128  H38 UNL A   1      21.660  20.686   3.250  1.00  0.00    +0.000 H 
ENDROOT
BRANCH   31   30
ATOM    134  H44 UNL A   1      18.821  21.937   1.414  1.00  0.00    +0.000 H 
ATOM    135  H45 UNL A   1      19.970  23.398  -0.144  1.00  0.00    +0.000 H 
ATOM    123  H33 UNL A   1      20.981  23.654   4.599  1.00  0.00    +0.000 H 
ATOM     88  C64 UNL A   1      19.509  22.624   1.762  1.00  0.00    +0.000 C 
ATOM     89  C65 UNL A   1      20.140  23.487   0.870  1.00  0.00    +0.000 C 
ATOM    122  H32 UNL A   1      21.989  25.237   3.059  1.00  0.00    +0.000 H 
ATOM     27  C22 UNL A   1      21.004  24.476   1.351  1.00  0.00    +0.000 C 
ATOM     28  C23 UNL A   1      21.321  24.531   2.711  1.00  0.00    +0.000 C 
ATOM     29  C24 UNL A   1      20.732  23.628   3.597  1.00  0.00    +0.000 C 
ATOM     30  C25 UNL A   1      19.803  22.684   3.133  1.00  0.00    +0.000 C 
BRANCH   27   25
ATOM     25  C21 UNL A   1      21.620  25.460   0.437  1.00  0.00    +0.000 C 
ATOM     26  O3  UNL A   1      22.617  26.083   0.795  1.00  0.00    +0.000 O 
BRANCH   25   24
ATOM    121  H31 UNL A   1      20.408  25.022  -1.095  1.00  0.00    +0.000 H 
ATOM     24  N2  UNL A   1      21.076  25.683  -0.803  1.00  0.00    +0.000 N 
BRANCH   24   23
ATOM    119  H29 UNL A   1      20.497  26.874  -2.384  1.00  0.00    +0.000 H 
ATOM     23  C20 UNL A   1      21.346  26.756  -1.744  1.00  0.00    +0.000 C 
ATOM    120  H30 UNL A   1      21.537  27.646  -1.182  1.00  0.00    +0.000 H 
BRANCH   23   22
ATOM    118  H28 UNL A   1      22.212  26.015  -3.501  1.00  0.00    +0.000 H 
ATOM    117  H27 UNL A   1      23.235  25.847  -2.044  1.00  0.00    +0.000 H 
ATOM     22  C19 UNL A   1      22.574  26.474  -2.604  1.00  0.00    +0.000 C 
BRANCH   22   21
ATOM    115  H25 UNL A   1      24.396  27.471  -3.036  1.00  0.00    +0.000 H 
ATOM    116  H26 UNL A   1      22.979  27.971  -4.013  1.00  0.00    +0.000 H 
ATOM     21  C18 UNL A   1      23.355  27.716  -3.044  1.00  0.00    +0.000 C 
BRANCH   21   20
ATOM    113  H23 UNL A   1      23.390  29.821  -2.769  1.00  0.00    +0.000 H 
ATOM    114  H24 UNL A   1      22.140  28.934  -1.843  1.00  0.00    +0.000 H 
ATOM     20  C17 UNL A   1      23.157  28.963  -2.174  1.00  0.00    +0.000 C 
BRANCH   20   19
ATOM     19  C16 UNL A   1      24.014  29.019  -0.907  1.00  0.00    +0.000 C 
ATOM    111  H21 UNL A   1      24.202  28.017  -0.584  1.00  0.00    +0.000 H 
ATOM    112  H22 UNL A   1      24.908  29.548  -1.164  1.00  0.00    +0.000 H 
BRANCH   19   18
ATOM     18  C15 UNL A   1      23.373  29.782   0.250  1.00  0.00    +0.000 C 
ATOM    109  H19 UNL A   1      23.487  29.212   1.149  1.00  0.00    +0.000 H 
ATOM    110  H20 UNL A   1      23.860  30.732   0.336  1.00  0.00    +0.000 H 
BRANCH   18   17
ATOM     17  N1  UNL A   1      21.960  30.019   0.018  1.00  0.00    +0.000 N 
ATOM    108  H18 UNL A   1      21.754  30.389  -0.870  1.00  0.00    +0.000 H 
BRANCH   17   15
ATOM     15  C14 UNL A   1      20.861  29.818   0.809  1.00  0.00    +0.000 C 
ATOM     16  O2  UNL A   1      20.958  28.919   1.650  1.00  0.00    +0.000 O 
BRANCH   15   13
ATOM      2  C2  UNL A   1      15.253  30.336  -1.501  1.00  0.00    +0.000 C 
ATOM      3  C3  UNL A   1      16.580  29.865  -1.334  1.00  0.00    +0.000 C 
ATOM      5  C5  UNL A   1      17.354  30.345  -0.261  1.00  0.00    +0.000 C 
ATOM      6  C6  UNL A   1      16.815  31.243   0.677  1.00  0.00    +0.000 C 
ATOM      7  C7  UNL A   1      15.513  31.751   0.492  1.00  0.00    +0.000 C 
ATOM    101  H11 UNL A   1      17.057  31.601   2.744  1.00  0.00    +0.000 H 
ATOM      9  C9  UNL A   1      14.756  31.292  -0.597  1.00  0.00    +0.000 C 
ATOM    102  H12 UNL A   1      17.931  32.708   1.692  1.00  0.00    +0.000 H 
ATOM     11  C10 UNL A   1      17.641  31.691   1.852  1.00  0.00    +0.000 C 
ATOM     12  C11 UNL A   1      18.894  30.853   1.996  1.00  0.00    +0.000 C 
ATOM     13  C12 UNL A   1      19.564  30.662   0.634  1.00  0.00    +0.000 C 
ATOM    103  H13 UNL A   1      18.633  29.896   2.398  1.00  0.00    +0.000 H 
ATOM    104  H14 UNL A   1      19.574  31.354   2.652  1.00  0.00    +0.000 H 
ATOM     90  O4  UNL A   1      18.652  29.891  -0.185  1.00  0.00    +0.000 O 
BRANCH    2    1
ATOM      1  C1  UNL A   1      14.413  29.788  -2.628  1.00  0.00    +0.000 C 
ATOM     91  H1  UNL A   1      13.672  30.508  -2.904  1.00  0.00    +0.000 H 
ATOM     92  H2  UNL A   1      13.934  28.886  -2.310  1.00  0.00    +0.000 H 
ATOM     93  H3  UNL A   1      15.040  29.581  -3.470  1.00  0.00    +0.000 H 
ENDBRANCH    2    1
BRANCH    3    4
ATOM      4  C4  UNL A   1      17.164  28.872  -2.311  1.00  0.00    +0.000 C 
ATOM     94  H4  UNL A   1      17.391  27.960  -1.800  1.00  0.00    +0.000 H 
ATOM     95  H5  UNL A   1      18.060  29.274  -2.736  1.00  0.00    +0.000 H 
ATOM     96  H6  UNL A   1      16.456  28.677  -3.090  1.00  0.00    +0.000 H 
ENDBRANCH    3    4
BRANCH    7    8
ATOM     97  H7  UNL A   1      15.750  33.370   1.841  1.00  0.00    +0.000 H 
ATOM     98  H8  UNL A   1      14.461  32.267   2.260  1.00  0.00    +0.000 H 
ATOM     99  H9  UNL A   1      14.252  33.395   0.943  1.00  0.00    +0.000 H 
ATOM      8  C8  UNL A   1      14.954  32.770   1.454  1.00  0.00    +0.000 C 
ENDBRANCH    7    8
BRANCH    9   10
ATOM     10  O1  UNL A   1      13.500  31.820  -0.739  1.00  0.00    +0.000 O 
ATOM    100  H10 UNL A   1      13.395  32.728  -0.951  1.00  0.00    +0.000 H 
ENDBRANCH    9   10
BRANCH   13   14
ATOM    105  H15 UNL A   1      20.242  31.652  -1.150  1.00  0.00    +0.000 H 
ATOM    106  H16 UNL A   1      20.713  32.454   0.329  1.00  0.00    +0.000 H 
ATOM    107  H17 UNL A   1      19.063  32.563  -0.237  1.00  0.00    +0.000 H 
ATOM     14  C13 UNL A   1      19.922  31.929  -0.167  1.00  0.00    +0.000 C 
ENDBRANCH   13   14
ENDBRANCH   15   13
ENDBRANCH   17   15
ENDBRANCH   18   17
ENDBRANCH   19   18
ENDBRANCH   20   19
ENDBRANCH   21   20
ENDBRANCH   22   21
ENDBRANCH   23   22
ENDBRANCH   24   23
ENDBRANCH   25   24
ENDBRANCH   27   25
ENDBRANCH   31   30
BRANCH   35   36
ATOM     36  C30 UNL A   1      13.803  22.931   6.624  1.00  0.00    +0.000 C 
ATOM     37  C31 UNL A   1      13.641  23.768   7.739  1.00  0.00    +0.000 C 
ATOM     38  F1  UNL A   1      14.443  23.634   8.805  1.00  0.00    +0.000 F 
ATOM     39  C32 UNL A   1      12.632  24.727   7.774  1.00  0.00    +0.000 C 
ATOM     40  F2  UNL A   1      12.473  25.490   8.865  1.00  0.00    +0.000 F 
ATOM     41  C33 UNL A   1      11.787  24.888   6.687  1.00  0.00    +0.000 C 
ATOM     42  F3  UNL A   1      10.823  25.818   6.718  1.00  0.00    +0.000 F 
ATOM     43  C34 UNL A   1      11.938  24.081   5.569  1.00  0.00    +0.000 C 
ATOM     44  F4  UNL A   1      11.128  24.242   4.513  1.00  0.00    +0.000 F 
ATOM     45  C35 UNL A   1      12.929  23.102   5.540  1.00  0.00    +0.000 C 
ATOM     46  F5  UNL A   1      13.044  22.331   4.450  1.00  0.00    +0.000 F 
ENDBRANCH   35   36
BRANCH   52   53
ATOM     53  C41 UNL A   1      15.338  16.494   9.458  1.00  0.00    +0.000 C 
ATOM     54  C42 UNL A   1      15.383  16.679  10.847  1.00  0.00    +0.000 C 
ATOM     55  F6  UNL A   1      16.074  17.701  11.370  1.00  0.00    +0.000 F 
ATOM     56  C43 UNL A   1      14.733  15.795  11.706  1.00  0.00    +0.000 C 
ATOM     57  F7  UNL A   1      14.814  15.972  13.032  1.00  0.00    +0.000 F 
ATOM     58  C44 UNL A   1      14.008  14.730  11.191  1.00  0.00    +0.000 C 
ATOM     59  F8  UNL A   1      13.373  13.889  12.019  1.00  0.00    +0.000 F 
ATOM     60  C45 UNL A   1      13.946  14.534   9.819  1.00  0.00    +0.000 C 
ATOM     61  F9  UNL A   1      13.236  13.513   9.321  1.00  0.00    +0.000 F 
ATOM     62  C46 UNL A   1      14.614  15.401   8.960  1.00  0.00    +0.000 C 
ATOM     63  F10 UNL A   1      14.536  15.187   7.638  1.00  0.00    +0.000 F 
ENDBRANCH   52   53
BRANCH   67   68
ATOM     68  C50 UNL A   1      21.350  16.438   5.930  1.00  0.00    +0.000 C 
ATOM     69  C51 UNL A   1      21.316  15.429   4.958  1.00  0.00    +0.000 C 
ATOM     70  F11 UNL A   1      20.251  15.316   4.150  1.00  0.00    +0.000 F 
ATOM     71  C52 UNL A   1      22.361  14.517   4.830  1.00  0.00    +0.000 C 
ATOM     72  F12 UNL A   1      22.290  13.545   3.911  1.00  0.00    +0.000 F 
ATOM     73  C53 UNL A   1      23.470  14.609   5.657  1.00  0.00    +0.000 C 
ATOM     74  F13 UNL A   1      24.480  13.738   5.527  1.00  0.00    +0.000 F 
ATOM     75  C54 UNL A   1      23.530  15.604   6.622  1.00  0.00    +0.000 C 
ATOM     76  F14 UNL A   1      24.606  15.704   7.415  1.00  0.00    +0.000 F 
ATOM     77  C55 UNL A   1      22.474  16.503   6.766  1.00  0.00    +0.000 C 
ATOM     78  F15 UNL A   1      22.557  17.452   7.709  1.00  0.00    +0.000 F 
ENDBRANCH   67   68
TORSDOF 20
ENDMDL
MODEL 5
REMARK VINA RESULT:     -10.6     45.436     50.377
ROOT
ATOM    129  H39 UNL A   1      14.498  51.713   3.328  1.00  0.00    +0.000 H 
ATOM    130  H40 UNL A   1      13.483  46.874   2.414  1.00  0.00    +0.000 H 
ATOM    131  H41 UNL A   1      15.195  47.005   0.515  1.00  0.00    +0.000 H 
ATOM    132  H42 UNL A   1      16.717  56.753   2.425  1.00  0.00    +0.000 H 
ATOM    133  H43 UNL A   1      15.293  56.557   4.544  1.00  0.00    +0.000 H 
ATOM     31  C26 UNL A   1      14.070  54.005   4.871  1.00  0.00    +0.000 C 
ATOM     32  C27 UNL A   1      15.039  54.428   3.804  1.00  0.00    +0.000 C 
ATOM     33  N3  UNL A   1      15.531  53.732   2.811  1.00  0.00    +0.000 N 
ATOM     34  C28 UNL A   1      16.353  54.605   2.111  1.00  0.00    +0.000 C 
ATOM     35  C29 UNL A   1      17.137  54.347   1.038  1.00  0.00    +0.000 C 
ATOM     47  C36 UNL A   1      17.250  53.060   0.406  1.00  0.00    +0.000 C 
ATOM     48  C37 UNL A   1      18.045  52.690  -0.665  1.00  0.00    +0.000 C 
ATOM     49  C38 UNL A   1      17.800  51.343  -0.948  1.00  0.00    +0.000 C 
ATOM     50  C39 UNL A   1      16.881  50.863  -0.029  1.00  0.00    +0.000 C 
ATOM     51  N4  UNL A   1      16.548  51.928   0.792  1.00  0.00    +0.000 N 
ATOM     52  C40 UNL A   1      16.344  49.532   0.089  1.00  0.00    +0.000 C 
ATOM     64  C47 UNL A   1      15.456  49.130   1.031  1.00  0.00    +0.000 C 
ATOM     65  N5  UNL A   1      14.881  49.867   2.057  1.00  0.00    +0.000 N 
ATOM     66  C48 UNL A   1      14.083  49.043   2.689  1.00  0.00    +0.000 C 
ATOM     67  C49 UNL A   1      13.221  49.298   3.894  1.00  0.00    +0.000 C 
ATOM     79  C56 UNL A   1      13.208  50.525   4.450  1.00  0.00    +0.000 C 
ATOM     80  C57 UNL A   1      12.428  50.918   5.619  1.00  0.00    +0.000 C 
ATOM     81  C58 UNL A   1      12.644  52.219   5.873  1.00  0.00    +0.000 C 
ATOM     82  C59 UNL A   1      13.606  52.741   4.902  1.00  0.00    +0.000 C 
ATOM     83  N6  UNL A   1      13.880  51.667   4.092  1.00  0.00    +0.000 N 
ATOM     84  C60 UNL A   1      14.045  47.687   2.121  1.00  0.00    +0.000 C 
ATOM     85  C61 UNL A   1      14.925  47.786   1.133  1.00  0.00    +0.000 C 
ATOM     86  C62 UNL A   1      16.257  55.894   2.762  1.00  0.00    +0.000 C 
ATOM     87  C63 UNL A   1      15.502  55.824   3.848  1.00  0.00    +0.000 C 
ATOM    124  H34 UNL A   1      18.705  53.304  -1.167  1.00  0.00    +0.000 H 
ATOM    125  H35 UNL A   1      18.229  50.799  -1.712  1.00  0.00    +0.000 H 
ATOM    126  H36 UNL A   1      15.907  51.887   1.539  1.00  0.00    +0.000 H 
ATOM    127  H37 UNL A   1      11.809  50.297   6.164  1.00  0.00    +0.000 H 
ATOM    128  H38 UNL A   1      12.204  52.764   6.631  1.00  0.00    +0.000 H 
ENDROOT
BRANCH   31   30
ATOM    134  H44 UNL A   1      11.855  55.507   4.760  1.00  0.00    +0.000 H 
ATOM    135  H45 UNL A   1      11.097  57.201   6.320  1.00  0.00    +0.000 H 
ATOM    123  H33 UNL A   1      15.198  54.760   7.215  1.00  0.00    +0.000 H 
ATOM     88  C64 UNL A   1      12.394  55.694   5.621  1.00  0.00    +0.000 C 
ATOM     89  C65 UNL A   1      11.936  56.641   6.534  1.00  0.00    +0.000 C 
ATOM    122  H32 UNL A   1      14.336  56.323   8.860  1.00  0.00    +0.000 H 
ATOM     27  C22 UNL A   1      12.617  56.830   7.740  1.00  0.00    +0.000 C 
ATOM     28  C23 UNL A   1      13.815  56.153   7.985  1.00  0.00    +0.000 C 
ATOM     29  C24 UNL A   1      14.303  55.245   7.044  1.00  0.00    +0.000 C 
ATOM     30  C25 UNL A   1      13.584  54.991   5.866  1.00  0.00    +0.000 C 
BRANCH   27   25
ATOM     25  C21 UNL A   1      12.107  57.766   8.764  1.00  0.00    +0.000 C 
ATOM     26  O3  UNL A   1      12.329  58.969   8.655  1.00  0.00    +0.000 O 
BRANCH   25   24
ATOM    121  H31 UNL A   1      11.177  57.958  10.527  1.00  0.00    +0.000 H 
ATOM     24  N2  UNL A   1      11.396  57.291   9.837  1.00  0.00    +0.000 N 
BRANCH   24   23
ATOM    119  H29 UNL A   1       9.894  55.992  10.399  1.00  0.00    +0.000 H 
ATOM     23  C20 UNL A   1      10.921  55.943  10.099  1.00  0.00    +0.000 C 
ATOM    120  H30 UNL A   1      11.038  55.373   9.202  1.00  0.00    +0.000 H 
BRANCH   23   22
ATOM    118  H28 UNL A   1      11.009  54.935  11.933  1.00  0.00    +0.000 H 
ATOM    117  H27 UNL A   1      12.436  55.953  11.579  1.00  0.00    +0.000 H 
ATOM     22  C19 UNL A   1      11.721  55.253  11.200  1.00  0.00    +0.000 C 
BRANCH   22   21
ATOM    115  H25 UNL A   1      11.798  53.168  10.820  1.00  0.00    +0.000 H 
ATOM    116  H26 UNL A   1      12.825  54.194   9.769  1.00  0.00    +0.000 H 
ATOM     21  C18 UNL A   1      12.474  53.994  10.760  1.00  0.00    +0.000 C 
BRANCH   21   20
ATOM    113  H23 UNL A   1      14.243  54.558  11.792  1.00  0.00    +0.000 H 
ATOM    114  H24 UNL A   1      13.363  53.149  12.462  1.00  0.00    +0.000 H 
ATOM     20  C17 UNL A   1      13.719  53.647  11.585  1.00  0.00    +0.000 C 
BRANCH   20   19
ATOM     19  C16 UNL A   1      14.699  52.680  10.915  1.00  0.00    +0.000 C 
ATOM    111  H21 UNL A   1      15.694  53.008  11.130  1.00  0.00    +0.000 H 
ATOM    112  H22 UNL A   1      14.487  51.708  11.309  1.00  0.00    +0.000 H 
BRANCH   19   18
ATOM     18  C15 UNL A   1      14.544  52.581   9.399  1.00  0.00    +0.000 C 
ATOM    109  H19 UNL A   1      13.927  53.386   9.059  1.00  0.00    +0.000 H 
ATOM    110  H20 UNL A   1      15.519  52.634   8.959  1.00  0.00    +0.000 H 
BRANCH   18   17
ATOM     17  N1  UNL A   1      13.938  51.323   9.003  1.00  0.00    +0.000 N 
ATOM    108  H18 UNL A   1      12.963  51.369   8.873  1.00  0.00    +0.000 H 
BRANCH   17   15
ATOM     15  C14 UNL A   1      14.475  50.085   8.776  1.00  0.00    +0.000 C 
ATOM     16  O2  UNL A   1      15.135  49.965   7.739  1.00  0.00    +0.000 O 
BRANCH   15   13
ATOM      2  C2  UNL A   1      12.070  48.025  13.975  1.00  0.00    +0.000 C 
ATOM      3  C3  UNL A   1      12.567  48.945  13.017  1.00  0.00    +0.000 C 
ATOM      5  C5  UNL A   1      12.952  48.478  11.745  1.00  0.00    +0.000 C 
ATOM      6  C6  UNL A   1      12.803  47.125  11.394  1.00  0.00    +0.000 C 
ATOM      7  C7  UNL A   1      12.354  46.197  12.356  1.00  0.00    +0.000 C 
ATOM    101  H11 UNL A   1      12.365  46.058   9.625  1.00  0.00    +0.000 H 
ATOM      9  C9  UNL A   1      11.999  46.662  13.632  1.00  0.00    +0.000 C 
ATOM    102  H12 UNL A   1      14.069  46.099  10.064  1.00  0.00    +0.000 H 
ATOM     11  C10 UNL A   1      13.161  46.662  10.008  1.00  0.00    +0.000 C 
ATOM     12  C11 UNL A   1      13.382  47.835   9.077  1.00  0.00    +0.000 C 
ATOM     13  C12 UNL A   1      14.241  48.901   9.759  1.00  0.00    +0.000 C 
ATOM    103  H13 UNL A   1      12.435  48.260   8.814  1.00  0.00    +0.000 H 
ATOM    104  H14 UNL A   1      13.887  47.491   8.198  1.00  0.00    +0.000 H 
ATOM     90  O4  UNL A   1      13.477  49.410  10.878  1.00  0.00    +0.000 O 
BRANCH    2    1
ATOM      1  C1  UNL A   1      11.620  48.536  15.320  1.00  0.00    +0.000 C 
ATOM     91  H1  UNL A   1      10.557  48.656  15.319  1.00  0.00    +0.000 H 
ATOM     92  H2  UNL A   1      12.085  49.479  15.518  1.00  0.00    +0.000 H 
ATOM     93  H3  UNL A   1      11.898  47.835  16.079  1.00  0.00    +0.000 H 
ENDBRANCH    2    1
BRANCH    3    4
ATOM      4  C4  UNL A   1      12.700  50.408  13.363  1.00  0.00    +0.000 C 
ATOM     94  H4  UNL A   1      12.349  51.002  12.545  1.00  0.00    +0.000 H 
ATOM     95  H5  UNL A   1      13.727  50.639  13.554  1.00  0.00    +0.000 H 
ATOM     96  H6  UNL A   1      12.118  50.624  14.235  1.00  0.00    +0.000 H 
ENDBRANCH    3    4
BRANCH    7    8
ATOM     97  H7  UNL A   1      11.637  44.607  11.149  1.00  0.00    +0.000 H 
ATOM     98  H8  UNL A   1      11.839  44.196  12.835  1.00  0.00    +0.000 H 
ATOM     99  H9  UNL A   1      13.238  44.351  11.801  1.00  0.00    +0.000 H 
ATOM      8  C8  UNL A   1      12.260  44.732  12.010  1.00  0.00    +0.000 C 
ENDBRANCH    7    8
BRANCH    9   10
ATOM     10  O1  UNL A   1      11.576  45.723  14.534  1.00  0.00    +0.000 O 
ATOM    100  H10 UNL A   1      11.751  44.815  14.381  1.00  0.00    +0.000 H 
ENDBRANCH    9   10
BRANCH   13   14
ATOM    105  H15 UNL A   1      16.360  48.595   9.563  1.00  0.00    +0.000 H 
ATOM    106  H16 UNL A   1      15.568  47.431  10.598  1.00  0.00    +0.000 H 
ATOM    107  H17 UNL A   1      15.856  49.056  11.171  1.00  0.00    +0.000 H 
ATOM     14  C13 UNL A   1      15.611  48.463  10.315  1.00  0.00    +0.000 C 
ENDBRANCH   13   14
ENDBRANCH   15   13
ENDBRANCH   17   15
ENDBRANCH   18   17
ENDBRANCH   19   18
ENDBRANCH   20   19
ENDBRANCH   21   20
ENDBRANCH   22   21
ENDBRANCH   23   22
ENDBRANCH   24   23
ENDBRANCH   25   24
ENDBRANCH   27   25
ENDBRANCH   31   30
BRANCH   35   36
ATOM     36  C30 UNL A   1      17.947  55.480   0.483  1.00  0.00    +0.000 C 
ATOM     37  C31 UNL A   1      19.178  55.843   1.051  1.00  0.00    +0.000 C 
ATOM     38  F1  UNL A   1      19.626  55.213   2.147  1.00  0.00    +0.000 F 
ATOM     39  C32 UNL A   1      19.938  56.878   0.512  1.00  0.00    +0.000 C 
ATOM     40  F2  UNL A   1      21.092  57.232   1.094  1.00  0.00    +0.000 F 
ATOM     41  C33 UNL A   1      19.499  57.547  -0.620  1.00  0.00    +0.000 C 
ATOM     42  F3  UNL A   1      20.236  58.535  -1.143  1.00  0.00    +0.000 F 
ATOM     43  C34 UNL A   1      18.292  57.195  -1.206  1.00  0.00    +0.000 C 
ATOM     44  F4  UNL A   1      17.871  57.834  -2.307  1.00  0.00    +0.000 F 
ATOM     45  C35 UNL A   1      17.516  56.178  -0.655  1.00  0.00    +0.000 C 
ATOM     46  F5  UNL A   1      16.350  55.867  -1.238  1.00  0.00    +0.000 F 
ENDBRANCH   35   36
BRANCH   52   53
ATOM     53  C41 UNL A   1      16.814  48.507  -0.899  1.00  0.00    +0.000 C 
ATOM     54  C42 UNL A   1      17.989  47.772  -0.685  1.00  0.00    +0.000 C 
ATOM     55  F6  UNL A   1      18.764  48.033   0.378  1.00  0.00    +0.000 F 
ATOM     56  C43 UNL A   1      18.383  46.780  -1.580  1.00  0.00    +0.000 C 
ATOM     57  F7  UNL A   1      19.526  46.111  -1.373  1.00  0.00    +0.000 F 
ATOM     58  C44 UNL A   1      17.599  46.488  -2.687  1.00  0.00    +0.000 C 
ATOM     59  F8  UNL A   1      17.974  45.524  -3.538  1.00  0.00    +0.000 F 
ATOM     60  C45 UNL A   1      16.430  47.199  -2.912  1.00  0.00    +0.000 C 
ATOM     61  F9  UNL A   1      15.666  46.909  -3.974  1.00  0.00    +0.000 F 
ATOM     62  C46 UNL A   1      16.045  48.207  -2.033  1.00  0.00    +0.000 C 
ATOM     63  F10 UNL A   1      14.910  48.878  -2.277  1.00  0.00    +0.000 F 
ENDBRANCH   52   53
BRANCH   67   68
ATOM     68  C50 UNL A   1      12.415  48.209   4.501  1.00  0.00    +0.000 C 
ATOM     69  C51 UNL A   1      11.085  48.001   4.111  1.00  0.00    +0.000 C 
ATOM     70  F11 UNL A   1      10.518  48.820   3.212  1.00  0.00    +0.000 F 
ATOM     71  C52 UNL A   1      10.325  46.973   4.661  1.00  0.00    +0.000 C 
ATOM     72  F12 UNL A   1       9.048  46.814   4.291  1.00  0.00    +0.000 F 
ATOM     73  C53 UNL A   1      10.888  46.117   5.596  1.00  0.00    +0.000 C 
ATOM     74  F13 UNL A   1      10.160  45.120   6.119  1.00  0.00    +0.000 F 
ATOM     75  C54 UNL A   1      12.204  46.298   5.993  1.00  0.00    +0.000 C 
ATOM     76  F14 UNL A   1      12.755  45.465   6.888  1.00  0.00    +0.000 F 
ATOM     77  C55 UNL A   1      12.958  47.342   5.460  1.00  0.00    +0.000 C 
ATOM     78  F15 UNL A   1      14.228  47.495   5.863  1.00  0.00    +0.000 F 
ENDBRANCH   67   68
TORSDOF 20
ENDMDL
MODEL 6
REMARK VINA RESULT:     -10.6     46.319     53.378
ROOT
ATOM    129  H39 UNL A   1      21.982  39.396  48.212  1.00  0.00    +0.000 H 
ATOM    130  H40 UNL A   1      18.678  42.283  50.669  1.00  0.00    +0.000 H 
ATOM    131  H41 UNL A   1      17.140  40.237  50.744  1.00  0.00    +0.000 H 
ATOM    132  H42 UNL A   1      23.849  34.874  45.528  1.00  0.00    +0.000 H 
ATOM    133  H43 UNL A   1      25.544  36.779  45.755  1.00  0.00    +0.000 H 
ATOM     31  C26 UNL A   1      24.486  39.112  47.002  1.00  0.00    +0.000 C 
ATOM     32  C27 UNL A   1      23.804  37.789  46.803  1.00  0.00    +0.000 C 
ATOM     33  N3  UNL A   1      22.598  37.419  47.153  1.00  0.00    +0.000 N 
ATOM     34  C28 UNL A   1      22.462  36.111  46.707  1.00  0.00    +0.000 C 
ATOM     35  C29 UNL A   1      21.418  35.266  46.880  1.00  0.00    +0.000 C 
ATOM     47  C36 UNL A   1      20.211  35.602  47.586  1.00  0.00    +0.000 C 
ATOM     48  C37 UNL A   1      19.112  34.802  47.845  1.00  0.00    +0.000 C 
ATOM     49  C38 UNL A   1      18.168  35.566  48.539  1.00  0.00    +0.000 C 
ATOM     50  C39 UNL A   1      18.695  36.831  48.745  1.00  0.00    +0.000 C 
ATOM     51  N4  UNL A   1      19.946  36.841  48.151  1.00  0.00    +0.000 N 
ATOM     52  C40 UNL A   1      18.099  37.948  49.431  1.00  0.00    +0.000 C 
ATOM     64  C47 UNL A   1      18.687  39.157  49.609  1.00  0.00    +0.000 C 
ATOM     65  N5  UNL A   1      19.941  39.585  49.196  1.00  0.00    +0.000 N 
ATOM     66  C48 UNL A   1      20.046  40.829  49.593  1.00  0.00    +0.000 C 
ATOM     67  C49 UNL A   1      21.200  41.779  49.433  1.00  0.00    +0.000 C 
ATOM     79  C56 UNL A   1      22.311  41.368  48.794  1.00  0.00    +0.000 C 
ATOM     80  C57 UNL A   1      23.507  42.173  48.568  1.00  0.00    +0.000 C 
ATOM     81  C58 UNL A   1      24.402  41.446  47.879  1.00  0.00    +0.000 C 
ATOM     82  C59 UNL A   1      23.852  40.111  47.645  1.00  0.00    +0.000 C 
ATOM     83  N6  UNL A   1      22.605  40.157  48.217  1.00  0.00    +0.000 N 
ATOM     84  C60 UNL A   1      18.856  41.341  50.289  1.00  0.00    +0.000 C 
ATOM     85  C61 UNL A   1      18.071  40.271  50.300  1.00  0.00    +0.000 C 
ATOM     86  C62 UNL A   1      23.687  35.767  46.017  1.00  0.00    +0.000 C 
ATOM     87  C63 UNL A   1      24.571  36.750  46.097  1.00  0.00    +0.000 C 
ATOM    124  H34 UNL A   1      19.007  33.812  47.574  1.00  0.00    +0.000 H 
ATOM    125  H35 UNL A   1      17.237  35.244  48.844  1.00  0.00    +0.000 H 
ATOM    126  H36 UNL A   1      20.557  37.613  48.132  1.00  0.00    +0.000 H 
ATOM    127  H37 UNL A   1      23.644  43.146  48.886  1.00  0.00    +0.000 H 
ATOM    128  H38 UNL A   1      25.327  41.776  47.565  1.00  0.00    +0.000 H 
ENDROOT
BRANCH   31   30
ATOM    134  H44 UNL A   1      26.648  37.551  47.248  1.00  0.00    +0.000 H 
ATOM    135  H45 UNL A   1      28.902  37.951  46.447  1.00  0.00    +0.000 H 
ATOM    123  H33 UNL A   1      25.406  41.196  45.538  1.00  0.00    +0.000 H 
ATOM     88  C64 UNL A   1      26.858  38.400  46.699  1.00  0.00    +0.000 C 
ATOM     89  C65 UNL A   1      28.144  38.609  46.209  1.00  0.00    +0.000 C 
ATOM    122  H32 UNL A   1      27.618  41.498  44.583  1.00  0.00    +0.000 H 
ATOM     27  C22 UNL A   1      28.407  39.713  45.392  1.00  0.00    +0.000 C 
ATOM     28  C23 UNL A   1      27.411  40.665  45.155  1.00  0.00    +0.000 C 
ATOM     29  C24 UNL A   1      26.137  40.484  45.694  1.00  0.00    +0.000 C 
ATOM     30  C25 UNL A   1      25.844  39.338  46.450  1.00  0.00    +0.000 C 
BRANCH   27   25
ATOM     25  C21 UNL A   1      29.741  39.913  44.787  1.00  0.00    +0.000 C 
ATOM     26  O3  UNL A   1      30.087  39.222  43.832  1.00  0.00    +0.000 O 
BRANCH   25   24
ATOM    121  H31 UNL A   1      30.871  41.561  44.661  1.00  0.00    +0.000 H 
ATOM     24  N2  UNL A   1      30.591  40.862  45.296  1.00  0.00    +0.000 N 
BRANCH   24   23
ATOM    119  H29 UNL A   1      31.114  40.018  47.104  1.00  0.00    +0.000 H 
ATOM     23  C20 UNL A   1      31.137  40.981  46.637  1.00  0.00    +0.000 C 
ATOM    120  H30 UNL A   1      32.137  41.349  46.553  1.00  0.00    +0.000 H 
BRANCH   23   22
ATOM    118  H28 UNL A   1      29.783  42.568  46.817  1.00  0.00    +0.000 H 
ATOM    117  H27 UNL A   1      31.042  42.522  48.086  1.00  0.00    +0.000 H 
ATOM     22  C19 UNL A   1      30.346  41.963  47.496  1.00  0.00    +0.000 C 
BRANCH   22   21
ATOM    115  H25 UNL A   1      28.571  40.857  47.846  1.00  0.00    +0.000 H 
ATOM    116  H26 UNL A   1      29.883  40.633  49.047  1.00  0.00    +0.000 H 
ATOM     21  C18 UNL A   1      29.328  41.320  48.442  1.00  0.00    +0.000 C 
BRANCH   21   20
ATOM    113  H23 UNL A   1      28.906  43.279  49.147  1.00  0.00    +0.000 H 
ATOM    114  H24 UNL A   1      27.590  42.079  49.340  1.00  0.00    +0.000 H 
ATOM     20  C17 UNL A   1      28.639  42.279  49.420  1.00  0.00    +0.000 C 
BRANCH   20   19
ATOM     19  C16 UNL A   1      28.998  42.079  50.895  1.00  0.00    +0.000 C 
ATOM    111  H21 UNL A   1      28.872  41.045  51.134  1.00  0.00    +0.000 H 
ATOM    112  H22 UNL A   1      30.007  42.414  51.013  1.00  0.00    +0.000 H 
BRANCH   19   18
ATOM     18  C15 UNL A   1      28.149  42.900  51.863  1.00  0.00    +0.000 C 
ATOM    109  H19 UNL A   1      28.778  43.278  52.643  1.00  0.00    +0.000 H 
ATOM    110  H20 UNL A   1      27.697  43.702  51.315  1.00  0.00    +0.000 H 
BRANCH   18   17
ATOM     17  N1  UNL A   1      27.091  42.104  52.456  1.00  0.00    +0.000 N 
ATOM    108  H18 UNL A   1      27.253  41.852  53.393  1.00  0.00    +0.000 H 
BRANCH   17   15
ATOM     15  C14 UNL A   1      25.906  41.642  51.950  1.00  0.00    +0.000 C 
ATOM     16  O2  UNL A   1      25.062  42.502  51.681  1.00  0.00    +0.000 O 
BRANCH   15   13
ATOM      2  C2  UNL A   1      21.921  37.073  51.399  1.00  0.00    +0.000 C 
ATOM      3  C3  UNL A   1      22.434  38.352  51.735  1.00  0.00    +0.000 C 
ATOM      5  C5  UNL A   1      23.748  38.690  51.359  1.00  0.00    +0.000 C 
ATOM      6  C6  UNL A   1      24.539  37.800  50.612  1.00  0.00    +0.000 C 
ATOM      7  C7  UNL A   1      24.053  36.510  50.315  1.00  0.00    +0.000 C 
ATOM    101  H11 UNL A   1      26.031  37.980  49.127  1.00  0.00    +0.000 H 
ATOM      9  C9  UNL A   1      22.754  36.168  50.717  1.00  0.00    +0.000 C 
ATOM    102  H12 UNL A   1      26.635  37.673  50.752  1.00  0.00    +0.000 H 
ATOM     11  C10 UNL A   1      25.918  38.209  50.167  1.00  0.00    +0.000 C 
ATOM     12  C11 UNL A   1      26.144  39.692  50.372  1.00  0.00    +0.000 C 
ATOM     13  C12 UNL A   1      25.641  40.121  51.752  1.00  0.00    +0.000 C 
ATOM    103  H13 UNL A   1      25.614  40.237  49.618  1.00  0.00    +0.000 H 
ATOM    104  H14 UNL A   1      27.192  39.897  50.304  1.00  0.00    +0.000 H 
ATOM     90  O4  UNL A   1      24.207  39.924  51.761  1.00  0.00    +0.000 O 
BRANCH    2    1
ATOM      1  C1  UNL A   1      20.498  36.732  51.767  1.00  0.00    +0.000 C 
ATOM     91  H1  UNL A   1      20.458  36.428  52.792  1.00  0.00    +0.000 H 
ATOM     92  H2  UNL A   1      20.150  35.935  51.144  1.00  0.00    +0.000 H 
ATOM     93  H3  UNL A   1      19.878  37.592  51.626  1.00  0.00    +0.000 H 
ENDBRANCH    2    1
BRANCH    3    4
ATOM      4  C4  UNL A   1      21.585  39.335  52.505  1.00  0.00    +0.000 C 
ATOM     94  H4  UNL A   1      22.216  40.060  52.974  1.00  0.00    +0.000 H 
ATOM     95  H5  UNL A   1      21.025  38.814  53.254  1.00  0.00    +0.000 H 
ATOM     96  H6  UNL A   1      20.912  39.829  51.836  1.00  0.00    +0.000 H 
ENDBRANCH    3    4
BRANCH    7    8
ATOM     97  H7  UNL A   1      24.351  34.654  49.333  1.00  0.00    +0.000 H 
ATOM     98  H8  UNL A   1      25.751  35.245  50.196  1.00  0.00    +0.000 H 
ATOM     99  H9  UNL A   1      25.289  35.974  48.677  1.00  0.00    +0.000 H 
ATOM      8  C8  UNL A   1      24.924  35.524  49.576  1.00  0.00    +0.000 C 
ENDBRANCH    7    8
BRANCH    9   10
ATOM     10  O1  UNL A   1      22.329  34.902  50.413  1.00  0.00    +0.000 O 
ATOM    100  H10 UNL A   1      22.482  34.199  51.014  1.00  0.00    +0.000 H 
ENDBRANCH    9   10
BRANCH   13   14
ATOM    105  H15 UNL A   1      26.826  38.568  52.650  1.00  0.00    +0.000 H 
ATOM    106  H16 UNL A   1      25.393  38.983  53.560  1.00  0.00    +0.000 H 
ATOM    107  H17 UNL A   1      26.778  40.049  53.576  1.00  0.00    +0.000 H 
ATOM     14  C13 UNL A   1      26.203  39.373  52.978  1.00  0.00    +0.000 C 
ENDBRANCH   13   14
ENDBRANCH   15   13
ENDBRANCH   17   15
ENDBRANCH   18   17
ENDBRANCH   19   18
ENDBRANCH   20   19
ENDBRANCH   21   20
ENDBRANCH   22   21
ENDBRANCH   23   22
ENDBRANCH   24   23
ENDBRANCH   25   24
ENDBRANCH   27   25
ENDBRANCH   31   30
BRANCH   35   36
ATOM     36  C30 UNL A   1      21.540  33.887  46.305  1.00  0.00    +0.000 C 
ATOM     37  C31 UNL A   1      20.961  33.559  45.069  1.00  0.00    +0.000 C 
ATOM     38  F1  UNL A   1      20.232  34.467  44.404  1.00  0.00    +0.000 F 
ATOM     39  C32 UNL A   1      21.103  32.284  44.528  1.00  0.00    +0.000 C 
ATOM     40  F2  UNL A   1      20.509  31.983  43.365  1.00  0.00    +0.000 F 
ATOM     41  C33 UNL A   1      21.850  31.325  45.193  1.00  0.00    +0.000 C 
ATOM     42  F3  UNL A   1      21.995  30.102  44.666  1.00  0.00    +0.000 F 
ATOM     43  C34 UNL A   1      22.444  31.632  46.409  1.00  0.00    +0.000 C 
ATOM     44  F4  UNL A   1      23.175  30.709  47.049  1.00  0.00    +0.000 F 
ATOM     45  C35 UNL A   1      22.282  32.898  46.967  1.00  0.00    +0.000 C 
ATOM     46  F5  UNL A   1      22.858  33.162  48.148  1.00  0.00    +0.000 F 
ENDBRANCH   35   36
BRANCH   52   53
ATOM     53  C41 UNL A   1      16.727  37.756  50.004  1.00  0.00    +0.000 C 
ATOM     54  C42 UNL A   1      16.516  37.705  51.389  1.00  0.00    +0.000 C 
ATOM     55  F6  UNL A   1      17.557  37.746  52.233  1.00  0.00    +0.000 F 
ATOM     56  C43 UNL A   1      15.230  37.587  51.911  1.00  0.00    +0.000 C 
ATOM     57  F7  UNL A   1      15.052  37.509  53.237  1.00  0.00    +0.000 F 
ATOM     58  C44 UNL A   1      14.134  37.545  51.060  1.00  0.00    +0.000 C 
ATOM     59  F8  UNL A   1      12.897  37.445  51.566  1.00  0.00    +0.000 F 
ATOM     60  C45 UNL A   1      14.322  37.601  49.687  1.00  0.00    +0.000 C 
ATOM     61  F9  UNL A   1      13.264  37.573  48.866  1.00  0.00    +0.000 F 
ATOM     62  C46 UNL A   1      15.607  37.695  49.162  1.00  0.00    +0.000 C 
ATOM     63  F10 UNL A   1      15.758  37.747  47.831  1.00  0.00    +0.000 F 
ENDBRANCH   52   53
BRANCH   67   68
ATOM     68  C50 UNL A   1      21.144  43.150  50.002  1.00  0.00    +0.000 C 
ATOM     69  C51 UNL A   1      21.578  43.398  51.311  1.00  0.00    +0.000 C 
ATOM     70  F11 UNL A   1      22.008  42.383  52.076  1.00  0.00    +0.000 F 
ATOM     71  C52 UNL A   1      21.546  44.682  51.849  1.00  0.00    +0.000 C 
ATOM     72  F12 UNL A   1      21.940  44.887  53.113  1.00  0.00    +0.000 F 
ATOM     73  C53 UNL A   1      21.100  45.747  51.080  1.00  0.00    +0.000 C 
ATOM     74  F13 UNL A   1      21.079  46.984  51.594  1.00  0.00    +0.000 F 
ATOM     75  C54 UNL A   1      20.672  45.527  49.780  1.00  0.00    +0.000 C 
ATOM     76  F14 UNL A   1      20.252  46.556  49.030  1.00  0.00    +0.000 F 
ATOM     77  C55 UNL A   1      20.683  44.238  49.249  1.00  0.00    +0.000 C 
ATOM     78  F15 UNL A   1      20.261  44.054  47.989  1.00  0.00    +0.000 F 
ENDBRANCH   67   68
TORSDOF 20
ENDMDL
MODEL 7
REMARK VINA RESULT:     -10.6     30.376     37.046
ROOT
ATOM    129  H39 UNL A   1      16.789  19.775   6.605  1.00  0.00    +0.000 H 
ATOM    130  H40 UNL A   1      17.649  15.488   9.086  1.00  0.00    +0.000 H 
ATOM    131  H41 UNL A   1      19.936  15.430   7.937  1.00  0.00    +0.000 H 
ATOM    132  H42 UNL A   1      17.731  23.841   2.899  1.00  0.00    +0.000 H 
ATOM    133  H43 UNL A   1      15.604  24.117   4.298  1.00  0.00    +0.000 H 
ATOM     31  C26 UNL A   1      15.103  21.939   6.065  1.00  0.00    +0.000 C 
ATOM     32  C27 UNL A   1      16.300  22.148   5.183  1.00  0.00    +0.000 C 
ATOM     33  N3  UNL A   1      17.360  21.394   5.035  1.00  0.00    +0.000 N 
ATOM     34  C28 UNL A   1      18.143  22.030   4.081  1.00  0.00    +0.000 C 
ATOM     35  C29 UNL A   1      19.370  21.678   3.627  1.00  0.00    +0.000 C 
ATOM     47  C36 UNL A   1      20.100  20.523   4.075  1.00  0.00    +0.000 C 
ATOM     48  C37 UNL A   1      21.365  20.104   3.701  1.00  0.00    +0.000 C 
ATOM     49  C38 UNL A   1      21.649  18.913   4.378  1.00  0.00    +0.000 C 
ATOM     50  C39 UNL A   1      20.577  18.612   5.203  1.00  0.00    +0.000 C 
ATOM     51  N4  UNL A   1      19.633  19.605   5.003  1.00  0.00    +0.000 N 
ATOM     52  C40 UNL A   1      20.426  17.500   6.105  1.00  0.00    +0.000 C 
ATOM     64  C47 UNL A   1      19.349  17.280   6.898  1.00  0.00    +0.000 C 
ATOM     65  N5  UNL A   1      18.194  18.037   7.027  1.00  0.00    +0.000 N 
ATOM     66  C48 UNL A   1      17.448  17.411   7.903  1.00  0.00    +0.000 C 
ATOM     67  C49 UNL A   1      16.096  17.792   8.440  1.00  0.00    +0.000 C 
ATOM     79  C56 UNL A   1      15.500  18.914   7.995  1.00  0.00    +0.000 C 
ATOM     80  C57 UNL A   1      14.197  19.411   8.426  1.00  0.00    +0.000 C 
ATOM     81  C58 UNL A   1      13.914  20.540   7.755  1.00  0.00    +0.000 C 
ATOM     82  C59 UNL A   1      15.035  20.863   6.871  1.00  0.00    +0.000 C 
ATOM     83  N6  UNL A   1      15.927  19.840   7.075  1.00  0.00    +0.000 N 
ATOM     84  C60 UNL A   1      18.041  16.168   8.418  1.00  0.00    +0.000 C 
ATOM     85  C61 UNL A   1      19.213  16.153   7.797  1.00  0.00    +0.000 C 
ATOM     86  C62 UNL A   1      17.417  23.204   3.648  1.00  0.00    +0.000 C 
ATOM     87  C63 UNL A   1      16.297  23.354   4.340  1.00  0.00    +0.000 C 
ATOM    124  H34 UNL A   1      21.990  20.586   3.037  1.00  0.00    +0.000 H 
ATOM    125  H35 UNL A   1      22.510  18.353   4.279  1.00  0.00    +0.000 H 
ATOM    126  H36 UNL A   1      18.758  19.652   5.454  1.00  0.00    +0.000 H 
ATOM    127  H37 UNL A   1      13.590  18.967   9.132  1.00  0.00    +0.000 H 
ATOM    128  H38 UNL A   1      13.047  21.091   7.847  1.00  0.00    +0.000 H 
ENDROOT
BRANCH   31   30
ATOM    134  H44 UNL A   1      13.156  22.099   4.233  1.00  0.00    +0.000 H 
ATOM    135  H45 UNL A   1      11.357  23.717   4.075  1.00  0.00    +0.000 H 
ATOM    123  H33 UNL A   1      14.502  23.959   7.767  1.00  0.00    +0.000 H 
ATOM     88  C64 UNL A   1      13.050  22.825   4.959  1.00  0.00    +0.000 C 
ATOM     89  C65 UNL A   1      11.993  23.730   4.886  1.00  0.00    +0.000 C 
ATOM    122  H32 UNL A   1      12.593  25.457   7.702  1.00  0.00    +0.000 H 
ATOM     27  C22 UNL A   1      11.797  24.655   5.916  1.00  0.00    +0.000 C 
ATOM     28  C23 UNL A   1      12.719  24.748   6.963  1.00  0.00    +0.000 C 
ATOM     29  C24 UNL A   1      13.810  23.878   7.005  1.00  0.00    +0.000 C 
ATOM     30  C25 UNL A   1      13.969  22.894   6.017  1.00  0.00    +0.000 C 
BRANCH   27   25
ATOM     25  C21 UNL A   1      10.636  25.570   5.908  1.00  0.00    +0.000 C 
ATOM     26  O3  UNL A   1      10.019  25.780   6.950  1.00  0.00    +0.000 O 
BRANCH   25   24
ATOM    121  H31 UNL A   1      10.454  25.677   3.917  1.00  0.00    +0.000 H 
ATOM     24  N2  UNL A   1      10.244  26.174   4.740  1.00  0.00    +0.000 N 
BRANCH   24   23
ATOM    119  H29 UNL A   1       8.567  27.250   4.203  1.00  0.00    +0.000 H 
ATOM     23  C20 UNL A   1       9.563  27.442   4.547  1.00  0.00    +0.000 C 
ATOM    120  H30 UNL A   1       9.559  27.959   5.483  1.00  0.00    +0.000 H 
BRANCH   23   22
ATOM    118  H28 UNL A   1      10.880  29.004   4.089  1.00  0.00    +0.000 H 
ATOM    117  H27 UNL A   1       9.525  28.818   2.937  1.00  0.00    +0.000 H 
ATOM     22  C19 UNL A   1      10.271  28.328   3.526  1.00  0.00    +0.000 C 
BRANCH   22   21
ATOM    115  H25 UNL A   1      12.152  28.109   2.570  1.00  0.00    +0.000 H 
ATOM    116  H26 UNL A   1      11.284  26.587   2.947  1.00  0.00    +0.000 H 
ATOM     21  C18 UNL A   1      11.218  27.589   2.576  1.00  0.00    +0.000 C 
BRANCH   21   20
ATOM    113  H23 UNL A   1      11.118  26.552   0.725  1.00  0.00    +0.000 H 
ATOM    114  H24 UNL A   1       9.667  27.506   1.164  1.00  0.00    +0.000 H 
ATOM     20  C17 UNL A   1      10.736  27.469   1.125  1.00  0.00    +0.000 C 
BRANCH   20   19
ATOM     19  C16 UNL A   1      11.167  28.607   0.196  1.00  0.00    +0.000 C 
ATOM    111  H21 UNL A   1      12.019  29.087   0.627  1.00  0.00    +0.000 H 
ATOM    112  H22 UNL A   1      11.376  28.164  -0.755  1.00  0.00    +0.000 H 
BRANCH   19   18
ATOM     18  C15 UNL A   1      10.091  29.664  -0.040  1.00  0.00    +0.000 C 
ATOM    109  H19 UNL A   1       9.497  29.374  -0.882  1.00  0.00    +0.000 H 
ATOM    110  H20 UNL A   1       9.491  29.734   0.844  1.00  0.00    +0.000 H 
BRANCH   18   17
ATOM     17  N1  UNL A   1      10.670  30.969  -0.299  1.00  0.00    +0.000 N 
ATOM    108  H18 UNL A   1      10.811  31.166  -1.253  1.00  0.00    +0.000 H 
BRANCH   17   15
ATOM     15  C14 UNL A   1      11.053  31.978   0.543  1.00  0.00    +0.000 C 
ATOM     16  O2  UNL A   1      10.194  32.831   0.789  1.00  0.00    +0.000 O 
BRANCH   15   13
ATOM      2  C2  UNL A   1      17.001  30.851  -0.094  1.00  0.00    +0.000 C 
ATOM      3  C3  UNL A   1      15.603  30.755  -0.310  1.00  0.00    +0.000 C 
ATOM      5  C5  UNL A   1      14.737  31.634   0.368  1.00  0.00    +0.000 C 
ATOM      6  C6  UNL A   1      15.240  32.638   1.215  1.00  0.00    +0.000 C 
ATOM      7  C7  UNL A   1      16.625  32.709   1.470  1.00  0.00    +0.000 C 
ATOM    101  H11 UNL A   1      14.669  34.601   1.743  1.00  0.00    +0.000 H 
ATOM      9  C9  UNL A   1      17.481  31.811   0.815  1.00  0.00    +0.000 C 
ATOM    102  H12 UNL A   1      14.240  33.362   2.918  1.00  0.00    +0.000 H 
ATOM     11  C10 UNL A   1      14.298  33.606   1.878  1.00  0.00    +0.000 C 
ATOM     12  C11 UNL A   1      12.907  33.513   1.286  1.00  0.00    +0.000 C 
ATOM     13  C12 UNL A   1      12.493  32.049   1.130  1.00  0.00    +0.000 C 
ATOM    103  H13 UNL A   1      12.901  33.987   0.326  1.00  0.00    +0.000 H 
ATOM    104  H14 UNL A   1      12.218  34.002   1.942  1.00  0.00    +0.000 H 
ATOM     90  O4  UNL A   1      13.387  31.456   0.158  1.00  0.00    +0.000 O 
BRANCH    2    1
ATOM      1  C1  UNL A   1      17.927  29.935  -0.854  1.00  0.00    +0.000 C 
ATOM     91  H1  UNL A   1      18.744  30.502  -1.249  1.00  0.00    +0.000 H 
ATOM     92  H2  UNL A   1      17.392  29.473  -1.657  1.00  0.00    +0.000 H 
ATOM     93  H3  UNL A   1      18.303  29.181  -0.195  1.00  0.00    +0.000 H 
ENDBRANCH    2    1
BRANCH    3    4
ATOM      4  C4  UNL A   1      15.046  29.707  -1.244  1.00  0.00    +0.000 C 
ATOM     94  H4  UNL A   1      14.031  29.946  -1.484  1.00  0.00    +0.000 H 
ATOM     95  H5  UNL A   1      15.083  28.749  -0.769  1.00  0.00    +0.000 H 
ATOM     96  H6  UNL A   1      15.628  29.682  -2.142  1.00  0.00    +0.000 H 
ENDBRANCH    3    4
BRANCH    7    8
ATOM     97  H7  UNL A   1      17.157  34.700   1.970  1.00  0.00    +0.000 H 
ATOM     98  H8  UNL A   1      18.168  33.479   2.704  1.00  0.00    +0.000 H 
ATOM     99  H9  UNL A   1      16.554  33.758   3.312  1.00  0.00    +0.000 H 
ATOM      8  C8  UNL A   1      17.165  33.736   2.434  1.00  0.00    +0.000 C 
ENDBRANCH    7    8
BRANCH    9   10
ATOM     10  O1  UNL A   1      18.816  31.914   1.101  1.00  0.00    +0.000 O 
ATOM    100  H10 UNL A   1      19.095  32.084   1.980  1.00  0.00    +0.000 H 
ENDBRANCH    9   10
BRANCH   13   14
ATOM    105  H15 UNL A   1      13.017  31.690   3.184  1.00  0.00    +0.000 H 
ATOM    106  H16 UNL A   1      13.100  30.268   2.171  1.00  0.00    +0.000 H 
ATOM    107  H17 UNL A   1      11.547  30.891   2.676  1.00  0.00    +0.000 H 
ATOM     14  C13 UNL A   1      12.543  31.157   2.386  1.00  0.00    +0.000 C 
ENDBRANCH   13   14
ENDBRANCH   15   13
ENDBRANCH   17   15
ENDBRANCH   18   17
ENDBRANCH   19   18
ENDBRANCH   20   19
ENDBRANCH   21   20
ENDBRANCH   22   21
ENDBRANCH   23   22
ENDBRANCH   24   23
ENDBRANCH   25   24
ENDBRANCH   27   25
ENDBRANCH   31   30
BRANCH   35   36
ATOM     36  C30 UNL A   1      20.006  22.561   2.597  1.00  0.00    +0.000 C 
ATOM     37  C31 UNL A   1      20.915  23.568   2.960  1.00  0.00    +0.000 C 
ATOM     38  F1  UNL A   1      21.187  23.795   4.253  1.00  0.00    +0.000 F 
ATOM     39  C32 UNL A   1      21.525  24.364   1.994  1.00  0.00    +0.000 C 
ATOM     40  F2  UNL A   1      22.360  25.344   2.367  1.00  0.00    +0.000 F 
ATOM     41  C33 UNL A   1      21.262  24.152   0.649  1.00  0.00    +0.000 C 
ATOM     42  F3  UNL A   1      21.856  24.913  -0.279  1.00  0.00    +0.000 F 
ATOM     43  C34 UNL A   1      20.378  23.154   0.267  1.00  0.00    +0.000 C 
ATOM     44  F4  UNL A   1      20.130  22.941  -1.032  1.00  0.00    +0.000 F 
ATOM     45  C35 UNL A   1      19.746  22.372   1.232  1.00  0.00    +0.000 C 
ATOM     46  F5  UNL A   1      18.889  21.422   0.832  1.00  0.00    +0.000 F 
ENDBRANCH   35   36
BRANCH   52   53
ATOM     53  C41 UNL A   1      21.553  16.514   6.181  1.00  0.00    +0.000 C 
ATOM     54  C42 UNL A   1      21.614  15.407   5.322  1.00  0.00    +0.000 C 
ATOM     55  F6  UNL A   1      20.613  15.164   4.463  1.00  0.00    +0.000 F 
ATOM     56  C43 UNL A   1      22.696  14.532   5.362  1.00  0.00    +0.000 C 
ATOM     57  F7  UNL A   1      22.720  13.464   4.553  1.00  0.00    +0.000 F 
ATOM     58  C44 UNL A   1      23.746  14.761   6.239  1.00  0.00    +0.000 C 
ATOM     59  F8  UNL A   1      24.793  13.925   6.265  1.00  0.00    +0.000 F 
ATOM     60  C45 UNL A   1      23.708  15.854   7.092  1.00  0.00    +0.000 C 
ATOM     61  F9  UNL A   1      24.727  16.083   7.931  1.00  0.00    +0.000 F 
ATOM     62  C46 UNL A   1      22.617  16.717   7.072  1.00  0.00    +0.000 C 
ATOM     63  F10 UNL A   1      22.607  17.766   7.909  1.00  0.00    +0.000 F 
ENDBRANCH   52   53
BRANCH   67   68
ATOM     68  C50 UNL A   1      15.427  16.967   9.478  1.00  0.00    +0.000 C 
ATOM     69  C51 UNL A   1      15.602  17.252  10.839  1.00  0.00    +0.000 C 
ATOM     70  F11 UNL A   1      16.415  18.251  11.212  1.00  0.00    +0.000 F 
ATOM     71  C52 UNL A   1      14.967  16.495  11.820  1.00  0.00    +0.000 C 
ATOM     72  F12 UNL A   1      15.174  16.771  13.114  1.00  0.00    +0.000 F 
ATOM     73  C53 UNL A   1      14.126  15.454  11.459  1.00  0.00    +0.000 C 
ATOM     74  F13 UNL A   1      13.506  14.732  12.403  1.00  0.00    +0.000 F 
ATOM     75  C54 UNL A   1      13.931  15.157  10.118  1.00  0.00    +0.000 C 
ATOM     76  F14 UNL A   1      13.110  14.159   9.765  1.00  0.00    +0.000 F 
ATOM     77  C55 UNL A   1      14.585  15.899   9.136  1.00  0.00    +0.000 C 
ATOM     78  F15 UNL A   1      14.381  15.590   7.847  1.00  0.00    +0.000 F 
ENDBRANCH   67   68
TORSDOF 20
ENDMDL
MODEL 8
REMARK VINA RESULT:     -10.5      1.238      2.796
ROOT
ATOM    129  H39 UNL A   1      55.747  19.692  13.184  1.00  0.00    +0.000 H 
ATOM    130  H40 UNL A   1      60.507  18.075  13.283  1.00  0.00    +0.000 H 
ATOM    131  H41 UNL A   1      60.587  18.855  15.720  1.00  0.00    +0.000 H 
ATOM    132  H42 UNL A   1      51.159  22.268  15.044  1.00  0.00    +0.000 H 
ATOM    133  H43 UNL A   1      50.933  21.177  12.739  1.00  0.00    +0.000 H 
ATOM     31  C26 UNL A   1      53.348  20.008  11.783  1.00  0.00    +0.000 C 
ATOM     32  C27 UNL A   1      53.102  20.636  13.124  1.00  0.00    +0.000 C 
ATOM     33  N3  UNL A   1      53.923  20.780  14.133  1.00  0.00    +0.000 N 
ATOM     34  C28 UNL A   1      53.202  21.449  15.113  1.00  0.00    +0.000 C 
ATOM     35  C29 UNL A   1      53.589  21.778  16.368  1.00  0.00    +0.000 C 
ATOM     47  C36 UNL A   1      54.882  21.480  16.922  1.00  0.00    +0.000 C 
ATOM     48  C37 UNL A   1      55.355  21.741  18.196  1.00  0.00    +0.000 C 
ATOM     49  C38 UNL A   1      56.680  21.298  18.271  1.00  0.00    +0.000 C 
ATOM     50  C39 UNL A   1      57.018  20.725  17.055  1.00  0.00    +0.000 C 
ATOM     51  N4  UNL A   1      55.908  20.849  16.236  1.00  0.00    +0.000 N 
ATOM     52  C40 UNL A   1      58.263  20.113  16.669  1.00  0.00    +0.000 C 
ATOM     64  C47 UNL A   1      58.516  19.555  15.461  1.00  0.00    +0.000 C 
ATOM     65  N5  UNL A   1      57.677  19.443  14.360  1.00  0.00    +0.000 N 
ATOM     66  C48 UNL A   1      58.378  18.840  13.432  1.00  0.00    +0.000 C 
ATOM     67  C49 UNL A   1      57.965  18.444  12.042  1.00  0.00    +0.000 C 
ATOM     79  C56 UNL A   1      56.719  18.725  11.617  1.00  0.00    +0.000 C 
ATOM     80  C57 UNL A   1      56.177  18.399  10.301  1.00  0.00    +0.000 C 
ATOM     81  C58 UNL A   1      54.914  18.850  10.223  1.00  0.00    +0.000 C 
ATOM     82  C59 UNL A   1      54.549  19.467  11.497  1.00  0.00    +0.000 C 
ATOM     83  N6  UNL A   1      55.683  19.354  12.262  1.00  0.00    +0.000 N 
ATOM     84  C60 UNL A   1      59.755  18.518  13.833  1.00  0.00    +0.000 C 
ATOM     85  C61 UNL A   1      59.776  18.945  15.089  1.00  0.00    +0.000 C 
ATOM     86  C62 UNL A   1      51.893  21.727  14.561  1.00  0.00    +0.000 C 
ATOM     87  C63 UNL A   1      51.761  21.195  13.355  1.00  0.00    +0.000 C 
ATOM    124  H34 UNL A   1      54.823  22.187  18.960  1.00  0.00    +0.000 H 
ATOM    125  H35 UNL A   1      57.299  21.383  19.091  1.00  0.00    +0.000 H 
ATOM    126  H36 UNL A   1      55.855  20.535  15.303  1.00  0.00    +0.000 H 
ATOM    127  H37 UNL A   1      56.683  17.902   9.551  1.00  0.00    +0.000 H 
ATOM    128  H38 UNL A   1      54.301  18.774   9.397  1.00  0.00    +0.000 H 
ENDROOT
BRANCH   31   30
ATOM    134  H44 UNL A   1      51.588  18.075  11.201  1.00  0.00    +0.000 H 
ATOM    135  H45 UNL A   1      49.913  18.033   9.448  1.00  0.00    +0.000 H 
ATOM    123  H33 UNL A   1      52.722  21.954  10.006  1.00  0.00    +0.000 H 
ATOM     88  C64 UNL A   1      51.461  18.897  10.588  1.00  0.00    +0.000 C 
ATOM     89  C65 UNL A   1      50.473  18.884   9.607  1.00  0.00    +0.000 C 
ATOM    122  H32 UNL A   1      50.922  21.976   8.378  1.00  0.00    +0.000 H 
ATOM     27  C22 UNL A   1      50.242  20.028   8.837  1.00  0.00    +0.000 C 
ATOM     28  C23 UNL A   1      51.069  21.146   8.974  1.00  0.00    +0.000 C 
ATOM     29  C24 UNL A   1      52.097  21.137   9.919  1.00  0.00    +0.000 C 
ATOM     30  C25 UNL A   1      52.284  20.021  10.749  1.00  0.00    +0.000 C 
BRANCH   27   25
ATOM     25  C21 UNL A   1      49.144  20.073   7.848  1.00  0.00    +0.000 C 
ATOM     26  O3  UNL A   1      48.412  21.058   7.796  1.00  0.00    +0.000 O 
BRANCH   25   24
ATOM    121  H31 UNL A   1      49.499  18.223   7.170  1.00  0.00    +0.000 H 
ATOM     24  N2  UNL A   1      48.939  19.015   7.000  1.00  0.00    +0.000 N 
BRANCH   24   23
ATOM    119  H29 UNL A   1      47.017  18.839   6.272  1.00  0.00    +0.000 H 
ATOM     23  C20 UNL A   1      48.013  18.897   5.886  1.00  0.00    +0.000 C 
ATOM    120  H30 UNL A   1      48.140  19.756   5.262  1.00  0.00    +0.000 H 
BRANCH   23   22
ATOM    118  H28 UNL A   1      49.300  17.737   4.710  1.00  0.00    +0.000 H 
ATOM    117  H27 UNL A   1      47.579  17.643   4.236  1.00  0.00    +0.000 H 
ATOM     22  C19 UNL A   1      48.285  17.658   5.039  1.00  0.00    +0.000 C 
BRANCH   22   21
ATOM    115  H25 UNL A   1      49.114  16.151   6.280  1.00  0.00    +0.000 H 
ATOM    116  H26 UNL A   1      47.353  16.431   6.458  1.00  0.00    +0.000 H 
ATOM     21  C18 UNL A   1      48.181  16.327   5.788  1.00  0.00    +0.000 C 
BRANCH   21   20
ATOM    113  H23 UNL A   1      48.504  15.136   4.060  1.00  0.00    +0.000 H 
ATOM    114  H24 UNL A   1      48.034  14.248   5.543  1.00  0.00    +0.000 H 
ATOM     20  C17 UNL A   1      47.868  15.102   4.920  1.00  0.00    +0.000 C 
BRANCH   20   19
ATOM     19  C16 UNL A   1      46.420  14.998   4.434  1.00  0.00    +0.000 C 
ATOM    111  H21 UNL A   1      46.213  13.972   4.214  1.00  0.00    +0.000 H 
ATOM    112  H22 UNL A   1      45.804  15.387   5.217  1.00  0.00    +0.000 H 
BRANCH   19   18
ATOM     18  C15 UNL A   1      46.117  15.825   3.186  1.00  0.00    +0.000 C 
ATOM    109  H19 UNL A   1      47.008  16.332   2.880  1.00  0.00    +0.000 H 
ATOM    110  H20 UNL A   1      45.772  15.160   2.420  1.00  0.00    +0.000 H 
BRANCH   18   17
ATOM     17  N1  UNL A   1      45.077  16.806   3.434  1.00  0.00    +0.000 N 
ATOM    108  H18 UNL A   1      44.326  16.470   3.975  1.00  0.00    +0.000 H 
BRANCH   17   15
ATOM     15  C14 UNL A   1      44.952  18.116   3.056  1.00  0.00    +0.000 C 
ATOM     16  O2  UNL A   1      45.991  18.674   2.690  1.00  0.00    +0.000 O 
BRANCH   15   13
ATOM      2  C2  UNL A   1      40.028  20.188   0.137  1.00  0.00    +0.000 C 
ATOM      3  C3  UNL A   1      41.351  19.720   0.337  1.00  0.00    +0.000 C 
ATOM      5  C5  UNL A   1      41.746  19.290   1.619  1.00  0.00    +0.000 C 
ATOM      6  C6  UNL A   1      40.834  19.269   2.689  1.00  0.00    +0.000 C 
ATOM      7  C7  UNL A   1      39.531  19.776   2.509  1.00  0.00    +0.000 C 
ATOM    101  H11 UNL A   1      40.524  18.058   4.391  1.00  0.00    +0.000 H 
ATOM      9  C9  UNL A   1      39.152  20.231   1.237  1.00  0.00    +0.000 C 
ATOM    102  H12 UNL A   1      41.363  19.574   4.702  1.00  0.00    +0.000 H 
ATOM     11  C10 UNL A   1      41.262  18.745   4.033  1.00  0.00    +0.000 C 
ATOM     12  C11 UNL A   1      42.597  18.035   3.947  1.00  0.00    +0.000 C 
ATOM     13  C12 UNL A   1      43.582  18.853   3.111  1.00  0.00    +0.000 C 
ATOM    103  H13 UNL A   1      42.457  17.077   3.490  1.00  0.00    +0.000 H 
ATOM    104  H14 UNL A   1      42.992  17.916   4.934  1.00  0.00    +0.000 H 
ATOM     90  O4  UNL A   1      43.059  18.899   1.761  1.00  0.00    +0.000 O 
BRANCH    2    1
ATOM      1  C1  UNL A   1      39.597  20.607  -1.246  1.00  0.00    +0.000 C 
ATOM     91  H1  UNL A   1      39.570  19.750  -1.886  1.00  0.00    +0.000 H 
ATOM     92  H2  UNL A   1      40.292  21.321  -1.635  1.00  0.00    +0.000 H 
ATOM     93  H3  UNL A   1      38.623  21.046  -1.198  1.00  0.00    +0.000 H 
ENDBRANCH    2    1
BRANCH    3    4
ATOM      4  C4  UNL A   1      42.334  19.700  -0.809  1.00  0.00    +0.000 C 
ATOM     94  H4  UNL A   1      42.736  18.715  -0.917  1.00  0.00    +0.000 H 
ATOM     95  H5  UNL A   1      43.129  20.389  -0.610  1.00  0.00    +0.000 H 
ATOM     96  H6  UNL A   1      41.836  19.982  -1.713  1.00  0.00    +0.000 H 
ENDBRANCH    3    4
BRANCH    7    8
ATOM     97  H7  UNL A   1      37.571  19.686   3.314  1.00  0.00    +0.000 H 
ATOM     98  H8  UNL A   1      38.647  20.775   4.158  1.00  0.00    +0.000 H 
ATOM     99  H9  UNL A   1      38.812  19.048   4.366  1.00  0.00    +0.000 H 
ATOM      8  C8  UNL A   1      38.570  19.825   3.671  1.00  0.00    +0.000 C 
ENDBRANCH    7    8
BRANCH    9   10
ATOM     10  O1  UNL A   1      37.879  20.721   1.113  1.00  0.00    +0.000 O 
ATOM    100  H10 UNL A   1      37.213  20.198   0.710  1.00  0.00    +0.000 H 
ENDBRANCH    9   10
BRANCH   13   14
ATOM    105  H15 UNL A   1      44.876  20.545   3.408  1.00  0.00    +0.000 H 
ATOM    106  H16 UNL A   1      43.576  20.432   4.570  1.00  0.00    +0.000 H 
ATOM    107  H17 UNL A   1      43.246  20.971   2.941  1.00  0.00    +0.000 H 
ATOM     14  C13 UNL A   1      43.840  20.312   3.540  1.00  0.00    +0.000 C 
ENDBRANCH   13   14
ENDBRANCH   15   13
ENDBRANCH   17   15
ENDBRANCH   18   17
ENDBRANCH   19   18
ENDBRANCH   20   19
ENDBRANCH   21   20
ENDBRANCH   22   21
ENDBRANCH   23   22
ENDBRANCH   24   23
ENDBRANCH   25   24
ENDBRANCH   27   25
ENDBRANCH   31   30
BRANCH   35   36
ATOM     36  C30 UNL A   1      52.595  22.491  17.235  1.00  0.00    +0.000 C 
ATOM     37  C31 UNL A   1      52.420  23.881  17.153  1.00  0.00    +0.000 C 
ATOM     38  F1  UNL A   1      53.188  24.609  16.330  1.00  0.00    +0.000 F 
ATOM     39  C32 UNL A   1      51.474  24.531  17.941  1.00  0.00    +0.000 C 
ATOM     40  F2  UNL A   1      51.351  25.864  17.872  1.00  0.00    +0.000 F 
ATOM     41  C33 UNL A   1      50.666  23.804  18.801  1.00  0.00    +0.000 C 
ATOM     42  F3  UNL A   1      49.750  24.430  19.552  1.00  0.00    +0.000 F 
ATOM     43  C34 UNL A   1      50.812  22.428  18.888  1.00  0.00    +0.000 C 
ATOM     44  F4  UNL A   1      50.026  21.722  19.712  1.00  0.00    +0.000 F 
ATOM     45  C35 UNL A   1      51.776  21.776  18.121  1.00  0.00    +0.000 C 
ATOM     46  F5  UNL A   1      51.900  20.446  18.234  1.00  0.00    +0.000 F 
ENDBRANCH   35   36
BRANCH   52   53
ATOM     53  C41 UNL A   1      59.362  20.079  17.689  1.00  0.00    +0.000 C 
ATOM     54  C42 UNL A   1      60.101  21.228  18.003  1.00  0.00    +0.000 C 
ATOM     55  F6  UNL A   1      59.890  22.370  17.333  1.00  0.00    +0.000 F 
ATOM     56  C43 UNL A   1      61.078  21.199  18.995  1.00  0.00    +0.000 C 
ATOM     57  F7  UNL A   1      61.794  22.301  19.259  1.00  0.00    +0.000 F 
ATOM     58  C44 UNL A   1      61.314  20.031  19.706  1.00  0.00    +0.000 C 
ATOM     59  F8  UNL A   1      62.246  20.010  20.670  1.00  0.00    +0.000 F 
ATOM     60  C45 UNL A   1      60.589  18.885  19.415  1.00  0.00    +0.000 C 
ATOM     61  F9  UNL A   1      60.808  17.761  20.109  1.00  0.00    +0.000 F 
ATOM     62  C46 UNL A   1      59.629  18.905  18.408  1.00  0.00    +0.000 C 
ATOM     63  F10 UNL A   1      58.943  17.782  18.148  1.00  0.00    +0.000 F 
ENDBRANCH   52   53
BRANCH   67   68
ATOM     68  C50 UNL A   1      58.900  17.717  11.146  1.00  0.00    +0.000 C 
ATOM     69  C51 UNL A   1      58.935  16.316  11.137  1.00  0.00    +0.000 C 
ATOM     70  F11 UNL A   1      58.150  15.623  11.975  1.00  0.00    +0.000 F 
ATOM     71  C52 UNL A   1      59.797  15.623  10.290  1.00  0.00    +0.000 C 
ATOM     72  F12 UNL A   1      59.831  14.285  10.322  1.00  0.00    +0.000 F 
ATOM     73  C53 UNL A   1      60.622  16.318   9.419  1.00  0.00    +0.000 C 
ATOM     74  F13 UNL A   1      61.443  15.651   8.596  1.00  0.00    +0.000 F 
ATOM     75  C54 UNL A   1      60.600  17.704   9.404  1.00  0.00    +0.000 C 
ATOM     76  F14 UNL A   1      61.388  18.379   8.556  1.00  0.00    +0.000 F 
ATOM     77  C55 UNL A   1      59.755  18.398  10.269  1.00  0.00    +0.000 C 
ATOM     78  F15 UNL A   1      59.755  19.739  10.236  1.00  0.00    +0.000 F 
ENDBRANCH   67   68
TORSDOF 20
ENDMDL
MODEL 9
REMARK VINA RESULT:     -10.5     32.127     39.222
ROOT
ATOM    129  H39 UNL A   1      47.896  11.253  49.503  1.00  0.00    +0.000 H 
ATOM    130  H40 UNL A   1      49.243   8.721  53.632  1.00  0.00    +0.000 H 
ATOM    131  H41 UNL A   1      50.754  10.708  54.203  1.00  0.00    +0.000 H 
ATOM    132  H42 UNL A   1      48.075  15.322  45.687  1.00  0.00    +0.000 H 
ATOM    133  H43 UNL A   1      46.296  13.527  45.278  1.00  0.00    +0.000 H 
ATOM     31  C26 UNL A   1      46.352  11.404  47.176  1.00  0.00    +0.000 C 
ATOM     32  C27 UNL A   1      47.181  12.656  47.177  1.00  0.00    +0.000 C 
ATOM     33  N3  UNL A   1      48.091  13.046  48.033  1.00  0.00    +0.000 N 
ATOM     34  C28 UNL A   1      48.567  14.258  47.551  1.00  0.00    +0.000 C 
ATOM     35  C29 UNL A   1      49.474  15.091  48.113  1.00  0.00    +0.000 C 
ATOM     47  C36 UNL A   1      50.137  14.843  49.365  1.00  0.00    +0.000 C 
ATOM     48  C37 UNL A   1      51.045  15.644  50.034  1.00  0.00    +0.000 C 
ATOM     49  C38 UNL A   1      51.441  14.978  51.199  1.00  0.00    +0.000 C 
ATOM     50  C39 UNL A   1      50.750  13.780  51.275  1.00  0.00    +0.000 C 
ATOM     51  N4  UNL A   1      49.958  13.707  50.141  1.00  0.00    +0.000 N 
ATOM     52  C40 UNL A   1      50.810  12.775  52.304  1.00  0.00    +0.000 C 
ATOM     64  C47 UNL A   1      50.086  11.629  52.318  1.00  0.00    +0.000 C 
ATOM     65  N5  UNL A   1      49.159  11.173  51.392  1.00  0.00    +0.000 N 
ATOM     66  C48 UNL A   1      48.742  10.015  51.839  1.00  0.00    +0.000 C 
ATOM     67  C49 UNL A   1      47.721   9.083  51.247  1.00  0.00    +0.000 C 
ATOM     79  C56 UNL A   1      47.116   9.414  50.090  1.00  0.00    +0.000 C 
ATOM     80  C57 UNL A   1      46.107   8.616  49.401  1.00  0.00    +0.000 C 
ATOM     81  C58 UNL A   1      45.748   9.244  48.270  1.00  0.00    +0.000 C 
ATOM     82  C59 UNL A   1      46.480  10.507  48.173  1.00  0.00    +0.000 C 
ATOM     83  N6  UNL A   1      47.273  10.521  49.293  1.00  0.00    +0.000 N 
ATOM     84  C60 UNL A   1      49.375   9.592  53.097  1.00  0.00    +0.000 C 
ATOM     85  C61 UNL A   1      50.162  10.627  53.361  1.00  0.00    +0.000 C 
ATOM     86  C62 UNL A   1      47.881  14.517  46.303  1.00  0.00    +0.000 C 
ATOM     87  C63 UNL A   1      46.973  13.585  46.055  1.00  0.00    +0.000 C 
ATOM    124  H34 UNL A   1      51.374  16.572  49.727  1.00  0.00    +0.000 H 
ATOM    125  H35 UNL A   1      52.131  15.321  51.885  1.00  0.00    +0.000 H 
ATOM    126  H36 UNL A   1      49.356  12.959  49.918  1.00  0.00    +0.000 H 
ATOM    127  H37 UNL A   1      45.730   7.713  49.731  1.00  0.00    +0.000 H 
ATOM    128  H38 UNL A   1      45.066   8.893  47.580  1.00  0.00    +0.000 H 
ENDROOT
BRANCH   31   30
ATOM    134  H44 UNL A   1      43.734  11.944  47.028  1.00  0.00    +0.000 H 
ATOM    135  H45 UNL A   1      42.176  11.406  45.249  1.00  0.00    +0.000 H 
ATOM    123  H33 UNL A   1      46.861  10.210  44.799  1.00  0.00    +0.000 H 
ATOM     88  C64 UNL A   1      44.071  11.479  46.170  1.00  0.00    +0.000 C 
ATOM     89  C65 UNL A   1      43.181  11.206  45.134  1.00  0.00    +0.000 C 
ATOM    122  H32 UNL A   1      45.333   9.842  42.948  1.00  0.00    +0.000 H 
ATOM     27  C22 UNL A   1      43.653  10.657  43.938  1.00  0.00    +0.000 C 
ATOM     28  C23 UNL A   1      44.995  10.282  43.818  1.00  0.00    +0.000 C 
ATOM     29  C24 UNL A   1      45.874  10.505  44.878  1.00  0.00    +0.000 C 
ATOM     30  C25 UNL A   1      45.424  11.127  46.053  1.00  0.00    +0.000 C 
BRANCH   27   25
ATOM     25  C21 UNL A   1      42.748  10.435  42.791  1.00  0.00    +0.000 C 
ATOM     26  O3  UNL A   1      42.517   9.290  42.410  1.00  0.00    +0.000 O 
BRANCH   25   24
ATOM    121  H31 UNL A   1      42.625  11.789  41.322  1.00  0.00    +0.000 H 
ATOM     24  N2  UNL A   1      42.175  11.504  42.150  1.00  0.00    +0.000 N 
BRANCH   24   23
ATOM    119  H29 UNL A   1      40.151  11.873  42.005  1.00  0.00    +0.000 H 
ATOM     23  C20 UNL A   1      41.000  12.274  42.519  1.00  0.00    +0.000 C 
ATOM    120  H30 UNL A   1      40.882  12.205  43.579  1.00  0.00    +0.000 H 
BRANCH   23   22
ATOM    118  H28 UNL A   1      41.121  14.287  43.083  1.00  0.00    +0.000 H 
ATOM    117  H27 UNL A   1      40.337  14.009  41.500  1.00  0.00    +0.000 H 
ATOM     22  C19 UNL A   1      41.140  13.750  42.158  1.00  0.00    +0.000 C 
BRANCH   22   21
ATOM    115  H25 UNL A   1      43.026  14.722  42.153  1.00  0.00    +0.000 H 
ATOM    116  H26 UNL A   1      42.927  13.199  41.212  1.00  0.00    +0.000 H 
ATOM     21  C18 UNL A   1      42.457  14.125  41.472  1.00  0.00    +0.000 C 
BRANCH   21   20
ATOM    113  H23 UNL A   1      42.756  14.323  39.379  1.00  0.00    +0.000 H 
ATOM    114  H24 UNL A   1      41.271  15.083  40.030  1.00  0.00    +0.000 H 
ATOM     20  C17 UNL A   1      42.319  14.908  40.161  1.00  0.00    +0.000 C 
BRANCH   20   19
ATOM     19  C16 UNL A   1      42.985  16.287  40.149  1.00  0.00    +0.000 C 
ATOM    111  H21 UNL A   1      42.381  16.946  39.562  1.00  0.00    +0.000 H 
ATOM    112  H22 UNL A   1      43.066  16.597  41.170  1.00  0.00    +0.000 H 
BRANCH   19   18
ATOM     18  C15 UNL A   1      44.400  16.294  39.575  1.00  0.00    +0.000 C 
ATOM    109  H19 UNL A   1      44.621  15.324  39.181  1.00  0.00    +0.000 H 
ATOM    110  H20 UNL A   1      44.445  17.039  38.806  1.00  0.00    +0.000 H 
BRANCH   18   17
ATOM     17  N1  UNL A   1      45.386  16.628  40.586  1.00  0.00    +0.000 N 
ATOM    108  H18 UNL A   1      45.902  15.858  40.915  1.00  0.00    +0.000 H 
BRANCH   17   15
ATOM     15  C14 UNL A   1      45.731  17.821  41.164  1.00  0.00    +0.000 C 
ATOM     16  O2  UNL A   1      46.425  18.573  40.474  1.00  0.00    +0.000 O 
BRANCH   15   13
ATOM      2  C2  UNL A   1      44.050  15.979  46.717  1.00  0.00    +0.000 C 
ATOM      3  C3  UNL A   1      44.295  15.928  45.321  1.00  0.00    +0.000 C 
ATOM      5  C5  UNL A   1      44.900  17.029  44.685  1.00  0.00    +0.000 C 
ATOM      6  C6  UNL A   1      45.313  18.154  45.422  1.00  0.00    +0.000 C 
ATOM      7  C7  UNL A   1      45.031  18.231  46.801  1.00  0.00    +0.000 C 
ATOM    101  H11 UNL A   1      46.887  19.556  45.292  1.00  0.00    +0.000 H 
ATOM      9  C9  UNL A   1      44.400  17.143  47.424  1.00  0.00    +0.000 C 
ATOM    102  H12 UNL A   1      45.340  20.118  44.668  1.00  0.00    +0.000 H 
ATOM     11  C10 UNL A   1      46.016  19.291  44.730  1.00  0.00    +0.000 C 
ATOM     12  C11 UNL A   1      46.432  18.907  43.326  1.00  0.00    +0.000 C 
ATOM     13  C12 UNL A   1      45.289  18.184  42.611  1.00  0.00    +0.000 C 
ATOM    103  H13 UNL A   1      47.283  18.260  43.375  1.00  0.00    +0.000 H 
ATOM    104  H14 UNL A   1      46.677  19.795  42.781  1.00  0.00    +0.000 H 
ATOM     90  O4  UNL A   1      45.062  16.942  43.321  1.00  0.00    +0.000 O 
BRANCH    2    1
ATOM      1  C1  UNL A   1      43.440  14.780  47.400  1.00  0.00    +0.000 C 
ATOM     91  H1  UNL A   1      43.974  13.898  47.116  1.00  0.00    +0.000 H 
ATOM     92  H2  UNL A   1      42.415  14.687  47.108  1.00  0.00    +0.000 H 
ATOM     93  H3  UNL A   1      43.499  14.907  48.461  1.00  0.00    +0.000 H 
ENDBRANCH    2    1
BRANCH    3    4
ATOM      4  C4  UNL A   1      43.893  14.713  44.520  1.00  0.00    +0.000 C 
ATOM     94  H4  UNL A   1      43.360  14.032  45.150  1.00  0.00    +0.000 H 
ATOM     95  H5  UNL A   1      44.769  14.232  44.136  1.00  0.00    +0.000 H 
ATOM     96  H6  UNL A   1      43.265  15.012  43.707  1.00  0.00    +0.000 H 
ENDBRANCH    3    4
BRANCH    7    8
ATOM     97  H7  UNL A   1      44.848  20.303  47.217  1.00  0.00    +0.000 H 
ATOM     98  H8  UNL A   1      46.452  19.656  47.469  1.00  0.00    +0.000 H 
ATOM     99  H9  UNL A   1      45.181  19.313  48.618  1.00  0.00    +0.000 H 
ATOM      8  C8  UNL A   1      45.404  19.465  47.583  1.00  0.00    +0.000 C 
ENDBRANCH    7    8
BRANCH    9   10
ATOM     10  O1  UNL A   1      44.140  17.267  48.763  1.00  0.00    +0.000 O 
ATOM    100  H10 UNL A   1      43.382  17.738  49.051  1.00  0.00    +0.000 H 
ENDBRANCH    9   10
BRANCH   13   14
ATOM    105  H15 UNL A   1      44.091  19.962  42.450  1.00  0.00    +0.000 H 
ATOM    106  H16 UNL A   1      43.361  18.699  43.413  1.00  0.00    +0.000 H 
ATOM    107  H17 UNL A   1      43.392  18.562  41.671  1.00  0.00    +0.000 H 
ATOM     14  C13 UNL A   1      43.929  18.907  42.530  1.00  0.00    +0.000 C 
ENDBRANCH   13   14
ENDBRANCH   15   13
ENDBRANCH   17   15
ENDBRANCH   18   17
ENDBRANCH   19   18
ENDBRANCH   20   19
ENDBRANCH   21   20
ENDBRANCH   22   21
ENDBRANCH   23   22
ENDBRANCH   24   23
ENDBRANCH   25   24
ENDBRANCH   27   25
ENDBRANCH   31   30
BRANCH   35   36
ATOM     36  C30 UNL A   1      49.797  16.359  47.382  1.00  0.00    +0.000 C 
ATOM     37  C31 UNL A   1      50.876  16.430  46.486  1.00  0.00    +0.000 C 
ATOM     38  F1  UNL A   1      51.678  15.370  46.313  1.00  0.00    +0.000 F 
ATOM     39  C32 UNL A   1      51.151  17.603  45.789  1.00  0.00    +0.000 C 
ATOM     40  F2  UNL A   1      52.209  17.659  44.968  1.00  0.00    +0.000 F 
ATOM     41  C33 UNL A   1      50.339  18.715  45.949  1.00  0.00    +0.000 C 
ATOM     42  F3  UNL A   1      50.599  19.840  45.270  1.00  0.00    +0.000 F 
ATOM     43  C34 UNL A   1      49.259  18.663  46.818  1.00  0.00    +0.000 C 
ATOM     44  F4  UNL A   1      48.466  19.733  46.966  1.00  0.00    +0.000 F 
ATOM     45  C35 UNL A   1      48.995  17.499  47.537  1.00  0.00    +0.000 C 
ATOM     46  F5  UNL A   1      47.950  17.482  48.377  1.00  0.00    +0.000 F 
ENDBRANCH   35   36
BRANCH   52   53
ATOM     53  C41 UNL A   1      51.737  13.021  53.457  1.00  0.00    +0.000 C 
ATOM     54  C42 UNL A   1      53.081  12.625  53.409  1.00  0.00    +0.000 C 
ATOM     55  F6  UNL A   1      53.546  11.940  52.355  1.00  0.00    +0.000 F 
ATOM     56  C43 UNL A   1      53.947  12.912  54.461  1.00  0.00    +0.000 C 
ATOM     57  F7  UNL A   1      55.221  12.498  54.409  1.00  0.00    +0.000 F 
ATOM     58  C44 UNL A   1      53.493  13.622  55.564  1.00  0.00    +0.000 C 
ATOM     59  F8  UNL A   1      54.332  13.909  56.568  1.00  0.00    +0.000 F 
ATOM     60  C45 UNL A   1      52.168  14.029  55.627  1.00  0.00    +0.000 C 
ATOM     61  F9  UNL A   1      51.732  14.724  56.685  1.00  0.00    +0.000 F 
ATOM     62  C46 UNL A   1      51.294  13.722  54.588  1.00  0.00    +0.000 C 
ATOM     63  F10 UNL A   1      50.019  14.127  54.676  1.00  0.00    +0.000 F 
ENDBRANCH   52   53
BRANCH   67   68
ATOM     68  C50 UNL A   1      47.344   7.824  51.938  1.00  0.00    +0.000 C 
ATOM     69  C51 UNL A   1      46.232   7.782  52.790  1.00  0.00    +0.000 C 
ATOM     70  F11 UNL A   1      45.524   8.897  53.019  1.00  0.00    +0.000 F 
ATOM     71  C52 UNL A   1      45.861   6.602  53.430  1.00  0.00    +0.000 C 
ATOM     72  F12 UNL A   1      44.811   6.596  54.261  1.00  0.00    +0.000 F 
ATOM     73  C53 UNL A   1      46.581   5.437  53.214  1.00  0.00    +0.000 C 
ATOM     74  F13 UNL A   1      46.218   4.299  53.822  1.00  0.00    +0.000 F 
ATOM     75  C54 UNL A   1      47.682   5.453  52.370  1.00  0.00    +0.000 C 
ATOM     76  F14 UNL A   1      48.373   4.326  52.149  1.00  0.00    +0.000 F 
ATOM     77  C55 UNL A   1      48.068   6.638  51.747  1.00  0.00    +0.000 C 
ATOM     78  F15 UNL A   1      49.137   6.626  50.938  1.00  0.00    +0.000 F 
ENDBRANCH   67   68
TORSDOF 20
ENDMDL
MODEL 10
REMARK VINA RESULT:     -10.4     45.458     50.523
ROOT
ATOM    129  H39 UNL A   1      14.479  51.575   3.510  1.00  0.00    +0.000 H 
ATOM    130  H40 UNL A   1      13.556  46.718   2.593  1.00  0.00    +0.000 H 
ATOM    131  H41 UNL A   1      15.228  46.897   0.662  1.00  0.00    +0.000 H 
ATOM    132  H42 UNL A   1      16.566  56.668   2.589  1.00  0.00    +0.000 H 
ATOM    133  H43 UNL A   1      15.188  56.430   4.734  1.00  0.00    +0.000 H 
ATOM     31  C26 UNL A   1      14.029  53.850   5.072  1.00  0.00    +0.000 C 
ATOM     32  C27 UNL A   1      14.968  54.299   3.989  1.00  0.00    +0.000 C 
ATOM     33  N3  UNL A   1      15.456  53.619   2.983  1.00  0.00    +0.000 N 
ATOM     34  C28 UNL A   1      16.245  54.513   2.272  1.00  0.00    +0.000 C 
ATOM     35  C29 UNL A   1      17.014  54.277   1.183  1.00  0.00    +0.000 C 
ATOM     47  C36 UNL A   1      17.143  52.996   0.543  1.00  0.00    +0.000 C 
ATOM     48  C37 UNL A   1      17.925  52.650  -0.545  1.00  0.00    +0.000 C 
ATOM     49  C38 UNL A   1      17.705  51.298  -0.830  1.00  0.00    +0.000 C 
ATOM     50  C39 UNL A   1      16.815  50.793   0.105  1.00  0.00    +0.000 C 
ATOM     51  N4  UNL A   1      16.474  51.847   0.937  1.00  0.00    +0.000 N 
ATOM     52  C40 UNL A   1      16.311  49.450   0.226  1.00  0.00    +0.000 C 
ATOM     64  C47 UNL A   1      15.451  49.024   1.183  1.00  0.00    +0.000 C 
ATOM     65  N5  UNL A   1      14.879  49.743   2.223  1.00  0.00    +0.000 N 
ATOM     66  C48 UNL A   1      14.112  48.899   2.867  1.00  0.00    +0.000 C 
ATOM     67  C49 UNL A   1      13.268  49.129   4.090  1.00  0.00    +0.000 C 
ATOM     79  C56 UNL A   1      13.238  50.353   4.651  1.00  0.00    +0.000 C 
ATOM     80  C57 UNL A   1      12.472  50.724   5.837  1.00  0.00    +0.000 C 
ATOM     81  C58 UNL A   1      12.663  52.028   6.093  1.00  0.00    +0.000 C 
ATOM     82  C59 UNL A   1      13.594  52.576   5.106  1.00  0.00    +0.000 C 
ATOM     83  N6  UNL A   1      13.877  51.512   4.286  1.00  0.00    +0.000 N 
ATOM     84  C60 UNL A   1      14.094  47.545   2.293  1.00  0.00    +0.000 C 
ATOM     85  C61 UNL A   1      14.952  47.669   1.289  1.00  0.00    +0.000 C 
ATOM     86  C62 UNL A   1      16.132  55.797   2.931  1.00  0.00    +0.000 C 
ATOM     87  C63 UNL A   1      15.400  55.705   4.031  1.00  0.00    +0.000 C 
ATOM    124  H34 UNL A   1      18.562  53.280  -1.057  1.00  0.00    +0.000 H 
ATOM    125  H35 UNL A   1      18.132  50.767  -1.604  1.00  0.00    +0.000 H 
ATOM    126  H36 UNL A   1      15.849  51.788   1.696  1.00  0.00    +0.000 H 
ATOM    127  H37 UNL A   1      11.878  50.086   6.390  1.00  0.00    +0.000 H 
ATOM    128  H38 UNL A   1      12.225  52.559   6.861  1.00  0.00    +0.000 H 
ENDROOT
BRANCH   31   30
ATOM    134  H44 UNL A   1      11.872  55.430   4.932  1.00  0.00    +0.000 H 
ATOM    135  H45 UNL A   1      11.114  57.099   6.519  1.00  0.00    +0.000 H 
ATOM    123  H33 UNL A   1      15.095  54.491   7.478  1.00  0.00    +0.000 H 
ATOM     88  C64 UNL A   1      12.384  55.571   5.817  1.00  0.00    +0.000 C 
ATOM     89  C65 UNL A   1      11.925  56.504   6.743  1.00  0.00    +0.000 C 
ATOM    122  H32 UNL A   1      14.226  56.031   9.141  1.00  0.00    +0.000 H 
ATOM     27  C22 UNL A   1      12.567  56.632   7.979  1.00  0.00    +0.000 C 
ATOM     28  C23 UNL A   1      13.732  55.906   8.244  1.00  0.00    +0.000 C 
ATOM     29  C24 UNL A   1      14.224  55.013   7.292  1.00  0.00    +0.000 C 
ATOM     30  C25 UNL A   1      13.540  54.821   6.081  1.00  0.00    +0.000 C 
BRANCH   27   25
ATOM     25  C21 UNL A   1      12.051  57.552   9.014  1.00  0.00    +0.000 C 
ATOM     26  O3  UNL A   1      12.433  58.720   9.036  1.00  0.00    +0.000 O 
BRANCH   25   24
ATOM    121  H31 UNL A   1      10.619  57.798  10.391  1.00  0.00    +0.000 H 
ATOM     24  N2  UNL A   1      11.158  57.101   9.953  1.00  0.00    +0.000 N 
BRANCH   24   23
ATOM    119  H29 UNL A   1       9.839  55.571  10.372  1.00  0.00    +0.000 H 
ATOM     23  C20 UNL A   1      10.896  55.741  10.390  1.00  0.00    +0.000 C 
ATOM    120  H30 UNL A   1      11.408  55.077   9.727  1.00  0.00    +0.000 H 
BRANCH   23   22
ATOM    118  H28 UNL A   1      10.586  55.662  12.460  1.00  0.00    +0.000 H 
ATOM    117  H27 UNL A   1      12.243  56.128  11.978  1.00  0.00    +0.000 H 
ATOM     22  C19 UNL A   1      11.410  55.480  11.803  1.00  0.00    +0.000 C 
BRANCH   22   21
ATOM    115  H25 UNL A   1      11.737  53.846  13.115  1.00  0.00    +0.000 H 
ATOM    116  H26 UNL A   1      11.259  53.422  11.440  1.00  0.00    +0.000 H 
ATOM     21  C18 UNL A   1      11.862  54.041  12.071  1.00  0.00    +0.000 C 
BRANCH   21   20
ATOM    113  H23 UNL A   1      13.340  52.757  11.248  1.00  0.00    +0.000 H 
ATOM    114  H24 UNL A   1      13.634  54.513  11.050  1.00  0.00    +0.000 H 
ATOM     20  C17 UNL A   1      13.317  53.726  11.703  1.00  0.00    +0.000 C 
BRANCH   20   19
ATOM     19  C16 UNL A   1      14.302  53.723  12.874  1.00  0.00    +0.000 C 
ATOM    111  H21 UNL A   1      14.787  54.675  12.907  1.00  0.00    +0.000 H 
ATOM    112  H22 UNL A   1      13.731  53.517  13.755  1.00  0.00    +0.000 H 
BRANCH   19   18
ATOM     18  C15 UNL A   1      15.377  52.641  12.787  1.00  0.00    +0.000 C 
ATOM    109  H19 UNL A   1      16.340  53.102  12.848  1.00  0.00    +0.000 H 
ATOM    110  H20 UNL A   1      15.228  51.957  13.598  1.00  0.00    +0.000 H 
BRANCH   18   17
ATOM     17  N1  UNL A   1      15.287  51.896  11.545  1.00  0.00    +0.000 N 
ATOM    108  H18 UNL A   1      15.199  52.460  10.743  1.00  0.00    +0.000 H 
BRANCH   17   15
ATOM     15  C14 UNL A   1      15.306  50.552  11.285  1.00  0.00    +0.000 C 
ATOM     16  O2  UNL A   1      16.424  50.041  11.169  1.00  0.00    +0.000 O 
BRANCH   15   13
ATOM      2  C2  UNL A   1       9.807  49.970   8.740  1.00  0.00    +0.000 C 
ATOM      3  C3  UNL A   1      11.000  50.590   9.192  1.00  0.00    +0.000 C 
ATOM      5  C5  UNL A   1      12.026  49.797   9.739  1.00  0.00    +0.000 C 
ATOM      6  C6  UNL A   1      11.908  48.396   9.795  1.00  0.00    +0.000 C 
ATOM      7  C7  UNL A   1      10.707  47.778   9.390  1.00  0.00    +0.000 C 
ATOM    101  H11 UNL A   1      13.232  46.757   9.648  1.00  0.00    +0.000 H 
ATOM      9  C9  UNL A   1       9.676  48.576   8.874  1.00  0.00    +0.000 C 
ATOM    102  H12 UNL A   1      12.771  47.193  11.290  1.00  0.00    +0.000 H 
ATOM     11  C10 UNL A   1      13.045  47.565  10.325  1.00  0.00    +0.000 C 
ATOM     12  C11 UNL A   1      14.307  48.388  10.470  1.00  0.00    +0.000 C 
ATOM     13  C12 UNL A   1      13.992  49.734  11.124  1.00  0.00    +0.000 C 
ATOM    103  H13 UNL A   1      14.731  48.557   9.501  1.00  0.00    +0.000 H 
ATOM    104  H14 UNL A   1      15.001  47.855  11.086  1.00  0.00    +0.000 H 
ATOM     90  O4  UNL A   1      13.136  50.461  10.210  1.00  0.00    +0.000 O 
BRANCH    2    1
ATOM      1  C1  UNL A   1       8.728  50.820   8.116  1.00  0.00    +0.000 C 
ATOM     91  H1  UNL A   1       9.074  51.206   7.180  1.00  0.00    +0.000 H 
ATOM     92  H2  UNL A   1       8.490  51.631   8.771  1.00  0.00    +0.000 H 
ATOM     93  H3  UNL A   1       7.854  50.224   7.954  1.00  0.00    +0.000 H 
ENDBRANCH    2    1
BRANCH    3    4
ATOM      4  C4  UNL A   1      11.160  52.089   9.106  1.00  0.00    +0.000 C 
ATOM     94  H4  UNL A   1      11.375  52.481  10.078  1.00  0.00    +0.000 H 
ATOM     95  H5  UNL A   1      10.254  52.525   8.739  1.00  0.00    +0.000 H 
ATOM     96  H6  UNL A   1      11.964  52.325   8.441  1.00  0.00    +0.000 H 
ENDBRANCH    3    4
BRANCH    7    8
ATOM     97  H7  UNL A   1       9.581  46.061   9.920  1.00  0.00    +0.000 H 
ATOM     98  H8  UNL A   1      11.303  45.896  10.165  1.00  0.00    +0.000 H 
ATOM     99  H9  UNL A   1      10.640  45.832   8.549  1.00  0.00    +0.000 H 
ATOM      8  C8  UNL A   1      10.546  46.283   9.515  1.00  0.00    +0.000 C 
ENDBRANCH    7    8
BRANCH    9   10
ATOM     10  O1  UNL A   1       8.526  47.931   8.501  1.00  0.00    +0.000 O 
ATOM    100  H10 UNL A   1       7.811  48.420   8.142  1.00  0.00    +0.000 H 
ENDBRANCH    9   10
BRANCH   13   14
ATOM    105  H15 UNL A   1      13.815  50.312  13.188  1.00  0.00    +0.000 H 
ATOM    106  H16 UNL A   1      13.221  48.704  12.847  1.00  0.00    +0.000 H 
ATOM    107  H17 UNL A   1      12.281  50.100  12.376  1.00  0.00    +0.000 H 
ATOM     14  C13 UNL A   1      13.272  49.711  12.488  1.00  0.00    +0.000 C 
ENDBRANCH   13   14
ENDBRANCH   15   13
ENDBRANCH   17   15
ENDBRANCH   18   17
ENDBRANCH   19   18
ENDBRANCH   20   19
ENDBRANCH   21   20
ENDBRANCH   22   21
ENDBRANCH   23   22
ENDBRANCH   24   23
ENDBRANCH   25   24
ENDBRANCH   27   25
ENDBRANCH   31   30
BRANCH   35   36
ATOM     36  C30 UNL A   1      17.787  55.431   0.618  1.00  0.00    +0.000 C 
ATOM     37  C31 UNL A   1      19.046  55.785   1.128  1.00  0.00    +0.000 C 
ATOM     38  F1  UNL A   1      19.556  55.126   2.179  1.00  0.00    +0.000 F 
ATOM     39  C32 UNL A   1      19.771  56.839   0.579  1.00  0.00    +0.000 C 
ATOM     40  F2  UNL A   1      20.953  57.183   1.108  1.00  0.00    +0.000 F 
ATOM     41  C33 UNL A   1      19.267  57.538  -0.507  1.00  0.00    +0.000 C 
ATOM     42  F3  UNL A   1      19.970  58.546  -1.041  1.00  0.00    +0.000 F 
ATOM     43  C34 UNL A   1      18.032  57.196  -1.037  1.00  0.00    +0.000 C 
ATOM     44  F4  UNL A   1      17.548  57.865  -2.093  1.00  0.00    +0.000 F 
ATOM     45  C35 UNL A   1      17.291  56.159  -0.473  1.00  0.00    +0.000 C 
ATOM     46  F5  UNL A   1      16.096  55.859  -1.001  1.00  0.00    +0.000 F 
ENDBRANCH   35   36
BRANCH   52   53
ATOM     53  C41 UNL A   1      16.785  48.440  -0.775  1.00  0.00    +0.000 C 
ATOM     54  C42 UNL A   1      16.026  48.130  -1.913  1.00  0.00    +0.000 C 
ATOM     55  F6  UNL A   1      14.814  48.676  -2.085  1.00  0.00    +0.000 F 
ATOM     56  C43 UNL A   1      16.504  47.235  -2.867  1.00  0.00    +0.000 C 
ATOM     57  F7  UNL A   1      15.750  46.929  -3.932  1.00  0.00    +0.000 F 
ATOM     58  C44 UNL A   1      17.756  46.658  -2.715  1.00  0.00    +0.000 C 
ATOM     59  F8  UNL A   1      18.220  45.808  -3.642  1.00  0.00    +0.000 F 
ATOM     60  C45 UNL A   1      18.526  46.957  -1.601  1.00  0.00    +0.000 C 
ATOM     61  F9  UNL A   1      19.740  46.409  -1.459  1.00  0.00    +0.000 F 
ATOM     62  C46 UNL A   1      18.041  47.832  -0.633  1.00  0.00    +0.000 C 
ATOM     63  F10 UNL A   1      18.806  48.103   0.434  1.00  0.00    +0.000 F 
ENDBRANCH   52   53
BRANCH   67   68
ATOM     68  C50 UNL A   1      12.498  48.019   4.706  1.00  0.00    +0.000 C 
ATOM     69  C51 UNL A   1      11.246  47.649   4.197  1.00  0.00    +0.000 C 
ATOM     70  F11 UNL A   1      10.715  48.329   3.171  1.00  0.00    +0.000 F 
ATOM     71  C52 UNL A   1      10.524  46.599   4.758  1.00  0.00    +0.000 C 
ATOM     72  F12 UNL A   1       9.317  46.284   4.270  1.00  0.00    +0.000 F 
ATOM     73  C53 UNL A   1      11.049  45.884   5.824  1.00  0.00    +0.000 C 
ATOM     74  F13 UNL A   1      10.358  44.867   6.357  1.00  0.00    +0.000 F 
ATOM     75  C54 UNL A   1      12.289  46.228   6.341  1.00  0.00    +0.000 C 
ATOM     76  F14 UNL A   1      12.806  45.532   7.363  1.00  0.00    +0.000 F 
ATOM     77  C55 UNL A   1      13.003  47.294   5.795  1.00  0.00    +0.000 C 
ATOM     78  F15 UNL A   1      14.199  47.606   6.315  1.00  0.00    +0.000 F 
ENDBRANCH   67   68
TORSDOF 20
ENDMDL
