MODEL 1
REMARK VINA RESULT:      -8.4      0.000      0.000
ROOT
ATOM    129  H33 UNL A   1      15.570  56.696   4.168  1.00  0.00    +0.000 H 
ATOM     25  C20 UNL A   1      14.390  54.126   4.517  1.00  0.00    +0.000 C 
ATOM     26  C21 UNL A   1      15.357  54.556   3.449  1.00  0.00    +0.000 C 
ATOM     27  N3  UNL A   1      15.865  53.860   2.463  1.00  0.00    +0.000 N 
ATOM     28  C22 UNL A   1      16.662  54.744   1.748  1.00  0.00    +0.000 C 
ATOM     29  C23 UNL A   1      17.447  54.493   0.673  1.00  0.00    +0.000 C 
ATOM     41  C30 UNL A   1      17.596  53.198   0.061  1.00  0.00    +0.000 C 
ATOM     42  C31 UNL A   1      18.419  52.829  -0.990  1.00  0.00    +0.000 C 
ATOM     43  C32 UNL A   1      18.193  51.477  -1.268  1.00  0.00    +0.000 C 
ATOM     44  C33 UNL A   1      17.263  50.992  -0.362  1.00  0.00    +0.000 C 
ATOM     45  N4  UNL A   1      16.903  52.060   0.445  1.00  0.00    +0.000 N 
ATOM     46  C34 UNL A   1      16.740  49.656  -0.242  1.00  0.00    +0.000 C 
ATOM     58  C41 UNL A   1      15.840  49.254   0.690  1.00  0.00    +0.000 C 
ATOM     59  N5  UNL A   1      15.239  49.995   1.699  1.00  0.00    +0.000 N 
ATOM     60  C42 UNL A   1      14.437  49.169   2.323  1.00  0.00    +0.000 C 
ATOM     61  C43 UNL A   1      13.553  49.421   3.513  1.00  0.00    +0.000 C 
ATOM     73  C50 UNL A   1      13.545  50.642   4.081  1.00  0.00    +0.000 C 
ATOM     74  C51 UNL A   1      12.749  51.032   5.241  1.00  0.00    +0.000 C 
ATOM     75  C52 UNL A   1      12.963  52.332   5.502  1.00  0.00    +0.000 C 
ATOM     76  C53 UNL A   1      13.938  52.857   4.547  1.00  0.00    +0.000 C 
ATOM     77  N6  UNL A   1      14.231  51.784   3.744  1.00  0.00    +0.000 N 
ATOM     78  C54 UNL A   1      14.422  47.810   1.765  1.00  0.00    +0.000 C 
ATOM     79  C55 UNL A   1      15.323  47.906   0.798  1.00  0.00    +0.000 C 
ATOM     80  C56 UNL A   1      16.534  56.038   2.384  1.00  0.00    +0.000 C 
ATOM     81  C57 UNL A   1      15.789  55.961   3.477  1.00  0.00    +0.000 C 
ATOM    120  H24 UNL A   1      19.084  53.446  -1.483  1.00  0.00    +0.000 H 
ATOM    121  H25 UNL A   1      18.643  50.933  -2.021  1.00  0.00    +0.000 H 
ATOM    122  H26 UNL A   1      16.252  52.017   1.182  1.00  0.00    +0.000 H 
ATOM    123  H27 UNL A   1      12.122  50.409   5.774  1.00  0.00    +0.000 H 
ATOM    124  H28 UNL A   1      12.511  52.872   6.257  1.00  0.00    +0.000 H 
ATOM    125  H29 UNL A   1      14.872  51.827   2.999  1.00  0.00    +0.000 H 
ATOM    126  H30 UNL A   1      13.858  46.994   2.051  1.00  0.00    +0.000 H 
ATOM    127  H31 UNL A   1      15.618  47.121   0.197  1.00  0.00    +0.000 H 
ATOM    128  H32 UNL A   1      16.965  56.906   2.030  1.00  0.00    +0.000 H 
ENDROOT
BRANCH   25   24
ATOM    130  H34 UNL A   1      12.005  55.351   4.547  1.00  0.00    +0.000 H 
ATOM    131  H35 UNL A   1      11.175  57.012   6.104  1.00  0.00    +0.000 H 
ATOM     82  C58 UNL A   1      12.588  55.644   5.346  1.00  0.00    +0.000 C 
ATOM     83  C59 UNL A   1      12.092  56.570   6.261  1.00  0.00    +0.000 C 
ATOM     21  C16 UNL A   1      12.841  56.897   7.397  1.00  0.00    +0.000 C 
ATOM     22  C17 UNL A   1      14.136  56.393   7.550  1.00  0.00    +0.000 C 
ATOM    118  H22 UNL A   1      14.705  56.669   8.365  1.00  0.00    +0.000 H 
ATOM     23  C18 UNL A   1      14.658  55.516   6.597  1.00  0.00    +0.000 C 
ATOM    119  H23 UNL A   1      15.622  55.164   6.697  1.00  0.00    +0.000 H 
ATOM     24  C19 UNL A   1      13.876  55.111   5.502  1.00  0.00    +0.000 C 
BRANCH   21   19
ATOM     19  C15 UNL A   1      12.300  57.799   8.437  1.00  0.00    +0.000 C 
ATOM     20  O3  UNL A   1      12.832  58.887   8.633  1.00  0.00    +0.000 O 
BRANCH   19   18
ATOM     18  N2  UNL A   1      11.218  57.417   9.189  1.00  0.00    +0.000 N 
ATOM    117  H21 UNL A   1      10.339  57.612   8.789  1.00  0.00    +0.000 H 
BRANCH   18   17
ATOM     17  C14 UNL A   1      11.177  56.766  10.490  1.00  0.00    +0.000 C 
ATOM    115  H19 UNL A   1      11.677  57.390  11.202  1.00  0.00    +0.000 H 
ATOM    116  H20 UNL A   1      10.150  56.621  10.751  1.00  0.00    +0.000 H 
BRANCH   17   16
ATOM    113  H17 UNL A   1      12.811  55.508  10.008  1.00  0.00    +0.000 H 
ATOM    114  H18 UNL A   1      11.916  55.083  11.495  1.00  0.00    +0.000 H 
ATOM     16  C13 UNL A   1      11.855  55.399  10.474  1.00  0.00    +0.000 C 
BRANCH   16   15
ATOM    111  H15 UNL A   1      10.808  53.555  10.442  1.00  0.00    +0.000 H 
ATOM     15  C12 UNL A   1      11.084  54.306   9.731  1.00  0.00    +0.000 C 
ATOM    112  H16 UNL A   1      10.247  54.793   9.275  1.00  0.00    +0.000 H 
BRANCH   15   14
ATOM    110  H14 UNL A   1      12.388  54.399   8.092  1.00  0.00    +0.000 H 
ATOM    109  H13 UNL A   1      11.135  53.124   7.969  1.00  0.00    +0.000 H 
ATOM     14  C11 UNL A   1      11.848  53.622   8.592  1.00  0.00    +0.000 C 
BRANCH   14   13
ATOM    107  H11 UNL A   1      12.708  52.326  10.045  1.00  0.00    +0.000 H 
ATOM    108  H12 UNL A   1      12.810  51.762   8.358  1.00  0.00    +0.000 H 
ATOM     13  C10 UNL A   1      12.899  52.592   9.027  1.00  0.00    +0.000 C 
BRANCH   13   12
ATOM    105  H9  UNL A   1      14.398  53.816   8.141  1.00  0.00    +0.000 H 
ATOM    106  H10 UNL A   1      14.615  53.509   9.866  1.00  0.00    +0.000 H 
ATOM     12  C9  UNL A   1      14.340  53.087   8.922  1.00  0.00    +0.000 C 
BRANCH   12   11
ATOM     11  N1  UNL A   1      15.263  52.013   8.627  1.00  0.00    +0.000 N 
ATOM    104  H8  UNL A   1      15.930  52.216   7.932  1.00  0.00    +0.000 H 
BRANCH   11    9
ATOM      9  C8  UNL A   1      15.350  50.762   9.165  1.00  0.00    +0.000 C 
ATOM     10  O2  UNL A   1      15.134  49.816   8.400  1.00  0.00    +0.000 O 
BRANCH    9    8
ATOM    102  H6  UNL A   1      16.056  49.602  10.782  1.00  0.00    +0.000 H 
ATOM    103  H7  UNL A   1      16.110  51.388  10.999  1.00  0.00    +0.000 H 
ATOM      8  C7  UNL A   1      15.554  50.539  10.657  1.00  0.00    +0.000 C 
BRANCH    8    7
ATOM      3  C2  UNL A   1      12.413  53.284  14.054  1.00  0.00    +0.000 C 
ATOM    100  H4  UNL A   1      13.893  54.709  13.598  1.00  0.00    +0.000 H 
ATOM      4  C3  UNL A   1      13.562  53.749  13.419  1.00  0.00    +0.000 C 
ATOM      5  C4  UNL A   1      14.269  52.920  12.539  1.00  0.00    +0.000 C 
ATOM    101  H5  UNL A   1      15.114  53.273  12.064  1.00  0.00    +0.000 H 
ATOM      6  C5  UNL A   1      13.824  51.602  12.304  1.00  0.00    +0.000 C 
ATOM      7  C6  UNL A   1      14.308  50.508  11.506  1.00  0.00    +0.000 C 
ATOM    138  H42 UNL A   1      11.756  49.286  12.939  1.00  0.00    +0.000 H 
ATOM    139  H43 UNL A   1      11.145  51.609  14.365  1.00  0.00    +0.000 H 
ATOM     84  C60 UNL A   1      13.381  49.471  11.622  1.00  0.00    +0.000 C 
ATOM     94  N8  UNL A   1      12.470  49.863  12.581  1.00  0.00    +0.000 N 
ATOM     95  C68 UNL A   1      12.688  51.161  12.972  1.00  0.00    +0.000 C 
ATOM     96  C69 UNL A   1      11.971  51.970  13.864  1.00  0.00    +0.000 C 
BRANCH    3    2
ATOM      2  O1  UNL A   1      11.677  54.036  14.932  1.00  0.00    +0.000 O 
BRANCH    2    1
ATOM      1  C1  UNL A   1      10.855  53.260  15.803  1.00  0.00    +0.000 C 
ATOM     98  H2  UNL A   1      11.449  52.880  16.608  1.00  0.00    +0.000 H 
ATOM     99  H3  UNL A   1      10.428  52.445  15.259  1.00  0.00    +0.000 H 
ATOM     97  H1  UNL A   1      10.074  53.875  16.198  1.00  0.00    +0.000 H 
ENDBRANCH    2    1
ENDBRANCH    3    2
BRANCH   84   85
ATOM     85  C61 UNL A   1      13.358  48.197  10.907  1.00  0.00    +0.000 C 
ATOM     86  O4  UNL A   1      14.296  47.406  10.915  1.00  0.00    +0.000 O 
BRANCH   85   87
ATOM    132  H36 UNL A   1      12.208  49.628   8.932  1.00  0.00    +0.000 H 
ATOM    136  H40 UNL A   1       9.253  46.782   7.967  1.00  0.00    +0.000 H 
ATOM    137  H41 UNL A   1      10.129  45.370   9.697  1.00  0.00    +0.000 H 
ATOM     87  C62 UNL A   1      12.173  47.849  10.076  1.00  0.00    +0.000 C 
ATOM     88  C63 UNL A   1      11.735  48.724   9.086  1.00  0.00    +0.000 C 
ATOM     89  C64 UNL A   1      10.638  48.347   8.307  1.00  0.00    +0.000 C 
ATOM     91  C66 UNL A   1      10.053  47.098   8.537  1.00  0.00    +0.000 C 
ATOM     92  C67 UNL A   1      10.564  46.293   9.543  1.00  0.00    +0.000 C 
ATOM     93  N7  UNL A   1      11.597  46.647  10.332  1.00  0.00    +0.000 N 
BRANCH   89   90
ATOM     90  C65 UNL A   1      10.109  49.236   7.223  1.00  0.00    +0.000 C 
ATOM    133  H37 UNL A   1      10.230  48.755   6.275  1.00  0.00    +0.000 H 
ATOM    134  H38 UNL A   1      10.648  50.160   7.225  1.00  0.00    +0.000 H 
ATOM    135  H39 UNL A   1       9.070  49.429   7.394  1.00  0.00    +0.000 H 
ENDBRANCH   89   90
ENDBRANCH   85   87
ENDBRANCH   84   85
ENDBRANCH    8    7
ENDBRANCH    9    8
ENDBRANCH   11    9
ENDBRANCH   12   11
ENDBRANCH   13   12
ENDBRANCH   14   13
ENDBRANCH   15   14
ENDBRANCH   16   15
ENDBRANCH   17   16
ENDBRANCH   18   17
ENDBRANCH   19   18
ENDBRANCH   21   19
ENDBRANCH   25   24
BRANCH   29   30
ATOM     33  C26 UNL A   1      18.447  57.436  -1.540  1.00  0.00    +0.000 C 
ATOM     34  F2  UNL A   1      17.990  58.079  -2.623  1.00  0.00    +0.000 F 
ATOM     35  C27 UNL A   1      19.642  57.829  -0.954  1.00  0.00    +0.000 C 
ATOM     36  F3  UNL A   1      20.328  58.863  -1.459  1.00  0.00    +0.000 F 
ATOM     37  C28 UNL A   1      20.127  57.145   0.149  1.00  0.00    +0.000 C 
ATOM     38  F4  UNL A   1      21.275  57.531   0.723  1.00  0.00    +0.000 F 
ATOM     39  C29 UNL A   1      19.426  56.055   0.660  1.00  0.00    +0.000 C 
ATOM     40  F5  UNL A   1      19.930  55.405   1.721  1.00  0.00    +0.000 F 
ATOM     30  C24 UNL A   1      18.212  55.645   0.090  1.00  0.00    +0.000 C 
ATOM     31  C25 UNL A   1      17.730  56.365  -1.014  1.00  0.00    +0.000 C 
ATOM     32  F1  UNL A   1      16.579  56.006  -1.603  1.00  0.00    +0.000 F 
ENDBRANCH   29   30
BRANCH   46   47
ATOM     47  C35 UNL A   1      17.239  48.618  -1.203  1.00  0.00    +0.000 C 
ATOM     48  C36 UNL A   1      16.720  48.510  -2.501  1.00  0.00    +0.000 C 
ATOM     49  F6  UNL A   1      15.720  49.312  -2.897  1.00  0.00    +0.000 F 
ATOM     50  C37 UNL A   1      17.200  47.548  -3.386  1.00  0.00    +0.000 C 
ATOM     51  F7  UNL A   1      16.658  47.432  -4.606  1.00  0.00    +0.000 F 
ATOM     52  C38 UNL A   1      18.229  46.700  -3.001  1.00  0.00    +0.000 C 
ATOM     53  F8  UNL A   1      18.694  45.779  -3.856  1.00  0.00    +0.000 F 
ATOM     54  C39 UNL A   1      18.769  46.802  -1.728  1.00  0.00    +0.000 C 
ATOM     55  F9  UNL A   1      19.771  45.992  -1.359  1.00  0.00    +0.000 F 
ATOM     56  C40 UNL A   1      18.272  47.744  -0.832  1.00  0.00    +0.000 C 
ATOM     57  F10 UNL A   1      18.807  47.811   0.397  1.00  0.00    +0.000 F 
ENDBRANCH   46   47
BRANCH   61   62
ATOM     65  C46 UNL A   1      12.361  46.594   5.747  1.00  0.00    +0.000 C 
ATOM     66  F12 UNL A   1      12.805  45.904   6.806  1.00  0.00    +0.000 F 
ATOM     67  C47 UNL A   1      11.142  46.272   5.168  1.00  0.00    +0.000 C 
ATOM     68  F13 UNL A   1      10.399  45.281   5.680  1.00  0.00    +0.000 F 
ATOM     69  C48 UNL A   1      10.700  46.971   4.056  1.00  0.00    +0.000 C 
ATOM     70  F14 UNL A   1       9.517  46.670   3.503  1.00  0.00    +0.000 F 
ATOM     71  C49 UNL A   1      11.484  47.986   3.510  1.00  0.00    +0.000 C 
ATOM     72  F15 UNL A   1      11.037  48.637   2.427  1.00  0.00    +0.000 F 
ATOM     62  C44 UNL A   1      12.714  48.336   4.083  1.00  0.00    +0.000 C 
ATOM     63  C45 UNL A   1      13.134  47.627   5.218  1.00  0.00    +0.000 C 
ATOM     64  F11 UNL A   1      14.313  47.912   5.787  1.00  0.00    +0.000 F 
ENDBRANCH   61   62
TORSDOF 21
ENDMDL
MODEL 2
REMARK VINA RESULT:      -8.4     44.206     47.863
ROOT
ATOM    129  H33 UNL A   1      25.242  37.094  46.219  1.00  0.00    +0.000 H 
ATOM     25  C20 UNL A   1      24.113  39.373  47.504  1.00  0.00    +0.000 C 
ATOM     26  C21 UNL A   1      23.459  38.043  47.251  1.00  0.00    +0.000 C 
ATOM     27  N3  UNL A   1      22.252  37.640  47.562  1.00  0.00    +0.000 N 
ATOM     28  C22 UNL A   1      22.145  36.349  47.063  1.00  0.00    +0.000 C 
ATOM     29  C23 UNL A   1      21.110  35.483  47.177  1.00  0.00    +0.000 C 
ATOM     41  C30 UNL A   1      19.883  35.772  47.875  1.00  0.00    +0.000 C 
ATOM     42  C31 UNL A   1      18.803  34.937  48.103  1.00  0.00    +0.000 C 
ATOM     43  C32 UNL A   1      17.823  35.667  48.786  1.00  0.00    +0.000 C 
ATOM     44  C33 UNL A   1      18.311  36.941  49.022  1.00  0.00    +0.000 C 
ATOM     45  N4  UNL A   1      19.575  36.994  48.455  1.00  0.00    +0.000 N 
ATOM     46  C34 UNL A   1      17.673  38.032  49.712  1.00  0.00    +0.000 C 
ATOM     58  C41 UNL A   1      18.228  39.252  49.920  1.00  0.00    +0.000 C 
ATOM     59  N5  UNL A   1      19.479  39.718  49.537  1.00  0.00    +0.000 N 
ATOM     60  C42 UNL A   1      19.543  40.959  49.951  1.00  0.00    +0.000 C 
ATOM     61  C43 UNL A   1      20.675  41.942  49.834  1.00  0.00    +0.000 C 
ATOM     73  C50 UNL A   1      21.824  41.556  49.245  1.00  0.00    +0.000 C 
ATOM     74  C51 UNL A   1      23.007  42.393  49.068  1.00  0.00    +0.000 C 
ATOM     75  C52 UNL A   1      23.943  41.693  48.407  1.00  0.00    +0.000 C 
ATOM     76  C53 UNL A   1      23.437  40.346  48.145  1.00  0.00    +0.000 C 
ATOM     77  N6  UNL A   1      22.174  40.353  48.681  1.00  0.00    +0.000 N 
ATOM     78  C54 UNL A   1      18.327  41.430  50.627  1.00  0.00    +0.000 C 
ATOM     79  C55 UNL A   1      17.573  40.340  50.615  1.00  0.00    +0.000 C 
ATOM     80  C56 UNL A   1      23.390  36.051  46.389  1.00  0.00    +0.000 C 
ATOM     81  C57 UNL A   1      24.260  37.040  46.532  1.00  0.00    +0.000 C 
ATOM    120  H24 UNL A   1      18.733  33.947  47.819  1.00  0.00    +0.000 H 
ATOM    121  H25 UNL A   1      16.894  35.313  49.066  1.00  0.00    +0.000 H 
ATOM    122  H26 UNL A   1      20.166  37.780  48.462  1.00  0.00    +0.000 H 
ATOM    123  H27 UNL A   1      23.107  43.366  49.397  1.00  0.00    +0.000 H 
ATOM    124  H28 UNL A   1      24.871  42.050  48.129  1.00  0.00    +0.000 H 
ATOM    125  H29 UNL A   1      21.576  39.572  48.664  1.00  0.00    +0.000 H 
ATOM    126  H30 UNL A   1      18.114  42.365  51.010  1.00  0.00    +0.000 H 
ATOM    127  H31 UNL A   1      16.637  40.274  51.046  1.00  0.00    +0.000 H 
ATOM    128  H32 UNL A   1      23.576  35.182  45.864  1.00  0.00    +0.000 H 
ENDROOT
BRANCH   25   24
ATOM    130  H34 UNL A   1      24.815  40.726  45.298  1.00  0.00    +0.000 H 
ATOM    131  H35 UNL A   1      27.034  41.121  44.405  1.00  0.00    +0.000 H 
ATOM     82  C58 UNL A   1      25.644  40.380  45.807  1.00  0.00    +0.000 C 
ATOM     83  C59 UNL A   1      26.919  40.643  45.312  1.00  0.00    +0.000 C 
ATOM     21  C16 UNL A   1      28.045  40.260  46.047  1.00  0.00    +0.000 C 
ATOM     22  C17 UNL A   1      27.895  39.505  47.214  1.00  0.00    +0.000 C 
ATOM    118  H22 UNL A   1      28.727  39.184  47.734  1.00  0.00    +0.000 H 
ATOM     23  C18 UNL A   1      26.616  39.185  47.675  1.00  0.00    +0.000 C 
ATOM    119  H23 UNL A   1      26.505  38.606  48.522  1.00  0.00    +0.000 H 
ATOM     24  C19 UNL A   1      25.479  39.646  46.991  1.00  0.00    +0.000 C 
BRANCH   21   19
ATOM     19  C15 UNL A   1      29.410  40.613  45.599  1.00  0.00    +0.000 C 
ATOM     20  O3  UNL A   1      30.103  41.353  46.291  1.00  0.00    +0.000 O 
BRANCH   19   18
ATOM     18  N2  UNL A   1      29.895  40.128  44.411  1.00  0.00    +0.000 N 
ATOM    117  H21 UNL A   1      29.283  40.208  43.644  1.00  0.00    +0.000 H 
BRANCH   18   17
ATOM     17  C14 UNL A   1      31.181  39.513  44.118  1.00  0.00    +0.000 C 
ATOM    115  H19 UNL A   1      31.434  39.715  43.098  1.00  0.00    +0.000 H 
ATOM    116  H20 UNL A   1      31.903  39.927  44.790  1.00  0.00    +0.000 H 
BRANCH   17   16
ATOM    113  H17 UNL A   1      32.113  37.613  44.037  1.00  0.00    +0.000 H 
ATOM    114  H18 UNL A   1      30.936  37.845  45.362  1.00  0.00    +0.000 H 
ATOM     16  C13 UNL A   1      31.160  38.001  44.327  1.00  0.00    +0.000 C 
BRANCH   16   15
ATOM    111  H15 UNL A   1      29.707  37.917  42.783  1.00  0.00    +0.000 H 
ATOM     15  C12 UNL A   1      30.080  37.256  43.537  1.00  0.00    +0.000 C 
ATOM    112  H16 UNL A   1      30.554  36.380  43.144  1.00  0.00    +0.000 H 
BRANCH   15   14
ATOM    110  H14 UNL A   1      28.121  37.495  44.244  1.00  0.00    +0.000 H 
ATOM    109  H13 UNL A   1      29.216  36.639  45.374  1.00  0.00    +0.000 H 
ATOM     14  C11 UNL A   1      28.889  36.759  44.363  1.00  0.00    +0.000 C 
BRANCH   14   13
ATOM    107  H11 UNL A   1      28.326  35.388  42.835  1.00  0.00    +0.000 H 
ATOM    108  H12 UNL A   1      28.835  34.653  44.376  1.00  0.00    +0.000 H 
ATOM     13  C10 UNL A   1      28.274  35.431  43.902  1.00  0.00    +0.000 C 
BRANCH   13   12
ATOM    105  H9  UNL A   1      26.600  35.904  45.130  1.00  0.00    +0.000 H 
ATOM    106  H10 UNL A   1      26.200  35.448  43.472  1.00  0.00    +0.000 H 
ATOM     12  C9  UNL A   1      26.817  35.239  44.320  1.00  0.00    +0.000 C 
BRANCH   12   11
ATOM     11  N1  UNL A   1      26.549  33.882  44.745  1.00  0.00    +0.000 N 
ATOM    104  H8  UNL A   1      27.270  33.238  44.560  1.00  0.00    +0.000 H 
BRANCH   11    9
ATOM      9  C8  UNL A   1      25.450  33.360  45.362  1.00  0.00    +0.000 C 
ATOM     10  O2  UNL A   1      24.425  33.267  44.680  1.00  0.00    +0.000 O 
BRANCH    9    8
ATOM    102  H6  UNL A   1      25.421  33.974  47.383  1.00  0.00    +0.000 H 
ATOM    103  H7  UNL A   1      24.574  32.431  47.007  1.00  0.00    +0.000 H 
ATOM      8  C7  UNL A   1      25.437  33.045  46.852  1.00  0.00    +0.000 C 
BRANCH    8    7
ATOM      3  C2  UNL A   1      27.437  28.115  47.651  1.00  0.00    +0.000 C 
ATOM    100  H4  UNL A   1      25.599  27.683  46.719  1.00  0.00    +0.000 H 
ATOM      4  C3  UNL A   1      26.223  28.435  47.050  1.00  0.00    +0.000 C 
ATOM      5  C4  UNL A   1      25.843  29.774  46.891  1.00  0.00    +0.000 C 
ATOM    101  H5  UNL A   1      24.946  30.006  46.436  1.00  0.00    +0.000 H 
ATOM      6  C5  UNL A   1      26.688  30.805  47.355  1.00  0.00    +0.000 C 
ATOM      7  C6  UNL A   1      26.600  32.239  47.375  1.00  0.00    +0.000 C 
ATOM    138  H42 UNL A   1      29.357  31.660  48.833  1.00  0.00    +0.000 H 
ATOM    139  H43 UNL A   1      29.157  28.882  48.633  1.00  0.00    +0.000 H 
ATOM     84  C60 UNL A   1      27.803  32.719  47.899  1.00  0.00    +0.000 C 
ATOM     94  N8  UNL A   1      28.510  31.616  48.331  1.00  0.00    +0.000 N 
ATOM     95  C68 UNL A   1      27.881  30.450  47.972  1.00  0.00    +0.000 C 
ATOM     96  C69 UNL A   1      28.276  29.117  48.149  1.00  0.00    +0.000 C 
BRANCH    3    2
ATOM      2  O1  UNL A   1      27.868  26.829  47.846  1.00  0.00    +0.000 O 
BRANCH    2    1
ATOM      1  C1  UNL A   1      28.861  26.408  46.911  1.00  0.00    +0.000 C 
ATOM     98  H2  UNL A   1      28.485  26.525  45.916  1.00  0.00    +0.000 H 
ATOM     99  H3  UNL A   1      29.102  25.381  47.084  1.00  0.00    +0.000 H 
ATOM     97  H1  UNL A   1      29.739  27.006  47.031  1.00  0.00    +0.000 H 
ENDBRANCH    2    1
ENDBRANCH    3    2
BRANCH   84   85
ATOM     85  C61 UNL A   1      28.250  34.105  48.008  1.00  0.00    +0.000 C 
ATOM     86  O4  UNL A   1      29.009  34.631  47.201  1.00  0.00    +0.000 O 
BRANCH   85   87
ATOM    132  H36 UNL A   1      26.000  35.559  48.313  1.00  0.00    +0.000 H 
ATOM    136  H40 UNL A   1      26.802  36.825  52.252  1.00  0.00    +0.000 H 
ATOM    137  H41 UNL A   1      28.861  35.597  52.166  1.00  0.00    +0.000 H 
ATOM     87  C62 UNL A   1      27.820  34.918  49.179  1.00  0.00    +0.000 C 
ATOM     88  C63 UNL A   1      26.604  35.594  49.149  1.00  0.00    +0.000 C 
ATOM     89  C64 UNL A   1      26.222  36.322  50.278  1.00  0.00    +0.000 C 
ATOM     91  C66 UNL A   1      27.063  36.312  51.395  1.00  0.00    +0.000 C 
ATOM     92  C67 UNL A   1      28.253  35.604  51.332  1.00  0.00    +0.000 C 
ATOM     93  N7  UNL A   1      28.661  34.923  50.243  1.00  0.00    +0.000 N 
BRANCH   89   90
ATOM     90  C65 UNL A   1      24.927  37.076  50.320  1.00  0.00    +0.000 C 
ATOM    133  H37 UNL A   1      24.205  36.515  50.876  1.00  0.00    +0.000 H 
ATOM    134  H38 UNL A   1      24.571  37.229  49.323  1.00  0.00    +0.000 H 
ATOM    135  H39 UNL A   1      25.082  38.024  50.792  1.00  0.00    +0.000 H 
ENDBRANCH   89   90
ENDBRANCH   85   87
ENDBRANCH   84   85
ENDBRANCH    8    7
ENDBRANCH    9    8
ENDBRANCH   11    9
ENDBRANCH   12   11
ENDBRANCH   13   12
ENDBRANCH   14   13
ENDBRANCH   15   14
ENDBRANCH   16   15
ENDBRANCH   17   16
ENDBRANCH   18   17
ENDBRANCH   19   18
ENDBRANCH   21   19
ENDBRANCH   25   24
BRANCH   29   30
ATOM     33  C26 UNL A   1      21.961  31.806  46.620  1.00  0.00    +0.000 C 
ATOM     34  F2  UNL A   1      22.555  30.802  47.280  1.00  0.00    +0.000 F 
ATOM     35  C27 UNL A   1      21.487  31.604  45.332  1.00  0.00    +0.000 C 
ATOM     36  F3  UNL A   1      21.605  30.401  44.755  1.00  0.00    +0.000 F 
ATOM     37  C28 UNL A   1      20.898  32.652  44.642  1.00  0.00    +0.000 C 
ATOM     38  F4  UNL A   1      20.428  32.455  43.402  1.00  0.00    +0.000 F 
ATOM     39  C29 UNL A   1      20.795  33.909  45.233  1.00  0.00    +0.000 C 
ATOM     40  F5  UNL A   1      20.233  34.906  44.533  1.00  0.00    +0.000 F 
ATOM     30  C24 UNL A   1      21.260  34.135  46.537  1.00  0.00    +0.000 C 
ATOM     31  C25 UNL A   1      21.834  33.054  47.224  1.00  0.00    +0.000 C 
ATOM     32  F1  UNL A   1      22.304  33.220  48.470  1.00  0.00    +0.000 F 
ENDBRANCH   29   30
BRANCH   46   47
ATOM     47  C35 UNL A   1      16.297  37.804  50.265  1.00  0.00    +0.000 C 
ATOM     48  C36 UNL A   1      16.074  37.656  51.641  1.00  0.00    +0.000 C 
ATOM     49  F6  UNL A   1      17.106  37.670  52.498  1.00  0.00    +0.000 F 
ATOM     50  C37 UNL A   1      14.789  37.454  52.140  1.00  0.00    +0.000 C 
ATOM     51  F7  UNL A   1      14.604  37.271  53.454  1.00  0.00    +0.000 F 
ATOM     52  C38 UNL A   1      13.703  37.430  51.276  1.00  0.00    +0.000 C 
ATOM     53  F8  UNL A   1      12.467  37.241  51.759  1.00  0.00    +0.000 F 
ATOM     54  C39 UNL A   1      13.900  37.591  49.913  1.00  0.00    +0.000 C 
ATOM     55  F9  UNL A   1      12.851  37.579  49.080  1.00  0.00    +0.000 F 
ATOM     56  C40 UNL A   1      15.185  37.765  49.409  1.00  0.00    +0.000 C 
ATOM     57  F10 UNL A   1      15.345  37.906  48.084  1.00  0.00    +0.000 F 
ENDBRANCH   46   47
BRANCH   61   62
ATOM     65  C46 UNL A   1      19.894  45.645  50.110  1.00  0.00    +0.000 C 
ATOM     66  F12 UNL A   1      19.401  46.621  49.336  1.00  0.00    +0.000 F 
ATOM     67  C47 UNL A   1      20.315  45.927  51.401  1.00  0.00    +0.000 C 
ATOM     68  F13 UNL A   1      20.212  47.174  51.883  1.00  0.00    +0.000 F 
ATOM     69  C48 UNL A   1      20.850  44.919  52.189  1.00  0.00    +0.000 C 
ATOM     70  F14 UNL A   1      21.245  45.186  53.440  1.00  0.00    +0.000 F 
ATOM     71  C49 UNL A   1      20.977  43.628  51.680  1.00  0.00    +0.000 C 
ATOM     72  F15 UNL A   1      21.510  42.675  52.459  1.00  0.00    +0.000 F 
ATOM     62  C44 UNL A   1      20.551  43.316  50.382  1.00  0.00    +0.000 C 
ATOM     63  C45 UNL A   1      19.997  44.348  49.610  1.00  0.00    +0.000 C 
ATOM     64  F11 UNL A   1      19.594  44.103  48.355  1.00  0.00    +0.000 F 
ENDBRANCH   61   62
TORSDOF 21
ENDMDL
MODEL 3
REMARK VINA RESULT:      -8.3     43.717     47.087
ROOT
ATOM    129  H33 UNL A   1      26.286  37.235  45.116  1.00  0.00    +0.000 H 
ATOM     25  C20 UNL A   1      26.343  39.892  46.140  1.00  0.00    +0.000 C 
ATOM     26  C21 UNL A   1      25.217  38.900  46.222  1.00  0.00    +0.000 C 
ATOM     27  N3  UNL A   1      24.036  39.030  46.774  1.00  0.00    +0.000 N 
ATOM     28  C22 UNL A   1      23.371  37.837  46.529  1.00  0.00    +0.000 C 
ATOM     29  C23 UNL A   1      22.139  37.456  46.945  1.00  0.00    +0.000 C 
ATOM     41  C30 UNL A   1      21.270  38.267  47.757  1.00  0.00    +0.000 C 
ATOM     42  C31 UNL A   1      20.032  37.944  48.285  1.00  0.00    +0.000 C 
ATOM     43  C32 UNL A   1      19.543  39.062  48.970  1.00  0.00    +0.000 C 
ATOM     44  C33 UNL A   1      20.495  40.066  48.906  1.00  0.00    +0.000 C 
ATOM     45  N4  UNL A   1      21.548  39.566  48.156  1.00  0.00    +0.000 N 
ATOM     46  C34 UNL A   1      20.449  41.384  49.484  1.00  0.00    +0.000 C 
ATOM     58  C41 UNL A   1      21.437  42.309  49.392  1.00  0.00    +0.000 C 
ATOM     59  N5  UNL A   1      22.665  42.212  48.751  1.00  0.00    +0.000 N 
ATOM     60  C42 UNL A   1      23.256  43.368  48.930  1.00  0.00    +0.000 C 
ATOM     61  C43 UNL A   1      24.617  43.818  48.476  1.00  0.00    +0.000 C 
ATOM     73  C50 UNL A   1      25.403  42.959  47.799  1.00  0.00    +0.000 C 
ATOM     74  C51 UNL A   1      26.745  43.250  47.304  1.00  0.00    +0.000 C 
ATOM     75  C52 UNL A   1      27.210  42.178  46.642  1.00  0.00    +0.000 C 
ATOM     76  C53 UNL A   1      26.209  41.112  46.696  1.00  0.00    +0.000 C 
ATOM     77  N6  UNL A   1      25.172  41.663  47.406  1.00  0.00    +0.000 N 
ATOM     78  C54 UNL A   1      22.457  44.340  49.688  1.00  0.00    +0.000 C 
ATOM     79  C55 UNL A   1      21.375  43.631  49.978  1.00  0.00    +0.000 C 
ATOM     80  C56 UNL A   1      24.259  37.012  45.738  1.00  0.00    +0.000 C 
ATOM     81  C57 UNL A   1      25.437  37.597  45.576  1.00  0.00    +0.000 C 
ATOM    120  H24 UNL A   1      19.552  37.034  48.190  1.00  0.00    +0.000 H 
ATOM    121  H25 UNL A   1      18.627  39.126  49.442  1.00  0.00    +0.000 H 
ATOM    122  H26 UNL A   1      22.371  40.059  47.939  1.00  0.00    +0.000 H 
ATOM    123  H27 UNL A   1      27.255  44.137  47.441  1.00  0.00    +0.000 H 
ATOM    124  H28 UNL A   1      28.127  42.117  46.172  1.00  0.00    +0.000 H 
ATOM    125  H29 UNL A   1      24.343  41.177  47.614  1.00  0.00    +0.000 H 
ATOM    126  H30 UNL A   1      22.679  45.318  49.931  1.00  0.00    +0.000 H 
ATOM    127  H31 UNL A   1      20.587  43.977  50.548  1.00  0.00    +0.000 H 
ATOM    128  H32 UNL A   1      24.007  36.090  45.350  1.00  0.00    +0.000 H 
ENDROOT
BRANCH   25   24
ATOM    130  H34 UNL A   1      27.841  41.512  44.617  1.00  0.00    +0.000 H 
ATOM    131  H35 UNL A   1      29.822  40.975  43.327  1.00  0.00    +0.000 H 
ATOM     82  C58 UNL A   1      28.228  40.556  44.642  1.00  0.00    +0.000 C 
ATOM     83  C59 UNL A   1      29.389  40.261  43.931  1.00  0.00    +0.000 C 
ATOM     21  C16 UNL A   1      29.969  38.993  44.039  1.00  0.00    +0.000 C 
ATOM     22  C17 UNL A   1      29.318  37.985  44.758  1.00  0.00    +0.000 C 
ATOM    118  H22 UNL A   1      29.724  37.037  44.802  1.00  0.00    +0.000 H 
ATOM     23  C18 UNL A   1      28.120  38.265  45.417  1.00  0.00    +0.000 C 
ATOM    119  H23 UNL A   1      27.627  37.515  45.927  1.00  0.00    +0.000 H 
ATOM     24  C19 UNL A   1      27.580  39.561  45.389  1.00  0.00    +0.000 C 
BRANCH   21   19
ATOM     19  C15 UNL A   1      31.254  38.679  43.377  1.00  0.00    +0.000 C 
ATOM     20  O3  UNL A   1      31.304  37.777  42.546  1.00  0.00    +0.000 O 
BRANCH   19   18
ATOM     18  N2  UNL A   1      32.388  39.382  43.699  1.00  0.00    +0.000 N 
ATOM    117  H21 UNL A   1      32.880  39.756  42.933  1.00  0.00    +0.000 H 
BRANCH   18   17
ATOM     17  C14 UNL A   1      32.968  39.656  45.004  1.00  0.00    +0.000 C 
ATOM    115  H19 UNL A   1      32.480  39.042  45.733  1.00  0.00    +0.000 H 
ATOM    116  H20 UNL A   1      34.014  39.439  44.949  1.00  0.00    +0.000 H 
BRANCH   17   16
ATOM    113  H17 UNL A   1      33.746  41.611  45.241  1.00  0.00    +0.000 H 
ATOM    114  H18 UNL A   1      32.013  41.511  44.819  1.00  0.00    +0.000 H 
ATOM     16  C13 UNL A   1      32.813  41.118  45.411  1.00  0.00    +0.000 C 
BRANCH   16   15
ATOM    111  H15 UNL A   1      32.780  40.515  47.445  1.00  0.00    +0.000 H 
ATOM     15  C12 UNL A   1      32.415  41.342  46.872  1.00  0.00    +0.000 C 
ATOM    112  H16 UNL A   1      32.843  42.282  47.154  1.00  0.00    +0.000 H 
BRANCH   15   14
ATOM    110  H14 UNL A   1      30.459  41.627  46.173  1.00  0.00    +0.000 H 
ATOM    109  H13 UNL A   1      30.759  42.275  47.816  1.00  0.00    +0.000 H 
ATOM     14  C11 UNL A   1      30.909  41.468  47.130  1.00  0.00    +0.000 C 
BRANCH   14   13
ATOM    107  H11 UNL A   1      29.173  40.358  47.664  1.00  0.00    +0.000 H 
ATOM    108  H12 UNL A   1      30.570  39.388  47.132  1.00  0.00    +0.000 H 
ATOM     13  C10 UNL A   1      30.233  40.220  47.713  1.00  0.00    +0.000 C 
BRANCH   13   12
ATOM    105  H9  UNL A   1      31.439  40.544  49.437  1.00  0.00    +0.000 H 
ATOM    106  H10 UNL A   1      29.757  40.127  49.776  1.00  0.00    +0.000 H 
ATOM     12  C9  UNL A   1      30.611  39.924  49.163  1.00  0.00    +0.000 C 
BRANCH   12   11
ATOM     11  N1  UNL A   1      30.980  38.539  49.356  1.00  0.00    +0.000 N 
ATOM    104  H8  UNL A   1      31.949  38.370  49.405  1.00  0.00    +0.000 H 
BRANCH   11    9
ATOM      9  C8  UNL A   1      30.192  37.432  49.479  1.00  0.00    +0.000 C 
ATOM     10  O2  UNL A   1      30.266  36.817  50.548  1.00  0.00    +0.000 O 
BRANCH    9    8
ATOM    102  H6  UNL A   1      29.415  37.613  47.524  1.00  0.00    +0.000 H 
ATOM    103  H7  UNL A   1      29.812  35.946  48.072  1.00  0.00    +0.000 H 
ATOM      8  C7  UNL A   1      29.374  36.892  48.313  1.00  0.00    +0.000 C 
BRANCH    8    7
ATOM      3  C2  UNL A   1      24.750  38.810  50.281  1.00  0.00    +0.000 C 
ATOM    100  H4  UNL A   1      26.028  40.467  50.509  1.00  0.00    +0.000 H 
ATOM      4  C3  UNL A   1      25.958  39.493  50.175  1.00  0.00    +0.000 C 
ATOM      5  C4  UNL A   1      27.080  38.866  49.619  1.00  0.00    +0.000 C 
ATOM    101  H5  UNL A   1      27.970  39.379  49.533  1.00  0.00    +0.000 H 
ATOM      6  C5  UNL A   1      26.990  37.529  49.174  1.00  0.00    +0.000 C 
ATOM      7  C6  UNL A   1      27.921  36.601  48.593  1.00  0.00    +0.000 C 
ATOM    138  H42 UNL A   1      25.258  34.896  48.841  1.00  0.00    +0.000 H 
ATOM    139  H43 UNL A   1      23.761  36.952  49.995  1.00  0.00    +0.000 H 
ATOM     84  C60 UNL A   1      27.210  35.438  48.289  1.00  0.00    +0.000 C 
ATOM     94  N8  UNL A   1      25.947  35.600  48.820  1.00  0.00    +0.000 N 
ATOM     95  C68 UNL A   1      25.775  36.868  49.316  1.00  0.00    +0.000 C 
ATOM     96  C69 UNL A   1      24.644  37.475  49.879  1.00  0.00    +0.000 C 
BRANCH    3    2
ATOM      2  O1  UNL A   1      23.616  39.359  50.822  1.00  0.00    +0.000 O 
BRANCH    2    1
ATOM      1  C1  UNL A   1      22.721  38.396  51.377  1.00  0.00    +0.000 C 
ATOM     98  H2  UNL A   1      21.968  38.153  50.657  1.00  0.00    +0.000 H 
ATOM     99  H3  UNL A   1      22.261  38.800  52.254  1.00  0.00    +0.000 H 
ATOM     97  H1  UNL A   1      23.264  37.511  51.635  1.00  0.00    +0.000 H 
ENDBRANCH    2    1
ENDBRANCH    3    2
BRANCH   84   85
ATOM     85  C61 UNL A   1      27.681  34.254  47.575  1.00  0.00    +0.000 C 
ATOM     86  O4  UNL A   1      28.120  33.259  48.143  1.00  0.00    +0.000 O 
BRANCH   85   87
ATOM    132  H36 UNL A   1      25.591  34.407  45.879  1.00  0.00    +0.000 H 
ATOM    136  H40 UNL A   1      27.874  34.385  42.336  1.00  0.00    +0.000 H 
ATOM    137  H41 UNL A   1      29.854  34.233  43.681  1.00  0.00    +0.000 H 
ATOM     87  C62 UNL A   1      27.690  34.257  46.087  1.00  0.00    +0.000 C 
ATOM     88  C63 UNL A   1      26.494  34.357  45.382  1.00  0.00    +0.000 C 
ATOM     89  C64 UNL A   1      26.547  34.387  43.987  1.00  0.00    +0.000 C 
ATOM     91  C66 UNL A   1      27.798  34.347  43.365  1.00  0.00    +0.000 C 
ATOM     92  C67 UNL A   1      28.936  34.253  44.152  1.00  0.00    +0.000 C 
ATOM     93  N7  UNL A   1      28.910  34.187  45.497  1.00  0.00    +0.000 N 
BRANCH   89   90
ATOM     90  C65 UNL A   1      25.301  34.492  43.161  1.00  0.00    +0.000 C 
ATOM    133  H37 UNL A   1      24.609  35.154  43.639  1.00  0.00    +0.000 H 
ATOM    134  H38 UNL A   1      24.857  33.525  43.059  1.00  0.00    +0.000 H 
ATOM    135  H39 UNL A   1      25.546  34.875  42.192  1.00  0.00    +0.000 H 
ENDBRANCH   89   90
ENDBRANCH   85   87
ENDBRANCH   84   85
ENDBRANCH    8    7
ENDBRANCH    9    8
ENDBRANCH   11    9
ENDBRANCH   12   11
ENDBRANCH   13   12
ENDBRANCH   14   13
ENDBRANCH   15   14
ENDBRANCH   16   15
ENDBRANCH   17   16
ENDBRANCH   18   17
ENDBRANCH   19   18
ENDBRANCH   21   19
ENDBRANCH   25   24
BRANCH   29   30
ATOM     33  C26 UNL A   1      21.430  33.707  46.937  1.00  0.00    +0.000 C 
ATOM     34  F2  UNL A   1      21.701  32.632  47.691  1.00  0.00    +0.000 F 
ATOM     35  C27 UNL A   1      20.707  33.565  45.762  1.00  0.00    +0.000 C 
ATOM     36  F3  UNL A   1      20.262  32.357  45.391  1.00  0.00    +0.000 F 
ATOM     37  C28 UNL A   1      20.451  34.674  44.971  1.00  0.00    +0.000 C 
ATOM     38  F4  UNL A   1      19.742  34.540  43.842  1.00  0.00    +0.000 F 
ATOM     39  C29 UNL A   1      20.932  35.926  45.345  1.00  0.00    +0.000 C 
ATOM     40  F5  UNL A   1      20.680  36.977  44.549  1.00  0.00    +0.000 F 
ATOM     30  C24 UNL A   1      21.659  36.096  46.532  1.00  0.00    +0.000 C 
ATOM     31  C25 UNL A   1      21.887  34.963  47.329  1.00  0.00    +0.000 C 
ATOM     32  F1  UNL A   1      22.587  35.069  48.469  1.00  0.00    +0.000 F 
ENDBRANCH   29   30
BRANCH   46   47
ATOM     47  C35 UNL A   1      19.227  41.764  50.267  1.00  0.00    +0.000 C 
ATOM     48  C36 UNL A   1      19.057  41.368  51.601  1.00  0.00    +0.000 C 
ATOM     49  F6  UNL A   1      19.975  40.591  52.197  1.00  0.00    +0.000 F 
ATOM     50  C37 UNL A   1      17.922  41.737  52.318  1.00  0.00    +0.000 C 
ATOM     51  F7  UNL A   1      17.759  41.310  53.577  1.00  0.00    +0.000 F 
ATOM     52  C38 UNL A   1      16.954  42.534  51.726  1.00  0.00    +0.000 C 
ATOM     53  F8  UNL A   1      15.864  42.893  52.420  1.00  0.00    +0.000 F 
ATOM     54  C39 UNL A   1      17.110  42.952  50.413  1.00  0.00    +0.000 C 
ATOM     55  F9  UNL A   1      16.181  43.732  49.843  1.00  0.00    +0.000 F 
ATOM     56  C40 UNL A   1      18.230  42.562  49.685  1.00  0.00    +0.000 C 
ATOM     57  F10 UNL A   1      18.347  42.972  48.412  1.00  0.00    +0.000 F 
ENDBRANCH   46   47
BRANCH   61   62
ATOM     65  C46 UNL A   1      26.191  46.735  50.323  1.00  0.00    +0.000 C 
ATOM     66  F12 UNL A   1      26.752  46.976  51.516  1.00  0.00    +0.000 F 
ATOM     67  C47 UNL A   1      26.045  47.764  49.403  1.00  0.00    +0.000 C 
ATOM     68  F13 UNL A   1      26.481  48.996  49.701  1.00  0.00    +0.000 F 
ATOM     69  C48 UNL A   1      25.440  47.516  48.181  1.00  0.00    +0.000 C 
ATOM     70  F14 UNL A   1      25.309  48.504  47.286  1.00  0.00    +0.000 F 
ATOM     71  C49 UNL A   1      24.967  46.240  47.881  1.00  0.00    +0.000 C 
ATOM     72  F15 UNL A   1      24.374  46.031  46.697  1.00  0.00    +0.000 F 
ATOM     62  C44 UNL A   1      25.111  45.183  48.790  1.00  0.00    +0.000 C 
ATOM     63  C45 UNL A   1      25.742  45.453  50.013  1.00  0.00    +0.000 C 
ATOM     64  F11 UNL A   1      25.884  44.478  50.923  1.00  0.00    +0.000 F 
ENDBRANCH   61   62
TORSDOF 21
ENDMDL
MODEL 4
REMARK VINA RESULT:      -8.3      1.360      7.924
ROOT
ATOM    129  H33 UNL A   1      11.821  52.900   6.119  1.00  0.00    +0.000 H 
ATOM     25  C20 UNL A   1      13.789  54.133   4.469  1.00  0.00    +0.000 C 
ATOM     26  C21 UNL A   1      13.347  52.697   4.453  1.00  0.00    +0.000 C 
ATOM     27  N3  UNL A   1      13.754  51.712   3.691  1.00  0.00    +0.000 N 
ATOM     28  C22 UNL A   1      13.056  50.591   4.118  1.00  0.00    +0.000 C 
ATOM     29  C23 UNL A   1      13.082  49.336   3.610  1.00  0.00    +0.000 C 
ATOM     41  C30 UNL A   1      13.878  48.935   2.478  1.00  0.00    +0.000 C 
ATOM     42  C31 UNL A   1      13.922  47.704   1.846  1.00  0.00    +0.000 C 
ATOM     43  C32 UNL A   1      14.874  47.772   0.823  1.00  0.00    +0.000 C 
ATOM     44  C33 UNL A   1      15.390  49.056   0.789  1.00  0.00    +0.000 C 
ATOM     45  N4  UNL A   1      14.773  49.759   1.812  1.00  0.00    +0.000 N 
ATOM     46  C34 UNL A   1      16.374  49.604  -0.109  1.00  0.00    +0.000 C 
ATOM     58  C41 UNL A   1      16.815  50.886  -0.090  1.00  0.00    +0.000 C 
ATOM     59  N5  UNL A   1      16.445  51.924   0.755  1.00  0.00    +0.000 N 
ATOM     60  C42 UNL A   1      17.160  52.959   0.388  1.00  0.00    +0.000 C 
ATOM     61  C43 UNL A   1      17.155  54.359   0.938  1.00  0.00    +0.000 C 
ATOM     73  C50 UNL A   1      16.309  54.671   1.939  1.00  0.00    +0.000 C 
ATOM     74  C51 UNL A   1      16.185  55.984   2.565  1.00  0.00    +0.000 C 
ATOM     75  C52 UNL A   1      15.277  55.915   3.550  1.00  0.00    +0.000 C 
ATOM     76  C53 UNL A   1      14.729  54.559   3.602  1.00  0.00    +0.000 C 
ATOM     77  N6  UNL A   1      15.397  53.891   2.607  1.00  0.00    +0.000 N 
ATOM     78  C54 UNL A   1      18.085  52.688  -0.721  1.00  0.00    +0.000 C 
ATOM     79  C55 UNL A   1      17.806  51.422  -0.999  1.00  0.00    +0.000 C 
ATOM     80  C56 UNL A   1      12.234  51.004   5.236  1.00  0.00    +0.000 C 
ATOM     81  C57 UNL A   1      12.328  52.310   5.442  1.00  0.00    +0.000 C 
ATOM    120  H24 UNL A   1      13.351  46.879   2.089  1.00  0.00    +0.000 H 
ATOM    121  H25 UNL A   1      15.145  46.994   0.200  1.00  0.00    +0.000 H 
ATOM    122  H26 UNL A   1      14.943  50.703   2.032  1.00  0.00    +0.000 H 
ATOM    123  H27 UNL A   1      16.713  56.829   2.294  1.00  0.00    +0.000 H 
ATOM    124  H28 UNL A   1      15.007  56.694   4.171  1.00  0.00    +0.000 H 
ATOM    125  H29 UNL A   1      15.237  52.944   2.392  1.00  0.00    +0.000 H 
ATOM    126  H30 UNL A   1      18.771  53.317  -1.166  1.00  0.00    +0.000 H 
ATOM    127  H31 UNL A   1      18.241  50.886  -1.767  1.00  0.00    +0.000 H 
ATOM    128  H32 UNL A   1      11.652  50.365   5.799  1.00  0.00    +0.000 H 
ENDROOT
BRANCH   25   24
ATOM    130  H34 UNL A   1      14.734  54.654   6.923  1.00  0.00    +0.000 H 
ATOM    131  H35 UNL A   1      13.823  56.130   8.616  1.00  0.00    +0.000 H 
ATOM     82  C58 UNL A   1      13.888  55.209   6.721  1.00  0.00    +0.000 C 
ATOM     83  C59 UNL A   1      13.390  56.086   7.681  1.00  0.00    +0.000 C 
ATOM     21  C16 UNL A   1      12.302  56.910   7.376  1.00  0.00    +0.000 C 
ATOM     22  C17 UNL A   1      11.637  56.765   6.154  1.00  0.00    +0.000 C 
ATOM    118  H22 UNL A   1      10.807  57.342   5.946  1.00  0.00    +0.000 H 
ATOM     23  C18 UNL A   1      12.098  55.839   5.217  1.00  0.00    +0.000 C 
ATOM    119  H23 UNL A   1      11.592  55.714   4.326  1.00  0.00    +0.000 H 
ATOM     24  C19 UNL A   1      13.246  55.074   5.481  1.00  0.00    +0.000 C 
BRANCH   21   19
ATOM     19  C15 UNL A   1      11.813  57.922   8.338  1.00  0.00    +0.000 C 
ATOM     20  O3  UNL A   1      12.286  59.054   8.320  1.00  0.00    +0.000 O 
BRANCH   19   18
ATOM     18  N2  UNL A   1      10.845  57.595   9.253  1.00  0.00    +0.000 N 
ATOM    117  H21 UNL A   1      10.429  58.359   9.715  1.00  0.00    +0.000 H 
BRANCH   18   17
ATOM     17  C14 UNL A   1      10.342  56.286   9.642  1.00  0.00    +0.000 C 
ATOM    115  H19 UNL A   1       9.343  56.397  10.009  1.00  0.00    +0.000 H 
ATOM    116  H20 UNL A   1      10.374  55.654   8.780  1.00  0.00    +0.000 H 
BRANCH   17   16
ATOM    113  H17 UNL A   1      12.047  56.262  10.898  1.00  0.00    +0.000 H 
ATOM    114  H18 UNL A   1      10.563  55.545  11.589  1.00  0.00    +0.000 H 
ATOM     16  C13 UNL A   1      11.194  55.639  10.730  1.00  0.00    +0.000 C 
BRANCH   16   15
ATOM    111  H15 UNL A   1      12.694  54.307  10.039  1.00  0.00    +0.000 H 
ATOM     15  C12 UNL A   1      11.692  54.228  10.405  1.00  0.00    +0.000 C 
ATOM    112  H16 UNL A   1      11.609  53.670  11.315  1.00  0.00    +0.000 H 
BRANCH   15   14
ATOM    110  H14 UNL A   1      10.924  54.040   8.463  1.00  0.00    +0.000 H 
ATOM    109  H13 UNL A   1       9.872  53.360   9.744  1.00  0.00    +0.000 H 
ATOM     14  C11 UNL A   1      10.866  53.465   9.363  1.00  0.00    +0.000 C 
BRANCH   14   13
ATOM    107  H11 UNL A   1      11.263  51.923   7.952  1.00  0.00    +0.000 H 
ATOM    108  H12 UNL A   1      12.410  52.031   9.311  1.00  0.00    +0.000 H 
ATOM     13  C10 UNL A   1      11.386  52.067   9.004  1.00  0.00    +0.000 C 
BRANCH   13   12
ATOM    105  H9  UNL A   1       9.633  51.175   9.818  1.00  0.00    +0.000 H 
ATOM    106  H10 UNL A   1      10.810  50.034   9.162  1.00  0.00    +0.000 H 
ATOM     12  C9  UNL A   1      10.670  50.929   9.731  1.00  0.00    +0.000 C 
BRANCH   12   11
ATOM     11  N1  UNL A   1      11.210  50.707  11.054  1.00  0.00    +0.000 N 
ATOM    104  H8  UNL A   1      11.301  51.516  11.608  1.00  0.00    +0.000 H 
BRANCH   11    9
ATOM      9  C8  UNL A   1      11.612  49.548  11.652  1.00  0.00    +0.000 C 
ATOM     10  O2  UNL A   1      10.741  48.901  12.243  1.00  0.00    +0.000 O 
BRANCH    9    8
ATOM    102  H6  UNL A   1      13.331  48.999  12.748  1.00  0.00    +0.000 H 
ATOM    103  H7  UNL A   1      13.159  48.262  11.116  1.00  0.00    +0.000 H 
ATOM      8  C7  UNL A   1      13.078  49.143  11.719  1.00  0.00    +0.000 C 
BRANCH    8    7
ATOM      3  C2  UNL A   1      15.598  50.803   7.265  1.00  0.00    +0.000 C 
ATOM    100  H4  UNL A   1      14.371  49.267   6.512  1.00  0.00    +0.000 H 
ATOM      4  C3  UNL A   1      14.645  49.792   7.357  1.00  0.00    +0.000 C 
ATOM      5  C4  UNL A   1      14.057  49.483   8.590  1.00  0.00    +0.000 C 
ATOM    101  H5  UNL A   1      13.345  48.739   8.650  1.00  0.00    +0.000 H 
ATOM      6  C5  UNL A   1      14.441  50.191   9.749  1.00  0.00    +0.000 C 
ATOM      7  C6  UNL A   1      14.069  50.119  11.136  1.00  0.00    +0.000 C 
ATOM    138  H42 UNL A   1      16.279  52.393  11.094  1.00  0.00    +0.000 H 
ATOM    139  H43 UNL A   1      16.755  52.218   8.348  1.00  0.00    +0.000 H 
ATOM     84  C60 UNL A   1      14.741  51.150  11.797  1.00  0.00    +0.000 C 
ATOM     94  N8  UNL A   1      15.607  51.706  10.879  1.00  0.00    +0.000 N 
ATOM     95  C68 UNL A   1      15.411  51.178   9.627  1.00  0.00    +0.000 C 
ATOM     96  C69 UNL A   1      16.019  51.496   8.405  1.00  0.00    +0.000 C 
BRANCH    3    2
ATOM      2  O1  UNL A   1      16.219  51.153   6.095  1.00  0.00    +0.000 O 
BRANCH    2    1
ATOM      1  C1  UNL A   1      16.583  50.037   5.283  1.00  0.00    +0.000 C 
ATOM     98  H2  UNL A   1      16.552  50.323   4.251  1.00  0.00    +0.000 H 
ATOM     99  H3  UNL A   1      15.896  49.234   5.451  1.00  0.00    +0.000 H 
ATOM     97  H1  UNL A   1      17.572  49.720   5.535  1.00  0.00    +0.000 H 
ENDBRANCH    2    1
ENDBRANCH    3    2
BRANCH   84   85
ATOM     85  C61 UNL A   1      14.601  51.569  13.189  1.00  0.00    +0.000 C 
ATOM     86  O4  UNL A   1      15.248  51.076  14.107  1.00  0.00    +0.000 O 
BRANCH   85   87
ATOM    132  H36 UNL A   1      12.196  51.243  14.362  1.00  0.00    +0.000 H 
ATOM    136  H40 UNL A   1      11.189  55.333  14.489  1.00  0.00    +0.000 H 
ATOM    137  H41 UNL A   1      13.286  55.823  13.433  1.00  0.00    +0.000 H 
ATOM     87  C62 UNL A   1      13.590  52.604  13.540  1.00  0.00    +0.000 C 
ATOM     88  C63 UNL A   1      12.400  52.234  14.160  1.00  0.00    +0.000 C 
ATOM     89  C64 UNL A   1      11.491  53.237  14.501  1.00  0.00    +0.000 C 
ATOM     91  C66 UNL A   1      11.831  54.567  14.233  1.00  0.00    +0.000 C 
ATOM     92  C67 UNL A   1      13.043  54.837  13.617  1.00  0.00    +0.000 C 
ATOM     93  N7  UNL A   1      13.922  53.887  13.246  1.00  0.00    +0.000 N 
BRANCH   89   90
ATOM     90  C65 UNL A   1      10.189  52.915  15.171  1.00  0.00    +0.000 C 
ATOM    133  H37 UNL A   1       9.866  53.756  15.749  1.00  0.00    +0.000 H 
ATOM    134  H38 UNL A   1      10.317  52.069  15.811  1.00  0.00    +0.000 H 
ATOM    135  H39 UNL A   1       9.451  52.691  14.427  1.00  0.00    +0.000 H 
ENDBRANCH   89   90
ENDBRANCH   85   87
ENDBRANCH   84   85
ENDBRANCH    8    7
ENDBRANCH    9    8
ENDBRANCH   11    9
ENDBRANCH   12   11
ENDBRANCH   13   12
ENDBRANCH   14   13
ENDBRANCH   15   14
ENDBRANCH   16   15
ENDBRANCH   17   16
ENDBRANCH   18   17
ENDBRANCH   19   18
ENDBRANCH   21   19
ENDBRANCH   25   24
BRANCH   29   30
ATOM     33  C26 UNL A   1      10.055  47.241   4.612  1.00  0.00    +0.000 C 
ATOM     34  F2  UNL A   1       8.737  47.201   4.372  1.00  0.00    +0.000 F 
ATOM     35  C27 UNL A   1      10.628  46.326   5.483  1.00  0.00    +0.000 C 
ATOM     36  F3  UNL A   1       9.869  45.391   6.069  1.00  0.00    +0.000 F 
ATOM     37  C28 UNL A   1      11.987  46.385   5.751  1.00  0.00    +0.000 C 
ATOM     38  F4  UNL A   1      12.544  45.495   6.582  1.00  0.00    +0.000 F 
ATOM     39  C29 UNL A   1      12.774  47.371   5.160  1.00  0.00    +0.000 C 
ATOM     40  F5  UNL A   1      14.083  47.411   5.451  1.00  0.00    +0.000 F 
ATOM     30  C24 UNL A   1      12.218  48.302   4.270  1.00  0.00    +0.000 C 
ATOM     31  C25 UNL A   1      10.844  48.209   3.997  1.00  0.00    +0.000 C 
ATOM     32  F1  UNL A   1      10.261  49.082   3.162  1.00  0.00    +0.000 F 
ENDBRANCH   29   30
BRANCH   46   47
ATOM     47  C35 UNL A   1      16.943  48.700  -1.162  1.00  0.00    +0.000 C 
ATOM     48  C36 UNL A   1      18.126  47.978  -0.948  1.00  0.00    +0.000 C 
ATOM     49  F6  UNL A   1      18.806  48.120   0.200  1.00  0.00    +0.000 F 
ATOM     50  C37 UNL A   1      18.637  47.135  -1.931  1.00  0.00    +0.000 C 
ATOM     51  F7  UNL A   1      19.792  46.489  -1.723  1.00  0.00    +0.000 F 
ATOM     52  C38 UNL A   1      17.958  46.973  -3.131  1.00  0.00    +0.000 C 
ATOM     53  F8  UNL A   1      18.449  46.156  -4.073  1.00  0.00    +0.000 F 
ATOM     54  C39 UNL A   1      16.777  47.664  -3.356  1.00  0.00    +0.000 C 
ATOM     55  F9  UNL A   1      16.115  47.499  -4.509  1.00  0.00    +0.000 F 
ATOM     56  C40 UNL A   1      16.279  48.529  -2.387  1.00  0.00    +0.000 C 
ATOM     57  F10 UNL A   1      15.141  49.193  -2.638  1.00  0.00    +0.000 F 
ENDBRANCH   46   47
BRANCH   61   62
ATOM     65  C46 UNL A   1      18.583  56.991  -1.393  1.00  0.00    +0.000 C 
ATOM     66  F12 UNL A   1      18.289  57.539  -2.580  1.00  0.00    +0.000 F 
ATOM     67  C47 UNL A   1      19.732  57.374  -0.717  1.00  0.00    +0.000 C 
ATOM     68  F13 UNL A   1      20.541  58.305  -1.242  1.00  0.00    +0.000 F 
ATOM     69  C48 UNL A   1      20.047  56.784   0.498  1.00  0.00    +0.000 C 
ATOM     70  F14 UNL A   1      21.149  57.161   1.159  1.00  0.00    +0.000 F 
ATOM     71  C49 UNL A   1      19.219  55.799   1.033  1.00  0.00    +0.000 C 
ATOM     72  F15 UNL A   1      19.553  55.237   2.202  1.00  0.00    +0.000 F 
ATOM     62  C44 UNL A   1      18.047  55.402   0.372  1.00  0.00    +0.000 C 
ATOM     63  C45 UNL A   1      17.740  56.024  -0.847  1.00  0.00    +0.000 C 
ATOM     64  F11 UNL A   1      16.642  55.663  -1.525  1.00  0.00    +0.000 F 
ENDBRANCH   61   62
TORSDOF 21
ENDMDL
MODEL 5
REMARK VINA RESULT:      -8.3     40.931     45.798
ROOT
ATOM    129  H33 UNL A   1      44.084  27.117  31.700  1.00  0.00    +0.000 H 
ATOM     25  C20 UNL A   1      43.654  29.473  33.243  1.00  0.00    +0.000 C 
ATOM     26  C21 UNL A   1      42.800  28.937  32.129  1.00  0.00    +0.000 C 
ATOM     27  N3  UNL A   1      41.689  29.419  31.630  1.00  0.00    +0.000 N 
ATOM     28  C22 UNL A   1      41.338  28.565  30.594  1.00  0.00    +0.000 C 
ATOM     29  C23 UNL A   1      40.238  28.602  29.805  1.00  0.00    +0.000 C 
ATOM     41  C30 UNL A   1      39.191  29.584  29.918  1.00  0.00    +0.000 C 
ATOM     42  C31 UNL A   1      38.004  29.666  29.210  1.00  0.00    +0.000 C 
ATOM     43  C32 UNL A   1      37.322  30.813  29.631  1.00  0.00    +0.000 C 
ATOM     44  C33 UNL A   1      38.062  31.420  30.632  1.00  0.00    +0.000 C 
ATOM     45  N4  UNL A   1      39.208  30.657  30.796  1.00  0.00    +0.000 N 
ATOM     46  C34 UNL A   1      37.749  32.608  31.384  1.00  0.00    +0.000 C 
ATOM     58  C41 UNL A   1      38.522  33.131  32.368  1.00  0.00    +0.000 C 
ATOM     59  N5  UNL A   1      39.736  32.672  32.861  1.00  0.00    +0.000 N 
ATOM     60  C42 UNL A   1      40.092  33.523  33.791  1.00  0.00    +0.000 C 
ATOM     61  C43 UNL A   1      41.308  33.509  34.676  1.00  0.00    +0.000 C 
ATOM     73  C50 UNL A   1      42.192  32.499  34.565  1.00  0.00    +0.000 C 
ATOM     74  C51 UNL A   1      43.408  32.346  35.359  1.00  0.00    +0.000 C 
ATOM     75  C52 UNL A   1      44.064  31.250  34.948  1.00  0.00    +0.000 C 
ATOM     76  C53 UNL A   1      43.295  30.602  33.885  1.00  0.00    +0.000 C 
ATOM     77  N6  UNL A   1      42.198  31.411  33.727  1.00  0.00    +0.000 N 
ATOM     78  C54 UNL A   1      39.151  34.636  33.979  1.00  0.00    +0.000 C 
ATOM     79  C55 UNL A   1      38.194  34.327  33.114  1.00  0.00    +0.000 C 
ATOM     80  C56 UNL A   1      42.377  27.562  30.502  1.00  0.00    +0.000 C 
ATOM     81  C57 UNL A   1      43.271  27.709  31.470  1.00  0.00    +0.000 C 
ATOM    120  H24 UNL A   1      37.679  28.997  28.494  1.00  0.00    +0.000 H 
ATOM    121  H25 UNL A   1      36.420  31.149  29.258  1.00  0.00    +0.000 H 
ATOM    122  H26 UNL A   1      39.927  30.849  31.440  1.00  0.00    +0.000 H 
ATOM    123  H27 UNL A   1      43.714  32.981  36.113  1.00  0.00    +0.000 H 
ATOM    124  H28 UNL A   1      44.965  30.916  35.324  1.00  0.00    +0.000 H 
ATOM    125  H29 UNL A   1      41.483  31.229  33.075  1.00  0.00    +0.000 H 
ATOM    126  H30 UNL A   1      39.217  35.446  34.615  1.00  0.00    +0.000 H 
ATOM    127  H31 UNL A   1      37.326  34.871  32.989  1.00  0.00    +0.000 H 
ATOM    128  H32 UNL A   1      42.418  26.828  29.777  1.00  0.00    +0.000 H 
ENDROOT
BRANCH   25   24
ATOM    130  H34 UNL A   1      44.064  27.543  35.058  1.00  0.00    +0.000 H 
ATOM    131  H35 UNL A   1      46.148  26.487  35.703  1.00  0.00    +0.000 H 
ATOM     82  C58 UNL A   1      44.942  27.805  34.584  1.00  0.00    +0.000 C 
ATOM     83  C59 UNL A   1      46.132  27.168  34.929  1.00  0.00    +0.000 C 
ATOM     21  C16 UNL A   1      47.305  27.453  34.224  1.00  0.00    +0.000 C 
ATOM     22  C17 UNL A   1      47.313  28.465  33.259  1.00  0.00    +0.000 C 
ATOM    118  H22 UNL A   1      48.188  28.705  32.768  1.00  0.00    +0.000 H 
ATOM     23  C18 UNL A   1      46.133  29.148  32.959  1.00  0.00    +0.000 C 
ATOM    119  H23 UNL A   1      46.143  29.912  32.265  1.00  0.00    +0.000 H 
ATOM     24  C19 UNL A   1      44.931  28.803  33.598  1.00  0.00    +0.000 C 
BRANCH   21   19
ATOM     19  C15 UNL A   1      48.562  26.722  34.499  1.00  0.00    +0.000 C 
ATOM     20  O3  UNL A   1      49.196  26.969  35.520  1.00  0.00    +0.000 O 
BRANCH   19   18
ATOM     18  N2  UNL A   1      49.023  25.782  33.612  1.00  0.00    +0.000 N 
ATOM    117  H21 UNL A   1      48.591  24.899  33.675  1.00  0.00    +0.000 H 
BRANCH   18   17
ATOM     17  C14 UNL A   1      50.056  25.898  32.594  1.00  0.00    +0.000 C 
ATOM    115  H19 UNL A   1      50.599  26.805  32.758  1.00  0.00    +0.000 H 
ATOM    116  H20 UNL A   1      50.692  25.041  32.674  1.00  0.00    +0.000 H 
BRANCH   17   16
ATOM    113  H17 UNL A   1      48.554  25.382  31.193  1.00  0.00    +0.000 H 
ATOM    114  H18 UNL A   1      49.359  26.954  30.925  1.00  0.00    +0.000 H 
ATOM     16  C13 UNL A   1      49.476  25.922  31.183  1.00  0.00    +0.000 C 
BRANCH   16   15
ATOM    111  H15 UNL A   1      51.193  25.980  29.937  1.00  0.00    +0.000 H 
ATOM     15  C12 UNL A   1      50.376  25.309  30.106  1.00  0.00    +0.000 C 
ATOM    112  H16 UNL A   1      50.676  24.353  30.482  1.00  0.00    +0.000 H 
BRANCH   15   14
ATOM    110  H14 UNL A   1      49.030  24.221  28.923  1.00  0.00    +0.000 H 
ATOM    109  H13 UNL A   1      50.462  24.836  28.039  1.00  0.00    +0.000 H 
ATOM     14  C11 UNL A   1      49.697  25.041  28.759  1.00  0.00    +0.000 C 
BRANCH   14   13
ATOM    107  H11 UNL A   1      47.806  25.953  28.408  1.00  0.00    +0.000 H 
ATOM    108  H12 UNL A   1      49.155  27.077  28.711  1.00  0.00    +0.000 H 
ATOM     13  C10 UNL A   1      48.832  26.186  28.216  1.00  0.00    +0.000 C 
BRANCH   13   12
ATOM    105  H9  UNL A   1      49.112  27.484  26.552  1.00  0.00    +0.000 H 
ATOM    106  H10 UNL A   1      49.852  25.890  26.382  1.00  0.00    +0.000 H 
ATOM     12  C9  UNL A   1      48.994  26.434  26.717  1.00  0.00    +0.000 C 
BRANCH   12   11
ATOM     11  N1  UNL A   1      47.849  25.970  25.964  1.00  0.00    +0.000 N 
ATOM    104  H8  UNL A   1      47.781  26.326  25.048  1.00  0.00    +0.000 H 
BRANCH   11    9
ATOM      9  C8  UNL A   1      46.850  25.115  26.328  1.00  0.00    +0.000 C 
ATOM     10  O2  UNL A   1      47.007  23.925  26.036  1.00  0.00    +0.000 O 
BRANCH    9    8
ATOM    102  H6  UNL A   1      45.742  26.548  27.413  1.00  0.00    +0.000 H 
ATOM    103  H7  UNL A   1      44.857  25.675  26.112  1.00  0.00    +0.000 H 
ATOM      8  C7  UNL A   1      45.543  25.614  26.930  1.00  0.00    +0.000 C 
BRANCH    8    7
ATOM      3  C2  UNL A   1      45.008  24.402  32.145  1.00  0.00    +0.000 C 
ATOM    100  H4  UNL A   1      46.316  26.050  32.223  1.00  0.00    +0.000 H 
ATOM      4  C3  UNL A   1      45.769  25.435  31.601  1.00  0.00    +0.000 C 
ATOM      5  C4  UNL A   1      45.794  25.642  30.217  1.00  0.00    +0.000 C 
ATOM    101  H5  UNL A   1      46.352  26.415  29.821  1.00  0.00    +0.000 H 
ATOM      6  C5  UNL A   1      45.057  24.792  29.364  1.00  0.00    +0.000 C 
ATOM      7  C6  UNL A   1      44.883  24.708  27.940  1.00  0.00    +0.000 C 
ATOM    138  H42 UNL A   1      43.170  22.270  29.026  1.00  0.00    +0.000 H 
ATOM    139  H43 UNL A   1      43.765  22.734  31.714  1.00  0.00    +0.000 H 
ATOM     84  C60 UNL A   1      43.955  23.693  27.697  1.00  0.00    +0.000 C 
ATOM     94  N8  UNL A   1      43.713  23.084  28.911  1.00  0.00    +0.000 N 
ATOM     95  C68 UNL A   1      44.328  23.757  29.936  1.00  0.00    +0.000 C 
ATOM     96  C69 UNL A   1      44.296  23.526  31.318  1.00  0.00    +0.000 C 
BRANCH    3    2
ATOM      2  O1  UNL A   1      44.943  24.137  33.487  1.00  0.00    +0.000 O 
BRANCH    2    1
ATOM      1  C1  UNL A   1      43.654  23.712  33.926  1.00  0.00    +0.000 C 
ATOM     98  H2  UNL A   1      42.902  24.306  33.449  1.00  0.00    +0.000 H 
ATOM     99  H3  UNL A   1      43.581  23.830  34.987  1.00  0.00    +0.000 H 
ATOM     97  H1  UNL A   1      43.510  22.684  33.670  1.00  0.00    +0.000 H 
ENDBRANCH    2    1
ENDBRANCH    3    2
BRANCH   84   85
ATOM     85  C61 UNL A   1      43.355  23.307  26.423  1.00  0.00    +0.000 C 
ATOM     86  O4  UNL A   1      42.822  24.108  25.661  1.00  0.00    +0.000 O 
BRANCH   85   87
ATOM    132  H36 UNL A   1      45.248  21.866  25.156  1.00  0.00    +0.000 H 
ATOM    136  H40 UNL A   1      43.171  18.200  25.243  1.00  0.00    +0.000 H 
ATOM    137  H41 UNL A   1      41.369  19.314  26.369  1.00  0.00    +0.000 H 
ATOM     87  C62 UNL A   1      43.326  21.869  26.038  1.00  0.00    +0.000 C 
ATOM     88  C63 UNL A   1      44.420  21.298  25.393  1.00  0.00    +0.000 C 
ATOM     89  C64 UNL A   1      44.367  19.939  25.075  1.00  0.00    +0.000 C 
ATOM     91  C66 UNL A   1      43.234  19.210  25.447  1.00  0.00    +0.000 C 
ATOM     92  C67 UNL A   1      42.196  19.866  26.092  1.00  0.00    +0.000 C 
ATOM     93  N7  UNL A   1      42.207  21.182  26.378  1.00  0.00    +0.000 N 
BRANCH   89   90
ATOM     90  C65 UNL A   1      45.506  19.256  24.381  1.00  0.00    +0.000 C 
ATOM    133  H37 UNL A   1      45.271  19.133  23.344  1.00  0.00    +0.000 H 
ATOM    134  H38 UNL A   1      45.671  18.297  24.825  1.00  0.00    +0.000 H 
ATOM    135  H39 UNL A   1      46.391  19.850  24.477  1.00  0.00    +0.000 H 
ENDBRANCH   89   90
ENDBRANCH   85   87
ENDBRANCH   84   85
ENDBRANCH    8    7
ENDBRANCH    9    8
ENDBRANCH   11    9
ENDBRANCH   12   11
ENDBRANCH   13   12
ENDBRANCH   14   13
ENDBRANCH   15   14
ENDBRANCH   16   15
ENDBRANCH   17   16
ENDBRANCH   18   17
ENDBRANCH   19   18
ENDBRANCH   21   19
ENDBRANCH   25   24
BRANCH   29   30
ATOM     33  C26 UNL A   1      40.617  26.670  26.537  1.00  0.00    +0.000 C 
ATOM     34  F2  UNL A   1      41.196  26.827  25.338  1.00  0.00    +0.000 F 
ATOM     35  C27 UNL A   1      39.882  25.524  26.806  1.00  0.00    +0.000 C 
ATOM     36  F3  UNL A   1      39.767  24.567  25.875  1.00  0.00    +0.000 F 
ATOM     37  C28 UNL A   1      39.262  25.376  28.036  1.00  0.00    +0.000 C 
ATOM     38  F4  UNL A   1      38.561  24.265  28.302  1.00  0.00    +0.000 F 
ATOM     39  C29 UNL A   1      39.362  26.380  28.996  1.00  0.00    +0.000 C 
ATOM     40  F5  UNL A   1      38.737  26.213  30.172  1.00  0.00    +0.000 F 
ATOM     30  C24 UNL A   1      40.106  27.543  28.749  1.00  0.00    +0.000 C 
ATOM     31  C25 UNL A   1      40.743  27.663  27.504  1.00  0.00    +0.000 C 
ATOM     32  F1  UNL A   1      41.458  28.760  27.214  1.00  0.00    +0.000 F 
ENDBRANCH   29   30
BRANCH   46   47
ATOM     47  C35 UNL A   1      36.463  33.315  31.076  1.00  0.00    +0.000 C 
ATOM     48  C36 UNL A   1      35.410  33.361  32.001  1.00  0.00    +0.000 C 
ATOM     49  F6  UNL A   1      35.517  32.725  33.177  1.00  0.00    +0.000 F 
ATOM     50  C37 UNL A   1      34.225  34.029  31.703  1.00  0.00    +0.000 C 
ATOM     51  F7  UNL A   1      33.216  34.023  32.584  1.00  0.00    +0.000 F 
ATOM     52  C38 UNL A   1      34.085  34.691  30.492  1.00  0.00    +0.000 C 
ATOM     53  F8  UNL A   1      32.945  35.339  30.210  1.00  0.00    +0.000 F 
ATOM     54  C39 UNL A   1      35.120  34.672  29.570  1.00  0.00    +0.000 C 
ATOM     55  F9  UNL A   1      34.989  35.320  28.404  1.00  0.00    +0.000 F 
ATOM     56  C40 UNL A   1      36.294  33.981  29.852  1.00  0.00    +0.000 C 
ATOM     57  F10 UNL A   1      37.274  33.972  28.935  1.00  0.00    +0.000 F 
ENDBRANCH   46   47
BRANCH   61   62
ATOM     65  C46 UNL A   1      41.133  35.495  37.905  1.00  0.00    +0.000 C 
ATOM     66  F12 UNL A   1      40.533  35.407  39.100  1.00  0.00    +0.000 F 
ATOM     67  C47 UNL A   1      41.926  36.593  37.605  1.00  0.00    +0.000 C 
ATOM     68  F13 UNL A   1      42.107  37.559  38.516  1.00  0.00    +0.000 F 
ATOM     69  C48 UNL A   1      42.524  36.692  36.357  1.00  0.00    +0.000 C 
ATOM     70  F14 UNL A   1      43.300  37.745  36.069  1.00  0.00    +0.000 F 
ATOM     71  C49 UNL A   1      42.317  35.699  35.402  1.00  0.00    +0.000 C 
ATOM     72  F15 UNL A   1      42.896  35.827  34.200  1.00  0.00    +0.000 F 
ATOM     62  C44 UNL A   1      41.527  34.576  35.685  1.00  0.00    +0.000 C 
ATOM     63  C45 UNL A   1      40.948  34.488  36.959  1.00  0.00    +0.000 C 
ATOM     64  F11 UNL A   1      40.168  33.443  37.269  1.00  0.00    +0.000 F 
ENDBRANCH   61   62
TORSDOF 21
ENDMDL
MODEL 6
REMARK VINA RESULT:      -8.3      1.805      7.595
ROOT
ATOM    129  H33 UNL A   1      11.681  52.394   7.151  1.00  0.00    +0.000 H 
ATOM     25  C20 UNL A   1      13.528  53.688   5.411  1.00  0.00    +0.000 C 
ATOM     26  C21 UNL A   1      13.114  52.243   5.399  1.00  0.00    +0.000 C 
ATOM     27  N3  UNL A   1      13.497  51.277   4.602  1.00  0.00    +0.000 N 
ATOM     28  C22 UNL A   1      12.847  50.136   5.052  1.00  0.00    +0.000 C 
ATOM     29  C23 UNL A   1      12.870  48.889   4.525  1.00  0.00    +0.000 C 
ATOM     41  C30 UNL A   1      13.608  48.519   3.346  1.00  0.00    +0.000 C 
ATOM     42  C31 UNL A   1      13.642  47.297   2.695  1.00  0.00    +0.000 C 
ATOM     43  C32 UNL A   1      14.532  47.398   1.621  1.00  0.00    +0.000 C 
ATOM     44  C33 UNL A   1      15.020  48.694   1.576  1.00  0.00    +0.000 C 
ATOM     45  N4  UNL A   1      14.447  49.370   2.641  1.00  0.00    +0.000 N 
ATOM     46  C34 UNL A   1      15.940  49.273   0.632  1.00  0.00    +0.000 C 
ATOM     58  C41 UNL A   1      16.357  50.564   0.644  1.00  0.00    +0.000 C 
ATOM     59  N5  UNL A   1      16.014  51.583   1.523  1.00  0.00    +0.000 N 
ATOM     60  C42 UNL A   1      16.686  52.637   1.131  1.00  0.00    +0.000 C 
ATOM     61  C43 UNL A   1      16.684  54.029   1.700  1.00  0.00    +0.000 C 
ATOM     73  C50 UNL A   1      15.890  54.310   2.751  1.00  0.00    +0.000 C 
ATOM     74  C51 UNL A   1      15.776  55.612   3.401  1.00  0.00    +0.000 C 
ATOM     75  C52 UNL A   1      14.926  55.512   4.435  1.00  0.00    +0.000 C 
ATOM     76  C53 UNL A   1      14.409  54.145   4.498  1.00  0.00    +0.000 C 
ATOM     77  N6  UNL A   1      15.033  53.504   3.458  1.00  0.00    +0.000 N 
ATOM     78  C54 UNL A   1      17.552  52.399  -0.031  1.00  0.00    +0.000 C 
ATOM     79  C55 UNL A   1      17.284  51.131  -0.312  1.00  0.00    +0.000 C 
ATOM     80  C56 UNL A   1      12.082  50.518   6.219  1.00  0.00    +0.000 C 
ATOM     81  C57 UNL A   1      12.161  51.823   6.438  1.00  0.00    +0.000 C 
ATOM    120  H24 UNL A   1      13.102  46.457   2.958  1.00  0.00    +0.000 H 
ATOM    121  H25 UNL A   1      14.783  46.635   0.972  1.00  0.00    +0.000 H 
ATOM    122  H26 UNL A   1      14.611  50.314   2.865  1.00  0.00    +0.000 H 
ATOM    123  H27 UNL A   1      16.270  56.471   3.113  1.00  0.00    +0.000 H 
ATOM    124  H28 UNL A   1      14.676  56.278   5.081  1.00  0.00    +0.000 H 
ATOM    125  H29 UNL A   1      14.880  52.556   3.239  1.00  0.00    +0.000 H 
ATOM    126  H30 UNL A   1      18.200  53.048  -0.506  1.00  0.00    +0.000 H 
ATOM    127  H31 UNL A   1      17.686  50.614  -1.110  1.00  0.00    +0.000 H 
ATOM    128  H32 UNL A   1      11.545  49.859   6.806  1.00  0.00    +0.000 H 
ENDROOT
BRANCH   25   24
ATOM    130  H34 UNL A   1      14.662  54.289   7.765  1.00  0.00    +0.000 H 
ATOM    131  H35 UNL A   1      13.822  55.724   9.528  1.00  0.00    +0.000 H 
ATOM     82  C58 UNL A   1      13.768  54.791   7.639  1.00  0.00    +0.000 C 
ATOM     83  C59 UNL A   1      13.308  55.646   8.638  1.00  0.00    +0.000 C 
ATOM     21  C16 UNL A   1      12.148  56.399   8.431  1.00  0.00    +0.000 C 
ATOM     22  C17 UNL A   1      11.383  56.202   7.277  1.00  0.00    +0.000 C 
ATOM    118  H22 UNL A   1      10.504  56.726   7.144  1.00  0.00    +0.000 H 
ATOM     23  C18 UNL A   1      11.812  55.296   6.305  1.00  0.00    +0.000 C 
ATOM    119  H23 UNL A   1      11.235  55.132   5.465  1.00  0.00    +0.000 H 
ATOM     24  C19 UNL A   1      13.024  54.604   6.465  1.00  0.00    +0.000 C 
BRANCH   21   19
ATOM     19  C15 UNL A   1      11.689  57.389   9.430  1.00  0.00    +0.000 C 
ATOM     20  O3  UNL A   1      12.002  58.569   9.302  1.00  0.00    +0.000 O 
BRANCH   19   18
ATOM     18  N2  UNL A   1      10.928  56.990  10.500  1.00  0.00    +0.000 N 
ATOM    117  H21 UNL A   1      10.481  57.718  10.990  1.00  0.00    +0.000 H 
BRANCH   18   17
ATOM     17  C14 UNL A   1      10.686  55.652  11.016  1.00  0.00    +0.000 C 
ATOM    115  H19 UNL A   1       9.672  55.381  10.805  1.00  0.00    +0.000 H 
ATOM    116  H20 UNL A   1      11.375  54.987  10.538  1.00  0.00    +0.000 H 
BRANCH   17   16
ATOM    113  H17 UNL A   1      11.068  56.553  12.894  1.00  0.00    +0.000 H 
ATOM    114  H18 UNL A   1      10.046  55.088  12.929  1.00  0.00    +0.000 H 
ATOM     16  C13 UNL A   1      10.914  55.562  12.521  1.00  0.00    +0.000 C 
BRANCH   16   15
ATOM    111  H15 UNL A   1      12.757  55.309  13.543  1.00  0.00    +0.000 H 
ATOM     15  C12 UNL A   1      12.110  54.704  12.942  1.00  0.00    +0.000 C 
ATOM    112  H16 UNL A   1      11.701  53.863  13.464  1.00  0.00    +0.000 H 
BRANCH   15   14
ATOM    110  H14 UNL A   1      12.830  54.809  10.976  1.00  0.00    +0.000 H 
ATOM    109  H13 UNL A   1      12.570  53.143  11.579  1.00  0.00    +0.000 H 
ATOM     14  C11 UNL A   1      12.940  54.125  11.790  1.00  0.00    +0.000 C 
BRANCH   14   13
ATOM    107  H11 UNL A   1      14.959  54.605  11.319  1.00  0.00    +0.000 H 
ATOM    108  H12 UNL A   1      14.612  54.364  13.050  1.00  0.00    +0.000 H 
ATOM     13  C10 UNL A   1      14.448  54.017  12.051  1.00  0.00    +0.000 C 
BRANCH   13   12
ATOM    105  H9  UNL A   1      15.495  52.457  11.051  1.00  0.00    +0.000 H 
ATOM    106  H10 UNL A   1      15.662  52.455  12.809  1.00  0.00    +0.000 H 
ATOM     12  C9  UNL A   1      14.992  52.591  11.986  1.00  0.00    +0.000 C 
BRANCH   12   11
ATOM     11  N1  UNL A   1      13.941  51.604  12.097  1.00  0.00    +0.000 N 
ATOM    104  H8  UNL A   1      13.401  51.478  11.284  1.00  0.00    +0.000 H 
BRANCH   11    9
ATOM      9  C8  UNL A   1      13.584  50.821  13.157  1.00  0.00    +0.000 C 
ATOM     10  O2  UNL A   1      14.054  51.132  14.256  1.00  0.00    +0.000 O 
BRANCH    9    8
ATOM    102  H6  UNL A   1      13.458  48.741  12.819  1.00  0.00    +0.000 H 
ATOM    103  H7  UNL A   1      12.182  49.457  13.867  1.00  0.00    +0.000 H 
ATOM      8  C7  UNL A   1      12.771  49.546  12.978  1.00  0.00    +0.000 C 
BRANCH    8    7
ATOM      3  C2  UNL A   1       8.321  51.768  10.929  1.00  0.00    +0.000 C 
ATOM    100  H4  UNL A   1       8.596  52.904  12.680  1.00  0.00    +0.000 H 
ATOM      4  C3  UNL A   1       8.975  52.138  12.101  1.00  0.00    +0.000 C 
ATOM      5  C4  UNL A   1      10.143  51.476  12.500  1.00  0.00    +0.000 C 
ATOM    101  H5  UNL A   1      10.628  51.761  13.365  1.00  0.00    +0.000 H 
ATOM      6  C5  UNL A   1      10.655  50.420  11.717  1.00  0.00    +0.000 C 
ATOM      7  C6  UNL A   1      11.783  49.537  11.840  1.00  0.00    +0.000 C 
ATOM    138  H42 UNL A   1      10.362  48.534   9.187  1.00  0.00    +0.000 H 
ATOM    139  H43 UNL A   1       8.286  50.398   9.306  1.00  0.00    +0.000 H 
ATOM     84  C60 UNL A   1      11.811  48.743  10.691  1.00  0.00    +0.000 C 
ATOM     94  N8  UNL A   1      10.655  49.020   9.993  1.00  0.00    +0.000 N 
ATOM     95  C68 UNL A   1       9.966  50.060  10.565  1.00  0.00    +0.000 C 
ATOM     96  C69 UNL A   1       8.790  50.702  10.153  1.00  0.00    +0.000 C 
BRANCH    3    2
ATOM      2  O1  UNL A   1       7.171  52.366  10.483  1.00  0.00    +0.000 O 
BRANCH    2    1
ATOM      1  C1  UNL A   1       6.135  52.419  11.463  1.00  0.00    +0.000 C 
ATOM     98  H2  UNL A   1       5.205  52.645  10.985  1.00  0.00    +0.000 H 
ATOM     99  H3  UNL A   1       6.362  53.178  12.181  1.00  0.00    +0.000 H 
ATOM     97  H1  UNL A   1       6.061  51.472  11.955  1.00  0.00    +0.000 H 
ENDBRANCH    2    1
ENDBRANCH    3    2
BRANCH   84   85
ATOM     85  C61 UNL A   1      12.832  47.779  10.287  1.00  0.00    +0.000 C 
ATOM     86  O4  UNL A   1      12.756  46.579  10.531  1.00  0.00    +0.000 O 
BRANCH   85   87
ATOM    132  H36 UNL A   1      13.374  50.250   9.354  1.00  0.00    +0.000 H 
ATOM    136  H40 UNL A   1      17.262  49.379   7.980  1.00  0.00    +0.000 H 
ATOM    137  H41 UNL A   1      16.961  47.122   8.735  1.00  0.00    +0.000 H 
ATOM     87  C62 UNL A   1      14.058  48.263   9.595  1.00  0.00    +0.000 C 
ATOM     88  C63 UNL A   1      14.154  49.594   9.197  1.00  0.00    +0.000 C 
ATOM     89  C64 UNL A   1      15.333  50.017   8.579  1.00  0.00    +0.000 C 
ATOM     91  C66 UNL A   1      16.371  49.094   8.417  1.00  0.00    +0.000 C 
ATOM     92  C67 UNL A   1      16.183  47.791   8.852  1.00  0.00    +0.000 C 
ATOM     93  N7  UNL A   1      15.044  47.349   9.419  1.00  0.00    +0.000 N 
BRANCH   89   90
ATOM     90  C65 UNL A   1      15.509  51.433   8.122  1.00  0.00    +0.000 C 
ATOM    133  H37 UNL A   1      14.979  52.090   8.780  1.00  0.00    +0.000 H 
ATOM    134  H38 UNL A   1      15.127  51.538   7.129  1.00  0.00    +0.000 H 
ATOM    135  H39 UNL A   1      16.550  51.684   8.131  1.00  0.00    +0.000 H 
ENDBRANCH   89   90
ENDBRANCH   85   87
ENDBRANCH   84   85
ENDBRANCH    8    7
ENDBRANCH    9    8
ENDBRANCH   11    9
ENDBRANCH   12   11
ENDBRANCH   13   12
ENDBRANCH   14   13
ENDBRANCH   15   14
ENDBRANCH   16   15
ENDBRANCH   17   16
ENDBRANCH   18   17
ENDBRANCH   19   18
ENDBRANCH   21   19
ENDBRANCH   25   24
BRANCH   29   30
ATOM     33  C26 UNL A   1      11.864  46.040   6.855  1.00  0.00    +0.000 C 
ATOM     34  F2  UNL A   1      12.432  45.243   7.771  1.00  0.00    +0.000 F 
ATOM     35  C27 UNL A   1      10.523  45.882   6.536  1.00  0.00    +0.000 C 
ATOM     36  F3  UNL A   1       9.791  44.947   7.157  1.00  0.00    +0.000 F 
ATOM     37  C28 UNL A   1       9.944  46.689   5.569  1.00  0.00    +0.000 C 
ATOM     38  F4  UNL A   1       8.646  46.546   5.268  1.00  0.00    +0.000 F 
ATOM     39  C29 UNL A   1      10.709  47.646   4.907  1.00  0.00    +0.000 C 
ATOM     40  F5  UNL A   1      10.123  48.401   3.965  1.00  0.00    +0.000 F 
ATOM     30  C24 UNL A   1      12.065  47.829   5.218  1.00  0.00    +0.000 C 
ATOM     31  C25 UNL A   1      12.624  47.015   6.216  1.00  0.00    +0.000 C 
ATOM     32  F1  UNL A   1      13.919  47.142   6.543  1.00  0.00    +0.000 F 
ENDBRANCH   29   30
BRANCH   46   47
ATOM     47  C35 UNL A   1      16.468  48.394  -0.464  1.00  0.00    +0.000 C 
ATOM     48  C36 UNL A   1      15.687  48.065  -1.581  1.00  0.00    +0.000 C 
ATOM     49  F6  UNL A   1      14.420  48.497  -1.670  1.00  0.00    +0.000 F 
ATOM     50  C37 UNL A   1      16.194  47.256  -2.594  1.00  0.00    +0.000 C 
ATOM     51  F7  UNL A   1      15.416  46.918  -3.631  1.00  0.00    +0.000 F 
ATOM     52  C38 UNL A   1      17.499  46.790  -2.526  1.00  0.00    +0.000 C 
ATOM     53  F8  UNL A   1      17.987  46.016  -3.506  1.00  0.00    +0.000 F 
ATOM     54  C39 UNL A   1      18.294  47.118  -1.438  1.00  0.00    +0.000 C 
ATOM     55  F9  UNL A   1      19.558  46.678  -1.377  1.00  0.00    +0.000 F 
ATOM     56  C40 UNL A   1      17.781  47.903  -0.410  1.00  0.00    +0.000 C 
ATOM     57  F10 UNL A   1      18.571  48.194   0.635  1.00  0.00    +0.000 F 
ENDBRANCH   46   47
BRANCH   61   62
ATOM     65  C46 UNL A   1      17.886  56.778  -0.625  1.00  0.00    +0.000 C 
ATOM     66  F12 UNL A   1      17.473  57.390  -1.743  1.00  0.00    +0.000 F 
ATOM     67  C47 UNL A   1      19.103  57.118  -0.054  1.00  0.00    +0.000 C 
ATOM     68  F13 UNL A   1      19.861  58.074  -0.611  1.00  0.00    +0.000 F 
ATOM     69  C48 UNL A   1      19.538  56.462   1.088  1.00  0.00    +0.000 C 
ATOM     70  F14 UNL A   1      20.707  56.799   1.648  1.00  0.00    +0.000 F 
ATOM     71  C49 UNL A   1      18.761  55.454   1.653  1.00  0.00    +0.000 C 
ATOM     72  F15 UNL A   1      19.211  54.827   2.750  1.00  0.00    +0.000 F 
ATOM     62  C44 UNL A   1      17.523  55.098   1.100  1.00  0.00    +0.000 C 
ATOM     63  C45 UNL A   1      17.096  55.786  -0.045  1.00  0.00    +0.000 C 
ATOM     64  F11 UNL A   1      15.928  55.467  -0.622  1.00  0.00    +0.000 F 
ENDBRANCH   61   62
TORSDOF 21
ENDMDL
MODEL 7
REMARK VINA RESULT:      -8.3     43.398     50.178
ROOT
ATOM    129  H33 UNL A   1      12.138   1.461  19.320  1.00  0.00    +0.000 H 
ATOM     25  C20 UNL A   1      10.553   2.963  21.150  1.00  0.00    +0.000 C 
ATOM     26  C21 UNL A   1      11.114   3.419  19.833  1.00  0.00    +0.000 C 
ATOM     27  N3  UNL A   1      10.999   4.582  19.241  1.00  0.00    +0.000 N 
ATOM     28  C22 UNL A   1      11.742   4.486  18.072  1.00  0.00    +0.000 C 
ATOM     29  C23 UNL A   1      11.892   5.405  17.089  1.00  0.00    +0.000 C 
ATOM     41  C30 UNL A   1      11.270   6.703  17.090  1.00  0.00    +0.000 C 
ATOM     42  C31 UNL A   1      11.306   7.679  16.108  1.00  0.00    +0.000 C 
ATOM     43  C32 UNL A   1      10.590   8.790  16.570  1.00  0.00    +0.000 C 
ATOM     44  C33 UNL A   1      10.072   8.490  17.818  1.00  0.00    +0.000 C 
ATOM     45  N4  UNL A   1      10.498   7.207  18.127  1.00  0.00    +0.000 N 
ATOM     46  C34 UNL A   1       9.248   9.310  18.669  1.00  0.00    +0.000 C 
ATOM     58  C41 UNL A   1       8.762   8.934  19.877  1.00  0.00    +0.000 C 
ATOM     59  N5  UNL A   1       8.931   7.731  20.550  1.00  0.00    +0.000 N 
ATOM     60  C42 UNL A   1       8.283   7.857  21.682  1.00  0.00    +0.000 C 
ATOM     61  C43 UNL A   1       8.106   6.857  22.791  1.00  0.00    +0.000 C 
ATOM     73  C50 UNL A   1       8.648   5.631  22.665  1.00  0.00    +0.000 C 
ATOM     74  C51 UNL A   1       8.552   4.557  23.649  1.00  0.00    +0.000 C 
ATOM     75  C52 UNL A   1       9.244   3.495  23.208  1.00  0.00    +0.000 C 
ATOM     76  C53 UNL A   1       9.804   3.802  21.891  1.00  0.00    +0.000 C 
ATOM     77  N6  UNL A   1       9.396   5.089  21.647  1.00  0.00    +0.000 N 
ATOM     78  C54 UNL A   1       7.646   9.168  21.866  1.00  0.00    +0.000 C 
ATOM     79  C55 UNL A   1       7.936   9.771  20.721  1.00  0.00    +0.000 C 
ATOM     80  C56 UNL A   1      12.343   3.169  18.059  1.00  0.00    +0.000 C 
ATOM     81  C57 UNL A   1      11.934   2.447  19.093  1.00  0.00    +0.000 C 
ATOM    120  H24 UNL A   1      11.779   7.600  15.194  1.00  0.00    +0.000 H 
ATOM    121  H25 UNL A   1      10.470   9.682  16.064  1.00  0.00    +0.000 H 
ATOM    122  H26 UNL A   1      10.286   6.726  18.958  1.00  0.00    +0.000 H 
ATOM    123  H27 UNL A   1       8.036   4.608  24.542  1.00  0.00    +0.000 H 
ATOM    124  H28 UNL A   1       9.361   2.604  23.716  1.00  0.00    +0.000 H 
ATOM    125  H29 UNL A   1       9.617   5.578  20.822  1.00  0.00    +0.000 H 
ATOM    126  H30 UNL A   1       7.114   9.527  22.674  1.00  0.00    +0.000 H 
ATOM    127  H31 UNL A   1       7.614  10.718  20.464  1.00  0.00    +0.000 H 
ATOM    128  H32 UNL A   1      13.004   2.836  17.340  1.00  0.00    +0.000 H 
ENDROOT
BRANCH   25   24
ATOM    130  H34 UNL A   1      12.605   2.240  22.717  1.00  0.00    +0.000 H 
ATOM    131  H35 UNL A   1      13.190   0.030  23.524  1.00  0.00    +0.000 H 
ATOM     82  C58 UNL A   1      12.004   1.432  22.488  1.00  0.00    +0.000 C 
ATOM     83  C59 UNL A   1      12.321   0.171  22.987  1.00  0.00    +0.000 C 
ATOM     21  C16 UNL A   1      11.458  -0.906  22.759  1.00  0.00    +0.000 C 
ATOM     22  C17 UNL A   1      10.345  -0.746  21.928  1.00  0.00    +0.000 C 
ATOM    118  H22 UNL A   1       9.732  -1.550  21.724  1.00  0.00    +0.000 H 
ATOM     23  C18 UNL A   1      10.064   0.505  21.375  1.00  0.00    +0.000 C 
ATOM    119  H23 UNL A   1       9.257   0.618  20.742  1.00  0.00    +0.000 H 
ATOM     24  C19 UNL A   1      10.875   1.612  21.675  1.00  0.00    +0.000 C 
BRANCH   21   19
ATOM     19  C15 UNL A   1      11.714  -2.234  23.359  1.00  0.00    +0.000 C 
ATOM     20  O3  UNL A   1      12.735  -2.847  23.062  1.00  0.00    +0.000 O 
BRANCH   19   18
ATOM     18  N2  UNL A   1      10.810  -2.784  24.232  1.00  0.00    +0.000 N 
ATOM    117  H21 UNL A   1      10.641  -3.746  24.109  1.00  0.00    +0.000 H 
BRANCH   18   17
ATOM     17  C14 UNL A   1      10.064  -2.155  25.311  1.00  0.00    +0.000 C 
ATOM    115  H19 UNL A   1       9.841  -1.146  25.032  1.00  0.00    +0.000 H 
ATOM    116  H20 UNL A   1       9.171  -2.723  25.466  1.00  0.00    +0.000 H 
BRANCH   17   16
ATOM    113  H17 UNL A   1      10.163  -2.357  27.417  1.00  0.00    +0.000 H 
ATOM    114  H18 UNL A   1      11.619  -2.872  26.518  1.00  0.00    +0.000 H 
ATOM     16  C13 UNL A   1      10.844  -2.141  26.622  1.00  0.00    +0.000 C 
BRANCH   16   15
ATOM    111  H15 UNL A   1      11.708  -0.776  27.997  1.00  0.00    +0.000 H 
ATOM     15  C12 UNL A   1      11.544  -0.817  26.941  1.00  0.00    +0.000 C 
ATOM    112  H16 UNL A   1      12.447  -0.814  26.366  1.00  0.00    +0.000 H 
BRANCH   15   14
ATOM    110  H14 UNL A   1       9.858   0.106  26.103  1.00  0.00    +0.000 H 
ATOM    109  H13 UNL A   1      11.392   0.997  25.850  1.00  0.00    +0.000 H 
ATOM     14  C11 UNL A   1      10.778   0.445  26.531  1.00  0.00    +0.000 C 
BRANCH   14   13
ATOM    107  H11 UNL A   1       9.988   0.791  28.477  1.00  0.00    +0.000 H 
ATOM    108  H12 UNL A   1      11.274   1.911  27.962  1.00  0.00    +0.000 H 
ATOM     13  C10 UNL A   1      10.387   1.383  27.681  1.00  0.00    +0.000 C 
BRANCH   13   12
ATOM    105  H9  UNL A   1       9.562   2.790  26.313  1.00  0.00    +0.000 H 
ATOM    106  H10 UNL A   1       8.383   1.985  27.351  1.00  0.00    +0.000 H 
ATOM     12  C9  UNL A   1       9.350   2.438  27.301  1.00  0.00    +0.000 C 
BRANCH   12   11
ATOM     11  N1  UNL A   1       9.364   3.564  28.210  1.00  0.00    +0.000 N 
ATOM    104  H8  UNL A   1       8.486   3.983  28.367  1.00  0.00    +0.000 H 
BRANCH   11    9
ATOM      9  C8  UNL A   1      10.406   4.134  28.882  1.00  0.00    +0.000 C 
ATOM     10  O2  UNL A   1      10.243   4.329  30.091  1.00  0.00    +0.000 O 
BRANCH    9    8
ATOM    102  H6  UNL A   1      12.179   3.789  27.788  1.00  0.00    +0.000 H 
ATOM    103  H7  UNL A   1      11.287   5.304  27.403  1.00  0.00    +0.000 H 
ATOM      8  C7  UNL A   1      11.648   4.640  28.161  1.00  0.00    +0.000 C 
BRANCH    8    7
ATOM      3  C2  UNL A   1      13.148   9.588  29.646  1.00  0.00    +0.000 C 
ATOM    100  H4  UNL A   1      11.497   9.999  28.406  1.00  0.00    +0.000 H 
ATOM      4  C3  UNL A   1      12.081   9.254  28.816  1.00  0.00    +0.000 C 
ATOM      5  C4  UNL A   1      11.798   7.912  28.533  1.00  0.00    +0.000 C 
ATOM    101  H5  UNL A   1      11.001   7.669  27.925  1.00  0.00    +0.000 H 
ATOM      6  C5  UNL A   1      12.605   6.892  29.082  1.00  0.00    +0.000 C 
ATOM      7  C6  UNL A   1      12.612   5.458  28.983  1.00  0.00    +0.000 C 
ATOM    138  H42 UNL A   1      15.119   6.070  30.828  1.00  0.00    +0.000 H 
ATOM    139  H43 UNL A   1      14.798   8.844  30.757  1.00  0.00    +0.000 H 
ATOM     84  C60 UNL A   1      13.619   4.991  29.832  1.00  0.00    +0.000 C 
ATOM     94  N8  UNL A   1      14.296   6.103  30.287  1.00  0.00    +0.000 N 
ATOM     95  C68 UNL A   1      13.675   7.261  29.887  1.00  0.00    +0.000 C 
ATOM     96  C69 UNL A   1      13.982   8.598  30.175  1.00  0.00    +0.000 C 
BRANCH    3    2
ATOM      2  O1  UNL A   1      13.487  10.879  29.959  1.00  0.00    +0.000 O 
BRANCH    2    1
ATOM      1  C1  UNL A   1      12.631  11.856  29.368  1.00  0.00    +0.000 C 
ATOM     98  H2  UNL A   1      13.145  12.793  29.314  1.00  0.00    +0.000 H 
ATOM     99  H3  UNL A   1      11.750  11.967  29.965  1.00  0.00    +0.000 H 
ATOM     97  H1  UNL A   1      12.358  11.543  28.383  1.00  0.00    +0.000 H 
ENDBRANCH    2    1
ENDBRANCH    3    2
BRANCH   84   85
ATOM     85  C61 UNL A   1      13.939   3.608  30.174  1.00  0.00    +0.000 C 
ATOM     86  O4  UNL A   1      13.675   3.108  31.263  1.00  0.00    +0.000 O 
BRANCH   85   87
ATOM    132  H36 UNL A   1      13.172   2.852  27.703  1.00  0.00    +0.000 H 
ATOM    136  H40 UNL A   1      16.691   0.735  26.758  1.00  0.00    +0.000 H 
ATOM    137  H41 UNL A   1      17.543   1.296  28.928  1.00  0.00    +0.000 H 
ATOM     87  C62 UNL A   1      14.673   2.765  29.191  1.00  0.00    +0.000 C 
ATOM     88  C63 UNL A   1      14.108   2.494  27.947  1.00  0.00    +0.000 C 
ATOM     89  C64 UNL A   1      14.840   1.724  27.041  1.00  0.00    +0.000 C 
ATOM     91  C66 UNL A   1      16.116   1.290  27.411  1.00  0.00    +0.000 C 
ATOM     92  C67 UNL A   1      16.596   1.615  28.671  1.00  0.00    +0.000 C 
ATOM     93  N7  UNL A   1      15.897   2.326  29.577  1.00  0.00    +0.000 N 
BRANCH   89   90
ATOM     90  C65 UNL A   1      14.298   1.390  25.684  1.00  0.00    +0.000 C 
ATOM    133  H37 UNL A   1      13.234   1.502  25.687  1.00  0.00    +0.000 H 
ATOM    134  H38 UNL A   1      14.550   0.381  25.437  1.00  0.00    +0.000 H 
ATOM    135  H39 UNL A   1      14.723   2.052  24.957  1.00  0.00    +0.000 H 
ENDBRANCH   89   90
ENDBRANCH   85   87
ENDBRANCH   84   85
ENDBRANCH    8    7
ENDBRANCH    9    8
ENDBRANCH   11    9
ENDBRANCH   12   11
ENDBRANCH   13   12
ENDBRANCH   14   13
ENDBRANCH   15   14
ENDBRANCH   16   15
ENDBRANCH   17   16
ENDBRANCH   18   17
ENDBRANCH   19   18
ENDBRANCH   21   19
ENDBRANCH   25   24
BRANCH   29   30
ATOM     33  C26 UNL A   1      13.064   4.018  13.733  1.00  0.00    +0.000 C 
ATOM     34  F2  UNL A   1      12.564   3.318  12.705  1.00  0.00    +0.000 F 
ATOM     35  C27 UNL A   1      14.398   4.400  13.727  1.00  0.00    +0.000 C 
ATOM     36  F3  UNL A   1      15.180   4.088  12.685  1.00  0.00    +0.000 F 
ATOM     37  C28 UNL A   1      14.921   5.100  14.803  1.00  0.00    +0.000 C 
ATOM     38  F4  UNL A   1      16.205   5.480  14.792  1.00  0.00    +0.000 F 
ATOM     39  C29 UNL A   1      14.114   5.406  15.896  1.00  0.00    +0.000 C 
ATOM     40  F5  UNL A   1      14.654   6.071  16.929  1.00  0.00    +0.000 F 
ATOM     30  C24 UNL A   1      12.761   5.037  15.922  1.00  0.00    +0.000 C 
ATOM     31  C25 UNL A   1      12.248   4.348  14.812  1.00  0.00    +0.000 C 
ATOM     32  F1  UNL A   1      10.963   3.962  14.791  1.00  0.00    +0.000 F 
ENDBRANCH   29   30
BRANCH   46   47
ATOM     47  C35 UNL A   1       8.880  10.679  18.178  1.00  0.00    +0.000 C 
ATOM     48  C36 UNL A   1       9.692  11.794  18.432  1.00  0.00    +0.000 C 
ATOM     49  F6  UNL A   1      10.806  11.663  19.170  1.00  0.00    +0.000 F 
ATOM     50  C37 UNL A   1       9.341  13.056  17.962  1.00  0.00    +0.000 C 
ATOM     51  F7  UNL A   1      10.109  14.115  18.255  1.00  0.00    +0.000 F 
ATOM     52  C38 UNL A   1       8.192  13.222  17.203  1.00  0.00    +0.000 C 
ATOM     53  F8  UNL A   1       7.860  14.438  16.746  1.00  0.00    +0.000 F 
ATOM     54  C39 UNL A   1       7.384  12.130  16.925  1.00  0.00    +0.000 C 
ATOM     55  F9  UNL A   1       6.280  12.287  16.181  1.00  0.00    +0.000 F 
ATOM     56  C40 UNL A   1       7.717  10.872  17.417  1.00  0.00    +0.000 C 
ATOM     57  F10 UNL A   1       6.909   9.837  17.142  1.00  0.00    +0.000 F 
ENDBRANCH   46   47
BRANCH   61   62
ATOM     65  C46 UNL A   1       5.246   7.089  25.274  1.00  0.00    +0.000 C 
ATOM     66  F12 UNL A   1       3.970   6.693  25.366  1.00  0.00    +0.000 F 
ATOM     67  C47 UNL A   1       5.816   7.840  26.292  1.00  0.00    +0.000 C 
ATOM     68  F13 UNL A   1       5.095   8.155  27.377  1.00  0.00    +0.000 F 
ATOM     69  C48 UNL A   1       7.129   8.271  26.180  1.00  0.00    +0.000 C 
ATOM     70  F14 UNL A   1       7.685   8.986  27.167  1.00  0.00    +0.000 F 
ATOM     71  C49 UNL A   1       7.871   7.963  25.041  1.00  0.00    +0.000 C 
ATOM     72  F15 UNL A   1       9.134   8.403  24.954  1.00  0.00    +0.000 F 
ATOM     62  C44 UNL A   1       7.320   7.197  24.004  1.00  0.00    +0.000 C 
ATOM     63  C45 UNL A   1       5.996   6.758  24.147  1.00  0.00    +0.000 C 
ATOM     64  F11 UNL A   1       5.420   6.041  23.172  1.00  0.00    +0.000 F 
ENDBRANCH   61   62
TORSDOF 21
ENDMDL
MODEL 8
REMARK VINA RESULT:      -8.2      1.497      7.827
ROOT
ATOM    129  H33 UNL A   1      11.929  52.510   6.549  1.00  0.00    +0.000 H 
ATOM     25  C20 UNL A   1      13.768  53.902   4.877  1.00  0.00    +0.000 C 
ATOM     26  C21 UNL A   1      13.397  52.446   4.822  1.00  0.00    +0.000 C 
ATOM     27  N3  UNL A   1      13.823  51.513   4.009  1.00  0.00    +0.000 N 
ATOM     28  C22 UNL A   1      13.198  50.342   4.417  1.00  0.00    +0.000 C 
ATOM     29  C23 UNL A   1      13.267  49.110   3.860  1.00  0.00    +0.000 C 
ATOM     41  C30 UNL A   1      14.038  48.791   2.685  1.00  0.00    +0.000 C 
ATOM     42  C31 UNL A   1      14.119  47.588   2.005  1.00  0.00    +0.000 C 
ATOM     43  C32 UNL A   1      15.026  47.742   0.951  1.00  0.00    +0.000 C 
ATOM     44  C33 UNL A   1      15.476  49.052   0.947  1.00  0.00    +0.000 C 
ATOM     45  N4  UNL A   1      14.864  49.684   2.019  1.00  0.00    +0.000 N 
ATOM     46  C34 UNL A   1      16.396  49.682   0.036  1.00  0.00    +0.000 C 
ATOM     58  C41 UNL A   1      16.774  50.984   0.089  1.00  0.00    +0.000 C 
ATOM     59  N5  UNL A   1      16.385  51.970   0.986  1.00  0.00    +0.000 N 
ATOM     60  C42 UNL A   1      17.034  53.052   0.634  1.00  0.00    +0.000 C 
ATOM     61  C43 UNL A   1      16.980  54.429   1.237  1.00  0.00    +0.000 C 
ATOM     73  C50 UNL A   1      16.160  54.660   2.279  1.00  0.00    +0.000 C 
ATOM     74  C51 UNL A   1      15.995  55.941   2.960  1.00  0.00    +0.000 C 
ATOM     75  C52 UNL A   1      15.129  55.789   3.975  1.00  0.00    +0.000 C 
ATOM     76  C53 UNL A   1      14.651  54.407   3.994  1.00  0.00    +0.000 C 
ATOM     77  N6  UNL A   1      15.313  53.811   2.950  1.00  0.00    +0.000 N 
ATOM     78  C54 UNL A   1      17.927  52.869  -0.518  1.00  0.00    +0.000 C 
ATOM     79  C55 UNL A   1      17.701  51.602  -0.835  1.00  0.00    +0.000 C 
ATOM     80  C56 UNL A   1      12.401  50.671   5.579  1.00  0.00    +0.000 C 
ATOM     81  C57 UNL A   1      12.438  51.972   5.832  1.00  0.00    +0.000 C 
ATOM    120  H24 UNL A   1      13.599  46.727   2.236  1.00  0.00    +0.000 H 
ATOM    121  H25 UNL A   1      15.311  47.003   0.288  1.00  0.00    +0.000 H 
ATOM    122  H26 UNL A   1      14.996  50.627   2.269  1.00  0.00    +0.000 H 
ATOM    123  H27 UNL A   1      16.469  56.821   2.703  1.00  0.00    +0.000 H 
ATOM    124  H28 UNL A   1      14.846  56.531   4.635  1.00  0.00    +0.000 H 
ATOM    125  H29 UNL A   1      15.192  52.865   2.704  1.00  0.00    +0.000 H 
ATOM    126  H30 UNL A   1      18.564  53.548  -0.963  1.00  0.00    +0.000 H 
ATOM    127  H31 UNL A   1      18.133  51.117  -1.638  1.00  0.00    +0.000 H 
ATOM    128  H32 UNL A   1      11.873  49.983   6.138  1.00  0.00    +0.000 H 
ENDROOT
BRANCH   25   24
ATOM    130  H34 UNL A   1      11.498  55.327   4.847  1.00  0.00    +0.000 H 
ATOM    131  H35 UNL A   1      10.619  56.815   6.547  1.00  0.00    +0.000 H 
ATOM     82  C58 UNL A   1      12.003  55.445   5.739  1.00  0.00    +0.000 C 
ATOM     83  C59 UNL A   1      11.475  56.269   6.729  1.00  0.00    +0.000 C 
ATOM     21  C16 UNL A   1      12.107  56.356   7.974  1.00  0.00    +0.000 C 
ATOM     22  C17 UNL A   1      13.332  55.716   8.182  1.00  0.00    +0.000 C 
ATOM    118  H22 UNL A   1      13.821  55.815   9.086  1.00  0.00    +0.000 H 
ATOM     23  C18 UNL A   1      13.894  54.942   7.165  1.00  0.00    +0.000 C 
ATOM    119  H23 UNL A   1      14.810  54.490   7.309  1.00  0.00    +0.000 H 
ATOM     24  C19 UNL A   1      13.219  54.776   5.944  1.00  0.00    +0.000 C 
BRANCH   21   19
ATOM     19  C15 UNL A   1      11.518  57.143   9.080  1.00  0.00    +0.000 C 
ATOM     20  O3  UNL A   1      12.056  58.187   9.435  1.00  0.00    +0.000 O 
BRANCH   19   18
ATOM     18  N2  UNL A   1      10.383  56.703   9.714  1.00  0.00    +0.000 N 
ATOM    117  H21 UNL A   1       9.541  57.096   9.388  1.00  0.00    +0.000 H 
BRANCH   18   17
ATOM     17  C14 UNL A   1      10.242  55.741  10.797  1.00  0.00    +0.000 C 
ATOM    115  H19 UNL A   1       9.665  56.188  11.579  1.00  0.00    +0.000 H 
ATOM    116  H20 UNL A   1       9.758  54.873  10.402  1.00  0.00    +0.000 H 
BRANCH   17   16
ATOM    113  H17 UNL A   1      11.823  54.344  10.971  1.00  0.00    +0.000 H 
ATOM    114  H18 UNL A   1      12.292  56.065  11.081  1.00  0.00    +0.000 H 
ATOM     16  C13 UNL A   1      11.589  55.309  11.367  1.00  0.00    +0.000 C 
BRANCH   16   15
ATOM    111  H15 UNL A   1      11.581  56.220  13.283  1.00  0.00    +0.000 H 
ATOM     15  C12 UNL A   1      11.646  55.225  12.894  1.00  0.00    +0.000 C 
ATOM    112  H16 UNL A   1      10.830  54.597  13.186  1.00  0.00    +0.000 H 
BRANCH   15   14
ATOM    110  H14 UNL A   1      13.127  55.103  14.373  1.00  0.00    +0.000 H 
ATOM    109  H13 UNL A   1      13.681  54.645  12.732  1.00  0.00    +0.000 H 
ATOM     14  C11 UNL A   1      12.909  54.574  13.469  1.00  0.00    +0.000 C 
BRANCH   14   13
ATOM    107  H11 UNL A   1      13.016  53.005  14.903  1.00  0.00    +0.000 H 
ATOM    108  H12 UNL A   1      11.758  52.818  13.655  1.00  0.00    +0.000 H 
ATOM     13  C10 UNL A   1      12.768  53.099  13.867  1.00  0.00    +0.000 C 
BRANCH   13   12
ATOM    105  H9  UNL A   1      14.643  52.156  13.505  1.00  0.00    +0.000 H 
ATOM    106  H10 UNL A   1      13.230  51.173  13.113  1.00  0.00    +0.000 H 
ATOM     12  C9  UNL A   1      13.664  52.150  13.073  1.00  0.00    +0.000 C 
BRANCH   12   11
ATOM     11  N1  UNL A   1      13.766  52.537  11.683  1.00  0.00    +0.000 N 
ATOM    104  H8  UNL A   1      14.460  53.207  11.487  1.00  0.00    +0.000 H 
BRANCH   11    9
ATOM      9  C8  UNL A   1      13.046  52.116  10.602  1.00  0.00    +0.000 C 
ATOM     10  O2  UNL A   1      13.534  52.343   9.490  1.00  0.00    +0.000 O 
BRANCH    9    8
ATOM    102  H6  UNL A   1      11.519  51.237  11.766  1.00  0.00    +0.000 H 
ATOM    103  H7  UNL A   1      10.981  52.301  10.418  1.00  0.00    +0.000 H 
ATOM      8  C7  UNL A   1      11.647  51.531  10.745  1.00  0.00    +0.000 C 
BRANCH    8    7
ATOM      3  C2  UNL A   1       8.768  49.670   6.599  1.00  0.00    +0.000 C 
ATOM    100  H4  UNL A   1       8.177  51.690   6.655  1.00  0.00    +0.000 H 
ATOM      4  C3  UNL A   1       8.778  50.973   7.090  1.00  0.00    +0.000 C 
ATOM      5  C4  UNL A   1       9.601  51.316   8.170  1.00  0.00    +0.000 C 
ATOM    101  H5  UNL A   1       9.612  52.285   8.523  1.00  0.00    +0.000 H 
ATOM      6  C5  UNL A   1      10.414  50.334   8.775  1.00  0.00    +0.000 C 
ATOM      7  C6  UNL A   1      11.331  50.335   9.882  1.00  0.00    +0.000 C 
ATOM    138  H42 UNL A   1      11.354  47.311   8.924  1.00  0.00    +0.000 H 
ATOM    139  H43 UNL A   1       9.503  47.695   6.869  1.00  0.00    +0.000 H 
ATOM     84  C60 UNL A   1      11.901  49.061   9.947  1.00  0.00    +0.000 C 
ATOM     94  N8  UNL A   1      11.229  48.283   9.027  1.00  0.00    +0.000 N 
ATOM     95  C68 UNL A   1      10.362  49.038   8.277  1.00  0.00    +0.000 C 
ATOM     96  C69 UNL A   1       9.539  48.671   7.203  1.00  0.00    +0.000 C 
BRANCH    3    2
ATOM      2  O1  UNL A   1       7.983  49.263   5.552  1.00  0.00    +0.000 O 
BRANCH    2    1
ATOM      1  C1  UNL A   1       8.160  50.038   4.367  1.00  0.00    +0.000 C 
ATOM     98  H2  UNL A   1       7.254  50.030   3.798  1.00  0.00    +0.000 H 
ATOM     99  H3  UNL A   1       8.952  49.620   3.782  1.00  0.00    +0.000 H 
ATOM     97  H1  UNL A   1       8.405  51.044   4.632  1.00  0.00    +0.000 H 
ENDBRANCH    2    1
ENDBRANCH    3    2
BRANCH   84   85
ATOM     85  C61 UNL A   1      12.977  48.599  10.818  1.00  0.00    +0.000 C 
ATOM     86  O4  UNL A   1      12.793  48.228  11.974  1.00  0.00    +0.000 O 
BRANCH   85   87
ATOM    132  H36 UNL A   1      15.046  50.093  11.688  1.00  0.00    +0.000 H 
ATOM    136  H40 UNL A   1      17.913  48.486   9.050  1.00  0.00    +0.000 H 
ATOM    137  H41 UNL A   1      16.198  47.081   8.134  1.00  0.00    +0.000 H 
ATOM     87  C62 UNL A   1      14.380  48.623  10.320  1.00  0.00    +0.000 C 
ATOM     88  C63 UNL A   1      15.316  49.465  10.916  1.00  0.00    +0.000 C 
ATOM     89  C64 UNL A   1      16.629  49.436  10.440  1.00  0.00    +0.000 C 
ATOM     91  C66 UNL A   1      16.948  48.545   9.412  1.00  0.00    +0.000 C 
ATOM     92  C67 UNL A   1      15.948  47.742   8.886  1.00  0.00    +0.000 C 
ATOM     93  N7  UNL A   1      14.667  47.774   9.302  1.00  0.00    +0.000 N 
BRANCH   89   90
ATOM     90  C65 UNL A   1      17.692  50.314  11.030  1.00  0.00    +0.000 C 
ATOM    133  H37 UNL A   1      18.574  50.261  10.428  1.00  0.00    +0.000 H 
ATOM    134  H38 UNL A   1      17.916  49.983  12.022  1.00  0.00    +0.000 H 
ATOM    135  H39 UNL A   1      17.342  51.325  11.062  1.00  0.00    +0.000 H 
ENDBRANCH   89   90
ENDBRANCH   85   87
ENDBRANCH   84   85
ENDBRANCH    8    7
ENDBRANCH    9    8
ENDBRANCH   11    9
ENDBRANCH   12   11
ENDBRANCH   13   12
ENDBRANCH   14   13
ENDBRANCH   15   14
ENDBRANCH   16   15
ENDBRANCH   17   16
ENDBRANCH   18   17
ENDBRANCH   19   18
ENDBRANCH   21   19
ENDBRANCH   25   24
BRANCH   29   30
ATOM     33  C26 UNL A   1      10.517  46.578   4.623  1.00  0.00    +0.000 C 
ATOM     34  F2  UNL A   1       9.305  46.241   4.160  1.00  0.00    +0.000 F 
ATOM     35  C27 UNL A   1      11.049  45.913   5.719  1.00  0.00    +0.000 C 
ATOM     36  F3  UNL A   1      10.362  44.922   6.300  1.00  0.00    +0.000 F 
ATOM     37  C28 UNL A   1      12.290  46.282   6.213  1.00  0.00    +0.000 C 
ATOM     38  F4  UNL A   1      12.811  45.633   7.264  1.00  0.00    +0.000 F 
ATOM     39  C29 UNL A   1      12.995  47.328   5.624  1.00  0.00    +0.000 C 
ATOM     40  F5  UNL A   1      14.188  47.671   6.135  1.00  0.00    +0.000 F 
ATOM     30  C24 UNL A   1      12.481  48.010   4.510  1.00  0.00    +0.000 C 
ATOM     31  C25 UNL A   1      11.232  47.605   4.014  1.00  0.00    +0.000 C 
ATOM     32  F1  UNL A   1      10.691  48.231   2.958  1.00  0.00    +0.000 F 
ENDBRANCH   29   30
BRANCH   46   47
ATOM     47  C35 UNL A   1      16.969  48.847  -1.071  1.00  0.00    +0.000 C 
ATOM     48  C36 UNL A   1      18.143  48.102  -0.896  1.00  0.00    +0.000 C 
ATOM     49  F6  UNL A   1      18.813  48.159   0.265  1.00  0.00    +0.000 F 
ATOM     50  C37 UNL A   1      18.657  47.324  -1.930  1.00  0.00    +0.000 C 
ATOM     51  F7  UNL A   1      19.805  46.655  -1.756  1.00  0.00    +0.000 F 
ATOM     52  C38 UNL A   1      17.989  47.251  -3.144  1.00  0.00    +0.000 C 
ATOM     53  F8  UNL A   1      18.483  46.496  -4.136  1.00  0.00    +0.000 F 
ATOM     54  C39 UNL A   1      16.816  47.966  -3.333  1.00  0.00    +0.000 C 
ATOM     55  F9  UNL A   1      16.165  47.887  -4.501  1.00  0.00    +0.000 F 
ATOM     56  C40 UNL A   1      16.315  48.767  -2.311  1.00  0.00    +0.000 C 
ATOM     57  F10 UNL A   1      15.185  49.457  -2.527  1.00  0.00    +0.000 F 
ENDBRANCH   46   47
BRANCH   61   62
ATOM     65  C46 UNL A   1      18.088  57.346  -0.922  1.00  0.00    +0.000 C 
ATOM     66  F12 UNL A   1      17.624  58.050  -1.964  1.00  0.00    +0.000 F 
ATOM     67  C47 UNL A   1      19.338  57.632  -0.392  1.00  0.00    +0.000 C 
ATOM     68  F13 UNL A   1      20.075  58.623  -0.911  1.00  0.00    +0.000 F 
ATOM     69  C48 UNL A   1      19.825  56.883   0.669  1.00  0.00    +0.000 C 
ATOM     70  F14 UNL A   1      21.026  57.165   1.190  1.00  0.00    +0.000 F 
ATOM     71  C49 UNL A   1      19.067  55.837   1.193  1.00  0.00    +0.000 C 
ATOM     72  F15 UNL A   1      19.568  55.122   2.209  1.00  0.00    +0.000 F 
ATOM     62  C44 UNL A   1      17.798  55.536   0.680  1.00  0.00    +0.000 C 
ATOM     63  C45 UNL A   1      17.318  56.317  -0.381  1.00  0.00    +0.000 C 
ATOM     64  F11 UNL A   1      16.118  56.054  -0.918  1.00  0.00    +0.000 F 
ENDBRANCH   61   62
TORSDOF 21
ENDMDL
MODEL 9
REMARK VINA RESULT:      -8.1     26.865     33.171
ROOT
ATOM    129  H33 UNL A   1      19.557  23.172 -12.711  1.00  0.00    +0.000 H 
ATOM     25  C20 UNL A   1      22.212  23.866 -13.476  1.00  0.00    +0.000 C 
ATOM     26  C21 UNL A   1      21.033  24.785 -13.314  1.00  0.00    +0.000 C 
ATOM     27  N3  UNL A   1      20.964  26.082 -13.480  1.00  0.00    +0.000 N 
ATOM     28  C22 UNL A   1      19.638  26.422 -13.247  1.00  0.00    +0.000 C 
ATOM     29  C23 UNL A   1      19.071  27.652 -13.240  1.00  0.00    +0.000 C 
ATOM     41  C30 UNL A   1      19.787  28.878 -13.482  1.00  0.00    +0.000 C 
ATOM     42  C31 UNL A   1      19.315  30.178 -13.430  1.00  0.00    +0.000 C 
ATOM     43  C32 UNL A   1      20.362  31.037 -13.782  1.00  0.00    +0.000 C 
ATOM     44  C33 UNL A   1      21.497  30.276 -14.010  1.00  0.00    +0.000 C 
ATOM     45  N4  UNL A   1      21.129  28.952 -13.825  1.00  0.00    +0.000 N 
ATOM     46  C34 UNL A   1      22.818  30.721 -14.370  1.00  0.00    +0.000 C 
ATOM     58  C41 UNL A   1      23.888  29.909 -14.557  1.00  0.00    +0.000 C 
ATOM     59  N5  UNL A   1      23.962  28.526 -14.453  1.00  0.00    +0.000 N 
ATOM     60  C42 UNL A   1      25.200  28.209 -14.742  1.00  0.00    +0.000 C 
ATOM     61  C43 UNL A   1      25.853  26.855 -14.763  1.00  0.00    +0.000 C 
ATOM     73  C50 UNL A   1      25.129  25.769 -14.433  1.00  0.00    +0.000 C 
ATOM     74  C51 UNL A   1      25.627  24.397 -14.399  1.00  0.00    +0.000 C 
ATOM     75  C52 UNL A   1      24.619  23.574 -14.067  1.00  0.00    +0.000 C 
ATOM     76  C53 UNL A   1      23.412  24.366 -13.831  1.00  0.00    +0.000 C 
ATOM     77  N6  UNL A   1      23.809  25.658 -14.067  1.00  0.00    +0.000 N 
ATOM     78  C54 UNL A   1      26.049  29.358 -15.087  1.00  0.00    +0.000 C 
ATOM     79  C55 UNL A   1      25.210  30.372 -14.920  1.00  0.00    +0.000 C 
ATOM     80  C56 UNL A   1      18.927  25.192 -12.974  1.00  0.00    +0.000 C 
ATOM     81  C57 UNL A   1      19.756  24.158 -12.940  1.00  0.00    +0.000 C 
ATOM    120  H24 UNL A   1      18.357  30.464 -13.176  1.00  0.00    +0.000 H 
ATOM    121  H25 UNL A   1      20.298  32.065 -13.859  1.00  0.00    +0.000 H 
ATOM    122  H26 UNL A   1      21.731  28.180 -13.923  1.00  0.00    +0.000 H 
ATOM    123  H27 UNL A   1      26.597  24.107 -14.599  1.00  0.00    +0.000 H 
ATOM    124  H28 UNL A   1      24.687  22.547 -13.991  1.00  0.00    +0.000 H 
ATOM    125  H29 UNL A   1      23.207  26.431 -13.982  1.00  0.00    +0.000 H 
ATOM    126  H30 UNL A   1      27.038  29.373 -15.381  1.00  0.00    +0.000 H 
ATOM    127  H31 UNL A   1      25.468  31.364 -15.036  1.00  0.00    +0.000 H 
ATOM    128  H32 UNL A   1      17.908  25.128 -12.827  1.00  0.00    +0.000 H 
ENDROOT
BRANCH   25   24
ATOM    130  H34 UNL A   1      21.999  22.466 -11.200  1.00  0.00    +0.000 H 
ATOM    131  H35 UNL A   1      21.803  20.067 -10.910  1.00  0.00    +0.000 H 
ATOM     82  C58 UNL A   1      21.953  21.849 -12.026  1.00  0.00    +0.000 C 
ATOM     83  C59 UNL A   1      21.801  20.475 -11.857  1.00  0.00    +0.000 C 
ATOM     21  C16 UNL A   1      21.642  19.648 -12.973  1.00  0.00    +0.000 C 
ATOM     22  C17 UNL A   1      21.762  20.181 -14.261  1.00  0.00    +0.000 C 
ATOM    118  H22 UNL A   1      21.689  19.564 -15.085  1.00  0.00    +0.000 H 
ATOM     23  C18 UNL A   1      21.981  21.550 -14.429  1.00  0.00    +0.000 C 
ATOM    119  H23 UNL A   1      22.094  21.939 -15.378  1.00  0.00    +0.000 H 
ATOM     24  C19 UNL A   1      22.048  22.400 -13.313  1.00  0.00    +0.000 C 
BRANCH   21   19
ATOM     19  C15 UNL A   1      21.378  18.200 -12.824  1.00  0.00    +0.000 C 
ATOM     20  O3  UNL A   1      20.220  17.799 -12.755  1.00  0.00    +0.000 O 
BRANCH   19   18
ATOM     18  N2  UNL A   1      22.420  17.311 -12.750  1.00  0.00    +0.000 N 
ATOM    117  H21 UNL A   1      22.628  16.837 -13.587  1.00  0.00    +0.000 H 
BRANCH   18   17
ATOM     17  C14 UNL A   1      23.263  16.965 -11.615  1.00  0.00    +0.000 C 
ATOM    115  H19 UNL A   1      22.648  16.884 -10.743  1.00  0.00    +0.000 H 
ATOM    116  H20 UNL A   1      23.749  16.038 -11.839  1.00  0.00    +0.000 H 
BRANCH   17   16
ATOM    113  H17 UNL A   1      23.884  18.854 -10.887  1.00  0.00    +0.000 H 
ATOM    114  H18 UNL A   1      25.081  17.535 -10.745  1.00  0.00    +0.000 H 
ATOM     16  C13 UNL A   1      24.344  18.011 -11.357  1.00  0.00    +0.000 C 
BRANCH   16   15
ATOM    111  H15 UNL A   1      25.986  17.946 -12.699  1.00  0.00    +0.000 H 
ATOM     15  C12 UNL A   1      25.076  18.502 -12.608  1.00  0.00    +0.000 C 
ATOM    112  H16 UNL A   1      24.400  18.353 -13.424  1.00  0.00    +0.000 H 
BRANCH   15   14
ATOM    110  H14 UNL A   1      24.679  20.470 -13.212  1.00  0.00    +0.000 H 
ATOM    109  H13 UNL A   1      26.419  20.095 -13.013  1.00  0.00    +0.000 H 
ATOM     14  C11 UNL A   1      25.430  19.994 -12.618  1.00  0.00    +0.000 C 
BRANCH   14   13
ATOM    107  H11 UNL A   1      24.377  20.949 -11.034  1.00  0.00    +0.000 H 
ATOM    108  H12 UNL A   1      25.806  20.003 -10.544  1.00  0.00    +0.000 H 
ATOM     13  C10 UNL A   1      25.392  20.690 -11.252  1.00  0.00    +0.000 C 
BRANCH   13   12
ATOM    105  H9  UNL A   1      27.158  21.733 -10.681  1.00  0.00    +0.000 H 
ATOM    106  H10 UNL A   1      26.407  22.306 -12.173  1.00  0.00    +0.000 H 
ATOM     12  C9  UNL A   1      26.236  21.961 -11.175  1.00  0.00    +0.000 C 
BRANCH   12   11
ATOM     11  N1  UNL A   1      25.565  23.015 -10.447  1.00  0.00    +0.000 N 
ATOM    104  H8  UNL A   1      24.778  22.728  -9.930  1.00  0.00    +0.000 H 
BRANCH   11    9
ATOM      9  C8  UNL A   1      25.856  24.347 -10.368  1.00  0.00    +0.000 C 
ATOM     10  O2  UNL A   1      27.047  24.645 -10.234  1.00  0.00    +0.000 O 
BRANCH    9    8
ATOM    102  H6  UNL A   1      24.603  25.775 -11.290  1.00  0.00    +0.000 H 
ATOM    103  H7  UNL A   1      23.917  24.915  -9.866  1.00  0.00    +0.000 H 
ATOM      8  C7  UNL A   1      24.764  25.406 -10.299  1.00  0.00    +0.000 C 
BRANCH    8    7
ATOM      3  C2  UNL A   1      25.673  30.704 -10.092  1.00  0.00    +0.000 C 
ATOM    100  H4  UNL A   1      25.397  30.400 -12.157  1.00  0.00    +0.000 H 
ATOM      4  C3  UNL A   1      25.413  29.946 -11.231  1.00  0.00    +0.000 C 
ATOM      5  C4  UNL A   1      25.174  28.570 -11.126  1.00  0.00    +0.000 C 
ATOM    101  H5  UNL A   1      24.972  28.015 -11.971  1.00  0.00    +0.000 H 
ATOM      6  C5  UNL A   1      25.209  27.945  -9.861  1.00  0.00    +0.000 C 
ATOM      7  C6  UNL A   1      25.038  26.591  -9.408  1.00  0.00    +0.000 C 
ATOM    138  H42 UNL A   1      25.693  28.174  -6.738  1.00  0.00    +0.000 H 
ATOM    139  H43 UNL A   1      25.980  30.653  -7.991  1.00  0.00    +0.000 H 
ATOM     84  C60 UNL A   1      25.108  26.612  -8.013  1.00  0.00    +0.000 C 
ATOM     94  N8  UNL A   1      25.474  27.893  -7.657  1.00  0.00    +0.000 N 
ATOM     95  C68 UNL A   1      25.495  28.726  -8.748  1.00  0.00    +0.000 C 
ATOM     96  C69 UNL A   1      25.747  30.102  -8.832  1.00  0.00    +0.000 C 
BRANCH    3    2
ATOM      2  O1  UNL A   1      25.924  32.051 -10.122  1.00  0.00    +0.000 O 
BRANCH    2    1
ATOM      1  C1  UNL A   1      25.202  32.791  -9.138  1.00  0.00    +0.000 C 
ATOM     98  H2  UNL A   1      25.839  32.985  -8.300  1.00  0.00    +0.000 H 
ATOM     99  H3  UNL A   1      24.353  32.225  -8.818  1.00  0.00    +0.000 H 
ATOM     97  H1  UNL A   1      24.875  33.719  -9.558  1.00  0.00    +0.000 H 
ENDBRANCH    2    1
ENDBRANCH    3    2
BRANCH   84   85
ATOM     85  C61 UNL A   1      24.872  25.512  -7.082  1.00  0.00    +0.000 C 
ATOM     86  O4  UNL A   1      23.750  25.127  -6.767  1.00  0.00    +0.000 O 
BRANCH   85   87
ATOM    132  H36 UNL A   1      24.868  23.564  -5.218  1.00  0.00    +0.000 H 
ATOM    136  H40 UNL A   1      29.056  23.169  -4.958  1.00  0.00    +0.000 H 
ATOM    137  H41 UNL A   1      29.264  24.903  -6.603  1.00  0.00    +0.000 H 
ATOM     87  C62 UNL A   1      26.034  24.848  -6.429  1.00  0.00    +0.000 C 
ATOM     88  C63 UNL A   1      25.823  23.843  -5.488  1.00  0.00    +0.000 C 
ATOM     89  C64 UNL A   1      26.939  23.224  -4.920  1.00  0.00    +0.000 C 
ATOM     91  C66 UNL A   1      28.211  23.619  -5.345  1.00  0.00    +0.000 C 
ATOM     92  C67 UNL A   1      28.319  24.626  -6.291  1.00  0.00    +0.000 C 
ATOM     93  N7  UNL A   1      27.261  25.264  -6.829  1.00  0.00    +0.000 N 
BRANCH   89   90
ATOM     90  C65 UNL A   1      26.792  22.135  -3.901  1.00  0.00    +0.000 C 
ATOM    133  H37 UNL A   1      27.761  21.801  -3.592  1.00  0.00    +0.000 H 
ATOM    134  H38 UNL A   1      26.253  21.316  -4.329  1.00  0.00    +0.000 H 
ATOM    135  H39 UNL A   1      26.258  22.510  -3.053  1.00  0.00    +0.000 H 
ENDBRANCH   89   90
ENDBRANCH   85   87
ENDBRANCH   84   85
ENDBRANCH    8    7
ENDBRANCH    9    8
ENDBRANCH   11    9
ENDBRANCH   12   11
ENDBRANCH   13   12
ENDBRANCH   14   13
ENDBRANCH   15   14
ENDBRANCH   16   15
ENDBRANCH   17   16
ENDBRANCH   18   17
ENDBRANCH   19   18
ENDBRANCH   21   19
ENDBRANCH   25   24
BRANCH   29   30
ATOM     33  C26 UNL A   1      15.747  27.992 -11.399  1.00  0.00    +0.000 C 
ATOM     34  F2  UNL A   1      15.303  28.111 -10.139  1.00  0.00    +0.000 F 
ATOM     35  C27 UNL A   1      14.842  27.937 -12.449  1.00  0.00    +0.000 C 
ATOM     36  F3  UNL A   1      13.527  28.023 -12.207  1.00  0.00    +0.000 F 
ATOM     37  C28 UNL A   1      15.301  27.787 -13.748  1.00  0.00    +0.000 C 
ATOM     38  F4  UNL A   1      14.429  27.746 -14.765  1.00  0.00    +0.000 F 
ATOM     39  C29 UNL A   1      16.666  27.675 -13.999  1.00  0.00    +0.000 C 
ATOM     40  F5  UNL A   1      17.078  27.516 -15.266  1.00  0.00    +0.000 F 
ATOM     30  C24 UNL A   1      17.600  27.736 -12.954  1.00  0.00    +0.000 C 
ATOM     31  C25 UNL A   1      17.114  27.909 -11.649  1.00  0.00    +0.000 C 
ATOM     32  F1  UNL A   1      17.964  27.962 -10.613  1.00  0.00    +0.000 F 
ENDBRANCH   29   30
BRANCH   46   47
ATOM     47  C35 UNL A   1      23.042  32.195 -14.531  1.00  0.00    +0.000 C 
ATOM     48  C36 UNL A   1      23.423  33.003 -13.450  1.00  0.00    +0.000 C 
ATOM     49  F6  UNL A   1      23.550  32.474 -12.224  1.00  0.00    +0.000 F 
ATOM     50  C37 UNL A   1      23.636  34.369 -13.619  1.00  0.00    +0.000 C 
ATOM     51  F7  UNL A   1      23.956  35.130 -12.563  1.00  0.00    +0.000 F 
ATOM     52  C38 UNL A   1      23.506  34.944 -14.874  1.00  0.00    +0.000 C 
ATOM     53  F8  UNL A   1      23.718  36.258 -15.035  1.00  0.00    +0.000 F 
ATOM     54  C39 UNL A   1      23.147  34.161 -15.960  1.00  0.00    +0.000 C 
ATOM     55  F9  UNL A   1      23.032  34.713 -17.176  1.00  0.00    +0.000 F 
ATOM     56  C40 UNL A   1      22.905  32.801 -15.790  1.00  0.00    +0.000 C 
ATOM     57  F10 UNL A   1      22.548  32.070 -16.858  1.00  0.00    +0.000 F 
ENDBRANCH   46   47
BRANCH   61   62
ATOM     65  C46 UNL A   1      29.054  26.641 -16.791  1.00  0.00    +0.000 C 
ATOM     66  F12 UNL A   1      29.426  26.690 -18.077  1.00  0.00    +0.000 F 
ATOM     67  C47 UNL A   1      30.001  26.421 -15.802  1.00  0.00    +0.000 C 
ATOM     68  F13 UNL A   1      31.292  26.274 -16.130  1.00  0.00    +0.000 F 
ATOM     69  C48 UNL A   1      29.607  26.345 -14.474  1.00  0.00    +0.000 C 
ATOM     70  F14 UNL A   1      30.522  26.144 -13.516  1.00  0.00    +0.000 F 
ATOM     71  C49 UNL A   1      28.262  26.475 -14.135  1.00  0.00    +0.000 C 
ATOM     72  F15 UNL A   1      27.908  26.384 -12.845  1.00  0.00    +0.000 F 
ATOM     62  C44 UNL A   1      27.288  26.707 -15.116  1.00  0.00    +0.000 C 
ATOM     63  C45 UNL A   1      27.711  26.798 -16.450  1.00  0.00    +0.000 C 
ATOM     64  F11 UNL A   1      26.814  26.999 -17.425  1.00  0.00    +0.000 F 
ENDBRANCH   61   62
TORSDOF 21
ENDMDL
MODEL 10
REMARK VINA RESULT:      -8.1     38.918     45.815
ROOT
ATOM    129  H33 UNL A   1      12.264  10.568  17.230  1.00  0.00    +0.000 H 
ATOM     25  C20 UNL A   1      11.780  10.624  20.037  1.00  0.00    +0.000 C 
ATOM     26  C21 UNL A   1      11.829  11.791  19.091  1.00  0.00    +0.000 C 
ATOM     27  N3  UNL A   1      11.660  13.066  19.337  1.00  0.00    +0.000 N 
ATOM     28  C22 UNL A   1      11.852  13.713  18.124  1.00  0.00    +0.000 C 
ATOM     29  C23 UNL A   1      11.731  15.033  17.843  1.00  0.00    +0.000 C 
ATOM     41  C30 UNL A   1      11.357  16.037  18.805  1.00  0.00    +0.000 C 
ATOM     42  C31 UNL A   1      11.142  17.389  18.603  1.00  0.00    +0.000 C 
ATOM     43  C32 UNL A   1      10.841  17.974  19.838  1.00  0.00    +0.000 C 
ATOM     44  C33 UNL A   1      10.826  16.979  20.802  1.00  0.00    +0.000 C 
ATOM     45  N4  UNL A   1      11.147  15.796  20.155  1.00  0.00    +0.000 N 
ATOM     46  C34 UNL A   1      10.540  17.097  22.208  1.00  0.00    +0.000 C 
ATOM     58  C41 UNL A   1      10.526  16.065  23.088  1.00  0.00    +0.000 C 
ATOM     59  N5  UNL A   1      10.771  14.718  22.857  1.00  0.00    +0.000 N 
ATOM     60  C42 UNL A   1      10.655  14.126  24.020  1.00  0.00    +0.000 C 
ATOM     61  C43 UNL A   1      10.790  12.667  24.361  1.00  0.00    +0.000 C 
ATOM     73  C50 UNL A   1      11.050  11.783  23.379  1.00  0.00    +0.000 C 
ATOM     74  C51 UNL A   1      11.199  10.342  23.555  1.00  0.00    +0.000 C 
ATOM     75  C52 UNL A   1      11.494   9.784  22.370  1.00  0.00    +0.000 C 
ATOM     76  C53 UNL A   1      11.520  10.826  21.344  1.00  0.00    +0.000 C 
ATOM     77  N6  UNL A   1      11.242  11.980  22.033  1.00  0.00    +0.000 N 
ATOM     78  C54 UNL A   1      10.343  15.038  25.129  1.00  0.00    +0.000 C 
ATOM     79  C55 UNL A   1      10.238  16.200  24.500  1.00  0.00    +0.000 C 
ATOM     80  C56 UNL A   1      12.198  12.698  17.152  1.00  0.00    +0.000 C 
ATOM     81  C57 UNL A   1      12.134  11.486  17.684  1.00  0.00    +0.000 C 
ATOM    120  H24 UNL A   1      11.194  17.881  17.697  1.00  0.00    +0.000 H 
ATOM    121  H25 UNL A   1      10.661  18.977  20.002  1.00  0.00    +0.000 H 
ATOM    122  H26 UNL A   1      11.216  14.915  20.589  1.00  0.00    +0.000 H 
ATOM    123  H27 UNL A   1      11.095   9.833  24.447  1.00  0.00    +0.000 H 
ATOM    124  H28 UNL A   1      11.672   8.780  22.210  1.00  0.00    +0.000 H 
ATOM    125  H29 UNL A   1      11.185  12.864  21.604  1.00  0.00    +0.000 H 
ATOM    126  H30 UNL A   1      10.236  14.829  26.134  1.00  0.00    +0.000 H 
ATOM    127  H31 UNL A   1       9.983  17.089  24.959  1.00  0.00    +0.000 H 
ATOM    128  H32 UNL A   1      12.460  12.893  16.174  1.00  0.00    +0.000 H 
ENDROOT
BRANCH   25   24
ATOM    130  H34 UNL A   1      10.063   8.750  19.183  1.00  0.00    +0.000 H 
ATOM    131  H35 UNL A   1      10.530   6.484  18.459  1.00  0.00    +0.000 H 
ATOM     82  C58 UNL A   1      11.037   8.412  19.145  1.00  0.00    +0.000 C 
ATOM     83  C59 UNL A   1      11.305   7.123  18.691  1.00  0.00    +0.000 C 
ATOM     21  C16 UNL A   1      12.629   6.696  18.548  1.00  0.00    +0.000 C 
ATOM     22  C17 UNL A   1      13.679   7.514  18.977  1.00  0.00    +0.000 C 
ATOM    118  H22 UNL A   1      14.654   7.182  18.912  1.00  0.00    +0.000 H 
ATOM     23  C18 UNL A   1      13.405   8.782  19.493  1.00  0.00    +0.000 C 
ATOM    119  H23 UNL A   1      14.177   9.376  19.834  1.00  0.00    +0.000 H 
ATOM     24  C19 UNL A   1      12.083   9.253  19.554  1.00  0.00    +0.000 C 
BRANCH   21   19
ATOM     19  C15 UNL A   1      12.949   5.370  17.973  1.00  0.00    +0.000 C 
ATOM     20  O3  UNL A   1      13.639   5.299  16.961  1.00  0.00    +0.000 O 
BRANCH   19   18
ATOM     18  N2  UNL A   1      12.467   4.228  18.561  1.00  0.00    +0.000 N 
ATOM    117  H21 UNL A   1      12.298   4.293  19.528  1.00  0.00    +0.000 H 
BRANCH   18   17
ATOM     17  C14 UNL A   1      12.170   2.934  17.964  1.00  0.00    +0.000 C 
ATOM    115  H19 UNL A   1      11.177   2.960  17.565  1.00  0.00    +0.000 H 
ATOM    116  H20 UNL A   1      12.894   2.754  17.197  1.00  0.00    +0.000 H 
BRANCH   17   16
ATOM    113  H17 UNL A   1      11.606   1.014  18.657  1.00  0.00    +0.000 H 
ATOM    114  H18 UNL A   1      13.291   1.500  19.000  1.00  0.00    +0.000 H 
ATOM     16  C13 UNL A   1      12.263   1.796  18.975  1.00  0.00    +0.000 C 
BRANCH   16   15
ATOM    111  H15 UNL A   1      12.056   3.227  20.527  1.00  0.00    +0.000 H 
ATOM     15  C12 UNL A   1      11.891   2.176  20.410  1.00  0.00    +0.000 C 
ATOM    112  H16 UNL A   1      10.868   1.886  20.537  1.00  0.00    +0.000 H 
BRANCH   15   14
ATOM    110  H14 UNL A   1      12.755   2.139  22.321  1.00  0.00    +0.000 H 
ATOM    109  H13 UNL A   1      13.622   1.158  21.097  1.00  0.00    +0.000 H 
ATOM     14  C11 UNL A   1      12.677   1.449  21.507  1.00  0.00    +0.000 C 
BRANCH   14   13
ATOM    107  H11 UNL A   1      11.155  -0.039  21.473  1.00  0.00    +0.000 H 
ATOM    108  H12 UNL A   1      12.742  -0.579  22.077  1.00  0.00    +0.000 H 
ATOM     13  C10 UNL A   1      12.004   0.194  22.080  1.00  0.00    +0.000 C 
BRANCH   13   12
ATOM    105  H9  UNL A   1      10.566   0.804  23.526  1.00  0.00    +0.000 H 
ATOM    106  H10 UNL A   1      11.497  -0.630  23.965  1.00  0.00    +0.000 H 
ATOM     12  C9  UNL A   1      11.532   0.345  23.525  1.00  0.00    +0.000 C 
BRANCH   12   11
ATOM     11  N1  UNL A   1      12.436   1.157  24.309  1.00  0.00    +0.000 N 
ATOM    104  H8  UNL A   1      12.746   1.980  23.867  1.00  0.00    +0.000 H 
BRANCH   11    9
ATOM      9  C8  UNL A   1      12.926   0.956  25.567  1.00  0.00    +0.000 C 
ATOM     10  O2  UNL A   1      14.116   0.640  25.653  1.00  0.00    +0.000 O 
BRANCH    9    8
ATOM    102  H6  UNL A   1      11.086   0.539  26.517  1.00  0.00    +0.000 H 
ATOM    103  H7  UNL A   1      12.557   0.432  27.548  1.00  0.00    +0.000 H 
ATOM      8  C7  UNL A   1      12.024   0.974  26.794  1.00  0.00    +0.000 C 
BRANCH    8    7
ATOM      3  C2  UNL A   1      14.030   5.110  29.588  1.00  0.00    +0.000 C 
ATOM    100  H4  UNL A   1      15.708   3.848  29.433  1.00  0.00    +0.000 H 
ATOM      4  C3  UNL A   1      14.714   3.967  29.183  1.00  0.00    +0.000 C 
ATOM      5  C4  UNL A   1      14.060   2.977  28.438  1.00  0.00    +0.000 C 
ATOM    101  H5  UNL A   1      14.574   2.137  28.132  1.00  0.00    +0.000 H 
ATOM      6  C5  UNL A   1      12.697   3.132  28.107  1.00  0.00    +0.000 C 
ATOM      7  C6  UNL A   1      11.741   2.327  27.397  1.00  0.00    +0.000 C 
ATOM    138  H42 UNL A   1      10.035   4.838  28.316  1.00  0.00    +0.000 H 
ATOM    139  H43 UNL A   1      12.150   6.097  29.635  1.00  0.00    +0.000 H 
ATOM     84  C60 UNL A   1      10.555   3.062  27.325  1.00  0.00    +0.000 C 
ATOM     94  N8  UNL A   1      10.741   4.185  28.104  1.00  0.00    +0.000 N 
ATOM     95  C68 UNL A   1      12.038   4.273  28.547  1.00  0.00    +0.000 C 
ATOM     96  C69 UNL A   1      12.671   5.271  29.301  1.00  0.00    +0.000 C 
BRANCH    3    2
ATOM      2  O1  UNL A   1      14.604   6.113  30.325  1.00  0.00    +0.000 O 
BRANCH    2    1
ATOM      1  C1  UNL A   1      14.044   7.402  30.074  1.00  0.00    +0.000 C 
ATOM     98  H2  UNL A   1      13.092   7.476  30.557  1.00  0.00    +0.000 H 
ATOM     99  H3  UNL A   1      13.922   7.539  29.020  1.00  0.00    +0.000 H 
ATOM     97  H1  UNL A   1      14.698   8.155  30.459  1.00  0.00    +0.000 H 
ENDBRANCH    2    1
ENDBRANCH    3    2
BRANCH   84   85
ATOM     85  C61 UNL A   1       9.331   2.729  26.601  1.00  0.00    +0.000 C 
ATOM     86  O4  UNL A   1       8.680   1.711  26.815  1.00  0.00    +0.000 O 
BRANCH   85   87
ATOM    132  H36 UNL A   1      10.050   2.731  24.003  1.00  0.00    +0.000 H 
ATOM    136  H40 UNL A   1       7.501   5.874  22.824  1.00  0.00    +0.000 H 
ATOM    137  H41 UNL A   1       6.745   6.035  25.094  1.00  0.00    +0.000 H 
ATOM     87  C62 UNL A   1       8.865   3.626  25.508  1.00  0.00    +0.000 C 
ATOM     88  C63 UNL A   1       9.350   3.458  24.214  1.00  0.00    +0.000 C 
ATOM     89  C64 UNL A   1       8.865   4.300  23.211  1.00  0.00    +0.000 C 
ATOM     91  C66 UNL A   1       7.894   5.249  23.545  1.00  0.00    +0.000 C 
ATOM     92  C67 UNL A   1       7.469   5.337  24.862  1.00  0.00    +0.000 C 
ATOM     93  N7  UNL A   1       7.945   4.562  25.855  1.00  0.00    +0.000 N 
BRANCH   89   90
ATOM     90  C65 UNL A   1       9.340   4.180  21.794  1.00  0.00    +0.000 C 
ATOM    133  H37 UNL A   1      10.410   4.150  21.777  1.00  0.00    +0.000 H 
ATOM    134  H38 UNL A   1       8.998   5.021  21.230  1.00  0.00    +0.000 H 
ATOM    135  H39 UNL A   1       8.952   3.280  21.363  1.00  0.00    +0.000 H 
ENDBRANCH   89   90
ENDBRANCH   85   87
ENDBRANCH   84   85
ENDBRANCH    8    7
ENDBRANCH    9    8
ENDBRANCH   11    9
ENDBRANCH   12   11
ENDBRANCH   13   12
ENDBRANCH   14   13
ENDBRANCH   15   14
ENDBRANCH   16   15
ENDBRANCH   17   16
ENDBRANCH   18   17
ENDBRANCH   19   18
ENDBRANCH   21   19
ENDBRANCH   25   24
BRANCH   29   30
ATOM     33  C26 UNL A   1      13.528  16.172  14.677  1.00  0.00    +0.000 C 
ATOM     34  F2  UNL A   1      14.768  16.505  14.290  1.00  0.00    +0.000 F 
ATOM     35  C27 UNL A   1      12.480  16.236  13.771  1.00  0.00    +0.000 C 
ATOM     36  F3  UNL A   1      12.708  16.612  12.506  1.00  0.00    +0.000 F 
ATOM     37  C28 UNL A   1      11.194  15.917  14.180  1.00  0.00    +0.000 C 
ATOM     38  F4  UNL A   1      10.182  15.967  13.303  1.00  0.00    +0.000 F 
ATOM     39  C29 UNL A   1      10.952  15.548  15.501  1.00  0.00    +0.000 C 
ATOM     40  F5  UNL A   1       9.694  15.260  15.869  1.00  0.00    +0.000 F 
ATOM     30  C24 UNL A   1      11.998  15.468  16.432  1.00  0.00    +0.000 C 
ATOM     31  C25 UNL A   1      13.294  15.775  15.990  1.00  0.00    +0.000 C 
ATOM     32  F1  UNL A   1      14.328  15.725  16.844  1.00  0.00    +0.000 F 
ENDBRANCH   29   30
BRANCH   46   47
ATOM     47  C35 UNL A   1      10.211  18.458  22.745  1.00  0.00    +0.000 C 
ATOM     48  C36 UNL A   1      11.216  19.356  23.135  1.00  0.00    +0.000 C 
ATOM     49  F6  UNL A   1      12.506  18.992  23.078  1.00  0.00    +0.000 F 
ATOM     50  C37 UNL A   1      10.895  20.620  23.622  1.00  0.00    +0.000 C 
ATOM     51  F7  UNL A   1      11.868  21.445  24.031  1.00  0.00    +0.000 F 
ATOM     52  C38 UNL A   1       9.569  21.022  23.698  1.00  0.00    +0.000 C 
ATOM     53  F8  UNL A   1       9.263  22.242  24.162  1.00  0.00    +0.000 F 
ATOM     54  C39 UNL A   1       8.561  20.156  23.301  1.00  0.00    +0.000 C 
ATOM     55  F9  UNL A   1       7.281  20.547  23.363  1.00  0.00    +0.000 F 
ATOM     56  C40 UNL A   1       8.876  18.882  22.840  1.00  0.00    +0.000 C 
ATOM     57  F10 UNL A   1       7.879  18.062  22.475  1.00  0.00    +0.000 F 
ENDBRANCH   46   47
BRANCH   61   62
ATOM     65  C46 UNL A   1       9.167  11.400  27.548  1.00  0.00    +0.000 C 
ATOM     66  F12 UNL A   1       7.939  11.101  27.992  1.00  0.00    +0.000 F 
ATOM     67  C47 UNL A   1      10.258  11.298  28.399  1.00  0.00    +0.000 C 
ATOM     68  F13 UNL A   1      10.086  10.882  29.662  1.00  0.00    +0.000 F 
ATOM     69  C48 UNL A   1      11.523  11.635  27.943  1.00  0.00    +0.000 C 
ATOM     70  F14 UNL A   1      12.580  11.524  28.759  1.00  0.00    +0.000 F 
ATOM     71  C49 UNL A   1      11.698  12.089  26.637  1.00  0.00    +0.000 C 
ATOM     72  F15 UNL A   1      12.930  12.420  26.227  1.00  0.00    +0.000 F 
ATOM     62  C44 UNL A   1      10.612  12.192  25.756  1.00  0.00    +0.000 C 
ATOM     63  C45 UNL A   1       9.345  11.829  26.234  1.00  0.00    +0.000 C 
ATOM     64  F11 UNL A   1       8.273  11.931  25.434  1.00  0.00    +0.000 F 
ENDBRANCH   61   62
TORSDOF 21
ENDMDL
