MODEL 1
REMARK VINA RESULT:     -11.9      0.000      0.000
ROOT
ATOM    134  H36 UNL A   1      46.509  28.265  30.128  1.00  0.00    +0.000 H 
ATOM    135  H37 UNL A   1      45.363  28.473  32.524  1.00  0.00    +0.000 H 
ATOM    136  H38 UNL A   1      44.783  31.881  30.475  1.00  0.00    +0.000 H 
ATOM    137  H39 UNL A   1      37.033  28.869  30.706  1.00  0.00    +0.000 H 
ATOM    138  H40 UNL A   1      38.231  26.886  29.643  1.00  0.00    +0.000 H 
ATOM    139  H41 UNL A   1      40.993  29.974  29.965  1.00  0.00    +0.000 H 
ATOM    140  H42 UNL A   1      40.480  33.105  29.672  1.00  0.00    +0.000 H 
ATOM    141  H43 UNL A   1      42.934  32.603  30.276  1.00  0.00    +0.000 H 
ATOM    142  H44 UNL A   1      43.923  29.246  25.698  1.00  0.00    +0.000 H 
ATOM    143  H45 UNL A   1      41.606  28.149  25.899  1.00  0.00    +0.000 H 
ATOM     40  C34 UNL A   1      40.858  27.584  28.600  1.00  0.00    +0.000 C 
ATOM     41  C35 UNL A   1      42.086  28.277  28.111  1.00  0.00    +0.000 C 
ATOM     42  N5  UNL A   1      43.101  28.692  28.803  1.00  0.00    +0.000 N 
ATOM     43  C36 UNL A   1      43.957  29.312  27.893  1.00  0.00    +0.000 C 
ATOM     44  C37 UNL A   1      44.942  30.166  28.288  1.00  0.00    +0.000 C 
ATOM     56  C44 UNL A   1      45.281  29.993  29.673  1.00  0.00    +0.000 C 
ATOM     57  C45 UNL A   1      45.815  28.968  30.427  1.00  0.00    +0.000 C 
ATOM     58  C46 UNL A   1      45.204  29.088  31.710  1.00  0.00    +0.000 C 
ATOM     59  C47 UNL A   1      44.351  30.191  31.660  1.00  0.00    +0.000 C 
ATOM     60  N6  UNL A   1      44.801  30.903  30.580  1.00  0.00    +0.000 N 
ATOM     61  C48 UNL A   1      43.160  30.531  32.400  1.00  0.00    +0.000 C 
ATOM     73  C55 UNL A   1      42.186  31.369  31.944  1.00  0.00    +0.000 C 
ATOM     74  N7  UNL A   1      40.880  31.253  32.395  1.00  0.00    +0.000 N 
ATOM     75  C56 UNL A   1      40.147  31.707  31.418  1.00  0.00    +0.000 C 
ATOM     76  C57 UNL A   1      38.803  31.179  31.079  1.00  0.00    +0.000 C 
ATOM     88  C64 UNL A   1      38.971  29.934  30.575  1.00  0.00    +0.000 C 
ATOM     89  C65 UNL A   1      38.021  28.852  30.409  1.00  0.00    +0.000 C 
ATOM     90  C66 UNL A   1      38.643  27.819  29.801  1.00  0.00    +0.000 C 
ATOM     91  C67 UNL A   1      39.988  28.228  29.404  1.00  0.00    +0.000 C 
ATOM     92  N8  UNL A   1      40.148  29.469  29.976  1.00  0.00    +0.000 N 
ATOM     93  C68 UNL A   1      40.849  32.505  30.427  1.00  0.00    +0.000 C 
ATOM     94  C69 UNL A   1      42.109  32.238  30.776  1.00  0.00    +0.000 C 
ATOM     95  C70 UNL A   1      43.437  29.023  26.581  1.00  0.00    +0.000 C 
ATOM     96  C71 UNL A   1      42.246  28.429  26.659  1.00  0.00    +0.000 C 
ENDROOT
BRANCH   40   39
ATOM     97  C72 UNL A   1      41.446  25.143  28.547  1.00  0.00    +0.000 C 
ATOM     98  C73 UNL A   1      41.238  23.885  27.985  1.00  0.00    +0.000 C 
ATOM     36  C30 UNL A   1      40.235  23.673  27.019  1.00  0.00    +0.000 C 
ATOM     37  C31 UNL A   1      39.389  24.735  26.707  1.00  0.00    +0.000 C 
ATOM    132  H34 UNL A   1      38.582  24.579  26.080  1.00  0.00    +0.000 H 
ATOM     38  C32 UNL A   1      39.620  26.001  27.227  1.00  0.00    +0.000 C 
ATOM    133  H35 UNL A   1      39.011  26.787  26.953  1.00  0.00    +0.000 H 
ATOM     39  C33 UNL A   1      40.672  26.216  28.120  1.00  0.00    +0.000 C 
ATOM    144  H46 UNL A   1      42.167  25.277  29.273  1.00  0.00    +0.000 H 
ATOM    145  H47 UNL A   1      41.830  23.094  28.280  1.00  0.00    +0.000 H 
BRANCH   36   34
ATOM     34  C29 UNL A   1      40.213  22.334  26.366  1.00  0.00    +0.000 C 
ATOM     35  O2  UNL A   1      41.286  21.757  26.168  1.00  0.00    +0.000 O 
BRANCH   34   33
ATOM     33  N4  UNL A   1      39.089  21.703  25.905  1.00  0.00    +0.000 N 
ATOM    131  H33 UNL A   1      39.285  20.827  25.500  1.00  0.00    +0.000 H 
BRANCH   33   32
ATOM    129  H31 UNL A   1      37.144  21.269  26.403  1.00  0.00    +0.000 H 
ATOM    130  H32 UNL A   1      37.574  22.995  26.335  1.00  0.00    +0.000 H 
ATOM     32  C28 UNL A   1      37.678  22.033  25.879  1.00  0.00    +0.000 C 
BRANCH   32   31
ATOM    127  H29 UNL A   1      37.136  23.172  24.169  1.00  0.00    +0.000 H 
ATOM     31  C27 UNL A   1      37.096  22.146  24.467  1.00  0.00    +0.000 C 
ATOM    128  H30 UNL A   1      37.684  21.506  23.842  1.00  0.00    +0.000 H 
BRANCH   31   30
ATOM    126  H28 UNL A   1      35.522  21.359  23.323  1.00  0.00    +0.000 H 
ATOM    125  H27 UNL A   1      35.004  22.477  24.620  1.00  0.00    +0.000 H 
ATOM     30  C26 UNL A   1      35.646  21.668  24.339  1.00  0.00    +0.000 C 
BRANCH   30   29
ATOM    123  H25 UNL A   1      36.144  19.817  25.255  1.00  0.00    +0.000 H 
ATOM    124  H26 UNL A   1      34.990  20.840  26.156  1.00  0.00    +0.000 H 
ATOM     29  C25 UNL A   1      35.287  20.456  25.202  1.00  0.00    +0.000 C 
BRANCH   29   28
ATOM    121  H23 UNL A   1      34.437  19.060  23.838  1.00  0.00    +0.000 H 
ATOM    122  H24 UNL A   1      33.781  19.009  25.494  1.00  0.00    +0.000 H 
ATOM     28  C24 UNL A   1      34.105  19.628  24.683  1.00  0.00    +0.000 C 
BRANCH   28   27
ATOM     27  C23 UNL A   1      32.899  20.461  24.256  1.00  0.00    +0.000 C 
ATOM    119  H21 UNL A   1      33.239  21.291  23.673  1.00  0.00    +0.000 H 
ATOM    120  H22 UNL A   1      32.246  19.837  23.684  1.00  0.00    +0.000 H 
BRANCH   27   26
ATOM     26  N3  UNL A   1      32.165  20.959  25.403  1.00  0.00    +0.000 N 
ATOM    118  H20 UNL A   1      31.894  20.276  26.059  1.00  0.00    +0.000 H 
BRANCH   26   24
ATOM     25  O1  UNL A   1      30.600  22.457  25.910  1.00  0.00    +0.000 O 
ATOM     24  C22 UNL A   1      31.797  22.239  25.705  1.00  0.00    +0.000 C 
BRANCH   24   23
ATOM    116  H18 UNL A   1      32.960  23.689  26.713  1.00  0.00    +0.000 H 
ATOM    117  H19 UNL A   1      33.703  22.978  25.258  1.00  0.00    +0.000 H 
ATOM     23  C21 UNL A   1      32.811  23.368  25.703  1.00  0.00    +0.000 C 
BRANCH   23   22
ATOM      2  C2  UNL A   1      32.593  25.283  20.821  1.00  0.00    +0.000 C 
ATOM      3  C3  UNL A   1      32.844  23.970  21.221  1.00  0.00    +0.000 C 
ATOM      4  C4  UNL A   1      32.771  23.593  22.565  1.00  0.00    +0.000 C 
ATOM      5  C5  UNL A   1      32.458  24.575  23.521  1.00  0.00    +0.000 C 
ATOM      6  C6  UNL A   1      32.159  25.887  23.148  1.00  0.00    +0.000 C 
ATOM      7  C7  UNL A   1      32.233  26.241  21.781  1.00  0.00    +0.000 C 
ATOM    102  H4  UNL A   1      33.089  23.263  20.510  1.00  0.00    +0.000 H 
ATOM    104  H6  UNL A   1      32.021  27.208  21.488  1.00  0.00    +0.000 H 
ATOM    103  H5  UNL A   1      32.943  22.616  22.848  1.00  0.00    +0.000 H 
ATOM      8  C8  UNL A   1      31.835  26.601  24.338  1.00  0.00    +0.000 C 
ATOM     20  C19 UNL A   1      31.944  25.725  25.409  1.00  0.00    +0.000 C 
ATOM     22  N2  UNL A   1      32.417  24.526  24.908  1.00  0.00    +0.000 N 
BRANCH    2    1
ATOM      1  C1  UNL A   1      32.719  25.653  19.372  1.00  0.00    +0.000 C 
ATOM     99  H1  UNL A   1      33.683  26.082  19.197  1.00  0.00    +0.000 H 
ATOM    100  H2  UNL A   1      31.961  26.364  19.118  1.00  0.00    +0.000 H 
ATOM    101  H3  UNL A   1      32.603  24.776  18.768  1.00  0.00    +0.000 H 
ENDBRANCH    2    1
BRANCH    8    9
ATOM      9  C9  UNL A   1      31.451  27.999  24.495  1.00  0.00    +0.000 C 
ATOM     10  C10 UNL A   1      32.312  28.837  25.198  1.00  0.00    +0.000 C 
ATOM     11  C11 UNL A   1      31.970  30.166  25.299  1.00  0.00    +0.000 C 
ATOM    105  H7  UNL A   1      33.176  28.474  25.628  1.00  0.00    +0.000 H 
ATOM     13  C12 UNL A   1      30.005  29.901  24.079  1.00  0.00    +0.000 C 
ATOM    106  H8  UNL A   1      32.603  30.793  25.822  1.00  0.00    +0.000 H 
ATOM     12  N1  UNL A   1      30.855  30.700  24.756  1.00  0.00    +0.000 N 
ATOM     14  C13 UNL A   1      28.844  30.434  23.496  1.00  0.00    +0.000 C 
ATOM    112  H14 UNL A   1      29.500  26.710  23.132  1.00  0.00    +0.000 H 
ATOM     18  C17 UNL A   1      29.320  27.721  23.234  1.00  0.00    +0.000 C 
ATOM     19  C18 UNL A   1      30.257  28.518  23.931  1.00  0.00    +0.000 C 
ATOM     17  C16 UNL A   1      28.167  28.257  22.680  1.00  0.00    +0.000 C 
ATOM    111  H13 UNL A   1      27.494  27.653  22.180  1.00  0.00    +0.000 H 
ATOM     16  C15 UNL A   1      27.931  29.615  22.807  1.00  0.00    +0.000 C 
ATOM    110  H12 UNL A   1      27.080  30.029  22.395  1.00  0.00    +0.000 H 
BRANCH   14   15
ATOM    107  H9  UNL A   1      27.799  32.154  22.830  1.00  0.00    +0.000 H 
ATOM    108  H10 UNL A   1      29.419  32.472  23.405  1.00  0.00    +0.000 H 
ATOM    109  H11 UNL A   1      28.137  32.134  24.544  1.00  0.00    +0.000 H 
ATOM     15  C14 UNL A   1      28.526  31.905  23.575  1.00  0.00    +0.000 C 
ENDBRANCH   14   15
ENDBRANCH    8    9
BRANCH   20   21
ATOM    113  H15 UNL A   1      31.413  25.055  27.337  1.00  0.00    +0.000 H 
ATOM    114  H16 UNL A   1      30.873  26.674  26.958  1.00  0.00    +0.000 H 
ATOM    115  H17 UNL A   1      32.557  26.375  27.319  1.00  0.00    +0.000 H 
ATOM     21  C20 UNL A   1      31.678  25.975  26.858  1.00  0.00    +0.000 C 
ENDBRANCH   20   21
ENDBRANCH   23   22
ENDBRANCH   24   23
ENDBRANCH   26   24
ENDBRANCH   27   26
ENDBRANCH   28   27
ENDBRANCH   29   28
ENDBRANCH   30   29
ENDBRANCH   31   30
ENDBRANCH   32   31
ENDBRANCH   33   32
ENDBRANCH   34   33
ENDBRANCH   36   34
ENDBRANCH   40   39
BRANCH   44   45
ATOM     45  C38 UNL A   1      45.388  31.374  27.500  1.00  0.00    +0.000 C 
ATOM     46  C39 UNL A   1      46.738  31.493  27.110  1.00  0.00    +0.000 C 
ATOM     47  F1  UNL A   1      47.574  30.448  27.210  1.00  0.00    +0.000 F 
ATOM     48  C40 UNL A   1      47.283  32.711  26.695  1.00  0.00    +0.000 C 
ATOM     49  F2  UNL A   1      48.597  32.804  26.450  1.00  0.00    +0.000 F 
ATOM     50  C41 UNL A   1      46.487  33.839  26.598  1.00  0.00    +0.000 C 
ATOM     51  F3  UNL A   1      47.019  35.019  26.257  1.00  0.00    +0.000 F 
ATOM     52  C42 UNL A   1      45.148  33.747  26.909  1.00  0.00    +0.000 C 
ATOM     53  F4  UNL A   1      44.365  34.834  26.840  1.00  0.00    +0.000 F 
ATOM     54  C43 UNL A   1      44.612  32.546  27.375  1.00  0.00    +0.000 C 
ATOM     55  F5  UNL A   1      43.344  32.606  27.797  1.00  0.00    +0.000 F 
ENDBRANCH   44   45
BRANCH   61   62
ATOM     65  C51 UNL A   1      42.678  29.333  36.008  1.00  0.00    +0.000 C 
ATOM     66  F7  UNL A   1      42.918  29.752  37.260  1.00  0.00    +0.000 F 
ATOM     67  C52 UNL A   1      41.996  28.146  35.797  1.00  0.00    +0.000 C 
ATOM     68  F8  UNL A   1      41.567  27.422  36.842  1.00  0.00    +0.000 F 
ATOM     69  C53 UNL A   1      41.726  27.726  34.505  1.00  0.00    +0.000 C 
ATOM     70  F9  UNL A   1      41.020  26.607  34.297  1.00  0.00    +0.000 F 
ATOM     71  C54 UNL A   1      42.160  28.483  33.419  1.00  0.00    +0.000 C 
ATOM     72  F10 UNL A   1      41.858  28.063  32.180  1.00  0.00    +0.000 F 
ATOM     62  C49 UNL A   1      42.848  29.689  33.603  1.00  0.00    +0.000 C 
ATOM     63  C50 UNL A   1      43.079  30.111  34.923  1.00  0.00    +0.000 C 
ATOM     64  F6  UNL A   1      43.638  31.304  35.174  1.00  0.00    +0.000 F 
ENDBRANCH   61   62
BRANCH   76   77
ATOM     77  C58 UNL A   1      37.612  32.052  30.969  1.00  0.00    +0.000 C 
ATOM     78  C59 UNL A   1      37.231  32.594  29.731  1.00  0.00    +0.000 C 
ATOM     79  F11 UNL A   1      38.062  32.524  28.680  1.00  0.00    +0.000 F 
ATOM     80  C60 UNL A   1      35.962  33.145  29.532  1.00  0.00    +0.000 C 
ATOM     81  F12 UNL A   1      35.609  33.586  28.317  1.00  0.00    +0.000 F 
ATOM     82  C61 UNL A   1      35.043  33.181  30.569  1.00  0.00    +0.000 C 
ATOM     83  F13 UNL A   1      33.805  33.647  30.361  1.00  0.00    +0.000 F 
ATOM     84  C62 UNL A   1      35.401  32.690  31.810  1.00  0.00    +0.000 C 
ATOM     85  F14 UNL A   1      34.511  32.689  32.812  1.00  0.00    +0.000 F 
ATOM     86  C63 UNL A   1      36.664  32.131  32.007  1.00  0.00    +0.000 C 
ATOM     87  F15 UNL A   1      36.905  31.582  33.206  1.00  0.00    +0.000 F 
ENDBRANCH   76   77
TORSDOF 20
ENDMDL
MODEL 2
REMARK VINA RESULT:     -11.2     35.662     42.375
ROOT
ATOM    134  H36 UNL A   1       6.256  29.631  -4.523  1.00  0.00    +0.000 H 
ATOM    135  H37 UNL A   1       8.573  28.367  -4.890  1.00  0.00    +0.000 H 
ATOM    136  H38 UNL A   1       9.225  32.332  -4.796  1.00  0.00    +0.000 H 
ATOM    137  H39 UNL A   1      12.873  29.989   2.303  1.00  0.00    +0.000 H 
ATOM    138  H40 UNL A   1      10.541  29.034   2.684  1.00  0.00    +0.000 H 
ATOM    139  H41 UNL A   1      10.420  31.221  -0.847  1.00  0.00    +0.000 H 
ATOM    140  H42 UNL A   1      12.001  33.896  -1.554  1.00  0.00    +0.000 H 
ATOM    141  H43 UNL A   1      10.599  33.070  -3.553  1.00  0.00    +0.000 H 
ATOM    142  H44 UNL A   1       5.570  33.167  -0.741  1.00  0.00    +0.000 H 
ATOM    143  H45 UNL A   1       6.653  32.231   1.395  1.00  0.00    +0.000 H 
ATOM     40  C34 UNL A   1       8.553  30.158   0.879  1.00  0.00    +0.000 C 
ATOM     41  C35 UNL A   1       7.792  30.975  -0.111  1.00  0.00    +0.000 C 
ATOM     42  N5  UNL A   1       7.774  30.859  -1.402  1.00  0.00    +0.000 N 
ATOM     43  C36 UNL A   1       6.951  31.883  -1.868  1.00  0.00    +0.000 C 
ATOM     44  C37 UNL A   1       6.969  32.297  -3.165  1.00  0.00    +0.000 C 
ATOM     56  C44 UNL A   1       7.542  31.309  -4.037  1.00  0.00    +0.000 C 
ATOM     57  C45 UNL A   1       7.205  30.024  -4.411  1.00  0.00    +0.000 C 
ATOM     58  C46 UNL A   1       8.447  29.354  -4.614  1.00  0.00    +0.000 C 
ATOM     59  C47 UNL A   1       9.461  30.280  -4.367  1.00  0.00    +0.000 C 
ATOM     60  N6  UNL A   1       8.830  31.491  -4.471  1.00  0.00    +0.000 N 
ATOM     61  C48 UNL A   1      10.831  30.129  -3.941  1.00  0.00    +0.000 C 
ATOM     73  C55 UNL A   1      11.547  31.095  -3.297  1.00  0.00    +0.000 C 
ATOM     74  N7  UNL A   1      12.598  30.760  -2.458  1.00  0.00    +0.000 N 
ATOM     75  C56 UNL A   1      12.659  31.733  -1.593  1.00  0.00    +0.000 C 
ATOM     76  C57 UNL A   1      13.052  31.552  -0.173  1.00  0.00    +0.000 C 
ATOM     88  C64 UNL A   1      12.058  30.867   0.440  1.00  0.00    +0.000 C 
ATOM     89  C65 UNL A   1      12.057  30.133   1.688  1.00  0.00    +0.000 C 
ATOM     90  C66 UNL A   1      10.809  29.667   1.916  1.00  0.00    +0.000 C 
ATOM     91  C67 UNL A   1       9.900  30.201   0.903  1.00  0.00    +0.000 C 
ATOM     92  N8  UNL A   1      10.728  30.834   0.005  1.00  0.00    +0.000 N 
ATOM     93  C68 UNL A   1      11.964  32.951  -1.970  1.00  0.00    +0.000 C 
ATOM     94  C69 UNL A   1      11.264  32.497  -3.012  1.00  0.00    +0.000 C 
ATOM     95  C70 UNL A   1       6.326  32.465  -0.707  1.00  0.00    +0.000 C 
ATOM     96  C71 UNL A   1       6.853  31.975   0.415  1.00  0.00    +0.000 C 
ENDROOT
BRANCH   40   39
ATOM     97  C72 UNL A   1       7.369  29.816   3.067  1.00  0.00    +0.000 C 
ATOM     98  C73 UNL A   1       6.648  28.968   3.905  1.00  0.00    +0.000 C 
ATOM     36  C30 UNL A   1       6.259  27.682   3.485  1.00  0.00    +0.000 C 
ATOM     37  C31 UNL A   1       6.532  27.310   2.171  1.00  0.00    +0.000 C 
ATOM    132  H34 UNL A   1       6.168  26.415   1.806  1.00  0.00    +0.000 H 
ATOM     38  C32 UNL A   1       7.290  28.130   1.345  1.00  0.00    +0.000 C 
ATOM    133  H35 UNL A   1       7.521  27.822   0.388  1.00  0.00    +0.000 H 
ATOM     39  C33 UNL A   1       7.742  29.369   1.804  1.00  0.00    +0.000 C 
ATOM    144  H46 UNL A   1       7.623  30.766   3.380  1.00  0.00    +0.000 H 
ATOM    145  H47 UNL A   1       6.394  29.289   4.853  1.00  0.00    +0.000 H 
BRANCH   36   34
ATOM     34  C29 UNL A   1       5.642  26.803   4.518  1.00  0.00    +0.000 C 
ATOM     35  O2  UNL A   1       4.443  26.527   4.416  1.00  0.00    +0.000 O 
BRANCH   34   33
ATOM     33  N4  UNL A   1       6.286  26.316   5.622  1.00  0.00    +0.000 N 
ATOM    131  H33 UNL A   1       5.773  26.451   6.452  1.00  0.00    +0.000 H 
BRANCH   33   32
ATOM    129  H31 UNL A   1       8.272  26.377   6.148  1.00  0.00    +0.000 H 
ATOM    130  H32 UNL A   1       7.382  24.902   6.596  1.00  0.00    +0.000 H 
ATOM     32  C28 UNL A   1       7.552  25.646   5.846  1.00  0.00    +0.000 C 
BRANCH   32   31
ATOM    127  H29 UNL A   1       7.964  23.866   4.761  1.00  0.00    +0.000 H 
ATOM     31  C27 UNL A   1       8.093  24.918   4.612  1.00  0.00    +0.000 C 
ATOM    128  H30 UNL A   1       7.544  25.291   3.772  1.00  0.00    +0.000 H 
BRANCH   31   30
ATOM    126  H28 UNL A   1       9.936  24.312   3.812  1.00  0.00    +0.000 H 
ATOM    125  H27 UNL A   1      10.067  25.369   5.250  1.00  0.00    +0.000 H 
ATOM     30  C26 UNL A   1       9.573  25.181   4.319  1.00  0.00    +0.000 C 
BRANCH   30   29
ATOM    123  H25 UNL A   1       8.934  26.615   2.889  1.00  0.00    +0.000 H 
ATOM    124  H26 UNL A   1      10.217  27.157   4.006  1.00  0.00    +0.000 H 
ATOM     29  C25 UNL A   1       9.846  26.365   3.389  1.00  0.00    +0.000 C 
BRANCH   29   28
ATOM    121  H23 UNL A   1      11.060  27.010   1.763  1.00  0.00    +0.000 H 
ATOM    122  H24 UNL A   1      11.804  25.805   2.843  1.00  0.00    +0.000 H 
ATOM     28  C24 UNL A   1      10.920  26.109   2.324  1.00  0.00    +0.000 C 
BRANCH   28   27
ATOM     27  C23 UNL A   1      10.575  24.986   1.348  1.00  0.00    +0.000 C 
ATOM    119  H21 UNL A   1      11.354  24.906   0.619  1.00  0.00    +0.000 H 
ATOM    120  H22 UNL A   1      10.479  24.077   1.903  1.00  0.00    +0.000 H 
BRANCH   27   26
ATOM     26  N3  UNL A   1       9.319  25.241   0.669  1.00  0.00    +0.000 N 
ATOM    118  H20 UNL A   1       9.226  26.141   0.279  1.00  0.00    +0.000 H 
BRANCH   26   24
ATOM     25  O1  UNL A   1       7.963  23.642   1.413  1.00  0.00    +0.000 O 
ATOM     24  C22 UNL A   1       8.247  24.413   0.493  1.00  0.00    +0.000 C 
BRANCH   24   23
ATOM    116  H18 UNL A   1       8.145  24.715  -1.597  1.00  0.00    +0.000 H 
ATOM    117  H19 UNL A   1       7.158  23.375  -0.962  1.00  0.00    +0.000 H 
ATOM     23  C21 UNL A   1       7.487  24.383  -0.820  1.00  0.00    +0.000 C 
BRANCH   23   22
ATOM      2  C2  UNL A   1       2.394  24.541   0.436  1.00  0.00    +0.000 C 
ATOM      3  C3  UNL A   1       3.347  23.597   0.820  1.00  0.00    +0.000 C 
ATOM      4  C4  UNL A   1       4.695  23.747   0.483  1.00  0.00    +0.000 C 
ATOM      5  C5  UNL A   1       5.076  24.866  -0.279  1.00  0.00    +0.000 C 
ATOM      6  C6  UNL A   1       4.153  25.849  -0.641  1.00  0.00    +0.000 C 
ATOM      7  C7  UNL A   1       2.797  25.678  -0.281  1.00  0.00    +0.000 C 
ATOM    102  H4  UNL A   1       3.051  22.772   1.365  1.00  0.00    +0.000 H 
ATOM    104  H6  UNL A   1       2.101  26.393  -0.545  1.00  0.00    +0.000 H 
ATOM    103  H5  UNL A   1       5.394  23.052   0.785  1.00  0.00    +0.000 H 
ATOM      8  C8  UNL A   1       4.869  26.860  -1.348  1.00  0.00    +0.000 C 
ATOM     20  C19 UNL A   1       6.203  26.480  -1.410  1.00  0.00    +0.000 C 
ATOM     22  N2  UNL A   1       6.294  25.222  -0.841  1.00  0.00    +0.000 N 
BRANCH    2    1
ATOM      1  C1  UNL A   1       0.952  24.323   0.787  1.00  0.00    +0.000 C 
ATOM     99  H1  UNL A   1       0.441  23.899  -0.052  1.00  0.00    +0.000 H 
ATOM    100  H2  UNL A   1       0.501  25.258   1.044  1.00  0.00    +0.000 H 
ATOM    101  H3  UNL A   1       0.885  23.653   1.620  1.00  0.00    +0.000 H 
ENDBRANCH    2    1
BRANCH    8    9
ATOM      9  C9  UNL A   1       4.371  28.097  -1.936  1.00  0.00    +0.000 C 
ATOM     10  C10 UNL A   1       4.256  28.161  -3.322  1.00  0.00    +0.000 C 
ATOM     11  C11 UNL A   1       3.737  29.312  -3.869  1.00  0.00    +0.000 C 
ATOM    105  H7  UNL A   1       4.550  27.372  -3.919  1.00  0.00    +0.000 H 
ATOM     13  C12 UNL A   1       3.445  30.334  -1.797  1.00  0.00    +0.000 C 
ATOM    106  H8  UNL A   1       3.652  29.367  -4.896  1.00  0.00    +0.000 H 
ATOM     12  N1  UNL A   1       3.333  30.375  -3.141  1.00  0.00    +0.000 N 
ATOM     14  C13 UNL A   1       3.022  31.424  -1.018  1.00  0.00    +0.000 C 
ATOM    112  H14 UNL A   1       4.497  28.401   0.750  1.00  0.00    +0.000 H 
ATOM     18  C17 UNL A   1       4.099  29.223   0.270  1.00  0.00    +0.000 C 
ATOM     19  C18 UNL A   1       3.980  29.204  -1.139  1.00  0.00    +0.000 C 
ATOM     17  C16 UNL A   1       3.696  30.314   1.027  1.00  0.00    +0.000 C 
ATOM    111  H13 UNL A   1       3.800  30.307   2.054  1.00  0.00    +0.000 H 
ATOM     16  C15 UNL A   1       3.154  31.412   0.383  1.00  0.00    +0.000 C 
ATOM    110  H12 UNL A   1       2.845  32.229   0.933  1.00  0.00    +0.000 H 
BRANCH   14   15
ATOM    107  H9  UNL A   1       1.413  32.419  -1.972  1.00  0.00    +0.000 H 
ATOM    108  H10 UNL A   1       2.996  32.957  -2.480  1.00  0.00    +0.000 H 
ATOM    109  H11 UNL A   1       2.368  33.436  -0.921  1.00  0.00    +0.000 H 
ATOM     15  C14 UNL A   1       2.405  32.647  -1.642  1.00  0.00    +0.000 C 
ENDBRANCH   14   15
ENDBRANCH    8    9
BRANCH   20   21
ATOM    113  H15 UNL A   1       7.970  26.519  -2.558  1.00  0.00    +0.000 H 
ATOM    114  H16 UNL A   1       7.940  27.661  -1.235  1.00  0.00    +0.000 H 
ATOM    115  H17 UNL A   1       6.998  27.966  -2.675  1.00  0.00    +0.000 H 
ATOM     21  C20 UNL A   1       7.360  27.208  -2.012  1.00  0.00    +0.000 C 
ENDBRANCH   20   21
ENDBRANCH   23   22
ENDBRANCH   24   23
ENDBRANCH   26   24
ENDBRANCH   27   26
ENDBRANCH   28   27
ENDBRANCH   29   28
ENDBRANCH   30   29
ENDBRANCH   31   30
ENDBRANCH   32   31
ENDBRANCH   33   32
ENDBRANCH   34   33
ENDBRANCH   36   34
ENDBRANCH   40   39
BRANCH   44   45
ATOM     45  C38 UNL A   1       6.751  33.724  -3.608  1.00  0.00    +0.000 C 
ATOM     46  C39 UNL A   1       5.674  34.031  -4.464  1.00  0.00    +0.000 C 
ATOM     47  F1  UNL A   1       4.704  33.133  -4.694  1.00  0.00    +0.000 F 
ATOM     48  C40 UNL A   1       5.615  35.233  -5.176  1.00  0.00    +0.000 C 
ATOM     49  F2  UNL A   1       4.636  35.431  -6.069  1.00  0.00    +0.000 F 
ATOM     50  C41 UNL A   1       6.598  36.193  -5.014  1.00  0.00    +0.000 C 
ATOM     51  F3  UNL A   1       6.575  37.319  -5.737  1.00  0.00    +0.000 F 
ATOM     52  C42 UNL A   1       7.633  35.956  -4.135  1.00  0.00    +0.000 C 
ATOM     53  F4  UNL A   1       8.606  36.866  -3.980  1.00  0.00    +0.000 F 
ATOM     54  C43 UNL A   1       7.723  34.736  -3.464  1.00  0.00    +0.000 C 
ATOM     55  F5  UNL A   1       8.846  34.547  -2.762  1.00  0.00    +0.000 F 
ENDBRANCH   44   45
BRANCH   61   62
ATOM     65  C51 UNL A   1      12.789  26.976  -4.895  1.00  0.00    +0.000 C 
ATOM     66  F7  UNL A   1      13.558  26.518  -5.895  1.00  0.00    +0.000 F 
ATOM     67  C52 UNL A   1      12.605  26.204  -3.759  1.00  0.00    +0.000 C 
ATOM     68  F8  UNL A   1      13.202  25.008  -3.655  1.00  0.00    +0.000 F 
ATOM     69  C53 UNL A   1      11.831  26.687  -2.716  1.00  0.00    +0.000 C 
ATOM     70  F9  UNL A   1      11.696  25.967  -1.594  1.00  0.00    +0.000 F 
ATOM     71  C54 UNL A   1      11.220  27.934  -2.817  1.00  0.00    +0.000 C 
ATOM     72  F10 UNL A   1      10.501  28.384  -1.777  1.00  0.00    +0.000 F 
ATOM     62  C49 UNL A   1      11.393  28.737  -3.952  1.00  0.00    +0.000 C 
ATOM     63  C50 UNL A   1      12.210  28.240  -4.982  1.00  0.00    +0.000 C 
ATOM     64  F6  UNL A   1      12.503  28.997  -6.049  1.00  0.00    +0.000 F 
ENDBRANCH   61   62
BRANCH   76   77
ATOM     77  C58 UNL A   1      14.136  32.341   0.455  1.00  0.00    +0.000 C 
ATOM     78  C59 UNL A   1      13.839  33.404   1.323  1.00  0.00    +0.000 C 
ATOM     79  F11 UNL A   1      12.585  33.871   1.414  1.00  0.00    +0.000 F 
ATOM     80  C60 UNL A   1      14.808  33.952   2.168  1.00  0.00    +0.000 C 
ATOM     81  F12 UNL A   1      14.471  34.916   3.035  1.00  0.00    +0.000 F 
ATOM     82  C61 UNL A   1      16.104  33.460   2.160  1.00  0.00    +0.000 C 
ATOM     83  F13 UNL A   1      17.016  33.939   3.017  1.00  0.00    +0.000 F 
ATOM     84  C62 UNL A   1      16.438  32.439   1.290  1.00  0.00    +0.000 C 
ATOM     85  F14 UNL A   1      17.678  31.933   1.296  1.00  0.00    +0.000 F 
ATOM     86  C63 UNL A   1      15.468  31.886   0.453  1.00  0.00    +0.000 C 
ATOM     87  F15 UNL A   1      15.837  30.832  -0.288  1.00  0.00    +0.000 F 
ENDBRANCH   76   77
TORSDOF 20
ENDMDL
MODEL 3
REMARK VINA RESULT:     -11.2     35.552     42.338
ROOT
ATOM    134  H36 UNL A   1       6.839  13.081  41.819  1.00  0.00    +0.000 H 
ATOM    135  H37 UNL A   1       5.088  14.727  42.970  1.00  0.00    +0.000 H 
ATOM    136  H38 UNL A   1       5.135  15.399  39.008  1.00  0.00    +0.000 H 
ATOM    137  H39 UNL A   1      -2.428  12.061  39.929  1.00  0.00    +0.000 H 
ATOM    138  H40 UNL A   1      -1.015  10.210  40.963  1.00  0.00    +0.000 H 
ATOM    139  H41 UNL A   1       1.599  13.029  39.386  1.00  0.00    +0.000 H 
ATOM    140  H42 UNL A   1       1.229  14.798  36.762  1.00  0.00    +0.000 H 
ATOM    141  H43 UNL A   1       3.420  15.376  37.990  1.00  0.00    +0.000 H 
ATOM    142  H44 UNL A   1       5.567  10.033  37.773  1.00  0.00    +0.000 H 
ATOM    143  H45 UNL A   1       3.267   9.000  38.279  1.00  0.00    +0.000 H 
ATOM     40  C34 UNL A   1       1.806  10.430  40.278  1.00  0.00    +0.000 C 
ATOM     41  C35 UNL A   1       3.130  10.775  39.684  1.00  0.00    +0.000 C 
ATOM     42  N5  UNL A   1       3.925  11.747  40.007  1.00  0.00    +0.000 N 
ATOM     43  C36 UNL A   1       5.005  11.668  39.128  1.00  0.00    +0.000 C 
ATOM     44  C37 UNL A   1       5.857  12.712  38.929  1.00  0.00    +0.000 C 
ATOM     56  C44 UNL A   1       5.805  13.662  40.004  1.00  0.00    +0.000 C 
ATOM     57  C45 UNL A   1       6.099  13.629  41.352  1.00  0.00    +0.000 C 
ATOM     58  C46 UNL A   1       5.165  14.517  41.962  1.00  0.00    +0.000 C 
ATOM     59  C47 UNL A   1       4.373  15.048  40.944  1.00  0.00    +0.000 C 
ATOM     60  N6  UNL A   1       5.110  14.828  39.810  1.00  0.00    +0.000 N 
ATOM     61  C48 UNL A   1       3.031  15.576  40.933  1.00  0.00    +0.000 C 
ATOM     73  C55 UNL A   1       2.229  15.616  39.831  1.00  0.00    +0.000 C 
ATOM     74  N7  UNL A   1       0.849  15.611  39.956  1.00  0.00    +0.000 N 
ATOM     75  C56 UNL A   1       0.415  15.065  38.854  1.00  0.00    +0.000 C 
ATOM     76  C57 UNL A   1      -0.794  14.208  38.777  1.00  0.00    +0.000 C 
ATOM     88  C64 UNL A   1      -0.513  13.050  39.419  1.00  0.00    +0.000 C 
ATOM     89  C65 UNL A   1      -1.397  12.028  39.941  1.00  0.00    +0.000 C 
ATOM     90  C66 UNL A   1      -0.649  11.023  40.445  1.00  0.00    +0.000 C 
ATOM     91  C67 UNL A   1       0.760  11.269  40.142  1.00  0.00    +0.000 C 
ATOM     92  N8  UNL A   1       0.775  12.537  39.609  1.00  0.00    +0.000 N 
ATOM     93  C68 UNL A   1       1.371  15.015  37.761  1.00  0.00    +0.000 C 
ATOM     94  C69 UNL A   1       2.485  15.334  38.423  1.00  0.00    +0.000 C 
ATOM     95  C70 UNL A   1       4.857  10.428  38.409  1.00  0.00    +0.000 C 
ATOM     96  C71 UNL A   1       3.681   9.859  38.676  1.00  0.00    +0.000 C 
ENDROOT
BRANCH   40   39
ATOM     97  C72 UNL A   1       2.141   8.945  42.276  1.00  0.00    +0.000 C 
ATOM     98  C73 UNL A   1       2.099   7.663  42.821  1.00  0.00    +0.000 C 
ATOM     36  C30 UNL A   1       1.624   6.567  42.076  1.00  0.00    +0.000 C 
ATOM     37  C31 UNL A   1       1.105   6.811  40.807  1.00  0.00    +0.000 C 
ATOM    132  H34 UNL A   1       0.656   6.044  40.281  1.00  0.00    +0.000 H 
ATOM     38  C32 UNL A   1       1.186   8.076  40.240  1.00  0.00    +0.000 C 
ATOM    133  H35 UNL A   1       0.836   8.233  39.282  1.00  0.00    +0.000 H 
ATOM     39  C33 UNL A   1       1.738   9.138  40.959  1.00  0.00    +0.000 C 
ATOM    144  H46 UNL A   1       2.467   9.743  42.844  1.00  0.00    +0.000 H 
ATOM    145  H47 UNL A   1       2.424   7.514  43.789  1.00  0.00    +0.000 H 
BRANCH   36   34
ATOM     34  C29 UNL A   1       1.782   5.222  42.697  1.00  0.00    +0.000 C 
ATOM     35  O2  UNL A   1       1.184   4.987  43.752  1.00  0.00    +0.000 O 
BRANCH   34   33
ATOM     33  N4  UNL A   1       2.594   4.228  42.223  1.00  0.00    +0.000 N 
ATOM    131  H33 UNL A   1       3.551   4.431  42.340  1.00  0.00    +0.000 H 
BRANCH   33   32
ATOM    129  H31 UNL A   1       3.313   2.511  41.354  1.00  0.00    +0.000 H 
ATOM    130  H32 UNL A   1       1.802   2.352  42.281  1.00  0.00    +0.000 H 
ATOM     32  C28 UNL A   1       2.365   2.945  41.590  1.00  0.00    +0.000 C 
BRANCH   32   31
ATOM    127  H29 UNL A   1       1.637   4.018  39.906  1.00  0.00    +0.000 H 
ATOM     31  C27 UNL A   1       1.539   3.029  40.302  1.00  0.00    +0.000 C 
ATOM    128  H30 UNL A   1       1.921   2.276  39.645  1.00  0.00    +0.000 H 
BRANCH   31   30
ATOM    126  H28 UNL A   1      -0.080   2.463  41.513  1.00  0.00    +0.000 H 
ATOM    125  H27 UNL A   1      -0.222   1.953  39.804  1.00  0.00    +0.000 H 
ATOM     30  C26 UNL A   1       0.047   2.733  40.485  1.00  0.00    +0.000 C 
BRANCH   30   29
ATOM    123  H25 UNL A   1      -1.886   3.609  40.434  1.00  0.00    +0.000 H 
ATOM    124  H26 UNL A   1      -0.552   4.707  40.886  1.00  0.00    +0.000 H 
ATOM     29  C25 UNL A   1      -0.883   3.923  40.237  1.00  0.00    +0.000 C 
BRANCH   29   28
ATOM    121  H23 UNL A   1      -1.048   5.537  38.858  1.00  0.00    +0.000 H 
ATOM    122  H24 UNL A   1       0.150   4.288  38.435  1.00  0.00    +0.000 H 
ATOM     28  C24 UNL A   1      -0.831   4.489  38.812  1.00  0.00    +0.000 C 
BRANCH   28   27
ATOM     27  C23 UNL A   1      -1.817   3.838  37.845  1.00  0.00    +0.000 C 
ATOM    119  H21 UNL A   1      -2.395   3.111  38.376  1.00  0.00    +0.000 H 
ATOM    120  H22 UNL A   1      -2.446   4.604  37.443  1.00  0.00    +0.000 H 
BRANCH   27   26
ATOM     26  N3  UNL A   1      -1.131   3.186  36.746  1.00  0.00    +0.000 N 
ATOM    118  H20 UNL A   1      -0.622   2.379  36.987  1.00  0.00    +0.000 H 
BRANCH   26   24
ATOM     25  O1  UNL A   1      -2.100   3.320  34.748  1.00  0.00    +0.000 O 
ATOM     24  C22 UNL A   1      -1.091   3.532  35.426  1.00  0.00    +0.000 C 
BRANCH   24   23
ATOM    116  H18 UNL A   1       0.820   3.250  34.564  1.00  0.00    +0.000 H 
ATOM    117  H19 UNL A   1      -0.119   4.623  33.927  1.00  0.00    +0.000 H 
ATOM     23  C21 UNL A   1       0.179   4.075  34.796  1.00  0.00    +0.000 C 
BRANCH   23   22
ATOM      2  C2  UNL A   1       0.531   9.096  36.283  1.00  0.00    +0.000 C 
ATOM      3  C3  UNL A   1      -0.498   8.479  35.572  1.00  0.00    +0.000 C 
ATOM      4  C4  UNL A   1      -0.493   7.101  35.337  1.00  0.00    +0.000 C 
ATOM      5  C5  UNL A   1       0.591   6.342  35.812  1.00  0.00    +0.000 C 
ATOM      6  C6  UNL A   1       1.614   6.925  36.563  1.00  0.00    +0.000 C 
ATOM      7  C7  UNL A   1       1.582   8.319  36.795  1.00  0.00    +0.000 C 
ATOM    102  H4  UNL A   1      -1.280   9.050  35.215  1.00  0.00    +0.000 H 
ATOM    104  H6  UNL A   1       2.333   8.766  37.343  1.00  0.00    +0.000 H 
ATOM    103  H5  UNL A   1      -1.268   6.651  34.824  1.00  0.00    +0.000 H 
ATOM      8  C8  UNL A   1       2.512   5.881  36.932  1.00  0.00    +0.000 C 
ATOM     20  C19 UNL A   1       2.032   4.691  36.403  1.00  0.00    +0.000 C 
ATOM     22  N2  UNL A   1       0.917   5.004  35.645  1.00  0.00    +0.000 N 
BRANCH    2    1
ATOM      1  C1  UNL A   1       0.506  10.583  36.482  1.00  0.00    +0.000 C 
ATOM     99  H1  UNL A   1      -0.403  10.981  36.082  1.00  0.00    +0.000 H 
ATOM    100  H2  UNL A   1       1.341  11.025  35.979  1.00  0.00    +0.000 H 
ATOM    101  H3  UNL A   1       0.562  10.804  37.528  1.00  0.00    +0.000 H 
ENDBRANCH    2    1
BRANCH    8    9
ATOM      9  C9  UNL A   1       3.738   5.960  37.717  1.00  0.00    +0.000 C 
ATOM     10  C10 UNL A   1       3.722   5.439  39.008  1.00  0.00    +0.000 C 
ATOM     11  C11 UNL A   1       4.896   5.468  39.726  1.00  0.00    +0.000 C 
ATOM    105  H7  UNL A   1       2.859   5.044  39.413  1.00  0.00    +0.000 H 
ATOM     13  C12 UNL A   1       6.089   6.485  38.004  1.00  0.00    +0.000 C 
ATOM    106  H8  UNL A   1       4.889   5.086  40.684  1.00  0.00    +0.000 H 
ATOM     12  N1  UNL A   1       6.056   5.968  39.250  1.00  0.00    +0.000 N 
ATOM     14  C13 UNL A   1       7.286   7.001  37.482  1.00  0.00    +0.000 C 
ATOM    112  H14 UNL A   1       4.170   7.122  35.312  1.00  0.00    +0.000 H 
ATOM     18  C17 UNL A   1       5.016   7.093  35.903  1.00  0.00    +0.000 C 
ATOM     19  C18 UNL A   1       4.933   6.517  37.191  1.00  0.00    +0.000 C 
ATOM     17  C16 UNL A   1       6.201   7.618  35.407  1.00  0.00    +0.000 C 
ATOM    111  H13 UNL A   1       6.235   8.040  34.466  1.00  0.00    +0.000 H 
ATOM     16  C15 UNL A   1       7.337   7.568  36.196  1.00  0.00    +0.000 C 
ATOM    110  H12 UNL A   1       8.227   7.950  35.839  1.00  0.00    +0.000 H 
BRANCH   14   15
ATOM    107  H9  UNL A   1       9.356   6.582  37.657  1.00  0.00    +0.000 H 
ATOM    108  H10 UNL A   1       8.444   6.336  39.128  1.00  0.00    +0.000 H 
ATOM    109  H11 UNL A   1       8.818   7.957  38.591  1.00  0.00    +0.000 H 
ATOM     15  C14 UNL A   1       8.569   6.967  38.272  1.00  0.00    +0.000 C 
ENDBRANCH   14   15
ENDBRANCH    8    9
BRANCH   20   21
ATOM    113  H15 UNL A   1       1.954   2.727  37.165  1.00  0.00    +0.000 H 
ATOM    114  H16 UNL A   1       3.569   3.362  36.963  1.00  0.00    +0.000 H 
ATOM    115  H17 UNL A   1       2.647   2.856  35.567  1.00  0.00    +0.000 H 
ATOM     21  C20 UNL A   1       2.590   3.312  36.534  1.00  0.00    +0.000 C 
ENDBRANCH   20   21
ENDBRANCH   23   22
ENDBRANCH   24   23
ENDBRANCH   26   24
ENDBRANCH   27   26
ENDBRANCH   28   27
ENDBRANCH   29   28
ENDBRANCH   30   29
ENDBRANCH   31   30
ENDBRANCH   32   31
ENDBRANCH   33   32
ENDBRANCH   34   33
ENDBRANCH   36   34
ENDBRANCH   40   39
BRANCH   44   45
ATOM     45  C38 UNL A   1       6.518  13.032  37.609  1.00  0.00    +0.000 C 
ATOM     46  C39 UNL A   1       7.886  13.369  37.578  1.00  0.00    +0.000 C 
ATOM     47  F1  UNL A   1       8.664  13.174  38.654  1.00  0.00    +0.000 F 
ATOM     48  C40 UNL A   1       8.468  13.999  36.474  1.00  0.00    +0.000 C 
ATOM     49  F2  UNL A   1       9.741  14.410  36.536  1.00  0.00    +0.000 F 
ATOM     50  C41 UNL A   1       7.718  14.262  35.342  1.00  0.00    +0.000 C 
ATOM     51  F3  UNL A   1       8.257  14.917  34.306  1.00  0.00    +0.000 F 
ATOM     52  C42 UNL A   1       6.392  13.888  35.309  1.00  0.00    +0.000 C 
ATOM     53  F4  UNL A   1       5.644  14.152  34.228  1.00  0.00    +0.000 F 
ATOM     54  C43 UNL A   1       5.796  13.307  36.429  1.00  0.00    +0.000 C 
ATOM     55  F5  UNL A   1       4.472  13.129  36.349  1.00  0.00    +0.000 F 
ENDBRANCH   44   45
BRANCH   61   62
ATOM     65  C51 UNL A   1       1.287  15.083  44.310  1.00  0.00    +0.000 C 
ATOM     66  F7  UNL A   1       0.694  14.109  45.017  1.00  0.00    +0.000 F 
ATOM     67  C52 UNL A   1       1.448  16.341  44.870  1.00  0.00    +0.000 C 
ATOM     68  F8  UNL A   1       1.021  16.581  46.118  1.00  0.00    +0.000 F 
ATOM     69  C53 UNL A   1       2.082  17.340  44.149  1.00  0.00    +0.000 C 
ATOM     70  F9  UNL A   1       2.288  18.540  44.707  1.00  0.00    +0.000 F 
ATOM     71  C54 UNL A   1       2.537  17.089  42.857  1.00  0.00    +0.000 C 
ATOM     72  F10 UNL A   1       3.173  18.070  42.197  1.00  0.00    +0.000 F 
ATOM     62  C49 UNL A   1       2.392  15.826  42.269  1.00  0.00    +0.000 C 
ATOM     63  C50 UNL A   1       1.776  14.820  43.032  1.00  0.00    +0.000 C 
ATOM     64  F6  UNL A   1       1.698  13.562  42.573  1.00  0.00    +0.000 F 
ENDBRANCH   61   62
BRANCH   76   77
ATOM     77  C58 UNL A   1      -1.898  14.478  37.828  1.00  0.00    +0.000 C 
ATOM     78  C59 UNL A   1      -2.009  13.751  36.631  1.00  0.00    +0.000 C 
ATOM     79  F11 UNL A   1      -0.998  12.972  36.219  1.00  0.00    +0.000 F 
ATOM     80  C60 UNL A   1      -3.188  13.752  35.881  1.00  0.00    +0.000 C 
ATOM     81  F12 UNL A   1      -3.282  12.989  34.784  1.00  0.00    +0.000 F 
ATOM     82  C61 UNL A   1      -4.284  14.489  36.299  1.00  0.00    +0.000 C 
ATOM     83  F13 UNL A   1      -5.437  14.437  35.617  1.00  0.00    +0.000 F 
ATOM     84  C62 UNL A   1      -4.195  15.245  37.453  1.00  0.00    +0.000 C 
ATOM     85  F14 UNL A   1      -5.258  15.936  37.886  1.00  0.00    +0.000 F 
ATOM     86  C63 UNL A   1      -3.021  15.238  38.207  1.00  0.00    +0.000 C 
ATOM     87  F15 UNL A   1      -3.040  15.911  39.366  1.00  0.00    +0.000 F 
ENDBRANCH   76   77
TORSDOF 20
ENDMDL
MODEL 4
REMARK VINA RESULT:     -11.0     33.715     40.390
ROOT
ATOM    134  H36 UNL A   1       6.922  29.578  -4.455  1.00  0.00    +0.000 H 
ATOM    135  H37 UNL A   1       9.345  28.507  -4.736  1.00  0.00    +0.000 H 
ATOM    136  H38 UNL A   1       9.672  32.510  -4.595  1.00  0.00    +0.000 H 
ATOM    137  H39 UNL A   1      13.214  30.406   2.632  1.00  0.00    +0.000 H 
ATOM    138  H40 UNL A   1      10.953  29.263   2.914  1.00  0.00    +0.000 H 
ATOM    139  H41 UNL A   1      10.796  31.464  -0.606  1.00  0.00    +0.000 H 
ATOM    140  H42 UNL A   1      12.183  34.263  -1.236  1.00  0.00    +0.000 H 
ATOM    141  H43 UNL A   1      10.932  33.346  -3.293  1.00  0.00    +0.000 H 
ATOM    142  H44 UNL A   1       5.805  33.015  -0.684  1.00  0.00    +0.000 H 
ATOM    143  H45 UNL A   1       6.874  32.150   1.489  1.00  0.00    +0.000 H 
ATOM     40  C34 UNL A   1       8.955  30.240   1.037  1.00  0.00    +0.000 C 
ATOM     41  C35 UNL A   1       8.169  31.002   0.023  1.00  0.00    +0.000 C 
ATOM     42  N5  UNL A   1       8.212  30.896  -1.269  1.00  0.00    +0.000 N 
ATOM     43  C36 UNL A   1       7.328  31.855  -1.762  1.00  0.00    +0.000 C 
ATOM     44  C37 UNL A   1       7.364  32.280  -3.055  1.00  0.00    +0.000 C 
ATOM     56  C44 UNL A   1       8.048  31.349  -3.908  1.00  0.00    +0.000 C 
ATOM     57  C45 UNL A   1       7.831  30.045  -4.303  1.00  0.00    +0.000 C 
ATOM     58  C46 UNL A   1       9.130  29.479  -4.459  1.00  0.00    +0.000 C 
ATOM     59  C47 UNL A   1      10.056  30.480  -4.167  1.00  0.00    +0.000 C 
ATOM     60  N6  UNL A   1       9.333  31.638  -4.290  1.00  0.00    +0.000 N 
ATOM     61  C48 UNL A   1      11.415  30.436  -3.688  1.00  0.00    +0.000 C 
ATOM     73  C55 UNL A   1      12.025  31.451  -3.010  1.00  0.00    +0.000 C 
ATOM     74  N7  UNL A   1      13.066  31.194  -2.132  1.00  0.00    +0.000 N 
ATOM     75  C56 UNL A   1      13.015  32.161  -1.259  1.00  0.00    +0.000 C 
ATOM     76  C57 UNL A   1      13.364  32.000   0.174  1.00  0.00    +0.000 C 
ATOM     88  C64 UNL A   1      12.406  31.232   0.742  1.00  0.00    +0.000 C 
ATOM     89  C65 UNL A   1      12.414  30.489   1.986  1.00  0.00    +0.000 C 
ATOM     90  C66 UNL A   1      11.200  29.924   2.161  1.00  0.00    +0.000 C 
ATOM     91  C67 UNL A   1      10.291  30.392   1.116  1.00  0.00    +0.000 C 
ATOM     92  N8  UNL A   1      11.101  31.096   0.255  1.00  0.00    +0.000 N 
ATOM     93  C68 UNL A   1      12.239  33.323  -1.658  1.00  0.00    +0.000 C 
ATOM     94  C69 UNL A   1      11.619  32.823  -2.729  1.00  0.00    +0.000 C 
ATOM     95  C70 UNL A   1       6.613  32.375  -0.624  1.00  0.00    +0.000 C 
ATOM     96  C71 UNL A   1       7.133  31.920   0.516  1.00  0.00    +0.000 C 
ENDROOT
BRANCH   40   39
ATOM     97  C72 UNL A   1       7.430  28.294   1.479  1.00  0.00    +0.000 C 
ATOM     98  C73 UNL A   1       6.664  27.571   2.390  1.00  0.00    +0.000 C 
ATOM     36  C30 UNL A   1       6.655  27.898   3.760  1.00  0.00    +0.000 C 
ATOM     37  C31 UNL A   1       7.509  28.907   4.199  1.00  0.00    +0.000 C 
ATOM    132  H34 UNL A   1       7.599  29.097   5.211  1.00  0.00    +0.000 H 
ATOM     38  C32 UNL A   1       8.239  29.662   3.291  1.00  0.00    +0.000 C 
ATOM    133  H35 UNL A   1       8.834  30.435   3.627  1.00  0.00    +0.000 H 
ATOM     39  C33 UNL A   1       8.173  29.381   1.925  1.00  0.00    +0.000 C 
ATOM    144  H46 UNL A   1       7.446  28.025   0.482  1.00  0.00    +0.000 H 
ATOM    145  H47 UNL A   1       6.091  26.781   2.056  1.00  0.00    +0.000 H 
BRANCH   36   34
ATOM     34  C29 UNL A   1       5.675  27.168   4.612  1.00  0.00    +0.000 C 
ATOM     35  O2  UNL A   1       4.533  27.625   4.720  1.00  0.00    +0.000 O 
BRANCH   34   33
ATOM     33  N4  UNL A   1       5.954  26.048   5.347  1.00  0.00    +0.000 N 
ATOM    131  H33 UNL A   1       5.153  25.660   5.769  1.00  0.00    +0.000 H 
BRANCH   33   32
ATOM    129  H31 UNL A   1       7.023  24.294   5.317  1.00  0.00    +0.000 H 
ATOM    130  H32 UNL A   1       7.964  25.793   5.134  1.00  0.00    +0.000 H 
ATOM     32  C28 UNL A   1       7.161  25.302   5.643  1.00  0.00    +0.000 C 
BRANCH   32   31
ATOM    127  H29 UNL A   1       6.927  26.013   7.632  1.00  0.00    +0.000 H 
ATOM     31  C27 UNL A   1       7.526  25.282   7.131  1.00  0.00    +0.000 C 
ATOM    128  H30 UNL A   1       7.345  24.285   7.476  1.00  0.00    +0.000 H 
BRANCH   31   30
ATOM    126  H28 UNL A   1       9.419  24.679   7.807  1.00  0.00    +0.000 H 
ATOM    125  H27 UNL A   1       9.036  26.398   8.123  1.00  0.00    +0.000 H 
ATOM     30  C26 UNL A   1       8.998  25.586   7.426  1.00  0.00    +0.000 C 
BRANCH   30   29
ATOM    123  H25 UNL A   1       9.171  26.177   5.394  1.00  0.00    +0.000 H 
ATOM    124  H26 UNL A   1      10.426  26.814   6.494  1.00  0.00    +0.000 H 
ATOM     29  C25 UNL A   1       9.837  25.968   6.205  1.00  0.00    +0.000 C 
BRANCH   29   28
ATOM    121  H23 UNL A   1      10.272  24.103   5.275  1.00  0.00    +0.000 H 
ATOM    122  H24 UNL A   1      11.513  25.365   5.077  1.00  0.00    +0.000 H 
ATOM     28  C24 UNL A   1      10.827  24.889   5.745  1.00  0.00    +0.000 C 
BRANCH   28   27
ATOM     27  C23 UNL A   1      11.657  24.282   6.873  1.00  0.00    +0.000 C 
ATOM    119  H21 UNL A   1      11.595  24.918   7.731  1.00  0.00    +0.000 H 
ATOM    120  H22 UNL A   1      11.266  23.311   7.091  1.00  0.00    +0.000 H 
BRANCH   27   26
ATOM     26  N3  UNL A   1      13.048  24.140   6.490  1.00  0.00    +0.000 N 
ATOM    118  H20 UNL A   1      13.449  24.928   6.057  1.00  0.00    +0.000 H 
BRANCH   26   24
ATOM     25  O1  UNL A   1      14.805  23.174   7.456  1.00  0.00    +0.000 O 
ATOM     24  C22 UNL A   1      13.882  23.069   6.644  1.00  0.00    +0.000 C 
BRANCH   24   23
ATOM    116  H18 UNL A   1      14.527  21.153   6.022  1.00  0.00    +0.000 H 
ATOM    117  H19 UNL A   1      12.765  21.420   6.001  1.00  0.00    +0.000 H 
ATOM     23  C21 UNL A   1      13.730  21.828   5.784  1.00  0.00    +0.000 C 
BRANCH   23   22
ATOM      2  C2  UNL A   1      16.892  22.983   1.758  1.00  0.00    +0.000 C 
ATOM      3  C3  UNL A   1      17.249  22.565   3.040  1.00  0.00    +0.000 C 
ATOM      4  C4  UNL A   1      16.281  22.198   3.979  1.00  0.00    +0.000 C 
ATOM      5  C5  UNL A   1      14.925  22.279   3.614  1.00  0.00    +0.000 C 
ATOM      6  C6  UNL A   1      14.540  22.653   2.325  1.00  0.00    +0.000 C 
ATOM      7  C7  UNL A   1      15.538  23.011   1.391  1.00  0.00    +0.000 C 
ATOM    102  H4  UNL A   1      18.247  22.526   3.300  1.00  0.00    +0.000 H 
ATOM    104  H6  UNL A   1      15.269  23.295   0.436  1.00  0.00    +0.000 H 
ATOM    103  H5  UNL A   1      16.555  21.876   4.920  1.00  0.00    +0.000 H 
ATOM      8  C8  UNL A   1      13.117  22.578   2.273  1.00  0.00    +0.000 C 
ATOM     20  C19 UNL A   1      12.660  22.169   3.519  1.00  0.00    +0.000 C 
ATOM     22  N2  UNL A   1      13.764  22.086   4.349  1.00  0.00    +0.000 N 
BRANCH    2    1
ATOM      1  C1  UNL A   1      17.960  23.404   0.792  1.00  0.00    +0.000 C 
ATOM     99  H1  UNL A   1      18.893  23.494   1.308  1.00  0.00    +0.000 H 
ATOM    100  H2  UNL A   1      17.700  24.347   0.359  1.00  0.00    +0.000 H 
ATOM    101  H3  UNL A   1      18.051  22.669   0.018  1.00  0.00    +0.000 H 
ENDBRANCH    2    1
BRANCH    8    9
ATOM      9  C9  UNL A   1      12.222  22.864   1.158  1.00  0.00    +0.000 C 
ATOM     10  C10 UNL A   1      11.990  21.852   0.230  1.00  0.00    +0.000 C 
ATOM     11  C11 UNL A   1      11.104  22.110  -0.791  1.00  0.00    +0.000 C 
ATOM    105  H7  UNL A   1      12.465  20.939   0.307  1.00  0.00    +0.000 H 
ATOM     13  C12 UNL A   1      10.670  24.277  -0.057  1.00  0.00    +0.000 C 
ATOM    106  H8  UNL A   1      10.930  21.364  -1.483  1.00  0.00    +0.000 H 
ATOM     12  N1  UNL A   1      10.451  23.281  -0.941  1.00  0.00    +0.000 N 
ATOM     14  C13 UNL A   1       9.994  25.501  -0.187  1.00  0.00    +0.000 C 
ATOM    112  H14 UNL A   1      12.450  25.088   2.682  1.00  0.00    +0.000 H 
ATOM     18  C17 UNL A   1      11.785  25.201   1.901  1.00  0.00    +0.000 C 
ATOM     19  C18 UNL A   1      11.573  24.118   1.019  1.00  0.00    +0.000 C 
ATOM     17  C16 UNL A   1      11.125  26.413   1.750  1.00  0.00    +0.000 C 
ATOM    111  H13 UNL A   1      11.303  27.192   2.404  1.00  0.00    +0.000 H 
ATOM     16  C15 UNL A   1      10.227  26.561   0.708  1.00  0.00    +0.000 C 
ATOM    110  H12 UNL A   1       9.725  27.455   0.586  1.00  0.00    +0.000 H 
BRANCH   14   15
ATOM    107  H9  UNL A   1       8.754  26.776  -1.339  1.00  0.00    +0.000 H 
ATOM    108  H10 UNL A   1       8.095  25.179  -1.071  1.00  0.00    +0.000 H 
ATOM    109  H11 UNL A   1       9.395  25.408  -2.217  1.00  0.00    +0.000 H 
ATOM     15  C14 UNL A   1       8.987  25.733  -1.283  1.00  0.00    +0.000 C 
ENDBRANCH   14   15
ENDBRANCH    8    9
BRANCH   20   21
ATOM    113  H15 UNL A   1      10.623  22.698   3.626  1.00  0.00    +0.000 H 
ATOM    114  H16 UNL A   1      11.229  21.862   5.036  1.00  0.00    +0.000 H 
ATOM    115  H17 UNL A   1      10.921  20.978   3.559  1.00  0.00    +0.000 H 
ATOM     21  C20 UNL A   1      11.259  21.909   3.967  1.00  0.00    +0.000 C 
ENDBRANCH   20   21
ENDBRANCH   23   22
ENDBRANCH   24   23
ENDBRANCH   26   24
ENDBRANCH   27   26
ENDBRANCH   28   27
ENDBRANCH   29   28
ENDBRANCH   30   29
ENDBRANCH   31   30
ENDBRANCH   32   31
ENDBRANCH   33   32
ENDBRANCH   34   33
ENDBRANCH   36   34
ENDBRANCH   40   39
BRANCH   44   45
ATOM     45  C38 UNL A   1       7.049  33.689  -3.498  1.00  0.00    +0.000 C 
ATOM     46  C39 UNL A   1       5.977  33.918  -4.384  1.00  0.00    +0.000 C 
ATOM     47  F1  UNL A   1       5.086  32.950  -4.645  1.00  0.00    +0.000 F 
ATOM     48  C40 UNL A   1       5.846  35.116  -5.092  1.00  0.00    +0.000 C 
ATOM     49  F2  UNL A   1       4.881  35.244  -6.013  1.00  0.00    +0.000 F 
ATOM     50  C41 UNL A   1       6.747  36.148  -4.898  1.00  0.00    +0.000 C 
ATOM     51  F3  UNL A   1       6.658  37.273  -5.618  1.00  0.00    +0.000 F 
ATOM     52  C42 UNL A   1       7.772  35.986  -3.992  1.00  0.00    +0.000 C 
ATOM     53  F4  UNL A   1       8.666  36.967  -3.804  1.00  0.00    +0.000 F 
ATOM     54  C43 UNL A   1       7.936  34.772  -3.323  1.00  0.00    +0.000 C 
ATOM     55  F5  UNL A   1       9.050  34.665  -2.589  1.00  0.00    +0.000 F 
ENDBRANCH   44   45
BRANCH   61   62
ATOM     65  C51 UNL A   1      12.699  26.984  -2.628  1.00  0.00    +0.000 C 
ATOM     66  F7  UNL A   1      12.759  26.212  -1.532  1.00  0.00    +0.000 F 
ATOM     67  C52 UNL A   1      13.146  26.490  -3.844  1.00  0.00    +0.000 C 
ATOM     68  F8  UNL A   1      13.627  25.241  -3.926  1.00  0.00    +0.000 F 
ATOM     69  C53 UNL A   1      13.061  27.278  -4.980  1.00  0.00    +0.000 C 
ATOM     70  F9  UNL A   1      13.442  26.786  -6.166  1.00  0.00    +0.000 F 
ATOM     71  C54 UNL A   1      12.551  28.571  -4.899  1.00  0.00    +0.000 C 
ATOM     72  F10 UNL A   1      12.456  29.298  -6.024  1.00  0.00    +0.000 F 
ATOM     62  C49 UNL A   1      12.088  29.093  -3.684  1.00  0.00    +0.000 C 
ATOM     63  C50 UNL A   1      12.152  28.263  -2.552  1.00  0.00    +0.000 C 
ATOM     64  F6  UNL A   1      11.632  28.659  -1.381  1.00  0.00    +0.000 F 
ENDBRANCH   61   62
BRANCH   76   77
ATOM     77  C58 UNL A   1      14.356  32.867   0.849  1.00  0.00    +0.000 C 
ATOM     78  C59 UNL A   1      13.941  33.882   1.728  1.00  0.00    +0.000 C 
ATOM     79  F11 UNL A   1      12.648  34.234   1.789  1.00  0.00    +0.000 F 
ATOM     80  C60 UNL A   1      14.833  34.495   2.612  1.00  0.00    +0.000 C 
ATOM     81  F12 UNL A   1      14.387  35.407   3.485  1.00  0.00    +0.000 F 
ATOM     82  C61 UNL A   1      16.167  34.120   2.634  1.00  0.00    +0.000 C 
ATOM     83  F13 UNL A   1      17.008  34.658   3.527  1.00  0.00    +0.000 F 
ATOM     84  C62 UNL A   1      16.615  33.151   1.756  1.00  0.00    +0.000 C 
ATOM     85  F14 UNL A   1      17.895  32.755   1.789  1.00  0.00    +0.000 F 
ATOM     86  C63 UNL A   1      15.723  32.532   0.879  1.00  0.00    +0.000 C 
ATOM     87  F15 UNL A   1      16.204  31.530   0.130  1.00  0.00    +0.000 F 
ENDBRANCH   76   77
TORSDOF 20
ENDMDL
MODEL 5
REMARK VINA RESULT:     -11.0     20.130     27.013
ROOT
ATOM    134  H36 UNL A   1      44.371  20.746  44.142  1.00  0.00    +0.000 H 
ATOM    135  H37 UNL A   1      43.631  18.657  42.664  1.00  0.00    +0.000 H 
ATOM    136  H38 UNL A   1      47.349  18.043  44.060  1.00  0.00    +0.000 H 
ATOM    137  H39 UNL A   1      43.115  12.302  48.338  1.00  0.00    +0.000 H 
ATOM    138  H40 UNL A   1      41.795  14.382  48.991  1.00  0.00    +0.000 H 
ATOM    139  H41 UNL A   1      45.064  15.641  46.757  1.00  0.00    +0.000 H 
ATOM    140  H42 UNL A   1      47.995  14.392  46.690  1.00  0.00    +0.000 H 
ATOM    141  H43 UNL A   1      47.764  16.351  45.031  1.00  0.00    +0.000 H 
ATOM    142  H44 UNL A   1      46.203  20.221  49.005  1.00  0.00    +0.000 H 
ATOM    143  H45 UNL A   1      44.713  18.505  50.208  1.00  0.00    +0.000 H 
ATOM     40  C34 UNL A   1      43.224  16.851  48.413  1.00  0.00    +0.000 C 
ATOM     41  C35 UNL A   1      44.235  17.895  48.077  1.00  0.00    +0.000 C 
ATOM     42  N5  UNL A   1      44.587  18.323  46.904  1.00  0.00    +0.000 N 
ATOM     43  C36 UNL A   1      45.595  19.261  47.125  1.00  0.00    +0.000 C 
ATOM     44  C37 UNL A   1      46.443  19.660  46.137  1.00  0.00    +0.000 C 
ATOM     56  C44 UNL A   1      45.914  19.387  44.830  1.00  0.00    +0.000 C 
ATOM     57  C45 UNL A   1      44.816  19.815  44.112  1.00  0.00    +0.000 C 
ATOM     58  C46 UNL A   1      44.429  18.696  43.318  1.00  0.00    +0.000 C 
ATOM     59  C47 UNL A   1      45.327  17.664  43.590  1.00  0.00    +0.000 C 
ATOM     60  N6  UNL A   1      46.404  18.307  44.142  1.00  0.00    +0.000 N 
ATOM     61  C48 UNL A   1      45.212  16.229  43.506  1.00  0.00    +0.000 C 
ATOM     73  C55 UNL A   1      45.968  15.354  44.229  1.00  0.00    +0.000 C 
ATOM     74  N7  UNL A   1      45.493  14.087  44.531  1.00  0.00    +0.000 N 
ATOM     75  C56 UNL A   1      46.092  13.762  45.643  1.00  0.00    +0.000 C 
ATOM     76  C57 UNL A   1      45.469  12.935  46.706  1.00  0.00    +0.000 C 
ATOM     88  C64 UNL A   1      44.488  13.675  47.273  1.00  0.00    +0.000 C 
ATOM     89  C65 UNL A   1      43.362  13.272  48.091  1.00  0.00    +0.000 C 
ATOM     90  C66 UNL A   1      42.690  14.378  48.479  1.00  0.00    +0.000 C 
ATOM     91  C67 UNL A   1      43.429  15.567  48.058  1.00  0.00    +0.000 C 
ATOM     92  N8  UNL A   1      44.441  15.074  47.268  1.00  0.00    +0.000 N 
ATOM     93  C68 UNL A   1      47.265  14.552  45.977  1.00  0.00    +0.000 C 
ATOM     94  C69 UNL A   1      47.126  15.543  45.094  1.00  0.00    +0.000 C 
ATOM     95  C70 UNL A   1      45.638  19.488  48.547  1.00  0.00    +0.000 C 
ATOM     96  C71 UNL A   1      44.852  18.626  49.193  1.00  0.00    +0.000 C 
ENDROOT
BRANCH   40   39
ATOM     97  C72 UNL A   1      42.010  18.546  49.813  1.00  0.00    +0.000 C 
ATOM     98  C73 UNL A   1      40.881  18.880  50.558  1.00  0.00    +0.000 C 
ATOM     36  C30 UNL A   1      39.774  18.012  50.636  1.00  0.00    +0.000 C 
ATOM     37  C31 UNL A   1      39.797  16.849  49.870  1.00  0.00    +0.000 C 
ATOM    132  H34 UNL A   1      38.958  16.247  49.828  1.00  0.00    +0.000 H 
ATOM     38  C32 UNL A   1      40.936  16.488  49.163  1.00  0.00    +0.000 C 
ATOM    133  H35 UNL A   1      40.954  15.602  48.635  1.00  0.00    +0.000 H 
ATOM     39  C33 UNL A   1      42.059  17.318  49.163  1.00  0.00    +0.000 C 
ATOM    144  H46 UNL A   1      42.802  19.205  49.744  1.00  0.00    +0.000 H 
ATOM    145  H47 UNL A   1      40.855  19.779  51.063  1.00  0.00    +0.000 H 
BRANCH   36   34
ATOM     34  C29 UNL A   1      38.697  18.393  51.592  1.00  0.00    +0.000 C 
ATOM     35  O2  UNL A   1      38.294  19.560  51.590  1.00  0.00    +0.000 O 
BRANCH   34   33
ATOM     33  N4  UNL A   1      38.147  17.560  52.529  1.00  0.00    +0.000 N 
ATOM    131  H33 UNL A   1      37.382  17.048  52.180  1.00  0.00    +0.000 H 
BRANCH   33   32
ATOM    129  H31 UNL A   1      39.493  17.113  54.016  1.00  0.00    +0.000 H 
ATOM    130  H32 UNL A   1      38.083  18.089  54.495  1.00  0.00    +0.000 H 
ATOM     32  C28 UNL A   1      38.438  17.261  53.917  1.00  0.00    +0.000 C 
BRANCH   32   31
ATOM    127  H29 UNL A   1      36.689  16.249  54.574  1.00  0.00    +0.000 H 
ATOM     31  C27 UNL A   1      37.724  16.013  54.443  1.00  0.00    +0.000 C 
ATOM    128  H30 UNL A   1      37.888  15.239  53.721  1.00  0.00    +0.000 H 
BRANCH   31   30
ATOM    126  H28 UNL A   1      37.498  15.658  56.499  1.00  0.00    +0.000 H 
ATOM    125  H27 UNL A   1      39.177  16.007  55.992  1.00  0.00    +0.000 H 
ATOM     30  C26 UNL A   1      38.267  15.487  55.776  1.00  0.00    +0.000 C 
BRANCH   30   29
ATOM    123  H25 UNL A   1      39.486  13.836  56.320  1.00  0.00    +0.000 H 
ATOM    124  H26 UNL A   1      37.727  13.525  56.300  1.00  0.00    +0.000 H 
ATOM     29  C25 UNL A   1      38.559  13.985  55.807  1.00  0.00    +0.000 C 
BRANCH   29   28
ATOM    121  H23 UNL A   1      37.778  12.745  54.263  1.00  0.00    +0.000 H 
ATOM    122  H24 UNL A   1      38.779  14.113  53.715  1.00  0.00    +0.000 H 
ATOM     28  C24 UNL A   1      38.664  13.324  54.427  1.00  0.00    +0.000 C 
BRANCH   28   27
ATOM     27  C23 UNL A   1      39.872  12.404  54.267  1.00  0.00    +0.000 C 
ATOM    119  H21 UNL A   1      40.760  12.953  54.500  1.00  0.00    +0.000 H 
ATOM    120  H22 UNL A   1      39.752  11.575  54.931  1.00  0.00    +0.000 H 
BRANCH   27   26
ATOM     26  N3  UNL A   1      39.975  11.894  52.913  1.00  0.00    +0.000 N 
ATOM    118  H20 UNL A   1      39.163  11.990  52.364  1.00  0.00    +0.000 H 
BRANCH   26   24
ATOM     25  O1  UNL A   1      41.424  10.215  52.734  1.00  0.00    +0.000 O 
ATOM     24  C22 UNL A   1      41.035  11.299  52.291  1.00  0.00    +0.000 C 
BRANCH   24   23
ATOM    116  H18 UNL A   1      42.113  11.239  50.473  1.00  0.00    +0.000 H 
ATOM    117  H19 UNL A   1      41.061  12.659  50.701  1.00  0.00    +0.000 H 
ATOM     23  C21 UNL A   1      41.763  11.989  51.152  1.00  0.00    +0.000 C 
BRANCH   23   22
ATOM      2  C2  UNL A   1      43.191  16.722  52.911  1.00  0.00    +0.000 C 
ATOM      3  C3  UNL A   1      41.904  16.193  52.813  1.00  0.00    +0.000 C 
ATOM      4  C4  UNL A   1      41.692  14.870  52.414  1.00  0.00    +0.000 C 
ATOM      5  C5  UNL A   1      42.808  14.079  52.088  1.00  0.00    +0.000 C 
ATOM      6  C6  UNL A   1      44.110  14.568  52.217  1.00  0.00    +0.000 C 
ATOM      7  C7  UNL A   1      44.299  15.907  52.630  1.00  0.00    +0.000 C 
ATOM    102  H4  UNL A   1      41.093  16.789  53.040  1.00  0.00    +0.000 H 
ATOM    104  H6  UNL A   1      45.254  16.286  52.726  1.00  0.00    +0.000 H 
ATOM    103  H5  UNL A   1      40.738  14.483  52.360  1.00  0.00    +0.000 H 
ATOM      8  C8  UNL A   1      44.996  13.508  51.865  1.00  0.00    +0.000 C 
ATOM     20  C19 UNL A   1      44.229  12.401  51.525  1.00  0.00    +0.000 C 
ATOM     22  N2  UNL A   1      42.904  12.795  51.572  1.00  0.00    +0.000 N 
BRANCH    2    1
ATOM      1  C1  UNL A   1      43.373  18.158  53.307  1.00  0.00    +0.000 C 
ATOM     99  H1  UNL A   1      42.688  18.769  52.758  1.00  0.00    +0.000 H 
ATOM    100  H2  UNL A   1      44.375  18.464  53.092  1.00  0.00    +0.000 H 
ATOM    101  H3  UNL A   1      43.185  18.266  54.356  1.00  0.00    +0.000 H 
ENDBRANCH    2    1
BRANCH    8    9
ATOM      9  C9  UNL A   1      46.453  13.500  51.836  1.00  0.00    +0.000 C 
ATOM     10  C10 UNL A   1      47.119  12.623  52.688  1.00  0.00    +0.000 C 
ATOM     11  C11 UNL A   1      48.492  12.582  52.619  1.00  0.00    +0.000 C 
ATOM    105  H7  UNL A   1      46.599  12.024  53.348  1.00  0.00    +0.000 H 
ATOM     13  C12 UNL A   1      48.599  14.200  50.948  1.00  0.00    +0.000 C 
ATOM    106  H8  UNL A   1      48.992  11.935  53.250  1.00  0.00    +0.000 H 
ATOM     12  N1  UNL A   1      49.226  13.338  51.775  1.00  0.00    +0.000 N 
ATOM     14  C13 UNL A   1      49.339  14.990  50.053  1.00  0.00    +0.000 C 
ATOM    112  H14 UNL A   1      45.559  15.365  50.091  1.00  0.00    +0.000 H 
ATOM     18  C17 UNL A   1      46.586  15.266  50.083  1.00  0.00    +0.000 C 
ATOM     19  C18 UNL A   1      47.191  14.329  50.951  1.00  0.00    +0.000 C 
ATOM     17  C16 UNL A   1      47.331  16.055  49.218  1.00  0.00    +0.000 C 
ATOM    111  H13 UNL A   1      46.867  16.737  48.598  1.00  0.00    +0.000 H 
ATOM     16  C15 UNL A   1      48.708  15.913  49.200  1.00  0.00    +0.000 C 
ATOM    110  H12 UNL A   1      49.275  16.489  48.558  1.00  0.00    +0.000 H 
BRANCH   14   15
ATOM    107  H9  UNL A   1      51.284  15.799  50.281  1.00  0.00    +0.000 H 
ATOM    108  H10 UNL A   1      51.120  14.682  48.947  1.00  0.00    +0.000 H 
ATOM    109  H11 UNL A   1      51.178  14.083  50.587  1.00  0.00    +0.000 H 
ATOM     15  C14 UNL A   1      50.839  14.880  49.961  1.00  0.00    +0.000 C 
ENDBRANCH   14   15
ENDBRANCH    8    9
BRANCH   20   21
ATOM    113  H15 UNL A   1      43.829  10.396  51.012  1.00  0.00    +0.000 H 
ATOM    114  H16 UNL A   1      45.335  10.639  51.865  1.00  0.00    +0.000 H 
ATOM    115  H17 UNL A   1      45.199  11.096  50.183  1.00  0.00    +0.000 H 
ATOM     21  C20 UNL A   1      44.680  11.036  51.117  1.00  0.00    +0.000 C 
ENDBRANCH   20   21
ENDBRANCH   23   22
ENDBRANCH   24   23
ENDBRANCH   26   24
ENDBRANCH   27   26
ENDBRANCH   28   27
ENDBRANCH   29   28
ENDBRANCH   30   29
ENDBRANCH   31   30
ENDBRANCH   32   31
ENDBRANCH   33   32
ENDBRANCH   34   33
ENDBRANCH   36   34
ENDBRANCH   40   39
BRANCH   44   45
ATOM     45  C38 UNL A   1      47.893  20.021  46.355  1.00  0.00    +0.000 C 
ATOM     46  C39 UNL A   1      48.823  19.010  46.676  1.00  0.00    +0.000 C 
ATOM     47  F1  UNL A   1      48.496  17.715  46.553  1.00  0.00    +0.000 F 
ATOM     48  C40 UNL A   1      50.077  19.305  47.219  1.00  0.00    +0.000 C 
ATOM     49  F2  UNL A   1      50.878  18.310  47.622  1.00  0.00    +0.000 F 
ATOM     50  C41 UNL A   1      50.469  20.618  47.406  1.00  0.00    +0.000 C 
ATOM     51  F3  UNL A   1      51.645  20.902  47.980  1.00  0.00    +0.000 F 
ATOM     52  C42 UNL A   1      49.613  21.636  47.043  1.00  0.00    +0.000 C 
ATOM     53  F4  UNL A   1      49.968  22.915  47.234  1.00  0.00    +0.000 F 
ATOM     54  C43 UNL A   1      48.341  21.344  46.551  1.00  0.00    +0.000 C 
ATOM     55  F5  UNL A   1      47.534  22.398  46.379  1.00  0.00    +0.000 F 
ENDBRANCH   44   45
BRANCH   61   62
ATOM     65  C51 UNL A   1      41.715  14.842  42.774  1.00  0.00    +0.000 C 
ATOM     66  F7  UNL A   1      40.632  14.410  43.438  1.00  0.00    +0.000 F 
ATOM     67  C52 UNL A   1      41.687  14.929  41.392  1.00  0.00    +0.000 C 
ATOM     68  F8  UNL A   1      40.577  14.591  40.719  1.00  0.00    +0.000 F 
ATOM     69  C53 UNL A   1      42.797  15.399  40.708  1.00  0.00    +0.000 C 
ATOM     70  F9  UNL A   1      42.755  15.535  39.376  1.00  0.00    +0.000 F 
ATOM     71  C54 UNL A   1      43.946  15.761  41.405  1.00  0.00    +0.000 C 
ATOM     72  F10 UNL A   1      44.994  16.240  40.716  1.00  0.00    +0.000 F 
ATOM     62  C49 UNL A   1      44.000  15.688  42.804  1.00  0.00    +0.000 C 
ATOM     63  C50 UNL A   1      42.851  15.241  43.477  1.00  0.00    +0.000 C 
ATOM     64  F6  UNL A   1      42.796  15.245  44.816  1.00  0.00    +0.000 F 
ENDBRANCH   61   62
BRANCH   76   77
ATOM     77  C58 UNL A   1      46.113  11.714  47.240  1.00  0.00    +0.000 C 
ATOM     78  C59 UNL A   1      47.278  11.800  48.019  1.00  0.00    +0.000 C 
ATOM     79  F11 UNL A   1      47.954  12.956  48.096  1.00  0.00    +0.000 F 
ATOM     80  C60 UNL A   1      47.723  10.724  48.793  1.00  0.00    +0.000 C 
ATOM     81  F12 UNL A   1      48.798  10.867  49.580  1.00  0.00    +0.000 F 
ATOM     82  C61 UNL A   1      47.022   9.529  48.799  1.00  0.00    +0.000 C 
ATOM     83  F13 UNL A   1      47.410   8.520  49.592  1.00  0.00    +0.000 F 
ATOM     84  C62 UNL A   1      45.892   9.399  48.014  1.00  0.00    +0.000 C 
ATOM     85  F14 UNL A   1      45.187   8.260  48.036  1.00  0.00    +0.000 F 
ATOM     86  C63 UNL A   1      45.443  10.476  47.249  1.00  0.00    +0.000 C 
ATOM     87  F15 UNL A   1      44.285  10.313  46.593  1.00  0.00    +0.000 F 
ENDBRANCH   76   77
TORSDOF 20
ENDMDL
MODEL 6
REMARK VINA RESULT:     -10.9     31.480     36.666
ROOT
ATOM    134  H36 UNL A   1      13.703   9.754  22.773  1.00  0.00    +0.000 H 
ATOM    135  H37 UNL A   1      12.196  10.227  24.918  1.00  0.00    +0.000 H 
ATOM    136  H38 UNL A   1      11.087  12.695  21.947  1.00  0.00    +0.000 H 
ATOM    137  H39 UNL A   1       4.407   7.764  22.445  1.00  0.00    +0.000 H 
ATOM    138  H40 UNL A   1       6.213   6.002  22.083  1.00  0.00    +0.000 H 
ATOM    139  H41 UNL A   1       8.023   9.724  21.718  1.00  0.00    +0.000 H 
ATOM    140  H42 UNL A   1       6.785  12.400  20.509  1.00  0.00    +0.000 H 
ATOM    141  H43 UNL A   1       9.167  12.786  21.413  1.00  0.00    +0.000 H 
ATOM    142  H44 UNL A   1      11.648   8.805  18.066  1.00  0.00    +0.000 H 
ATOM    143  H45 UNL A   1       9.681   7.183  18.397  1.00  0.00    +0.000 H 
ATOM     40  C34 UNL A   1       8.703   7.131  21.084  1.00  0.00    +0.000 C 
ATOM     41  C35 UNL A   1       9.775   7.997  20.512  1.00  0.00    +0.000 C 
ATOM     42  N5  UNL A   1      10.537   8.844  21.131  1.00  0.00    +0.000 N 
ATOM     43  C36 UNL A   1      11.335   9.431  20.149  1.00  0.00    +0.000 C 
ATOM     44  C37 UNL A   1      12.001  10.601  20.357  1.00  0.00    +0.000 C 
ATOM     56  C44 UNL A   1      12.160  10.887  21.755  1.00  0.00    +0.000 C 
ATOM     57  C45 UNL A   1      12.817  10.282  22.807  1.00  0.00    +0.000 C 
ATOM     58  C46 UNL A   1      12.010  10.545  23.953  1.00  0.00    +0.000 C 
ATOM     59  C47 UNL A   1      10.923  11.308  23.528  1.00  0.00    +0.000 C 
ATOM     60  N6  UNL A   1      11.336  11.822  22.327  1.00  0.00    +0.000 N 
ATOM     61  C48 UNL A   1       9.588  11.471  24.049  1.00  0.00    +0.000 C 
ATOM     73  C55 UNL A   1       8.513  11.855  23.303  1.00  0.00    +0.000 C 
ATOM     74  N7  UNL A   1       7.227  11.490  23.669  1.00  0.00    +0.000 N 
ATOM     75  C56 UNL A   1       6.558  11.455  22.551  1.00  0.00    +0.000 C 
ATOM     76  C57 UNL A   1       5.458  10.498  22.276  1.00  0.00    +0.000 C 
ATOM     88  C64 UNL A   1       6.009   9.266  22.161  1.00  0.00    +0.000 C 
ATOM     89  C65 UNL A   1       5.399   7.955  22.240  1.00  0.00    +0.000 C 
ATOM     90  C66 UNL A   1       6.346   7.022  21.999  1.00  0.00    +0.000 C 
ATOM     91  C67 UNL A   1       7.589   7.683  21.604  1.00  0.00    +0.000 C 
ATOM     92  N8  UNL A   1       7.341   9.020  21.809  1.00  0.00    +0.000 N 
ATOM     93  C68 UNL A   1       7.176  12.141  21.429  1.00  0.00    +0.000 C 
ATOM     94  C69 UNL A   1       8.396  12.340  21.933  1.00  0.00    +0.000 C 
ATOM     95  C70 UNL A   1      11.108   8.684  18.938  1.00  0.00    +0.000 C 
ATOM     96  C71 UNL A   1      10.108   7.816  19.092  1.00  0.00    +0.000 C 
ENDROOT
BRANCH   40   39
ATOM     97  C72 UNL A   1       8.800   4.959  19.827  1.00  0.00    +0.000 C 
ATOM     98  C73 UNL A   1       8.988   3.579  19.857  1.00  0.00    +0.000 C 
ATOM     36  C30 UNL A   1       9.354   2.917  21.045  1.00  0.00    +0.000 C 
ATOM     37  C31 UNL A   1       9.617   3.689  22.173  1.00  0.00    +0.000 C 
ATOM    132  H34 UNL A   1       9.986   3.240  23.026  1.00  0.00    +0.000 H 
ATOM     38  C32 UNL A   1       9.387   5.059  22.163  1.00  0.00    +0.000 C 
ATOM    133  H35 UNL A   1       9.546   5.612  23.019  1.00  0.00    +0.000 H 
ATOM     39  C33 UNL A   1       8.943   5.692  21.000  1.00  0.00    +0.000 C 
ATOM    144  H46 UNL A   1       8.559   5.433  18.942  1.00  0.00    +0.000 H 
ATOM    145  H47 UNL A   1       8.856   3.031  18.993  1.00  0.00    +0.000 H 
BRANCH   36   34
ATOM     34  C29 UNL A   1       9.362   1.427  21.000  1.00  0.00    +0.000 C 
ATOM     35  O2  UNL A   1       8.502   0.814  21.638  1.00  0.00    +0.000 O 
BRANCH   34   33
ATOM     33  N4  UNL A   1      10.295   0.666  20.349  1.00  0.00    +0.000 N 
ATOM    131  H33 UNL A   1       9.968   0.317  19.489  1.00  0.00    +0.000 H 
BRANCH   33   32
ATOM    129  H31 UNL A   1      11.625  -0.669  21.167  1.00  0.00    +0.000 H 
ATOM    130  H32 UNL A   1      12.165   0.184  19.701  1.00  0.00    +0.000 H 
ATOM     32  C28 UNL A   1      11.656   0.260  20.639  1.00  0.00    +0.000 C 
BRANCH   32   31
ATOM    127  H29 UNL A   1      13.385   1.435  21.022  1.00  0.00    +0.000 H 
ATOM     31  C27 UNL A   1      12.436   1.271  21.486  1.00  0.00    +0.000 C 
ATOM    128  H30 UNL A   1      11.835   2.155  21.536  1.00  0.00    +0.000 H 
BRANCH   31   30
ATOM    126  H28 UNL A   1      11.933   1.313  23.524  1.00  0.00    +0.000 H 
ATOM    125  H27 UNL A   1      13.680   1.108  23.199  1.00  0.00    +0.000 H 
ATOM     30  C26 UNL A   1      12.681   0.829  22.932  1.00  0.00    +0.000 C 
BRANCH   30   29
ATOM    123  H25 UNL A   1      11.500  -0.864  23.430  1.00  0.00    +0.000 H 
ATOM    124  H26 UNL A   1      12.841  -1.165  22.290  1.00  0.00    +0.000 H 
ATOM     29  C25 UNL A   1      12.524  -0.672  23.185  1.00  0.00    +0.000 C 
BRANCH   29   28
ATOM    121  H23 UNL A   1      13.620  -2.251  24.100  1.00  0.00    +0.000 H 
ATOM    122  H24 UNL A   1      14.274  -0.614  24.359  1.00  0.00    +0.000 H 
ATOM     28  C24 UNL A   1      13.398  -1.226  24.318  1.00  0.00    +0.000 C 
BRANCH   28   27
ATOM     27  C23 UNL A   1      12.747  -1.160  25.697  1.00  0.00    +0.000 C 
ATOM    119  H21 UNL A   1      11.861  -0.564  25.636  1.00  0.00    +0.000 H 
ATOM    120  H22 UNL A   1      12.514  -2.157  26.006  1.00  0.00    +0.000 H 
BRANCH   27   26
ATOM     26  N3  UNL A   1      13.641  -0.576  26.678  1.00  0.00    +0.000 N 
ATOM    118  H20 UNL A   1      13.561  -0.939  27.591  1.00  0.00    +0.000 H 
BRANCH   26   24
ATOM     25  O1  UNL A   1      15.754   0.117  26.762  1.00  0.00    +0.000 O 
ATOM     24  C22 UNL A   1      14.579   0.404  26.519  1.00  0.00    +0.000 C 
BRANCH   24   23
ATOM    116  H18 UNL A   1      15.061   2.420  26.103  1.00  0.00    +0.000 H 
ATOM    117  H19 UNL A   1      13.682   1.754  25.194  1.00  0.00    +0.000 H 
ATOM     23  C21 UNL A   1      14.177   1.818  26.140  1.00  0.00    +0.000 C 
BRANCH   23   22
ATOM      2  C2  UNL A   1       9.130   3.065  26.854  1.00  0.00    +0.000 C 
ATOM      3  C3  UNL A   1       9.680   2.225  25.887  1.00  0.00    +0.000 C 
ATOM      4  C4  UNL A   1      11.043   1.911  25.887  1.00  0.00    +0.000 C 
ATOM      5  C5  UNL A   1      11.863   2.482  26.877  1.00  0.00    +0.000 C 
ATOM      6  C6  UNL A   1      11.333   3.292  27.883  1.00  0.00    +0.000 C 
ATOM      7  C7  UNL A   1       9.951   3.587  27.866  1.00  0.00    +0.000 C 
ATOM    102  H4  UNL A   1       9.070   1.826  25.156  1.00  0.00    +0.000 H 
ATOM    104  H6  UNL A   1       9.545   4.189  28.599  1.00  0.00    +0.000 H 
ATOM    103  H5  UNL A   1      11.437   1.276  25.176  1.00  0.00    +0.000 H 
ATOM      8  C8  UNL A   1      12.411   3.653  28.744  1.00  0.00    +0.000 C 
ATOM     20  C19 UNL A   1      13.570   3.068  28.253  1.00  0.00    +0.000 C 
ATOM     22  N2  UNL A   1      13.237   2.441  27.065  1.00  0.00    +0.000 N 
BRANCH    2    1
ATOM      1  C1  UNL A   1       7.669   3.406  26.796  1.00  0.00    +0.000 C 
ATOM     99  H1  UNL A   1       7.482   4.024  25.943  1.00  0.00    +0.000 H 
ATOM    100  H2  UNL A   1       7.389   3.929  27.686  1.00  0.00    +0.000 H 
ATOM    101  H3  UNL A   1       7.096   2.505  26.715  1.00  0.00    +0.000 H 
ENDBRANCH    2    1
BRANCH    8    9
ATOM      9  C9  UNL A   1      12.391   4.483  29.942  1.00  0.00    +0.000 C 
ATOM     10  C10 UNL A   1      12.450   3.847  31.179  1.00  0.00    +0.000 C 
ATOM     11  C11 UNL A   1      12.484   4.637  32.305  1.00  0.00    +0.000 C 
ATOM    105  H7  UNL A   1      12.469   2.818  31.249  1.00  0.00    +0.000 H 
ATOM     13  C12 UNL A   1      12.399   6.621  31.088  1.00  0.00    +0.000 C 
ATOM    106  H8  UNL A   1      12.525   4.171  33.225  1.00  0.00    +0.000 H 
ATOM     12  N1  UNL A   1      12.465   5.987  32.277  1.00  0.00    +0.000 N 
ATOM     14  C13 UNL A   1      12.389   8.024  31.033  1.00  0.00    +0.000 C 
ATOM    112  H14 UNL A   1      12.203   6.086  27.770  1.00  0.00    +0.000 H 
ATOM     18  C17 UNL A   1      12.250   6.613  28.657  1.00  0.00    +0.000 C 
ATOM     19  C18 UNL A   1      12.344   5.900  29.873  1.00  0.00    +0.000 C 
ATOM     17  C16 UNL A   1      12.220   8.000  28.617  1.00  0.00    +0.000 C 
ATOM    111  H13 UNL A   1      12.144   8.497  27.716  1.00  0.00    +0.000 H 
ATOM     16  C15 UNL A   1      12.294   8.705  29.806  1.00  0.00    +0.000 C 
ATOM    110  H12 UNL A   1      12.279   9.737  29.792  1.00  0.00    +0.000 H 
BRANCH   14   15
ATOM    107  H9  UNL A   1      12.281   9.886  32.040  1.00  0.00    +0.000 H 
ATOM    108  H10 UNL A   1      13.471   8.782  32.690  1.00  0.00    +0.000 H 
ATOM    109  H11 UNL A   1      11.771   8.517  32.998  1.00  0.00    +0.000 H 
ATOM     15  C14 UNL A   1      12.484   8.863  32.281  1.00  0.00    +0.000 C 
ENDBRANCH   14   15
ENDBRANCH    8    9
BRANCH   20   21
ATOM    113  H15 UNL A   1      14.908   3.185  29.877  1.00  0.00    +0.000 H 
ATOM    114  H16 UNL A   1      15.470   3.967  28.419  1.00  0.00    +0.000 H 
ATOM    115  H17 UNL A   1      15.481   2.223  28.536  1.00  0.00    +0.000 H 
ATOM     21  C20 UNL A   1      14.955   3.114  28.811  1.00  0.00    +0.000 C 
ENDBRANCH   20   21
ENDBRANCH   23   22
ENDBRANCH   24   23
ENDBRANCH   26   24
ENDBRANCH   27   26
ENDBRANCH   28   27
ENDBRANCH   29   28
ENDBRANCH   30   29
ENDBRANCH   31   30
ENDBRANCH   32   31
ENDBRANCH   33   32
ENDBRANCH   34   33
ENDBRANCH   36   34
ENDBRANCH   40   39
BRANCH   44   45
ATOM     45  C38 UNL A   1      12.240  11.645  19.293  1.00  0.00    +0.000 C 
ATOM     46  C39 UNL A   1      13.558  12.048  18.996  1.00  0.00    +0.000 C 
ATOM     47  F1  UNL A   1      14.608  11.353  19.459  1.00  0.00    +0.000 F 
ATOM     48  C40 UNL A   1      13.830  13.225  18.293  1.00  0.00    +0.000 C 
ATOM     49  F2  UNL A   1      15.097  13.631  18.138  1.00  0.00    +0.000 F 
ATOM     50  C41 UNL A   1      12.797  14.010  17.813  1.00  0.00    +0.000 C 
ATOM     51  F3  UNL A   1      13.055  15.168  17.191  1.00  0.00    +0.000 F 
ATOM     52  C42 UNL A   1      11.494  13.615  18.027  1.00  0.00    +0.000 C 
ATOM     53  F4  UNL A   1      10.480  14.373  17.587  1.00  0.00    +0.000 F 
ATOM     54  C43 UNL A   1      11.219  12.469  18.775  1.00  0.00    +0.000 C 
ATOM     55  F5  UNL A   1       9.928  12.263  19.058  1.00  0.00    +0.000 F 
ENDBRANCH   44   45
BRANCH   61   62
ATOM     65  C51 UNL A   1       8.891   9.065  26.949  1.00  0.00    +0.000 C 
ATOM     66  F7  UNL A   1       8.602   7.770  27.151  1.00  0.00    +0.000 F 
ATOM     67  C52 UNL A   1       9.089   9.904  28.034  1.00  0.00    +0.000 C 
ATOM     68  F8  UNL A   1       9.003   9.420  29.282  1.00  0.00    +0.000 F 
ATOM     69  C53 UNL A   1       9.411  11.235  27.826  1.00  0.00    +0.000 C 
ATOM     70  F9  UNL A   1       9.656  12.036  28.871  1.00  0.00    +0.000 F 
ATOM     71  C54 UNL A   1       9.513  11.736  26.531  1.00  0.00    +0.000 C 
ATOM     72  F10 UNL A   1       9.855  13.023  26.364  1.00  0.00    +0.000 F 
ATOM     62  C49 UNL A   1       9.322  10.909  25.416  1.00  0.00    +0.000 C 
ATOM     63  C50 UNL A   1       9.031   9.555  25.652  1.00  0.00    +0.000 C 
ATOM     64  F6  UNL A   1       8.938   8.686  24.635  1.00  0.00    +0.000 F 
ENDBRANCH   61   62
BRANCH   76   77
ATOM     77  C58 UNL A   1       4.116  10.939  21.834  1.00  0.00    +0.000 C 
ATOM     78  C59 UNL A   1       3.073  11.101  22.760  1.00  0.00    +0.000 C 
ATOM     79  F11 UNL A   1       3.204  10.639  24.012  1.00  0.00    +0.000 F 
ATOM     80  C60 UNL A   1       1.911  11.809  22.438  1.00  0.00    +0.000 C 
ATOM     81  F12 UNL A   1       0.969  12.006  23.370  1.00  0.00    +0.000 F 
ATOM     82  C61 UNL A   1       1.755  12.363  21.177  1.00  0.00    +0.000 C 
ATOM     83  F13 UNL A   1       0.672  13.099  20.890  1.00  0.00    +0.000 F 
ATOM     84  C62 UNL A   1       2.747  12.189  20.231  1.00  0.00    +0.000 C 
ATOM     85  F14 UNL A   1       2.623  12.747  19.019  1.00  0.00    +0.000 F 
ATOM     86  C63 UNL A   1       3.911  11.491  20.555  1.00  0.00    +0.000 C 
ATOM     87  F15 UNL A   1       4.873  11.449  19.622  1.00  0.00    +0.000 F 
ENDBRANCH   76   77
TORSDOF 20
ENDMDL
MODEL 7
REMARK VINA RESULT:     -10.9     21.117     28.357
ROOT
ATOM    134  H36 UNL A   1      19.589  37.375  44.025  1.00  0.00    +0.000 H 
ATOM    135  H37 UNL A   1      18.656  38.601  46.199  1.00  0.00    +0.000 H 
ATOM    136  H38 UNL A   1      19.072  34.678  46.964  1.00  0.00    +0.000 H 
ATOM    137  H39 UNL A   1      25.053  37.847  51.798  1.00  0.00    +0.000 H 
ATOM    138  H40 UNL A   1      25.753  38.827  49.553  1.00  0.00    +0.000 H 
ATOM    139  H41 UNL A   1      22.577  36.245  48.839  1.00  0.00    +0.000 H 
ATOM    140  H42 UNL A   1      21.892  33.515  50.333  1.00  0.00    +0.000 H 
ATOM    141  H43 UNL A   1      20.111  34.096  48.564  1.00  0.00    +0.000 H 
ATOM    142  H44 UNL A   1      23.807  34.297  44.147  1.00  0.00    +0.000 H 
ATOM    143  H45 UNL A   1      25.584  35.480  45.581  1.00  0.00    +0.000 H 
ATOM     40  C34 UNL A   1      24.490  37.490  47.296  1.00  0.00    +0.000 C 
ATOM     41  C35 UNL A   1      23.759  36.560  46.387  1.00  0.00    +0.000 C 
ATOM     42  N5  UNL A   1      22.489  36.526  46.127  1.00  0.00    +0.000 N 
ATOM     43  C36 UNL A   1      22.304  35.450  45.260  1.00  0.00    +0.000 C 
ATOM     44  C37 UNL A   1      21.081  34.889  45.049  1.00  0.00    +0.000 C 
ATOM     56  C44 UNL A   1      20.013  35.773  45.423  1.00  0.00    +0.000 C 
ATOM     57  C45 UNL A   1      19.565  37.003  44.988  1.00  0.00    +0.000 C 
ATOM     58  C46 UNL A   1      19.060  37.652  46.153  1.00  0.00    +0.000 C 
ATOM     59  C47 UNL A   1      19.216  36.767  47.220  1.00  0.00    +0.000 C 
ATOM     60  N6  UNL A   1      19.368  35.548  46.613  1.00  0.00    +0.000 N 
ATOM     61  C48 UNL A   1      19.358  36.974  48.640  1.00  0.00    +0.000 C 
ATOM     73  C55 UNL A   1      19.961  36.093  49.489  1.00  0.00    +0.000 C 
ATOM     74  N7  UNL A   1      20.545  36.528  50.668  1.00  0.00    +0.000 N 
ATOM     75  C56 UNL A   1      21.488  35.663  50.914  1.00  0.00    +0.000 C 
ATOM     76  C57 UNL A   1      22.779  36.008  51.558  1.00  0.00    +0.000 C 
ATOM     88  C64 UNL A   1      23.486  36.755  50.677  1.00  0.00    +0.000 C 
ATOM     89  C65 UNL A   1      24.622  37.628  50.887  1.00  0.00    +0.000 C 
ATOM     90  C66 UNL A   1      25.025  38.110  49.691  1.00  0.00    +0.000 C 
ATOM     91  C67 UNL A   1      24.267  37.457  48.625  1.00  0.00    +0.000 C 
ATOM     92  N8  UNL A   1      23.307  36.730  49.289  1.00  0.00    +0.000 N 
ATOM     93  C68 UNL A   1      21.387  34.405  50.194  1.00  0.00    +0.000 C 
ATOM     94  C69 UNL A   1      20.450  34.732  49.302  1.00  0.00    +0.000 C 
ATOM     95  C70 UNL A   1      23.620  35.003  44.877  1.00  0.00    +0.000 C 
ATOM     96  C71 UNL A   1      24.561  35.622  45.589  1.00  0.00    +0.000 C 
ENDROOT
BRANCH   40   39
ATOM     97  C72 UNL A   1      26.722  37.964  46.246  1.00  0.00    +0.000 C 
ATOM     98  C73 UNL A   1      27.599  38.896  45.695  1.00  0.00    +0.000 C 
ATOM     36  C30 UNL A   1      27.216  40.238  45.506  1.00  0.00    +0.000 C 
ATOM     37  C31 UNL A   1      25.901  40.593  45.797  1.00  0.00    +0.000 C 
ATOM    132  H34 UNL A   1      25.566  41.544  45.572  1.00  0.00    +0.000 H 
ATOM     38  C32 UNL A   1      25.037  39.683  46.390  1.00  0.00    +0.000 C 
ATOM    133  H35 UNL A   1      24.078  39.972  46.639  1.00  0.00    +0.000 H 
ATOM     39  C33 UNL A   1      25.456  38.376  46.649  1.00  0.00    +0.000 C 
ATOM    144  H46 UNL A   1      27.008  36.978  46.353  1.00  0.00    +0.000 H 
ATOM    145  H47 UNL A   1      28.548  38.598  45.421  1.00  0.00    +0.000 H 
BRANCH   36   34
ATOM     34  C29 UNL A   1      28.285  41.179  45.068  1.00  0.00    +0.000 C 
ATOM     35  O2  UNL A   1      28.916  40.917  44.040  1.00  0.00    +0.000 O 
BRANCH   34   33
ATOM     33  N4  UNL A   1      28.676  42.298  45.752  1.00  0.00    +0.000 N 
ATOM    131  H33 UNL A   1      29.607  42.556  45.560  1.00  0.00    +0.000 H 
BRANCH   33   32
ATOM    129  H31 UNL A   1      28.304  44.194  46.452  1.00  0.00    +0.000 H 
ATOM    130  H32 UNL A   1      26.976  43.020  46.611  1.00  0.00    +0.000 H 
ATOM     32  C28 UNL A   1      28.029  43.190  46.695  1.00  0.00    +0.000 C 
BRANCH   32   31
ATOM    127  H29 UNL A   1      29.397  42.522  48.177  1.00  0.00    +0.000 H 
ATOM     31  C27 UNL A   1      28.407  42.926  48.155  1.00  0.00    +0.000 C 
ATOM    128  H30 UNL A   1      28.327  43.863  48.666  1.00  0.00    +0.000 H 
BRANCH   31   30
ATOM    126  H28 UNL A   1      26.572  41.919  48.314  1.00  0.00    +0.000 H 
ATOM    125  H27 UNL A   1      27.337  42.311  49.883  1.00  0.00    +0.000 H 
ATOM     30  C26 UNL A   1      27.477  41.951  48.884  1.00  0.00    +0.000 C 
BRANCH   30   29
ATOM    123  H25 UNL A   1      27.261  39.930  49.497  1.00  0.00    +0.000 H 
ATOM    124  H26 UNL A   1      28.125  40.182  47.955  1.00  0.00    +0.000 H 
ATOM     29  C25 UNL A   1      27.985  40.510  48.964  1.00  0.00    +0.000 C 
BRANCH   29   28
ATOM    121  H23 UNL A   1      30.112  40.596  48.967  1.00  0.00    +0.000 H 
ATOM    122  H24 UNL A   1      29.327  40.994  50.516  1.00  0.00    +0.000 H 
ATOM     28  C24 UNL A   1      29.339  40.346  49.665  1.00  0.00    +0.000 C 
BRANCH   28   27
ATOM     27  C23 UNL A   1      29.605  38.936  50.187  1.00  0.00    +0.000 C 
ATOM    119  H21 UNL A   1      29.820  38.988  51.234  1.00  0.00    +0.000 H 
ATOM    120  H22 UNL A   1      28.733  38.343  50.008  1.00  0.00    +0.000 H 
BRANCH   27   26
ATOM     26  N3  UNL A   1      30.725  38.319  49.504  1.00  0.00    +0.000 N 
ATOM    118  H20 UNL A   1      31.596  38.411  49.955  1.00  0.00    +0.000 H 
BRANCH   26   24
ATOM     25  O1  UNL A   1      29.688  37.127  47.938  1.00  0.00    +0.000 O 
ATOM     24  C22 UNL A   1      30.746  37.629  48.326  1.00  0.00    +0.000 C 
BRANCH   24   23
ATOM    116  H18 UNL A   1      32.851  37.442  48.267  1.00  0.00    +0.000 H 
ATOM    117  H19 UNL A   1      31.956  36.468  47.074  1.00  0.00    +0.000 H 
ATOM     23  C21 UNL A   1      32.042  37.414  47.567  1.00  0.00    +0.000 C 
BRANCH   23   22
ATOM      2  C2  UNL A   1      31.538  38.413  42.439  1.00  0.00    +0.000 C 
ATOM      3  C3  UNL A   1      30.948  37.388  43.179  1.00  0.00    +0.000 C 
ATOM      4  C4  UNL A   1      31.102  37.312  44.566  1.00  0.00    +0.000 C 
ATOM      5  C5  UNL A   1      31.889  38.284  45.209  1.00  0.00    +0.000 C 
ATOM      6  C6  UNL A   1      32.456  39.346  44.502  1.00  0.00    +0.000 C 
ATOM      7  C7  UNL A   1      32.280  39.405  43.100  1.00  0.00    +0.000 C 
ATOM    102  H4  UNL A   1      30.386  36.672  42.692  1.00  0.00    +0.000 H 
ATOM    104  H6  UNL A   1      32.697  40.180  42.562  1.00  0.00    +0.000 H 
ATOM    103  H5  UNL A   1      30.648  36.559  45.106  1.00  0.00    +0.000 H 
ATOM      8  C8  UNL A   1      33.134  40.169  45.448  1.00  0.00    +0.000 C 
ATOM     20  C19 UNL A   1      32.975  39.600  46.705  1.00  0.00    +0.000 C 
ATOM     22  N2  UNL A   1      32.300  38.406  46.529  1.00  0.00    +0.000 N 
BRANCH    2    1
ATOM      1  C1  UNL A   1      31.379  38.437  40.947  1.00  0.00    +0.000 C 
ATOM     99  H1  UNL A   1      31.500  37.447  40.560  1.00  0.00    +0.000 H 
ATOM    100  H2  UNL A   1      32.119  39.081  40.520  1.00  0.00    +0.000 H 
ATOM    101  H3  UNL A   1      30.403  38.800  40.698  1.00  0.00    +0.000 H 
ENDBRANCH    2    1
BRANCH    8    9
ATOM      9  C9  UNL A   1      33.884  41.398  45.226  1.00  0.00    +0.000 C 
ATOM     10  C10 UNL A   1      35.088  41.313  44.531  1.00  0.00    +0.000 C 
ATOM     11  C11 UNL A   1      35.766  42.483  44.278  1.00  0.00    +0.000 C 
ATOM    105  H7  UNL A   1      35.457  40.402  44.215  1.00  0.00    +0.000 H 
ATOM     13  C12 UNL A   1      34.173  43.804  45.345  1.00  0.00    +0.000 C 
ATOM    106  H8  UNL A   1      36.660  42.425  43.765  1.00  0.00    +0.000 H 
ATOM     12  N1  UNL A   1      35.332  43.702  44.663  1.00  0.00    +0.000 N 
ATOM     14  C13 UNL A   1      33.695  45.062  45.747  1.00  0.00    +0.000 C 
ATOM    112  H14 UNL A   1      31.659  41.984  46.650  1.00  0.00    +0.000 H 
ATOM     18  C17 UNL A   1      32.214  42.820  46.407  1.00  0.00    +0.000 C 
ATOM     19  C18 UNL A   1      33.408  42.660  45.668  1.00  0.00    +0.000 C 
ATOM     17  C16 UNL A   1      31.763  44.068  46.816  1.00  0.00    +0.000 C 
ATOM    111  H13 UNL A   1      30.891  44.158  47.360  1.00  0.00    +0.000 H 
ATOM     16  C15 UNL A   1      32.503  45.189  46.481  1.00  0.00    +0.000 C 
ATOM    110  H12 UNL A   1      32.177  46.124  46.774  1.00  0.00    +0.000 H 
BRANCH   14   15
ATOM    107  H9  UNL A   1      35.442  46.262  45.756  1.00  0.00    +0.000 H 
ATOM    108  H10 UNL A   1      33.948  47.162  45.875  1.00  0.00    +0.000 H 
ATOM    109  H11 UNL A   1      34.432  46.469  44.345  1.00  0.00    +0.000 H 
ATOM     15  C14 UNL A   1      34.433  46.330  45.405  1.00  0.00    +0.000 C 
ENDBRANCH   14   15
ENDBRANCH    8    9
BRANCH   20   21
ATOM    113  H15 UNL A   1      33.640  41.148  47.973  1.00  0.00    +0.000 H 
ATOM    114  H16 UNL A   1      34.374  39.592  48.282  1.00  0.00    +0.000 H 
ATOM    115  H17 UNL A   1      32.725  39.896  48.778  1.00  0.00    +0.000 H 
ATOM     21  C20 UNL A   1      33.463  40.094  48.028  1.00  0.00    +0.000 C 
ENDBRANCH   20   21
ENDBRANCH   23   22
ENDBRANCH   24   23
ENDBRANCH   26   24
ENDBRANCH   27   26
ENDBRANCH   28   27
ENDBRANCH   29   28
ENDBRANCH   30   29
ENDBRANCH   31   30
ENDBRANCH   32   31
ENDBRANCH   33   32
ENDBRANCH   34   33
ENDBRANCH   36   34
ENDBRANCH   40   39
BRANCH   44   45
ATOM     45  C38 UNL A   1      20.852  33.419  44.791  1.00  0.00    +0.000 C 
ATOM     46  C39 UNL A   1      19.804  33.016  43.938  1.00  0.00    +0.000 C 
ATOM     47  F1  UNL A   1      19.169  33.910  43.165  1.00  0.00    +0.000 F 
ATOM     48  C40 UNL A   1      19.323  31.704  43.927  1.00  0.00    +0.000 C 
ATOM     49  F2  UNL A   1      18.247  31.395  43.190  1.00  0.00    +0.000 F 
ATOM     50  C41 UNL A   1      19.907  30.736  44.723  1.00  0.00    +0.000 C 
ATOM     51  F3  UNL A   1      19.411  29.493  44.758  1.00  0.00    +0.000 F 
ATOM     52  C42 UNL A   1      20.977  31.076  45.523  1.00  0.00    +0.000 C 
ATOM     53  F4  UNL A   1      21.544  30.156  46.316  1.00  0.00    +0.000 F 
ATOM     54  C43 UNL A   1      21.425  32.397  45.576  1.00  0.00    +0.000 C 
ATOM     55  F5  UNL A   1      22.360  32.651  46.499  1.00  0.00    +0.000 F 
ENDBRANCH   44   45
BRANCH   61   62
ATOM     65  C51 UNL A   1      17.783  39.973  50.432  1.00  0.00    +0.000 C 
ATOM     66  F7  UNL A   1      16.676  40.278  51.127  1.00  0.00    +0.000 F 
ATOM     67  C52 UNL A   1      18.787  40.917  50.286  1.00  0.00    +0.000 C 
ATOM     68  F8  UNL A   1      18.657  42.129  50.846  1.00  0.00    +0.000 F 
ATOM     69  C53 UNL A   1      19.940  40.595  49.589  1.00  0.00    +0.000 C 
ATOM     70  F9  UNL A   1      20.935  41.486  49.492  1.00  0.00    +0.000 F 
ATOM     71  C54 UNL A   1      20.082  39.333  49.017  1.00  0.00    +0.000 C 
ATOM     72  F10 UNL A   1      21.223  39.043  48.373  1.00  0.00    +0.000 F 
ATOM     62  C49 UNL A   1      19.085  38.358  49.153  1.00  0.00    +0.000 C 
ATOM     63  C50 UNL A   1      17.940  38.698  49.893  1.00  0.00    +0.000 C 
ATOM     64  F6  UNL A   1      16.994  37.783  50.151  1.00  0.00    +0.000 F 
ENDBRANCH   61   62
BRANCH   76   77
ATOM     77  C58 UNL A   1      23.279  35.304  52.761  1.00  0.00    +0.000 C 
ATOM     78  C59 UNL A   1      22.460  35.144  53.890  1.00  0.00    +0.000 C 
ATOM     79  F11 UNL A   1      21.306  35.822  53.989  1.00  0.00    +0.000 F 
ATOM     80  C60 UNL A   1      22.773  34.227  54.898  1.00  0.00    +0.000 C 
ATOM     81  F12 UNL A   1      21.930  34.049  55.924  1.00  0.00    +0.000 F 
ATOM     82  C61 UNL A   1      23.920  33.454  54.810  1.00  0.00    +0.000 C 
ATOM     83  F13 UNL A   1      24.186  32.527  55.741  1.00  0.00    +0.000 F 
ATOM     84  C62 UNL A   1      24.766  33.615  53.730  1.00  0.00    +0.000 C 
ATOM     85  F14 UNL A   1      25.861  32.851  53.616  1.00  0.00    +0.000 F 
ATOM     86  C63 UNL A   1      24.450  34.523  52.719  1.00  0.00    +0.000 C 
ATOM     87  F15 UNL A   1      25.262  34.552  51.653  1.00  0.00    +0.000 F 
ENDBRANCH   76   77
TORSDOF 20
ENDMDL
MODEL 8
REMARK VINA RESULT:     -10.7     33.772     40.746
ROOT
ATOM    134  H36 UNL A   1       6.554  29.581  -4.550  1.00  0.00    +0.000 H 
ATOM    135  H37 UNL A   1       8.914  28.381  -4.845  1.00  0.00    +0.000 H 
ATOM    136  H38 UNL A   1       9.452  32.362  -4.765  1.00  0.00    +0.000 H 
ATOM    137  H39 UNL A   1      12.970  30.175   2.448  1.00  0.00    +0.000 H 
ATOM    138  H40 UNL A   1      10.657  29.157   2.774  1.00  0.00    +0.000 H 
ATOM    139  H41 UNL A   1      10.570  31.314  -0.776  1.00  0.00    +0.000 H 
ATOM    140  H42 UNL A   1      12.093  34.028  -1.462  1.00  0.00    +0.000 H 
ATOM    141  H43 UNL A   1      10.770  33.149  -3.490  1.00  0.00    +0.000 H 
ATOM    142  H44 UNL A   1       5.666  33.123  -0.816  1.00  0.00    +0.000 H 
ATOM    143  H45 UNL A   1       6.716  32.233   1.356  1.00  0.00    +0.000 H 
ATOM     40  C34 UNL A   1       8.688  30.211   0.907  1.00  0.00    +0.000 C 
ATOM     41  C35 UNL A   1       7.931  30.999  -0.109  1.00  0.00    +0.000 C 
ATOM     42  N5  UNL A   1       7.951  30.873  -1.399  1.00  0.00    +0.000 N 
ATOM     43  C36 UNL A   1       7.113  31.870  -1.895  1.00  0.00    +0.000 C 
ATOM     44  C37 UNL A   1       7.155  32.275  -3.195  1.00  0.00    +0.000 C 
ATOM     56  C44 UNL A   1       7.778  31.298  -4.043  1.00  0.00    +0.000 C 
ATOM     57  C45 UNL A   1       7.488  30.001  -4.416  1.00  0.00    +0.000 C 
ATOM     58  C46 UNL A   1       8.754  29.366  -4.579  1.00  0.00    +0.000 C 
ATOM     59  C47 UNL A   1       9.734  30.321  -4.313  1.00  0.00    +0.000 C 
ATOM     60  N6  UNL A   1       9.072  31.513  -4.444  1.00  0.00    +0.000 N 
ATOM     61  C48 UNL A   1      11.095  30.212  -3.849  1.00  0.00    +0.000 C 
ATOM     73  C55 UNL A   1      11.766  31.203  -3.194  1.00  0.00    +0.000 C 
ATOM     74  N7  UNL A   1      12.803  30.904  -2.325  1.00  0.00    +0.000 N 
ATOM     75  C56 UNL A   1      12.813  31.884  -1.465  1.00  0.00    +0.000 C 
ATOM     76  C57 UNL A   1      13.172  31.725  -0.034  1.00  0.00    +0.000 C 
ATOM     88  C64 UNL A   1      12.182  31.016   0.557  1.00  0.00    +0.000 C 
ATOM     89  C65 UNL A   1      12.167  30.291   1.811  1.00  0.00    +0.000 C 
ATOM     90  C66 UNL A   1      10.928  29.792   2.008  1.00  0.00    +0.000 C 
ATOM     91  C67 UNL A   1      10.032  30.293   0.968  1.00  0.00    +0.000 C 
ATOM     92  N8  UNL A   1      10.866  30.942   0.087  1.00  0.00    +0.000 N 
ATOM     93  C68 UNL A   1      12.094  33.080  -1.871  1.00  0.00    +0.000 C 
ATOM     94  C69 UNL A   1      11.436  32.598  -2.927  1.00  0.00    +0.000 C 
ATOM     95  C70 UNL A   1       6.440  32.443  -0.756  1.00  0.00    +0.000 C 
ATOM     96  C71 UNL A   1       6.950  31.976   0.384  1.00  0.00    +0.000 C 
ENDROOT
BRANCH   40   39
ATOM     97  C72 UNL A   1       7.672  28.040   1.657  1.00  0.00    +0.000 C 
ATOM     98  C73 UNL A   1       6.827  27.368   2.537  1.00  0.00    +0.000 C 
ATOM     36  C30 UNL A   1       6.202  28.038   3.606  1.00  0.00    +0.000 C 
ATOM     37  C31 UNL A   1       6.525  29.376   3.821  1.00  0.00    +0.000 C 
ATOM    132  H34 UNL A   1       6.162  29.862   4.657  1.00  0.00    +0.000 H 
ATOM     38  C32 UNL A   1       7.328  30.064   2.921  1.00  0.00    +0.000 C 
ATOM    133  H35 UNL A   1       7.524  31.066   3.069  1.00  0.00    +0.000 H 
ATOM     39  C33 UNL A   1       7.874  29.406   1.816  1.00  0.00    +0.000 C 
ATOM    144  H46 UNL A   1       8.144  27.529   0.894  1.00  0.00    +0.000 H 
ATOM    145  H47 UNL A   1       6.655  26.359   2.403  1.00  0.00    +0.000 H 
BRANCH   36   34
ATOM     34  C29 UNL A   1       5.193  27.261   4.380  1.00  0.00    +0.000 C 
ATOM     35  O2  UNL A   1       4.057  27.729   4.502  1.00  0.00    +0.000 O 
BRANCH   34   33
ATOM     33  N4  UNL A   1       5.438  26.082   5.028  1.00  0.00    +0.000 N 
ATOM    131  H33 UNL A   1       6.211  25.597   4.657  1.00  0.00    +0.000 H 
BRANCH   33   32
ATOM    129  H31 UNL A   1       4.522  26.110   6.867  1.00  0.00    +0.000 H 
ATOM    130  H32 UNL A   1       3.991  24.838   5.741  1.00  0.00    +0.000 H 
ATOM     32  C28 UNL A   1       4.819  25.386   6.139  1.00  0.00    +0.000 C 
BRANCH   32   31
ATOM    127  H29 UNL A   1       5.451  23.389   6.497  1.00  0.00    +0.000 H 
ATOM     31  C27 UNL A   1       5.739  24.367   6.820  1.00  0.00    +0.000 C 
ATOM    128  H30 UNL A   1       6.739  24.623   6.538  1.00  0.00    +0.000 H 
BRANCH   31   30
ATOM    126  H28 UNL A   1       6.288  23.572   8.683  1.00  0.00    +0.000 H 
ATOM    125  H27 UNL A   1       4.670  24.336   8.654  1.00  0.00    +0.000 H 
ATOM     30  C26 UNL A   1       5.695  24.398   8.351  1.00  0.00    +0.000 C 
BRANCH   30   29
ATOM    123  H25 UNL A   1       6.520  26.350   8.211  1.00  0.00    +0.000 H 
ATOM    124  H26 UNL A   1       5.584  26.011   9.694  1.00  0.00    +0.000 H 
ATOM     29  C25 UNL A   1       6.304  25.648   8.989  1.00  0.00    +0.000 C 
BRANCH   29   28
ATOM    121  H23 UNL A   1       8.295  24.907   9.135  1.00  0.00    +0.000 H 
ATOM    122  H24 UNL A   1       7.942  26.354  10.113  1.00  0.00    +0.000 H 
ATOM     28  C24 UNL A   1       7.595  25.399   9.780  1.00  0.00    +0.000 C 
BRANCH   28   27
ATOM     27  C23 UNL A   1       7.407  24.538  11.027  1.00  0.00    +0.000 C 
ATOM    119  H21 UNL A   1       6.400  24.179  11.052  1.00  0.00    +0.000 H 
ATOM    120  H22 UNL A   1       8.100  23.725  10.980  1.00  0.00    +0.000 H 
BRANCH   27   26
ATOM     26  N3  UNL A   1       7.669  25.293  12.237  1.00  0.00    +0.000 N 
ATOM    118  H20 UNL A   1       7.103  25.062  13.009  1.00  0.00    +0.000 H 
BRANCH   26   24
ATOM     25  O1  UNL A   1       9.718  25.936  12.820  1.00  0.00    +0.000 O 
ATOM     24  C22 UNL A   1       8.589  26.278  12.460  1.00  0.00    +0.000 C 
BRANCH   24   23
ATOM    116  H18 UNL A   1       9.026  28.331  12.718  1.00  0.00    +0.000 H 
ATOM    117  H19 UNL A   1       7.996  27.931  11.320  1.00  0.00    +0.000 H 
ATOM     23  C21 UNL A   1       8.209  27.743  12.352  1.00  0.00    +0.000 C 
BRANCH   23   22
ATOM      2  C2  UNL A   1       6.283  28.453  17.183  1.00  0.00    +0.000 C 
ATOM      3  C3  UNL A   1       7.617  28.307  16.800  1.00  0.00    +0.000 C 
ATOM      4  C4  UNL A   1       7.981  28.224  15.453  1.00  0.00    +0.000 C 
ATOM      5  C5  UNL A   1       6.968  28.268  14.479  1.00  0.00    +0.000 C 
ATOM      6  C6  UNL A   1       5.630  28.457  14.829  1.00  0.00    +0.000 C 
ATOM      7  C7  UNL A   1       5.287  28.546  16.198  1.00  0.00    +0.000 C 
ATOM    102  H4  UNL A   1       8.349  28.259  17.526  1.00  0.00    +0.000 H 
ATOM    104  H6  UNL A   1       4.302  28.679  16.474  1.00  0.00    +0.000 H 
ATOM    103  H5  UNL A   1       8.972  28.132  15.180  1.00  0.00    +0.000 H 
ATOM      8  C8  UNL A   1       4.880  28.511  13.618  1.00  0.00    +0.000 C 
ATOM     20  C19 UNL A   1       5.763  28.351  12.558  1.00  0.00    +0.000 C 
ATOM     22  N2  UNL A   1       7.012  28.108  13.102  1.00  0.00    +0.000 N 
BRANCH    2    1
ATOM      1  C1  UNL A   1       5.931  28.500  18.641  1.00  0.00    +0.000 C 
ATOM     99  H1  UNL A   1       6.251  29.434  19.054  1.00  0.00    +0.000 H 
ATOM    100  H2  UNL A   1       6.419  27.697  19.152  1.00  0.00    +0.000 H 
ATOM    101  H3  UNL A   1       4.871  28.404  18.755  1.00  0.00    +0.000 H 
ENDBRANCH    2    1
BRANCH    8    9
ATOM      9  C9  UNL A   1       3.446  28.693  13.431  1.00  0.00    +0.000 C 
ATOM     10  C10 UNL A   1       2.915  29.961  13.650  1.00  0.00    +0.000 C 
ATOM     11  C11 UNL A   1       1.570  30.140  13.423  1.00  0.00    +0.000 C 
ATOM    105  H7  UNL A   1       3.510  30.740  13.972  1.00  0.00    +0.000 H 
ATOM     13  C12 UNL A   1       1.237  27.924  12.790  1.00  0.00    +0.000 C 
ATOM    106  H8  UNL A   1       1.170  31.078  13.586  1.00  0.00    +0.000 H 
ATOM     12  N1  UNL A   1       0.742  29.162  12.999  1.00  0.00    +0.000 N 
ATOM     14  C13 UNL A   1       0.398  26.892  12.339  1.00  0.00    +0.000 C 
ATOM    112  H14 UNL A   1       4.060  26.099  12.967  1.00  0.00    +0.000 H 
ATOM     18  C17 UNL A   1       3.065  26.313  12.800  1.00  0.00    +0.000 C 
ATOM     19  C18 UNL A   1       2.603  27.632  13.010  1.00  0.00    +0.000 C 
ATOM     17  C16 UNL A   1       2.220  25.298  12.373  1.00  0.00    +0.000 C 
ATOM    111  H13 UNL A   1       2.580  24.340  12.234  1.00  0.00    +0.000 H 
ATOM     16  C15 UNL A   1       0.888  25.589  12.139  1.00  0.00    +0.000 C 
ATOM    110  H12 UNL A   1       0.249  24.844  11.816  1.00  0.00    +0.000 H 
BRANCH   14   15
ATOM    107  H9  UNL A   1      -1.361  28.066  12.473  1.00  0.00    +0.000 H 
ATOM    108  H10 UNL A   1      -1.644  26.341  12.464  1.00  0.00    +0.000 H 
ATOM    109  H11 UNL A   1      -1.209  27.164  10.985  1.00  0.00    +0.000 H 
ATOM     15  C14 UNL A   1      -1.059  27.133  12.044  1.00  0.00    +0.000 C 
ENDBRANCH   14   15
ENDBRANCH    8    9
BRANCH   20   21
ATOM    113  H15 UNL A   1       5.931  27.509  10.632  1.00  0.00    +0.000 H 
ATOM    114  H16 UNL A   1       5.888  29.256  10.658  1.00  0.00    +0.000 H 
ATOM    115  H17 UNL A   1       4.424  28.341  10.930  1.00  0.00    +0.000 H 
ATOM     21  C20 UNL A   1       5.482  28.365  11.091  1.00  0.00    +0.000 C 
ENDBRANCH   20   21
ENDBRANCH   23   22
ENDBRANCH   24   23
ENDBRANCH   26   24
ENDBRANCH   27   26
ENDBRANCH   28   27
ENDBRANCH   29   28
ENDBRANCH   30   29
ENDBRANCH   31   30
ENDBRANCH   32   31
ENDBRANCH   33   32
ENDBRANCH   34   33
ENDBRANCH   36   34
ENDBRANCH   40   39
BRANCH   44   45
ATOM     45  C38 UNL A   1       6.908  33.692  -3.654  1.00  0.00    +0.000 C 
ATOM     46  C39 UNL A   1       5.876  33.956  -4.578  1.00  0.00    +0.000 C 
ATOM     47  F1  UNL A   1       4.960  33.020  -4.867  1.00  0.00    +0.000 F 
ATOM     48  C40 UNL A   1       5.815  35.155  -5.295  1.00  0.00    +0.000 C 
ATOM     49  F2  UNL A   1       4.888  35.313  -6.250  1.00  0.00    +0.000 F 
ATOM     50  C41 UNL A   1       6.746  36.153  -5.074  1.00  0.00    +0.000 C 
ATOM     51  F3  UNL A   1       6.725  37.277  -5.801  1.00  0.00    +0.000 F 
ATOM     52  C42 UNL A   1       7.733  35.958  -4.131  1.00  0.00    +0.000 C 
ATOM     53  F4  UNL A   1       8.656  36.906  -3.917  1.00  0.00    +0.000 F 
ATOM     54  C43 UNL A   1       7.828  34.742  -3.452  1.00  0.00    +0.000 C 
ATOM     55  F5  UNL A   1       8.911  34.598  -2.679  1.00  0.00    +0.000 F 
ENDBRANCH   44   45
BRANCH   61   62
ATOM     65  C51 UNL A   1      12.050  26.642  -2.836  1.00  0.00    +0.000 C 
ATOM     66  F7  UNL A   1      11.915  25.808  -1.793  1.00  0.00    +0.000 F 
ATOM     67  C52 UNL A   1      12.644  26.192  -4.005  1.00  0.00    +0.000 C 
ATOM     68  F8  UNL A   1      13.073  24.925  -4.097  1.00  0.00    +0.000 F 
ATOM     69  C53 UNL A   1      12.761  27.045  -5.091  1.00  0.00    +0.000 C 
ATOM     70  F9  UNL A   1      13.286  26.598  -6.239  1.00  0.00    +0.000 F 
ATOM     71  C54 UNL A   1      12.305  28.357  -5.002  1.00  0.00    +0.000 C 
ATOM     72  F10 UNL A   1      12.408  29.149  -6.081  1.00  0.00    +0.000 F 
ATOM     62  C49 UNL A   1      11.697  28.837  -3.834  1.00  0.00    +0.000 C 
ATOM     63  C50 UNL A   1      11.558  27.943  -2.759  1.00  0.00    +0.000 C 
ATOM     64  F6  UNL A   1      10.894  28.302  -1.651  1.00  0.00    +0.000 F 
ENDBRANCH   61   62
BRANCH   76   77
ATOM     77  C58 UNL A   1      14.216  32.548   0.617  1.00  0.00    +0.000 C 
ATOM     78  C59 UNL A   1      13.866  33.608   1.470  1.00  0.00    +0.000 C 
ATOM     79  F11 UNL A   1      12.597  34.039   1.525  1.00  0.00    +0.000 F 
ATOM     80  C60 UNL A   1      14.796  34.189   2.336  1.00  0.00    +0.000 C 
ATOM     81  F12 UNL A   1      14.409  35.148   3.187  1.00  0.00    +0.000 F 
ATOM     82  C61 UNL A   1      16.106  33.735   2.365  1.00  0.00    +0.000 C 
ATOM     83  F13 UNL A   1      16.981  34.245   3.242  1.00  0.00    +0.000 F 
ATOM     84  C62 UNL A   1      16.491  32.719   1.511  1.00  0.00    +0.000 C 
ATOM     85  F14 UNL A   1      17.746  32.249   1.552  1.00  0.00    +0.000 F 
ATOM     86  C63 UNL A   1      15.561  32.132   0.653  1.00  0.00    +0.000 C 
ATOM     87  F15 UNL A   1      15.979  31.085  -0.072  1.00  0.00    +0.000 F 
ENDBRANCH   76   77
TORSDOF 20
ENDMDL
MODEL 9
REMARK VINA RESULT:     -10.7     36.007     41.402
ROOT
ATOM    134  H36 UNL A   1       8.421  -1.094  29.717  1.00  0.00    +0.000 H 
ATOM    135  H37 UNL A   1      10.940  -0.751  28.920  1.00  0.00    +0.000 H 
ATOM    136  H38 UNL A   1       8.990  -3.001  26.221  1.00  0.00    +0.000 H 
ATOM    137  H39 UNL A   1      10.158   3.987  21.864  1.00  0.00    +0.000 H 
ATOM    138  H40 UNL A   1       8.950   4.945  23.893  1.00  0.00    +0.000 H 
ATOM    139  H41 UNL A   1       8.942   0.809  24.286  1.00  0.00    +0.000 H 
ATOM    140  H42 UNL A   1       8.725  -1.382  21.982  1.00  0.00    +0.000 H 
ATOM    141  H43 UNL A   1       9.021  -2.473  24.298  1.00  0.00    +0.000 H 
ATOM    142  H44 UNL A   1       4.345  -0.041  26.625  1.00  0.00    +0.000 H 
ATOM    143  H45 UNL A   1       4.824   2.197  25.453  1.00  0.00    +0.000 H 
ATOM     40  C34 UNL A   1       7.595   2.904  25.465  1.00  0.00    +0.000 C 
ATOM     41  C35 UNL A   1       6.962   1.655  25.982  1.00  0.00    +0.000 C 
ATOM     42  N5  UNL A   1       7.525   0.673  26.614  1.00  0.00    +0.000 N 
ATOM     43  C36 UNL A   1       6.520  -0.268  26.834  1.00  0.00    +0.000 C 
ATOM     44  C37 UNL A   1       6.794  -1.564  27.150  1.00  0.00    +0.000 C 
ATOM     56  C44 UNL A   1       8.126  -1.722  27.662  1.00  0.00    +0.000 C 
ATOM     57  C45 UNL A   1       8.805  -1.268  28.774  1.00  0.00    +0.000 C 
ATOM     58  C46 UNL A   1      10.154  -1.094  28.345  1.00  0.00    +0.000 C 
ATOM     59  C47 UNL A   1      10.213  -1.470  27.003  1.00  0.00    +0.000 C 
ATOM     60  N6  UNL A   1       9.088  -2.233  26.829  1.00  0.00    +0.000 N 
ATOM     61  C48 UNL A   1      11.094  -1.091  25.926  1.00  0.00    +0.000 C 
ATOM     73  C55 UNL A   1      10.765  -1.156  24.604  1.00  0.00    +0.000 C 
ATOM     74  N7  UNL A   1      11.372  -0.322  23.679  1.00  0.00    +0.000 N 
ATOM     75  C56 UNL A   1      10.494  -0.185  22.725  1.00  0.00    +0.000 C 
ATOM     76  C57 UNL A   1      10.320   1.059  21.935  1.00  0.00    +0.000 C 
ATOM     88  C64 UNL A   1       9.795   1.995  22.760  1.00  0.00    +0.000 C 
ATOM     89  C65 UNL A   1       9.743   3.437  22.631  1.00  0.00    +0.000 C 
ATOM     90  C66 UNL A   1       9.060   3.942  23.681  1.00  0.00    +0.000 C 
ATOM     91  C67 UNL A   1       8.501   2.845  24.470  1.00  0.00    +0.000 C 
ATOM     92  N8  UNL A   1       9.054   1.714  23.914  1.00  0.00    +0.000 N 
ATOM     93  C68 UNL A   1       9.427  -1.171  22.710  1.00  0.00    +0.000 C 
ATOM     94  C69 UNL A   1       9.617  -1.726  23.908  1.00  0.00    +0.000 C 
ATOM     95  C70 UNL A   1       5.280   0.364  26.460  1.00  0.00    +0.000 C 
ATOM     96  C71 UNL A   1       5.501   1.540  25.873  1.00  0.00    +0.000 C 
ENDROOT
BRANCH   40   39
ATOM     97  C72 UNL A   1       5.900   4.723  25.815  1.00  0.00    +0.000 C 
ATOM     98  C73 UNL A   1       5.575   5.944  26.403  1.00  0.00    +0.000 C 
ATOM     36  C30 UNL A   1       6.459   6.587  27.291  1.00  0.00    +0.000 C 
ATOM     37  C31 UNL A   1       7.633   5.924  27.643  1.00  0.00    +0.000 C 
ATOM    132  H34 UNL A   1       8.248   6.325  28.369  1.00  0.00    +0.000 H 
ATOM     38  C32 UNL A   1       7.985   4.731  27.026  1.00  0.00    +0.000 C 
ATOM    133  H35 UNL A   1       8.878   4.274  27.265  1.00  0.00    +0.000 H 
ATOM     39  C33 UNL A   1       7.136   4.146  26.083  1.00  0.00    +0.000 C 
ATOM    144  H46 UNL A   1       5.230   4.252  25.188  1.00  0.00    +0.000 H 
ATOM    145  H47 UNL A   1       4.669   6.387  26.184  1.00  0.00    +0.000 H 
BRANCH   36   34
ATOM     34  C29 UNL A   1       6.082   7.961  27.727  1.00  0.00    +0.000 C 
ATOM     35  O2  UNL A   1       5.021   8.439  27.315  1.00  0.00    +0.000 O 
BRANCH   34   33
ATOM     33  N4  UNL A   1       6.855   8.776  28.509  1.00  0.00    +0.000 N 
ATOM    131  H33 UNL A   1       6.546   8.809  29.443  1.00  0.00    +0.000 H 
BRANCH   33   32
ATOM    129  H31 UNL A   1       7.938  10.484  28.869  1.00  0.00    +0.000 H 
ATOM    130  H32 UNL A   1       8.878   9.011  28.531  1.00  0.00    +0.000 H 
ATOM     32  C28 UNL A   1       8.023   9.601  28.273  1.00  0.00    +0.000 C 
BRANCH   32   31
ATOM    127  H29 UNL A   1       7.230  10.070  26.358  1.00  0.00    +0.000 H 
ATOM     31  C27 UNL A   1       8.198  10.021  26.810  1.00  0.00    +0.000 C 
ATOM    128  H30 UNL A   1       8.703  10.965  26.822  1.00  0.00    +0.000 H 
BRANCH   31   30
ATOM    126  H28 UNL A   1       8.557   8.132  25.968  1.00  0.00    +0.000 H 
ATOM    125  H27 UNL A   1      10.035   9.026  26.432  1.00  0.00    +0.000 H 
ATOM     30  C26 UNL A   1       9.067   9.072  25.978  1.00  0.00    +0.000 C 
BRANCH   30   29
ATOM    123  H25 UNL A   1       8.767  10.423  24.367  1.00  0.00    +0.000 H 
ATOM    124  H26 UNL A   1      10.302   9.511  24.336  1.00  0.00    +0.000 H 
ATOM     29  C25 UNL A   1       9.247   9.478  24.514  1.00  0.00    +0.000 C 
BRANCH   29   28
ATOM    121  H23 UNL A   1       8.428   9.021  22.603  1.00  0.00    +0.000 H 
ATOM    122  H24 UNL A   1       9.412   7.733  23.342  1.00  0.00    +0.000 H 
ATOM     28  C24 UNL A   1       8.668   8.485  23.498  1.00  0.00    +0.000 C 
BRANCH   28   27
ATOM     27  C23 UNL A   1       7.409   7.766  23.977  1.00  0.00    +0.000 C 
ATOM    119  H21 UNL A   1       7.345   6.816  23.491  1.00  0.00    +0.000 H 
ATOM    120  H22 UNL A   1       7.474   7.647  25.038  1.00  0.00    +0.000 H 
BRANCH   27   26
ATOM     26  N3  UNL A   1       6.214   8.532  23.676  1.00  0.00    +0.000 N 
ATOM    118  H20 UNL A   1       6.304   9.508  23.773  1.00  0.00    +0.000 H 
BRANCH   26   24
ATOM     25  O1  UNL A   1       4.124   7.933  24.148  1.00  0.00    +0.000 O 
ATOM     24  C22 UNL A   1       4.984   8.093  23.278  1.00  0.00    +0.000 C 
BRANCH   24   23
ATOM    116  H18 UNL A   1       3.685   7.442  21.741  1.00  0.00    +0.000 H 
ATOM    117  H19 UNL A   1       4.945   8.602  21.247  1.00  0.00    +0.000 H 
ATOM     23  C21 UNL A   1       4.711   7.734  21.829  1.00  0.00    +0.000 C 
BRANCH   23   22
ATOM      2  C2  UNL A   1       5.595   2.569  22.122  1.00  0.00    +0.000 C 
ATOM      3  C3  UNL A   1       4.508   3.286  22.623  1.00  0.00    +0.000 C 
ATOM      4  C4  UNL A   1       4.366   4.655  22.376  1.00  0.00    +0.000 C 
ATOM      5  C5  UNL A   1       5.359   5.309  21.626  1.00  0.00    +0.000 C 
ATOM      6  C6  UNL A   1       6.435   4.610  21.076  1.00  0.00    +0.000 C 
ATOM      7  C7  UNL A   1       6.552   3.224  21.332  1.00  0.00    +0.000 C 
ATOM    102  H4  UNL A   1       3.795   2.797  23.186  1.00  0.00    +0.000 H 
ATOM    104  H6  UNL A   1       7.344   2.694  20.938  1.00  0.00    +0.000 H 
ATOM    103  H5  UNL A   1       3.551   5.173  22.738  1.00  0.00    +0.000 H 
ATOM      8  C8  UNL A   1       7.214   5.547  20.336  1.00  0.00    +0.000 C 
ATOM     20  C19 UNL A   1       6.610   6.793  20.450  1.00  0.00    +0.000 C 
ATOM     22  N2  UNL A   1       5.541   6.649  21.315  1.00  0.00    +0.000 N 
BRANCH    2    1
ATOM      1  C1  UNL A   1       5.729   1.109  22.441  1.00  0.00    +0.000 C 
ATOM     99  H1  UNL A   1       5.266   0.531  21.669  1.00  0.00    +0.000 H 
ATOM    100  H2  UNL A   1       5.252   0.902  23.376  1.00  0.00    +0.000 H 
ATOM    101  H3  UNL A   1       6.767   0.851  22.505  1.00  0.00    +0.000 H 
ENDBRANCH    2    1
BRANCH    8    9
ATOM      9  C9  UNL A   1       8.437   5.327  19.574  1.00  0.00    +0.000 C 
ATOM     10  C10 UNL A   1       9.634   5.790  20.112  1.00  0.00    +0.000 C 
ATOM     11  C11 UNL A   1      10.791   5.535  19.413  1.00  0.00    +0.000 C 
ATOM    105  H7  UNL A   1       9.653   6.307  21.005  1.00  0.00    +0.000 H 
ATOM     13  C12 UNL A   1       9.679   4.414  17.702  1.00  0.00    +0.000 C 
ATOM    106  H8  UNL A   1      11.683   5.877  19.806  1.00  0.00    +0.000 H 
ATOM     12  N1  UNL A   1      10.831   4.862  18.243  1.00  0.00    +0.000 N 
ATOM     14  C13 UNL A   1       9.695   3.703  16.491  1.00  0.00    +0.000 C 
ATOM    112  H14 UNL A   1       6.346   4.340  18.167  1.00  0.00    +0.000 H 
ATOM     18  C17 UNL A   1       7.255   4.170  17.710  1.00  0.00    +0.000 C 
ATOM     19  C18 UNL A   1       8.434   4.638  18.333  1.00  0.00    +0.000 C 
ATOM     17  C16 UNL A   1       7.283   3.486  16.503  1.00  0.00    +0.000 C 
ATOM    111  H13 UNL A   1       6.407   3.159  16.065  1.00  0.00    +0.000 H 
ATOM     16  C15 UNL A   1       8.504   3.249  15.896  1.00  0.00    +0.000 C 
ATOM    110  H12 UNL A   1       8.541   2.737  15.000  1.00  0.00    +0.000 H 
BRANCH   14   15
ATOM    107  H9  UNL A   1      10.769   2.956  14.823  1.00  0.00    +0.000 H 
ATOM    108  H10 UNL A   1      11.555   2.697  16.362  1.00  0.00    +0.000 H 
ATOM    109  H11 UNL A   1      11.545   4.289  15.643  1.00  0.00    +0.000 H 
ATOM     15  C14 UNL A   1      10.984   3.389  15.778  1.00  0.00    +0.000 C 
ENDBRANCH   14   15
ENDBRANCH    8    9
BRANCH   20   21
ATOM    113  H15 UNL A   1       6.212   8.473  19.240  1.00  0.00    +0.000 H 
ATOM    114  H16 UNL A   1       7.877   7.942  19.217  1.00  0.00    +0.000 H 
ATOM    115  H17 UNL A   1       7.250   8.795  20.607  1.00  0.00    +0.000 H 
ATOM     21  C20 UNL A   1       7.016   8.092  19.835  1.00  0.00    +0.000 C 
ENDBRANCH   20   21
ENDBRANCH   23   22
ENDBRANCH   24   23
ENDBRANCH   26   24
ENDBRANCH   27   26
ENDBRANCH   28   27
ENDBRANCH   29   28
ENDBRANCH   30   29
ENDBRANCH   31   30
ENDBRANCH   32   31
ENDBRANCH   33   32
ENDBRANCH   34   33
ENDBRANCH   36   34
ENDBRANCH   40   39
BRANCH   44   45
ATOM     45  C38 UNL A   1       5.962  -2.743  26.706  1.00  0.00    +0.000 C 
ATOM     46  C39 UNL A   1       5.733  -2.957  25.331  1.00  0.00    +0.000 C 
ATOM     47  F1  UNL A   1       6.436  -2.285  24.407  1.00  0.00    +0.000 F 
ATOM     48  C40 UNL A   1       4.714  -3.798  24.874  1.00  0.00    +0.000 C 
ATOM     49  F2  UNL A   1       4.455  -3.878  23.562  1.00  0.00    +0.000 F 
ATOM     50  C41 UNL A   1       3.927  -4.498  25.770  1.00  0.00    +0.000 C 
ATOM     51  F3  UNL A   1       2.914  -5.259  25.336  1.00  0.00    +0.000 F 
ATOM     52  C42 UNL A   1       4.163  -4.365  27.122  1.00  0.00    +0.000 C 
ATOM     53  F4  UNL A   1       3.398  -5.021  28.006  1.00  0.00    +0.000 F 
ATOM     54  C43 UNL A   1       5.143  -3.486  27.583  1.00  0.00    +0.000 C 
ATOM     55  F5  UNL A   1       5.183  -3.312  28.909  1.00  0.00    +0.000 F 
ENDBRANCH   44   45
BRANCH   61   62
ATOM     65  C51 UNL A   1      14.739  -0.008  26.403  1.00  0.00    +0.000 C 
ATOM     66  F7  UNL A   1      15.977  -0.503  26.248  1.00  0.00    +0.000 F 
ATOM     67  C52 UNL A   1      14.568   1.311  26.792  1.00  0.00    +0.000 C 
ATOM     68  F8  UNL A   1      15.637   2.094  27.002  1.00  0.00    +0.000 F 
ATOM     69  C53 UNL A   1      13.290   1.828  26.928  1.00  0.00    +0.000 C 
ATOM     70  F9  UNL A   1      13.121   3.117  27.251  1.00  0.00    +0.000 F 
ATOM     71  C54 UNL A   1      12.180   1.021  26.699  1.00  0.00    +0.000 C 
ATOM     72  F10 UNL A   1      10.956   1.561  26.812  1.00  0.00    +0.000 F 
ATOM     62  C49 UNL A   1      12.324  -0.315  26.300  1.00  0.00    +0.000 C 
ATOM     63  C50 UNL A   1      13.630  -0.807  26.135  1.00  0.00    +0.000 C 
ATOM     64  F6  UNL A   1      13.841  -2.042  25.656  1.00  0.00    +0.000 F 
ENDBRANCH   61   62
BRANCH   76   77
ATOM     77  C58 UNL A   1      10.360   1.070  20.455  1.00  0.00    +0.000 C 
ATOM     78  C59 UNL A   1      11.586   1.044  19.771  1.00  0.00    +0.000 C 
ATOM     79  F11 UNL A   1      12.734   1.246  20.435  1.00  0.00    +0.000 F 
ATOM     80  C60 UNL A   1      11.659   0.734  18.410  1.00  0.00    +0.000 C 
ATOM     81  F12 UNL A   1      12.852   0.648  17.807  1.00  0.00    +0.000 F 
ATOM     82  C61 UNL A   1      10.507   0.453  17.693  1.00  0.00    +0.000 C 
ATOM     83  F13 UNL A   1      10.581   0.091  16.405  1.00  0.00    +0.000 F 
ATOM     84  C62 UNL A   1       9.280   0.507  18.329  1.00  0.00    +0.000 C 
ATOM     85  F14 UNL A   1       8.162   0.206  17.655  1.00  0.00    +0.000 F 
ATOM     86  C63 UNL A   1       9.208   0.807  19.689  1.00  0.00    +0.000 C 
ATOM     87  F15 UNL A   1       7.998   0.740  20.262  1.00  0.00    +0.000 F 
ENDBRANCH   76   77
TORSDOF 20
ENDMDL
MODEL 10
REMARK VINA RESULT:     -10.6     33.750     40.560
ROOT
ATOM    134  H36 UNL A   1       6.439  29.632  -4.440  1.00  0.00    +0.000 H 
ATOM    135  H37 UNL A   1       8.783  28.378  -4.615  1.00  0.00    +0.000 H 
ATOM    136  H38 UNL A   1       9.392  32.349  -4.711  1.00  0.00    +0.000 H 
ATOM    137  H39 UNL A   1      12.684  30.451   2.689  1.00  0.00    +0.000 H 
ATOM    138  H40 UNL A   1      10.345  29.489   3.002  1.00  0.00    +0.000 H 
ATOM    139  H41 UNL A   1      10.389  31.475  -0.648  1.00  0.00    +0.000 H 
ATOM    140  H42 UNL A   1      11.979  34.125  -1.422  1.00  0.00    +0.000 H 
ATOM    141  H43 UNL A   1      10.692  33.173  -3.441  1.00  0.00    +0.000 H 
ATOM    142  H44 UNL A   1       5.522  33.365  -0.904  1.00  0.00    +0.000 H 
ATOM    143  H45 UNL A   1       6.500  32.562   1.335  1.00  0.00    +0.000 H 
ATOM     40  C34 UNL A   1       8.444  30.487   1.036  1.00  0.00    +0.000 C 
ATOM     41  C35 UNL A   1       7.728  31.238  -0.037  1.00  0.00    +0.000 C 
ATOM     42  N5  UNL A   1       7.779  31.050  -1.318  1.00  0.00    +0.000 N 
ATOM     43  C36 UNL A   1       6.972  32.037  -1.883  1.00  0.00    +0.000 C 
ATOM     44  C37 UNL A   1       7.055  32.378  -3.199  1.00  0.00    +0.000 C 
ATOM     56  C44 UNL A   1       7.681  31.350  -3.983  1.00  0.00    +0.000 C 
ATOM     57  C45 UNL A   1       7.376  30.042  -4.301  1.00  0.00    +0.000 C 
ATOM     58  C46 UNL A   1       8.634  29.377  -4.401  1.00  0.00    +0.000 C 
ATOM     59  C47 UNL A   1       9.625  30.327  -4.154  1.00  0.00    +0.000 C 
ATOM     60  N6  UNL A   1       8.988  31.523  -4.360  1.00  0.00    +0.000 N 
ATOM     61  C48 UNL A   1      10.972  30.217  -3.650  1.00  0.00    +0.000 C 
ATOM     73  C55 UNL A   1      11.644  31.226  -3.025  1.00  0.00    +0.000 C 
ATOM     74  N7  UNL A   1      12.653  30.951  -2.116  1.00  0.00    +0.000 N 
ATOM     75  C56 UNL A   1      12.659  31.972  -1.304  1.00  0.00    +0.000 C 
ATOM     76  C57 UNL A   1      12.978  31.875   0.141  1.00  0.00    +0.000 C 
ATOM     88  C64 UNL A   1      11.960  31.213   0.739  1.00  0.00    +0.000 C 
ATOM     89  C65 UNL A   1      11.900  30.550   2.026  1.00  0.00    +0.000 C 
ATOM     90  C66 UNL A   1      10.647  30.083   2.214  1.00  0.00    +0.000 C 
ATOM     91  C67 UNL A   1       9.787  30.548   1.127  1.00  0.00    +0.000 C 
ATOM     92  N8  UNL A   1      10.655  31.140   0.239  1.00  0.00    +0.000 N 
ATOM     93  C68 UNL A   1      11.973  33.159  -1.785  1.00  0.00    +0.000 C 
ATOM     94  C69 UNL A   1      11.333  32.638  -2.835  1.00  0.00    +0.000 C 
ATOM     95  C70 UNL A   1       6.281  32.675  -0.791  1.00  0.00    +0.000 C 
ATOM     96  C71 UNL A   1       6.754  32.255   0.383  1.00  0.00    +0.000 C 
ENDROOT
BRANCH   40   39
ATOM     97  C72 UNL A   1       7.457  28.358   1.930  1.00  0.00    +0.000 C 
ATOM     98  C73 UNL A   1       6.572  27.739   2.810  1.00  0.00    +0.000 C 
ATOM     36  C30 UNL A   1       5.838  28.485   3.753  1.00  0.00    +0.000 C 
ATOM     37  C31 UNL A   1       6.090  29.851   3.849  1.00  0.00    +0.000 C 
ATOM    132  H34 UNL A   1       5.643  30.402   4.600  1.00  0.00    +0.000 H 
ATOM     38  C32 UNL A   1       6.935  30.481   2.946  1.00  0.00    +0.000 C 
ATOM    133  H35 UNL A   1       7.079  31.501   3.002  1.00  0.00    +0.000 H 
ATOM     39  C33 UNL A   1       7.593  29.741   1.960  1.00  0.00    +0.000 C 
ATOM    144  H46 UNL A   1       8.008  27.794   1.263  1.00  0.00    +0.000 H 
ATOM    145  H47 UNL A   1       6.450  26.715   2.770  1.00  0.00    +0.000 H 
BRANCH   36   34
ATOM     34  C29 UNL A   1       4.801  27.744   4.525  1.00  0.00    +0.000 C 
ATOM     35  O2  UNL A   1       4.561  28.102   5.682  1.00  0.00    +0.000 O 
BRANCH   34   33
ATOM     33  N4  UNL A   1       4.124  26.643   4.075  1.00  0.00    +0.000 N 
ATOM    131  H33 UNL A   1       3.826  26.736   3.141  1.00  0.00    +0.000 H 
BRANCH   33   32
ATOM    129  H31 UNL A   1       3.276  25.562   5.603  1.00  0.00    +0.000 H 
ATOM    130  H32 UNL A   1       3.095  24.888   3.966  1.00  0.00    +0.000 H 
ATOM     32  C28 UNL A   1       3.747  25.372   4.662  1.00  0.00    +0.000 C 
BRANCH   32   31
ATOM    127  H29 UNL A   1       4.580  23.421   4.777  1.00  0.00    +0.000 H 
ATOM     31  C27 UNL A   1       4.928  24.425   4.896  1.00  0.00    +0.000 C 
ATOM    128  H30 UNL A   1       5.681  24.693   4.184  1.00  0.00    +0.000 H 
BRANCH   31   30
ATOM    126  H28 UNL A   1       5.580  25.590   6.515  1.00  0.00    +0.000 H 
ATOM    125  H27 UNL A   1       6.553  24.117   6.228  1.00  0.00    +0.000 H 
ATOM     30  C26 UNL A   1       5.574  24.547   6.280  1.00  0.00    +0.000 C 
BRANCH   30   29
ATOM    123  H25 UNL A   1       5.414  23.897   8.295  1.00  0.00    +0.000 H 
ATOM    124  H26 UNL A   1       3.882  24.379   7.514  1.00  0.00    +0.000 H 
ATOM     29  C25 UNL A   1       4.811  23.857   7.412  1.00  0.00    +0.000 C 
BRANCH   29   28
ATOM    121  H23 UNL A   1       3.422  22.339   6.865  1.00  0.00    +0.000 H 
ATOM    122  H24 UNL A   1       5.108  22.050   6.367  1.00  0.00    +0.000 H 
ATOM     28  C24 UNL A   1       4.454  22.389   7.143  1.00  0.00    +0.000 C 
BRANCH   28   27
ATOM     27  C23 UNL A   1       4.673  21.465   8.339  1.00  0.00    +0.000 C 
ATOM    119  H21 UNL A   1       4.669  22.049   9.235  1.00  0.00    +0.000 H 
ATOM    120  H22 UNL A   1       3.885  20.742   8.352  1.00  0.00    +0.000 H 
BRANCH   27   26
ATOM     26  N3  UNL A   1       5.937  20.760   8.241  1.00  0.00    +0.000 N 
ATOM    118  H20 UNL A   1       6.222  20.531   7.326  1.00  0.00    +0.000 H 
BRANCH   26   24
ATOM     25  O1  UNL A   1       6.449  19.413   9.936  1.00  0.00    +0.000 O 
ATOM     24  C22 UNL A   1       6.788  20.370   9.234  1.00  0.00    +0.000 C 
BRANCH   24   23
ATOM    116  H18 UNL A   1       8.376  20.916  10.519  1.00  0.00    +0.000 H 
ATOM    117  H19 UNL A   1       8.780  20.831   8.786  1.00  0.00    +0.000 H 
ATOM     23  C21 UNL A   1       8.065  21.139   9.520  1.00  0.00    +0.000 C 
BRANCH   23   22
ATOM      2  C2  UNL A   1       9.478  25.294   6.641  1.00  0.00    +0.000 C 
ATOM      3  C3  UNL A   1       9.618  23.941   6.328  1.00  0.00    +0.000 C 
ATOM      4  C4  UNL A   1       9.098  22.946   7.161  1.00  0.00    +0.000 C 
ATOM      5  C5  UNL A   1       8.445  23.333   8.344  1.00  0.00    +0.000 C 
ATOM      6  C6  UNL A   1       8.252  24.679   8.662  1.00  0.00    +0.000 C 
ATOM      7  C7  UNL A   1       8.780  25.667   7.800  1.00  0.00    +0.000 C 
ATOM    102  H4  UNL A   1      10.114  23.671   5.464  1.00  0.00    +0.000 H 
ATOM    104  H6  UNL A   1       8.651  26.666   8.023  1.00  0.00    +0.000 H 
ATOM    103  H5  UNL A   1       9.193  21.949   6.912  1.00  0.00    +0.000 H 
ATOM      8  C8  UNL A   1       7.516  24.722   9.882  1.00  0.00    +0.000 C 
ATOM     20  C19 UNL A   1       7.277  23.416  10.288  1.00  0.00    +0.000 C 
ATOM     22  N2  UNL A   1       7.932  22.587   9.395  1.00  0.00    +0.000 N 
BRANCH    2    1
ATOM      1  C1  UNL A   1      10.082  26.329   5.739  1.00  0.00    +0.000 C 
ATOM     99  H1  UNL A   1       9.443  27.187   5.702  1.00  0.00    +0.000 H 
ATOM    100  H2  UNL A   1      10.195  25.925   4.755  1.00  0.00    +0.000 H 
ATOM    101  H3  UNL A   1      11.042  26.617   6.119  1.00  0.00    +0.000 H 
ENDBRANCH    2    1
BRANCH    8    9
ATOM      9  C9  UNL A   1       7.058  25.881  10.639  1.00  0.00    +0.000 C 
ATOM     10  C10 UNL A   1       5.943  26.570  10.167  1.00  0.00    +0.000 C 
ATOM     11  C11 UNL A   1       5.484  27.631  10.913  1.00  0.00    +0.000 C 
ATOM    105  H7  UNL A   1       5.477  26.293   9.289  1.00  0.00    +0.000 H 
ATOM     13  C12 UNL A   1       7.135  27.389  12.537  1.00  0.00    +0.000 C 
ATOM    106  H8  UNL A   1       4.659  28.147  10.567  1.00  0.00    +0.000 H 
ATOM     12  N1  UNL A   1       6.049  28.038  12.069  1.00  0.00    +0.000 N 
ATOM     14  C13 UNL A   1       7.734  27.787  13.744  1.00  0.00    +0.000 C 
ATOM    112  H14 UNL A   1       9.260  24.872  11.844  1.00  0.00    +0.000 H 
ATOM     18  C17 UNL A   1       8.848  25.666  12.358  1.00  0.00    +0.000 C 
ATOM     19  C18 UNL A   1       7.694  26.295  11.838  1.00  0.00    +0.000 C 
ATOM     17  C16 UNL A   1       9.442  26.082  13.542  1.00  0.00    +0.000 C 
ATOM    111  H13 UNL A   1      10.288  25.611  13.898  1.00  0.00    +0.000 H 
ATOM     16  C15 UNL A   1       8.882  27.140  14.236  1.00  0.00    +0.000 C 
ATOM    110  H12 UNL A   1       9.309  27.457  15.121  1.00  0.00    +0.000 H 
BRANCH   14   15
ATOM    107  H9  UNL A   1       7.508  28.823  15.578  1.00  0.00    +0.000 H 
ATOM    108  H10 UNL A   1       6.103  28.880  14.541  1.00  0.00    +0.000 H 
ATOM    109  H11 UNL A   1       7.507  29.850  14.165  1.00  0.00    +0.000 H 
ATOM     15  C14 UNL A   1       7.173  28.917  14.567  1.00  0.00    +0.000 C 
ENDBRANCH   14   15
ENDBRANCH    8    9
BRANCH   20   21
ATOM    113  H15 UNL A   1       5.664  22.374  11.157  1.00  0.00    +0.000 H 
ATOM    114  H16 UNL A   1       6.207  23.761  12.071  1.00  0.00    +0.000 H 
ATOM    115  H17 UNL A   1       7.153  22.292  12.068  1.00  0.00    +0.000 H 
ATOM     21  C20 UNL A   1       6.522  22.926  11.480  1.00  0.00    +0.000 C 
ENDBRANCH   20   21
ENDBRANCH   23   22
ENDBRANCH   24   23
ENDBRANCH   26   24
ENDBRANCH   27   26
ENDBRANCH   28   27
ENDBRANCH   29   28
ENDBRANCH   30   29
ENDBRANCH   31   30
ENDBRANCH   32   31
ENDBRANCH   33   32
ENDBRANCH   34   33
ENDBRANCH   36   34
ENDBRANCH   40   39
BRANCH   44   45
ATOM     45  C38 UNL A   1       6.847  33.775  -3.732  1.00  0.00    +0.000 C 
ATOM     46  C39 UNL A   1       5.848  34.011  -4.699  1.00  0.00    +0.000 C 
ATOM     47  F1  UNL A   1       4.924  33.077  -4.972  1.00  0.00    +0.000 F 
ATOM     48  C40 UNL A   1       5.829  35.175  -5.473  1.00  0.00    +0.000 C 
ATOM     49  F2  UNL A   1       4.934  35.303  -6.462  1.00  0.00    +0.000 F 
ATOM     50  C41 UNL A   1       6.770  36.168  -5.270  1.00  0.00    +0.000 C 
ATOM     51  F3  UNL A   1       6.789  37.257  -6.049  1.00  0.00    +0.000 F 
ATOM     52  C42 UNL A   1       7.724  36.002  -4.289  1.00  0.00    +0.000 C 
ATOM     53  F4  UNL A   1       8.657  36.945  -4.090  1.00  0.00    +0.000 F 
ATOM     54  C43 UNL A   1       7.778  34.819  -3.551  1.00  0.00    +0.000 C 
ATOM     55  F5  UNL A   1       8.834  34.695  -2.739  1.00  0.00    +0.000 F 
ENDBRANCH   44   45
BRANCH   61   62
ATOM     65  C51 UNL A   1      13.026  27.050  -4.306  1.00  0.00    +0.000 C 
ATOM     66  F7  UNL A   1      13.873  26.557  -5.223  1.00  0.00    +0.000 F 
ATOM     67  C52 UNL A   1      12.765  26.328  -3.152  1.00  0.00    +0.000 C 
ATOM     68  F8  UNL A   1      13.364  25.146  -2.947  1.00  0.00    +0.000 F 
ATOM     69  C53 UNL A   1      11.910  26.849  -2.194  1.00  0.00    +0.000 C 
ATOM     70  F9  UNL A   1      11.697  26.180  -1.053  1.00  0.00    +0.000 F 
ATOM     71  C54 UNL A   1      11.296  28.082  -2.398  1.00  0.00    +0.000 C 
ATOM     72  F10 UNL A   1      10.496  28.570  -1.438  1.00  0.00    +0.000 F 
ATOM     62  C49 UNL A   1      11.547  28.834  -3.554  1.00  0.00    +0.000 C 
ATOM     63  C50 UNL A   1      12.444  28.301  -4.495  1.00  0.00    +0.000 C 
ATOM     64  F6  UNL A   1      12.809  29.012  -5.572  1.00  0.00    +0.000 F 
ENDBRANCH   61   62
BRANCH   76   77
ATOM     77  C58 UNL A   1      14.021  32.711   0.780  1.00  0.00    +0.000 C 
ATOM     78  C59 UNL A   1      13.670  33.738   1.671  1.00  0.00    +0.000 C 
ATOM     79  F11 UNL A   1      12.393  34.132   1.778  1.00  0.00    +0.000 F 
ATOM     80  C60 UNL A   1      14.613  34.323   2.522  1.00  0.00    +0.000 C 
ATOM     81  F12 UNL A   1      14.228  35.249   3.410  1.00  0.00    +0.000 F 
ATOM     82  C61 UNL A   1      15.934  33.905   2.497  1.00  0.00    +0.000 C 
ATOM     83  F13 UNL A   1      16.824  34.417   3.358  1.00  0.00    +0.000 F 
ATOM     84  C62 UNL A   1      16.319  32.922   1.604  1.00  0.00    +0.000 C 
ATOM     85  F14 UNL A   1      17.586  32.486   1.592  1.00  0.00    +0.000 F 
ATOM     86  C63 UNL A   1      15.377  32.332   0.761  1.00  0.00    +0.000 C 
ATOM     87  F15 UNL A   1      15.799  31.315  -0.004  1.00  0.00    +0.000 F 
ENDBRANCH   76   77
TORSDOF 20
ENDMDL
