MODEL 1
REMARK VINA RESULT:      -8.0      0.000      0.000
ROOT
ATOM    131  H34 UNL A   1      52.674  51.331  22.511  1.00  0.00    +0.000 H 
ATOM    132  H35 UNL A   1      53.534  53.638  21.654  1.00  0.00    +0.000 H 
ATOM    133  H36 UNL A   1      50.037  52.721  19.634  1.00  0.00    +0.000 H 
ATOM    134  H37 UNL A   1      45.789  54.080  15.077  1.00  0.00    +0.000 H 
ATOM    135  H38 UNL A   1      44.931  51.860  15.960  1.00  0.00    +0.000 H 
ATOM    136  H39 UNL A   1      48.414  52.784  18.028  1.00  0.00    +0.000 H 
ATOM    137  H40 UNL A   1      49.869  57.293  16.351  1.00  0.00    +0.000 H 
ATOM    138  H41 UNL A   1      51.905  57.055  17.883  1.00  0.00    +0.000 H 
ATOM    139  H42 UNL A   1      48.293  48.404  21.498  1.00  0.00    +0.000 H 
ATOM    140  H43 UNL A   1      46.542  48.356  19.630  1.00  0.00    +0.000 H 
ATOM     37  C30 UNL A   1      46.534  50.704  18.005  1.00  0.00    +0.000 C 
ATOM     38  C31 UNL A   1      47.499  50.343  19.100  1.00  0.00    +0.000 C 
ATOM     39  N3  UNL A   1      48.535  51.012  19.543  1.00  0.00    +0.000 N 
ATOM     40  C32 UNL A   1      49.049  50.263  20.593  1.00  0.00    +0.000 C 
ATOM     41  C33 UNL A   1      50.150  50.508  21.343  1.00  0.00    +0.000 C 
ATOM     53  C40 UNL A   1      51.025  51.636  21.153  1.00  0.00    +0.000 C 
ATOM     54  C41 UNL A   1      52.214  51.922  21.800  1.00  0.00    +0.000 C 
ATOM     55  C42 UNL A   1      52.685  53.151  21.328  1.00  0.00    +0.000 C 
ATOM     56  C43 UNL A   1      51.819  53.603  20.347  1.00  0.00    +0.000 C 
ATOM     57  N4  UNL A   1      50.803  52.666  20.250  1.00  0.00    +0.000 N 
ATOM     58  C44 UNL A   1      51.909  54.803  19.555  1.00  0.00    +0.000 C 
ATOM     70  C51 UNL A   1      51.025  55.168  18.595  1.00  0.00    +0.000 C 
ATOM     71  N5  UNL A   1      49.880  54.510  18.167  1.00  0.00    +0.000 N 
ATOM     72  C52 UNL A   1      49.353  55.271  17.239  1.00  0.00    +0.000 C 
ATOM     73  C53 UNL A   1      48.119  55.041  16.409  1.00  0.00    +0.000 C 
ATOM     85  C60 UNL A   1      47.430  53.895  16.566  1.00  0.00    +0.000 C 
ATOM     86  C61 UNL A   1      46.227  53.525  15.829  1.00  0.00    +0.000 C 
ATOM     87  C62 UNL A   1      45.780  52.345  16.289  1.00  0.00    +0.000 C 
ATOM     88  C63 UNL A   1      46.686  51.857  17.327  1.00  0.00    +0.000 C 
ATOM     89  N6  UNL A   1      47.645  52.835  17.415  1.00  0.00    +0.000 N 
ATOM     90  C64 UNL A   1      50.095  56.517  16.993  1.00  0.00    +0.000 C 
ATOM     91  C65 UNL A   1      51.127  56.381  17.812  1.00  0.00    +0.000 C 
ATOM     92  C66 UNL A   1      48.192  49.109  20.752  1.00  0.00    +0.000 C 
ATOM     93  C67 UNL A   1      47.256  49.079  19.813  1.00  0.00    +0.000 C 
ENDROOT
BRANCH   37   36
ATOM     33  C26 UNL A   1      43.216  48.122  17.136  1.00  0.00    +0.000 C 
ATOM     34  C27 UNL A   1      43.038  49.224  17.976  1.00  0.00    +0.000 C 
ATOM     35  C28 UNL A   1      44.109  50.081  18.240  1.00  0.00    +0.000 C 
ATOM    129  H32 UNL A   1      42.115  49.406  18.401  1.00  0.00    +0.000 H 
ATOM    130  H33 UNL A   1      43.966  50.911  18.836  1.00  0.00    +0.000 H 
ATOM     36  C29 UNL A   1      45.378  49.820  17.700  1.00  0.00    +0.000 C 
ATOM    141  H44 UNL A   1      46.478  48.500  16.468  1.00  0.00    +0.000 H 
ATOM    142  H45 UNL A   1      44.572  47.136  15.851  1.00  0.00    +0.000 H 
ATOM     94  C68 UNL A   1      45.546  48.714  16.854  1.00  0.00    +0.000 C 
ATOM     95  C69 UNL A   1      44.459  47.901  16.534  1.00  0.00    +0.000 C 
BRANCH   33   31
ATOM     31  C25 UNL A   1      42.052  47.245  16.857  1.00  0.00    +0.000 C 
ATOM     32  O5  UNL A   1      41.419  47.385  15.815  1.00  0.00    +0.000 O 
BRANCH   31   30
ATOM     30  N2  UNL A   1      41.688  46.269  17.750  1.00  0.00    +0.000 N 
ATOM    128  H31 UNL A   1      41.506  46.571  18.669  1.00  0.00    +0.000 H 
BRANCH   30   29
ATOM     29  C24 UNL A   1      41.538  44.844  17.507  1.00  0.00    +0.000 C 
ATOM    126  H29 UNL A   1      40.695  44.687  16.867  1.00  0.00    +0.000 H 
ATOM    127  H30 UNL A   1      42.436  44.486  17.047  1.00  0.00    +0.000 H 
BRANCH   29   28
ATOM    124  H27 UNL A   1      41.363  44.773  19.615  1.00  0.00    +0.000 H 
ATOM     28  C23 UNL A   1      41.324  44.076  18.804  1.00  0.00    +0.000 C 
ATOM    125  H28 UNL A   1      40.375  43.589  18.716  1.00  0.00    +0.000 H 
BRANCH   28   27
ATOM    122  H25 UNL A   1      42.037  42.093  18.556  1.00  0.00    +0.000 H 
ATOM     27  C22 UNL A   1      42.353  42.976  19.072  1.00  0.00    +0.000 C 
ATOM    123  H26 UNL A   1      43.293  43.355  18.728  1.00  0.00    +0.000 H 
BRANCH   27   26
ATOM    121  H24 UNL A   1      43.606  42.574  20.708  1.00  0.00    +0.000 H 
ATOM     26  C21 UNL A   1      42.548  42.619  20.551  1.00  0.00    +0.000 C 
ATOM    120  H23 UNL A   1      42.049  41.691  20.736  1.00  0.00    +0.000 H 
BRANCH   26   25
ATOM     25  C20 UNL A   1      42.013  43.654  21.546  1.00  0.00    +0.000 C 
ATOM    118  H21 UNL A   1      42.447  44.603  21.311  1.00  0.00    +0.000 H 
ATOM    119  H22 UNL A   1      40.948  43.654  21.450  1.00  0.00    +0.000 H 
BRANCH   25   24
ATOM    116  H19 UNL A   1      41.413  43.297  23.556  1.00  0.00    +0.000 H 
ATOM    117  H20 UNL A   1      42.826  42.384  23.038  1.00  0.00    +0.000 H 
ATOM     24  C19 UNL A   1      42.327  43.330  23.002  1.00  0.00    +0.000 C 
BRANCH   24   23
ATOM    115  H18 UNL A   1      42.821  44.834  24.343  1.00  0.00    +0.000 H 
ATOM     23  N1  UNL A   1      43.196  44.329  23.585  1.00  0.00    +0.000 N 
BRANCH   23   21
ATOM     21  C18 UNL A   1      44.462  44.660  23.220  1.00  0.00    +0.000 C 
ATOM     22  O4  UNL A   1      44.762  45.818  22.960  1.00  0.00    +0.000 O 
BRANCH   21   20
ATOM    114  H17 UNL A   1      45.611  43.113  22.199  1.00  0.00    +0.000 H 
ATOM     20  C17 UNL A   1      45.476  43.593  23.101  1.00  0.00    +0.000 C 
BRANCH   20   19
ATOM    113  H16 UNL A   1      46.472  42.252  24.289  1.00  0.00    +0.000 H 
ATOM     19  C16 UNL A   1      46.222  43.245  24.161  1.00  0.00    +0.000 C 
BRANCH   19   18
ATOM      9  C8  UNL A   1      47.821  45.036  24.813  1.00  0.00    +0.000 C 
ATOM     10  C9  UNL A   1      48.348  45.935  25.757  1.00  0.00    +0.000 C 
ATOM     11  C10 UNL A   1      47.796  46.045  27.028  1.00  0.00    +0.000 C 
ATOM    105  H8  UNL A   1      49.158  46.522  25.502  1.00  0.00    +0.000 H 
ATOM    109  H12 UNL A   1      46.250  45.381  28.277  1.00  0.00    +0.000 H 
ATOM     14  C12 UNL A   1      46.682  45.277  27.345  1.00  0.00    +0.000 C 
ATOM     15  C13 UNL A   1      46.125  44.362  26.433  1.00  0.00    +0.000 C 
ATOM     18  C15 UNL A   1      46.695  44.229  25.147  1.00  0.00    +0.000 C 
BRANCH    9    8
ATOM    104  H7  UNL A   1      49.214  44.187  23.381  1.00  0.00    +0.000 H 
ATOM      8  C7  UNL A   1      48.550  44.964  23.528  1.00  0.00    +0.000 C 
BRANCH    8    7
ATOM    103  H6  UNL A   1      48.171  46.833  22.828  1.00  0.00    +0.000 H 
ATOM      7  C6  UNL A   1      48.388  45.865  22.544  1.00  0.00    +0.000 C 
BRANCH    7    6
ATOM     97  C71 UNL A   1      49.941  45.252  19.152  1.00  0.00    +0.000 C 
ATOM      3  C2  UNL A   1      48.834  45.114  18.319  1.00  0.00    +0.000 C 
ATOM      4  C3  UNL A   1      47.558  45.205  18.876  1.00  0.00    +0.000 C 
ATOM    101  H4  UNL A   1      46.729  45.100  18.270  1.00  0.00    +0.000 H 
ATOM      5  C4  UNL A   1      47.385  45.437  20.249  1.00  0.00    +0.000 C 
ATOM    102  H5  UNL A   1      46.432  45.490  20.641  1.00  0.00    +0.000 H 
ATOM      6  C5  UNL A   1      48.490  45.598  21.093  1.00  0.00    +0.000 C 
ATOM    143  H46 UNL A   1      50.600  45.594  21.127  1.00  0.00    +0.000 H 
ATOM    144  H47 UNL A   1      50.893  45.176  18.758  1.00  0.00    +0.000 H 
ATOM     96  C70 UNL A   1      49.769  45.492  20.524  1.00  0.00    +0.000 C 
BRANCH    3    2
ATOM      2  O1  UNL A   1      48.863  44.929  16.964  1.00  0.00    +0.000 O 
BRANCH    2    1
ATOM      1  C1  UNL A   1      48.220  45.917  16.169  1.00  0.00    +0.000 C 
ATOM     98  H1  UNL A   1      48.689  45.961  15.208  1.00  0.00    +0.000 H 
ATOM     99  H2  UNL A   1      48.301  46.869  16.649  1.00  0.00    +0.000 H 
ATOM    100  H3  UNL A   1      47.188  45.663  16.050  1.00  0.00    +0.000 H 
ENDBRANCH    2    1
ENDBRANCH    3    2
ENDBRANCH    7    6
ENDBRANCH    8    7
ENDBRANCH    9    8
BRANCH   11   12
ATOM     12  O2  UNL A   1      48.425  46.917  27.873  1.00  0.00    +0.000 O 
BRANCH   12   13
ATOM    106  H9  UNL A   1      46.702  47.801  28.540  1.00  0.00    +0.000 H 
ATOM    107  H10 UNL A   1      47.631  48.743  27.398  1.00  0.00    +0.000 H 
ATOM    108  H11 UNL A   1      48.183  48.576  29.047  1.00  0.00    +0.000 H 
ATOM     13  C11 UNL A   1      47.689  48.082  28.237  1.00  0.00    +0.000 C 
ENDBRANCH   12   13
ENDBRANCH   11   12
BRANCH   15   16
ATOM     16  O3  UNL A   1      45.094  43.689  27.031  1.00  0.00    +0.000 O 
BRANCH   16   17
ATOM     17  C14 UNL A   1      44.938  43.615  28.435  1.00  0.00    +0.000 C 
ATOM    110  H13 UNL A   1      43.899  43.523  28.674  1.00  0.00    +0.000 H 
ATOM    111  H14 UNL A   1      45.331  44.502  28.885  1.00  0.00    +0.000 H 
ATOM    112  H15 UNL A   1      45.466  42.762  28.807  1.00  0.00    +0.000 H 
ENDBRANCH   16   17
ENDBRANCH   15   16
ENDBRANCH   19   18
ENDBRANCH   20   19
ENDBRANCH   21   20
ENDBRANCH   23   21
ENDBRANCH   24   23
ENDBRANCH   25   24
ENDBRANCH   26   25
ENDBRANCH   27   26
ENDBRANCH   28   27
ENDBRANCH   29   28
ENDBRANCH   30   29
ENDBRANCH   31   30
ENDBRANCH   33   31
ENDBRANCH   37   36
BRANCH   41   42
ATOM     42  C34 UNL A   1      50.482  49.543  22.442  1.00  0.00    +0.000 C 
ATOM     43  C35 UNL A   1      51.272  48.406  22.212  1.00  0.00    +0.000 C 
ATOM     44  F1  UNL A   1      51.689  48.114  20.971  1.00  0.00    +0.000 F 
ATOM     45  C36 UNL A   1      51.618  47.551  23.256  1.00  0.00    +0.000 C 
ATOM     46  F2  UNL A   1      52.345  46.453  23.006  1.00  0.00    +0.000 F 
ATOM     47  C37 UNL A   1      51.210  47.832  24.551  1.00  0.00    +0.000 C 
ATOM     48  F3  UNL A   1      51.558  47.017  25.556  1.00  0.00    +0.000 F 
ATOM     49  C38 UNL A   1      50.437  48.955  24.803  1.00  0.00    +0.000 C 
ATOM     50  F4  UNL A   1      50.053  49.235  26.056  1.00  0.00    +0.000 F 
ATOM     51  C39 UNL A   1      50.067  49.797  23.758  1.00  0.00    +0.000 C 
ATOM     52  F5  UNL A   1      49.314  50.873  24.034  1.00  0.00    +0.000 F 
ENDBRANCH   41   42
BRANCH   58   59
ATOM     65  F8  UNL A   1      56.277  58.281  20.419  1.00  0.00    +0.000 F 
ATOM     66  C49 UNL A   1      54.052  57.647  20.895  1.00  0.00    +0.000 C 
ATOM     67  F9  UNL A   1      53.929  58.671  21.751  1.00  0.00    +0.000 F 
ATOM     68  C50 UNL A   1      52.986  56.775  20.698  1.00  0.00    +0.000 C 
ATOM     69  F10 UNL A   1      51.852  56.977  21.387  1.00  0.00    +0.000 F 
ATOM     59  C45 UNL A   1      53.082  55.710  19.789  1.00  0.00    +0.000 C 
ATOM     60  C46 UNL A   1      54.287  55.549  19.089  1.00  0.00    +0.000 C 
ATOM     61  F6  UNL A   1      54.434  54.538  18.221  1.00  0.00    +0.000 F 
ATOM     62  C47 UNL A   1      55.363  56.404  19.314  1.00  0.00    +0.000 C 
ATOM     63  F7  UNL A   1      56.522  56.200  18.672  1.00  0.00    +0.000 F 
ATOM     64  C48 UNL A   1      55.242  57.455  20.210  1.00  0.00    +0.000 C 
ENDBRANCH   58   59
BRANCH   73   74
ATOM     74  C54 UNL A   1      47.666  56.055  15.421  1.00  0.00    +0.000 C 
ATOM     75  C55 UNL A   1      47.007  57.222  15.834  1.00  0.00    +0.000 C 
ATOM     76  F11 UNL A   1      46.778  57.437  17.138  1.00  0.00    +0.000 F 
ATOM     77  C56 UNL A   1      46.534  58.149  14.907  1.00  0.00    +0.000 C 
ATOM     78  F12 UNL A   1      45.858  59.227  15.326  1.00  0.00    +0.000 F 
ATOM     79  C57 UNL A   1      46.744  57.946  13.551  1.00  0.00    +0.000 C 
ATOM     80  F13 UNL A   1      46.290  58.837  12.660  1.00  0.00    +0.000 F 
ATOM     81  C58 UNL A   1      47.418  56.813  13.120  1.00  0.00    +0.000 C 
ATOM     82  F14 UNL A   1      47.637  56.622  11.813  1.00  0.00    +0.000 F 
ATOM     83  C59 UNL A   1      47.862  55.870  14.045  1.00  0.00    +0.000 C 
ATOM     84  F15 UNL A   1      48.493  54.775  13.598  1.00  0.00    +0.000 F 
ENDBRANCH   73   74
TORSDOF 26
ENDMDL
MODEL 2
REMARK VINA RESULT:      -7.6     57.672     65.425
ROOT
ATOM    131  H34 UNL A   1      -2.832   6.409  34.525  1.00  0.00    +0.000 H 
ATOM    132  H35 UNL A   1      -1.382   4.243  34.480  1.00  0.00    +0.000 H 
ATOM    133  H36 UNL A   1       0.804   7.236  36.329  1.00  0.00    +0.000 H 
ATOM    134  H37 UNL A   1       6.272   9.284  38.893  1.00  0.00    +0.000 H 
ATOM    135  H38 UNL A   1       4.827  11.370  38.981  1.00  0.00    +0.000 H 
ATOM    136  H39 UNL A   1       2.604   8.368  37.163  1.00  0.00    +0.000 H 
ATOM    137  H40 UNL A   1       5.486   4.252  37.264  1.00  0.00    +0.000 H 
ATOM    138  H41 UNL A   1       3.610   3.071  35.985  1.00  0.00    +0.000 H 
ATOM    139  H42 UNL A   1      -2.123  11.299  36.615  1.00  0.00    +0.000 H 
ATOM    140  H43 UNL A   1      -0.100  12.646  37.420  1.00  0.00    +0.000 H 
ATOM     37  C30 UNL A   1       2.234  11.059  37.855  1.00  0.00    +0.000 C 
ATOM     38  C31 UNL A   1       0.919  10.624  37.271  1.00  0.00    +0.000 C 
ATOM     39  N3  UNL A   1       0.558   9.442  36.838  1.00  0.00    +0.000 N 
ATOM     40  C32 UNL A   1      -0.771   9.569  36.453  1.00  0.00    +0.000 C 
ATOM     41  C33 UNL A   1      -1.578   8.638  35.892  1.00  0.00    +0.000 C 
ATOM     53  C40 UNL A   1      -1.165   7.297  35.568  1.00  0.00    +0.000 C 
ATOM     54  C41 UNL A   1      -1.882   6.310  34.915  1.00  0.00    +0.000 C 
ATOM     55  C42 UNL A   1      -1.097   5.153  34.874  1.00  0.00    +0.000 C 
ATOM     56  C43 UNL A   1       0.129   5.437  35.453  1.00  0.00    +0.000 C 
ATOM     57  N4  UNL A   1       0.074   6.755  35.876  1.00  0.00    +0.000 N 
ATOM     58  C44 UNL A   1       1.269   4.570  35.610  1.00  0.00    +0.000 C 
ATOM     70  C51 UNL A   1       2.447   4.930  36.174  1.00  0.00    +0.000 C 
ATOM     71  N5  UNL A   1       2.820   6.155  36.709  1.00  0.00    +0.000 N 
ATOM     72  C52 UNL A   1       4.044   5.997  37.151  1.00  0.00    +0.000 C 
ATOM     73  C53 UNL A   1       4.955   7.002  37.802  1.00  0.00    +0.000 C 
ATOM     85  C60 UNL A   1       4.530   8.271  37.952  1.00  0.00    +0.000 C 
ATOM     86  C61 UNL A   1       5.300   9.355  38.551  1.00  0.00    +0.000 C 
ATOM     87  C62 UNL A   1       4.540  10.461  38.587  1.00  0.00    +0.000 C 
ATOM     88  C63 UNL A   1       3.241  10.175  37.979  1.00  0.00    +0.000 C 
ATOM     89  N6  UNL A   1       3.330   8.853  37.618  1.00  0.00    +0.000 N 
ATOM     90  C64 UNL A   1       4.576   4.639  36.969  1.00  0.00    +0.000 C 
ATOM     91  C65 UNL A   1       3.581   4.043  36.329  1.00  0.00    +0.000 C 
ATOM     92  C66 UNL A   1      -1.168  10.930  36.741  1.00  0.00    +0.000 C 
ATOM     93  C67 UNL A   1      -0.142  11.641  37.189  1.00  0.00    +0.000 C 
ENDROOT
BRANCH   37   36
ATOM     33  C26 UNL A   1       2.777  15.064  39.305  1.00  0.00    +0.000 C 
ATOM     34  C27 UNL A   1       3.242  14.716  38.034  1.00  0.00    +0.000 C 
ATOM     35  C28 UNL A   1       3.044  13.420  37.549  1.00  0.00    +0.000 C 
ATOM    129  H32 UNL A   1       3.732  15.415  37.453  1.00  0.00    +0.000 H 
ATOM    130  H33 UNL A   1       3.361  13.175  36.598  1.00  0.00    +0.000 H 
ATOM     36  C29 UNL A   1       2.416  12.451  38.346  1.00  0.00    +0.000 C 
ATOM    141  H44 UNL A   1       1.503  12.103  40.222  1.00  0.00    +0.000 H 
ATOM    142  H45 UNL A   1       1.667  14.401  40.975  1.00  0.00    +0.000 H 
ATOM     94  C68 UNL A   1       1.949  12.812  39.618  1.00  0.00    +0.000 C 
ATOM     95  C69 UNL A   1       2.082  14.124  40.072  1.00  0.00    +0.000 C 
BRANCH   33   31
ATOM     31  C25 UNL A   1       2.983  16.454  39.780  1.00  0.00    +0.000 C 
ATOM     32  O5  UNL A   1       3.108  17.365  38.966  1.00  0.00    +0.000 O 
BRANCH   31   30
ATOM     30  N2  UNL A   1       3.019  16.731  41.123  1.00  0.00    +0.000 N 
ATOM    128  H31 UNL A   1       2.146  16.784  41.576  1.00  0.00    +0.000 H 
BRANCH   30   29
ATOM     29  C24 UNL A   1       4.185  16.959  41.960  1.00  0.00    +0.000 C 
ATOM    126  H29 UNL A   1       4.761  16.057  42.006  1.00  0.00    +0.000 H 
ATOM    127  H30 UNL A   1       4.758  17.753  41.528  1.00  0.00    +0.000 H 
BRANCH   29   28
ATOM    124  H27 UNL A   1       4.644  17.799  43.848  1.00  0.00    +0.000 H 
ATOM     28  C23 UNL A   1       3.788  17.366  43.372  1.00  0.00    +0.000 C 
ATOM    125  H28 UNL A   1       2.973  18.052  43.273  1.00  0.00    +0.000 H 
BRANCH   28   27
ATOM    122  H25 UNL A   1       3.303  15.321  43.667  1.00  0.00    +0.000 H 
ATOM     27  C22 UNL A   1       3.285  16.219  44.250  1.00  0.00    +0.000 C 
ATOM    123  H26 UNL A   1       3.934  16.186  45.100  1.00  0.00    +0.000 H 
BRANCH   27   26
ATOM    121  H24 UNL A   1       1.500  17.317  44.384  1.00  0.00    +0.000 H 
ATOM     26  C21 UNL A   1       1.865  16.401  44.800  1.00  0.00    +0.000 C 
ATOM    120  H23 UNL A   1       1.923  16.412  45.869  1.00  0.00    +0.000 H 
BRANCH   26   25
ATOM     25  C20 UNL A   1       0.864  15.317  44.390  1.00  0.00    +0.000 C 
ATOM    118  H21 UNL A   1       0.554  14.794  45.271  1.00  0.00    +0.000 H 
ATOM    119  H22 UNL A   1       0.053  15.812  43.900  1.00  0.00    +0.000 H 
BRANCH   25   24
ATOM    116  H19 UNL A   1       1.264  14.657  42.407  1.00  0.00    +0.000 H 
ATOM    117  H20 UNL A   1       2.470  14.180  43.598  1.00  0.00    +0.000 H 
ATOM     24  C19 UNL A   1       1.425  14.301  43.402  1.00  0.00    +0.000 C 
BRANCH   24   23
ATOM    115  H18 UNL A   1       0.318  12.670  42.751  1.00  0.00    +0.000 H 
ATOM     23  N1  UNL A   1       0.779  13.014  43.551  1.00  0.00    +0.000 N 
BRANCH   23   21
ATOM     21  C18 UNL A   1       0.727  12.220  44.652  1.00  0.00    +0.000 C 
ATOM     22  O4  UNL A   1      -0.327  11.711  45.014  1.00  0.00    +0.000 O 
BRANCH   21   20
ATOM    114  H17 UNL A   1       2.034  12.405  46.388  1.00  0.00    +0.000 H 
ATOM     20  C17 UNL A   1       1.957  12.005  45.440  1.00  0.00    +0.000 C 
BRANCH   20   19
ATOM    113  H16 UNL A   1       3.930  11.476  45.273  1.00  0.00    +0.000 H 
ATOM     19  C16 UNL A   1       2.974  11.294  44.930  1.00  0.00    +0.000 C 
BRANCH   19   18
ATOM      9  C8  UNL A   1       3.287  10.503  42.591  1.00  0.00    +0.000 C 
ATOM     10  C9  UNL A   1       3.051   9.577  41.562  1.00  0.00    +0.000 C 
ATOM     11  C10 UNL A   1       2.307   8.424  41.791  1.00  0.00    +0.000 C 
ATOM    105  H8  UNL A   1       3.435   9.754  40.620  1.00  0.00    +0.000 H 
ATOM    109  H12 UNL A   1       1.303   7.307  43.252  1.00  0.00    +0.000 H 
ATOM     14  C12 UNL A   1       1.828   8.178  43.072  1.00  0.00    +0.000 C 
ATOM     15  C13 UNL A   1       2.037   9.081  44.131  1.00  0.00    +0.000 C 
ATOM     18  C15 UNL A   1       2.773  10.264  43.899  1.00  0.00    +0.000 C 
BRANCH    9    8
ATOM    104  H7  UNL A   1       3.487  12.567  41.949  1.00  0.00    +0.000 H 
ATOM      8  C7  UNL A   1       4.026  11.721  42.194  1.00  0.00    +0.000 C 
BRANCH    8    7
ATOM    103  H6  UNL A   1       5.888  11.223  42.834  1.00  0.00    +0.000 H 
ATOM      7  C6  UNL A   1       5.367  11.776  42.136  1.00  0.00    +0.000 C 
BRANCH    7    6
ATOM     97  C71 UNL A   1       6.573  14.712  40.081  1.00  0.00    +0.000 C 
ATOM      3  C2  UNL A   1       7.603  14.162  39.321  1.00  0.00    +0.000 C 
ATOM      4  C3  UNL A   1       7.921  12.815  39.494  1.00  0.00    +0.000 C 
ATOM    101  H4  UNL A   1       8.685  12.397  38.940  1.00  0.00    +0.000 H 
ATOM      5  C4  UNL A   1       7.218  12.020  40.411  1.00  0.00    +0.000 C 
ATOM    102  H5  UNL A   1       7.478  11.028  40.530  1.00  0.00    +0.000 H 
ATOM      6  C5  UNL A   1       6.167  12.555  41.166  1.00  0.00    +0.000 C 
ATOM    143  H46 UNL A   1       5.103  14.337  41.546  1.00  0.00    +0.000 H 
ATOM    144  H47 UNL A   1       6.332  15.710  39.973  1.00  0.00    +0.000 H 
ATOM     96  C70 UNL A   1       5.864  13.914  40.992  1.00  0.00    +0.000 C 
BRANCH    3    2
ATOM      2  O1  UNL A   1       8.335  14.813  38.367  1.00  0.00    +0.000 O 
BRANCH    2    1
ATOM      1  C1  UNL A   1       8.866  14.018  37.314  1.00  0.00    +0.000 C 
ATOM     98  H1  UNL A   1       8.797  14.556  36.392  1.00  0.00    +0.000 H 
ATOM     99  H2  UNL A   1       8.309  13.108  37.239  1.00  0.00    +0.000 H 
ATOM    100  H3  UNL A   1       9.892  13.793  37.519  1.00  0.00    +0.000 H 
ENDBRANCH    2    1
ENDBRANCH    3    2
ENDBRANCH    7    6
ENDBRANCH    8    7
ENDBRANCH    9    8
BRANCH   11   12
ATOM     12  O2  UNL A   1       2.104   7.624  40.700  1.00  0.00    +0.000 O 
BRANCH   12   13
ATOM    106  H9  UNL A   1       1.743   5.646  40.315  1.00  0.00    +0.000 H 
ATOM    107  H10 UNL A   1       0.328   6.609  40.666  1.00  0.00    +0.000 H 
ATOM    108  H11 UNL A   1       1.419   6.158  41.954  1.00  0.00    +0.000 H 
ATOM     13  C11 UNL A   1       1.351   6.435  40.923  1.00  0.00    +0.000 C 
ENDBRANCH   12   13
ENDBRANCH   11   12
BRANCH   15   16
ATOM     16  O3  UNL A   1       1.394   8.628  45.251  1.00  0.00    +0.000 O 
BRANCH   16   17
ATOM     17  C14 UNL A   1       0.237   7.816  45.197  1.00  0.00    +0.000 C 
ATOM    110  H13 UNL A   1       0.209   7.178  46.056  1.00  0.00    +0.000 H 
ATOM    111  H14 UNL A   1       0.260   7.221  44.309  1.00  0.00    +0.000 H 
ATOM    112  H15 UNL A   1      -0.635   8.438  45.187  1.00  0.00    +0.000 H 
ENDBRANCH   16   17
ENDBRANCH   15   16
ENDBRANCH   19   18
ENDBRANCH   20   19
ENDBRANCH   21   20
ENDBRANCH   23   21
ENDBRANCH   24   23
ENDBRANCH   25   24
ENDBRANCH   26   25
ENDBRANCH   27   26
ENDBRANCH   28   27
ENDBRANCH   29   28
ENDBRANCH   30   29
ENDBRANCH   31   30
ENDBRANCH   33   31
ENDBRANCH   37   36
BRANCH   41   42
ATOM     42  C34 UNL A   1      -2.995   9.027  35.585  1.00  0.00    +0.000 C 
ATOM     43  C35 UNL A   1      -3.362   9.551  34.337  1.00  0.00    +0.000 C 
ATOM     44  F1  UNL A   1      -2.429   9.791  33.404  1.00  0.00    +0.000 F 
ATOM     45  C36 UNL A   1      -4.692   9.853  34.051  1.00  0.00    +0.000 C 
ATOM     46  F2  UNL A   1      -5.014  10.386  32.863  1.00  0.00    +0.000 F 
ATOM     47  C37 UNL A   1      -5.680   9.609  34.991  1.00  0.00    +0.000 C 
ATOM     48  F3  UNL A   1      -6.961   9.884  34.707  1.00  0.00    +0.000 F 
ATOM     49  C38 UNL A   1      -5.341   9.081  36.228  1.00  0.00    +0.000 C 
ATOM     50  F4  UNL A   1      -6.297   8.831  37.133  1.00  0.00    +0.000 F 
ATOM     51  C39 UNL A   1      -4.011   8.803  36.527  1.00  0.00    +0.000 C 
ATOM     52  F5  UNL A   1      -3.714   8.299  37.735  1.00  0.00    +0.000 F 
ENDBRANCH   41   42
BRANCH   58   59
ATOM     65  F8  UNL A   1       0.896  -0.739  33.711  1.00  0.00    +0.000 F 
ATOM     66  C49 UNL A   1       0.640   0.820  35.468  1.00  0.00    +0.000 C 
ATOM     67  F9  UNL A   1       0.233  -0.155  36.291  1.00  0.00    +0.000 F 
ATOM     68  C50 UNL A   1       0.711   2.132  35.925  1.00  0.00    +0.000 C 
ATOM     69  F10 UNL A   1       0.353   2.392  37.193  1.00  0.00    +0.000 F 
ATOM     59  C45 UNL A   1       1.158   3.166  35.089  1.00  0.00    +0.000 C 
ATOM     60  C46 UNL A   1       1.526   2.838  33.776  1.00  0.00    +0.000 C 
ATOM     61  F6  UNL A   1       1.945   3.792  32.933  1.00  0.00    +0.000 F 
ATOM     62  C47 UNL A   1       1.423   1.529  33.312  1.00  0.00    +0.000 C 
ATOM     63  F7  UNL A   1       1.732   1.247  32.038  1.00  0.00    +0.000 F 
ATOM     64  C48 UNL A   1       0.988   0.521  34.159  1.00  0.00    +0.000 C 
ENDBRANCH   58   59
BRANCH   73   74
ATOM     74  C54 UNL A   1       6.311   6.610  38.269  1.00  0.00    +0.000 C 
ATOM     75  C55 UNL A   1       7.458   6.988  37.558  1.00  0.00    +0.000 C 
ATOM     76  F11 UNL A   1       7.342   7.717  36.437  1.00  0.00    +0.000 F 
ATOM     77  C56 UNL A   1       8.727   6.578  37.963  1.00  0.00    +0.000 C 
ATOM     78  F12 UNL A   1       9.801   6.907  37.233  1.00  0.00    +0.000 F 
ATOM     79  C57 UNL A   1       8.876   5.813  39.110  1.00  0.00    +0.000 C 
ATOM     80  F13 UNL A   1      10.095   5.418  39.501  1.00  0.00    +0.000 F 
ATOM     81  C58 UNL A   1       7.759   5.449  39.846  1.00  0.00    +0.000 C 
ATOM     82  F14 UNL A   1       7.900   4.724  40.964  1.00  0.00    +0.000 F 
ATOM     83  C59 UNL A   1       6.487   5.832  39.422  1.00  0.00    +0.000 C 
ATOM     84  F15 UNL A   1       5.424   5.449  40.144  1.00  0.00    +0.000 F 
ENDBRANCH   73   74
TORSDOF 26
ENDMDL
MODEL 3
REMARK VINA RESULT:      -7.6      2.495      8.323
ROOT
ATOM    131  H34 UNL A   1      49.789  56.066  16.256  1.00  0.00    +0.000 H 
ATOM    132  H35 UNL A   1      51.744  56.013  17.980  1.00  0.00    +0.000 H 
ATOM    133  H36 UNL A   1      49.469  52.590  18.486  1.00  0.00    +0.000 H 
ATOM    134  H37 UNL A   1      48.181  47.262  21.745  1.00  0.00    +0.000 H 
ATOM    135  H38 UNL A   1      46.315  47.298  20.023  1.00  0.00    +0.000 H 
ATOM    136  H39 UNL A   1      48.611  50.716  19.472  1.00  0.00    +0.000 H 
ATOM    137  H40 UNL A   1      52.385  50.401  22.777  1.00  0.00    +0.000 H 
ATOM    138  H41 UNL A   1      53.140  52.695  21.929  1.00  0.00    +0.000 H 
ATOM    139  H42 UNL A   1      45.879  52.620  14.983  1.00  0.00    +0.000 H 
ATOM    140  H43 UNL A   1      44.800  50.603  16.135  1.00  0.00    +0.000 H 
ATOM     37  C30 UNL A   1      46.336  49.565  18.306  1.00  0.00    +0.000 C 
ATOM     38  C31 UNL A   1      46.603  50.804  17.496  1.00  0.00    +0.000 C 
ATOM     39  N3  UNL A   1      47.581  51.668  17.607  1.00  0.00    +0.000 N 
ATOM     40  C32 UNL A   1      47.389  52.590  16.586  1.00  0.00    +0.000 C 
ATOM     41  C33 UNL A   1      48.107  53.704  16.310  1.00  0.00    +0.000 C 
ATOM     53  C40 UNL A   1      49.238  54.151  17.082  1.00  0.00    +0.000 C 
ATOM     54  C41 UNL A   1      49.974  55.314  16.938  1.00  0.00    +0.000 C 
ATOM     55  C42 UNL A   1      51.011  55.294  17.875  1.00  0.00    +0.000 C 
ATOM     56  C43 UNL A   1      50.889  54.146  18.639  1.00  0.00    +0.000 C 
ATOM     57  N4  UNL A   1      49.798  53.451  18.141  1.00  0.00    +0.000 N 
ATOM     58  C44 UNL A   1      51.707  53.711  19.742  1.00  0.00    +0.000 C 
ATOM     70  C51 UNL A   1      51.510  52.576  20.455  1.00  0.00    +0.000 C 
ATOM     71  N5  UNL A   1      50.525  51.609  20.303  1.00  0.00    +0.000 N 
ATOM     72  C52 UNL A   1      50.771  50.698  21.213  1.00  0.00    +0.000 C 
ATOM     73  C53 UNL A   1      50.009  49.438  21.525  1.00  0.00    +0.000 C 
ATOM     85  C60 UNL A   1      48.887  49.164  20.833  1.00  0.00    +0.000 C 
ATOM     86  C61 UNL A   1      48.040  47.993  21.029  1.00  0.00    +0.000 C 
ATOM     87  C62 UNL A   1      47.047  48.018  20.125  1.00  0.00    +0.000 C 
ATOM     88  C63 UNL A   1      47.165  49.226  19.311  1.00  0.00    +0.000 C 
ATOM     89  N6  UNL A   1      48.279  49.854  19.812  1.00  0.00    +0.000 N 
ATOM     90  C64 UNL A   1      51.961  50.974  22.031  1.00  0.00    +0.000 C 
ATOM     91  C65 UNL A   1      52.345  52.150  21.558  1.00  0.00    +0.000 C 
ATOM     92  C66 UNL A   1      46.227  52.160  15.839  1.00  0.00    +0.000 C 
ATOM     93  C67 UNL A   1      45.667  51.097  16.399  1.00  0.00    +0.000 C 
ENDROOT
BRANCH   37   36
ATOM     33  C26 UNL A   1      43.041  46.981  17.358  1.00  0.00    +0.000 C 
ATOM     34  C27 UNL A   1      42.816  48.163  18.069  1.00  0.00    +0.000 C 
ATOM     35  C28 UNL A   1      43.882  49.018  18.356  1.00  0.00    +0.000 C 
ATOM    129  H32 UNL A   1      41.862  48.404  18.381  1.00  0.00    +0.000 H 
ATOM    130  H33 UNL A   1      43.707  49.905  18.854  1.00  0.00    +0.000 H 
ATOM     36  C29 UNL A   1      45.189  48.680  17.972  1.00  0.00    +0.000 C 
ATOM    141  H44 UNL A   1      46.363  47.225  16.984  1.00  0.00    +0.000 H 
ATOM    142  H45 UNL A   1      44.485  45.848  16.312  1.00  0.00    +0.000 H 
ATOM     94  C68 UNL A   1      45.404  47.495  17.255  1.00  0.00    +0.000 C 
ATOM     95  C69 UNL A   1      44.330  46.678  16.905  1.00  0.00    +0.000 C 
BRANCH   33   31
ATOM     31  C25 UNL A   1      41.884  46.106  17.049  1.00  0.00    +0.000 C 
ATOM     32  O5  UNL A   1      41.716  45.700  15.902  1.00  0.00    +0.000 O 
BRANCH   31   30
ATOM     30  N2  UNL A   1      41.009  45.735  18.038  1.00  0.00    +0.000 N 
ATOM    128  H31 UNL A   1      40.206  46.297  18.137  1.00  0.00    +0.000 H 
BRANCH   30   29
ATOM     29  C24 UNL A   1      41.121  44.617  18.960  1.00  0.00    +0.000 C 
ATOM    126  H29 UNL A   1      41.547  44.965  19.878  1.00  0.00    +0.000 H 
ATOM    127  H30 UNL A   1      40.141  44.218  19.122  1.00  0.00    +0.000 H 
BRANCH   29   28
ATOM    124  H27 UNL A   1      41.529  42.573  18.594  1.00  0.00    +0.000 H 
ATOM     28  C23 UNL A   1      42.001  43.512  18.393  1.00  0.00    +0.000 C 
ATOM    125  H28 UNL A   1      42.105  43.713  17.346  1.00  0.00    +0.000 H 
BRANCH   28   27
ATOM    122  H25 UNL A   1      43.585  42.485  19.363  1.00  0.00    +0.000 H 
ATOM     27  C22 UNL A   1      43.418  43.466  18.967  1.00  0.00    +0.000 C 
ATOM    123  H26 UNL A   1      44.076  43.716  18.161  1.00  0.00    +0.000 H 
BRANCH   27   26
ATOM    121  H24 UNL A   1      43.333  44.042  20.985  1.00  0.00    +0.000 H 
ATOM     26  C21 UNL A   1      43.698  44.483  20.081  1.00  0.00    +0.000 C 
ATOM    120  H23 UNL A   1      43.206  45.398  19.824  1.00  0.00    +0.000 H 
BRANCH   26   25
ATOM     25  C20 UNL A   1      45.179  44.791  20.324  1.00  0.00    +0.000 C 
ATOM    118  H21 UNL A   1      45.291  45.851  20.416  1.00  0.00    +0.000 H 
ATOM    119  H22 UNL A   1      45.462  44.269  21.213  1.00  0.00    +0.000 H 
BRANCH   25   24
ATOM    116  H19 UNL A   1      45.507  43.961  18.392  1.00  0.00    +0.000 H 
ATOM    117  H20 UNL A   1      46.726  45.120  18.911  1.00  0.00    +0.000 H 
ATOM     24  C19 UNL A   1      46.101  44.305  19.211  1.00  0.00    +0.000 C 
BRANCH   24   23
ATOM    115  H18 UNL A   1      46.551  42.322  19.623  1.00  0.00    +0.000 H 
ATOM     23  N1  UNL A   1      46.947  43.223  19.668  1.00  0.00    +0.000 N 
BRANCH   23   21
ATOM     21  C18 UNL A   1      48.215  43.291  20.149  1.00  0.00    +0.000 C 
ATOM     22  O4  UNL A   1      48.692  42.372  20.803  1.00  0.00    +0.000 O 
BRANCH   21   20
ATOM    114  H17 UNL A   1      49.210  45.156  20.689  1.00  0.00    +0.000 H 
ATOM     20  C17 UNL A   1      49.009  44.512  19.908  1.00  0.00    +0.000 C 
BRANCH   20   19
ATOM    113  H16 UNL A   1      48.826  44.715  17.876  1.00  0.00    +0.000 H 
ATOM     19  C16 UNL A   1      49.471  44.789  18.679  1.00  0.00    +0.000 C 
BRANCH   19   18
ATOM      9  C8  UNL A   1      51.111  46.514  17.951  1.00  0.00    +0.000 C 
ATOM     10  C9  UNL A   1      52.420  46.915  17.636  1.00  0.00    +0.000 C 
ATOM     11  C10 UNL A   1      53.491  46.039  17.777  1.00  0.00    +0.000 C 
ATOM    105  H8  UNL A   1      52.590  47.874  17.295  1.00  0.00    +0.000 H 
ATOM    109  H12 UNL A   1      54.052  44.122  18.410  1.00  0.00    +0.000 H 
ATOM     14  C12 UNL A   1      53.254  44.763  18.274  1.00  0.00    +0.000 C 
ATOM     15  C13 UNL A   1      51.958  44.319  18.597  1.00  0.00    +0.000 C 
ATOM     18  C15 UNL A   1      50.863  45.197  18.436  1.00  0.00    +0.000 C 
BRANCH    9    8
ATOM    104  H7  UNL A   1      50.065  48.396  18.224  1.00  0.00    +0.000 H 
ATOM      8  C7  UNL A   1      50.057  47.517  17.683  1.00  0.00    +0.000 C 
BRANCH    8    7
ATOM    103  H6  UNL A   1      48.262  46.796  17.065  1.00  0.00    +0.000 H 
ATOM      7  C6  UNL A   1      49.090  47.335  16.768  1.00  0.00    +0.000 C 
BRANCH    7    6
ATOM     97  C71 UNL A   1      50.164  47.785  13.171  1.00  0.00    +0.000 C 
ATOM      3  C2  UNL A   1      49.257  48.726  12.687  1.00  0.00    +0.000 C 
ATOM      4  C3  UNL A   1      48.268  49.209  13.544  1.00  0.00    +0.000 C 
ATOM    101  H4  UNL A   1      47.588  49.903  13.196  1.00  0.00    +0.000 H 
ATOM      5  C4  UNL A   1      48.184  48.765  14.872  1.00  0.00    +0.000 C 
ATOM    102  H5  UNL A   1      47.438  49.128  15.485  1.00  0.00    +0.000 H 
ATOM      6  C5  UNL A   1      49.102  47.835  15.376  1.00  0.00    +0.000 C 
ATOM    143  H46 UNL A   1      50.766  46.651  14.844  1.00  0.00    +0.000 H 
ATOM    144  H47 UNL A   1      50.895  47.409  12.547  1.00  0.00    +0.000 H 
ATOM     96  C70 UNL A   1      50.085  47.347  14.501  1.00  0.00    +0.000 C 
BRANCH    3    2
ATOM      2  O1  UNL A   1      49.255  49.270  11.432  1.00  0.00    +0.000 O 
BRANCH    2    1
ATOM      1  C1  UNL A   1      48.265  48.794  10.530  1.00  0.00    +0.000 C 
ATOM     98  H1  UNL A   1      47.446  49.482  10.503  1.00  0.00    +0.000 H 
ATOM     99  H2  UNL A   1      47.916  47.836  10.856  1.00  0.00    +0.000 H 
ATOM    100  H3  UNL A   1      48.687  48.705   9.550  1.00  0.00    +0.000 H 
ENDBRANCH    2    1
ENDBRANCH    3    2
ENDBRANCH    7    6
ENDBRANCH    8    7
ENDBRANCH    9    8
BRANCH   11   12
ATOM     12  O2  UNL A   1      54.710  46.527  17.394  1.00  0.00    +0.000 O 
BRANCH   12   13
ATOM    106  H9  UNL A   1      53.757  47.452  15.836  1.00  0.00    +0.000 H 
ATOM    107  H10 UNL A   1      55.483  47.258  15.646  1.00  0.00    +0.000 H 
ATOM    108  H11 UNL A   1      54.855  48.462  16.744  1.00  0.00    +0.000 H 
ATOM     13  C11 UNL A   1      54.701  47.485  16.339  1.00  0.00    +0.000 C 
ENDBRANCH   12   13
ENDBRANCH   11   12
BRANCH   15   16
ATOM     16  O3  UNL A   1      52.008  43.007  18.985  1.00  0.00    +0.000 O 
BRANCH   16   17
ATOM     17  C14 UNL A   1      52.452  42.602  20.265  1.00  0.00    +0.000 C 
ATOM    110  H13 UNL A   1      53.030  43.387  20.707  1.00  0.00    +0.000 H 
ATOM    111  H14 UNL A   1      53.055  41.723  20.172  1.00  0.00    +0.000 H 
ATOM    112  H15 UNL A   1      51.606  42.390  20.886  1.00  0.00    +0.000 H 
ENDBRANCH   16   17
ENDBRANCH   15   16
ENDBRANCH   19   18
ENDBRANCH   20   19
ENDBRANCH   21   20
ENDBRANCH   23   21
ENDBRANCH   24   23
ENDBRANCH   25   24
ENDBRANCH   26   25
ENDBRANCH   27   26
ENDBRANCH   28   27
ENDBRANCH   29   28
ENDBRANCH   30   29
ENDBRANCH   31   30
ENDBRANCH   33   31
ENDBRANCH   37   36
BRANCH   41   42
ATOM     42  C34 UNL A   1      47.699  54.530  15.126  1.00  0.00    +0.000 C 
ATOM     43  C35 UNL A   1      47.955  54.111  13.811  1.00  0.00    +0.000 C 
ATOM     44  F1  UNL A   1      48.647  52.985  13.584  1.00  0.00    +0.000 F 
ATOM     45  C36 UNL A   1      47.519  54.863  12.723  1.00  0.00    +0.000 C 
ATOM     46  F2  UNL A   1      47.805  54.461  11.476  1.00  0.00    +0.000 F 
ATOM     47  C37 UNL A   1      46.794  56.028  12.925  1.00  0.00    +0.000 C 
ATOM     48  F3  UNL A   1      46.360  56.740  11.876  1.00  0.00    +0.000 F 
ATOM     49  C38 UNL A   1      46.520  56.454  14.216  1.00  0.00    +0.000 C 
ATOM     50  F4  UNL A   1      45.808  57.572  14.414  1.00  0.00    +0.000 F 
ATOM     51  C39 UNL A   1      46.978  55.720  15.306  1.00  0.00    +0.000 C 
ATOM     52  F5  UNL A   1      46.702  56.163  16.542  1.00  0.00    +0.000 F 
ENDBRANCH   41   42
BRANCH   58   59
ATOM     65  F8  UNL A   1      56.056  56.955  21.320  1.00  0.00    +0.000 F 
ATOM     66  C49 UNL A   1      55.235  55.078  20.143  1.00  0.00    +0.000 C 
ATOM     67  F9  UNL A   1      56.477  54.763  19.752  1.00  0.00    +0.000 F 
ATOM     68  C50 UNL A   1      54.159  54.295  19.737  1.00  0.00    +0.000 C 
ATOM     69  F10 UNL A   1      54.395  53.238  18.944  1.00  0.00    +0.000 F 
ATOM     59  C45 UNL A   1      52.852  54.590  20.154  1.00  0.00    +0.000 C 
ATOM     60  C46 UNL A   1      52.663  55.701  20.988  1.00  0.00    +0.000 C 
ATOM     61  F6  UNL A   1      51.432  56.034  21.402  1.00  0.00    +0.000 F 
ATOM     62  C47 UNL A   1      53.738  56.502  21.365  1.00  0.00    +0.000 C 
ATOM     63  F7  UNL A   1      53.527  57.589  22.121  1.00  0.00    +0.000 F 
ATOM     64  C48 UNL A   1      55.022  56.186  20.950  1.00  0.00    +0.000 C 
ENDBRANCH   58   59
BRANCH   73   74
ATOM     74  C54 UNL A   1      50.478  48.509  22.587  1.00  0.00    +0.000 C 
ATOM     75  C55 UNL A   1      51.259  47.388  22.274  1.00  0.00    +0.000 C 
ATOM     76  F11 UNL A   1      51.596  47.141  20.999  1.00  0.00    +0.000 F 
ATOM     77  C56 UNL A   1      51.655  46.487  23.260  1.00  0.00    +0.000 C 
ATOM     78  F12 UNL A   1      52.353  45.393  22.924  1.00  0.00    +0.000 F 
ATOM     79  C57 UNL A   1      51.311  46.710  24.584  1.00  0.00    +0.000 C 
ATOM     80  F13 UNL A   1      51.691  45.843  25.532  1.00  0.00    +0.000 F 
ATOM     81  C58 UNL A   1      50.561  47.826  24.923  1.00  0.00    +0.000 C 
ATOM     82  F14 UNL A   1      50.240  48.054  26.204  1.00  0.00    +0.000 F 
ATOM     83  C59 UNL A   1      50.137  48.710  23.932  1.00  0.00    +0.000 C 
ATOM     84  F15 UNL A   1      49.399  49.771  24.287  1.00  0.00    +0.000 F 
ENDBRANCH   73   74
TORSDOF 26
ENDMDL
MODEL 4
REMARK VINA RESULT:      -7.4      2.899      9.181
ROOT
ATOM    131  H34 UNL A   1      50.157  57.129  16.426  1.00  0.00    +0.000 H 
ATOM    132  H35 UNL A   1      52.137  56.910  18.108  1.00  0.00    +0.000 H 
ATOM    133  H36 UNL A   1      49.743  53.550  18.469  1.00  0.00    +0.000 H 
ATOM    134  H37 UNL A   1      48.308  48.102  21.457  1.00  0.00    +0.000 H 
ATOM    135  H38 UNL A   1      46.418  48.301  19.774  1.00  0.00    +0.000 H 
ATOM    136  H39 UNL A   1      48.831  51.658  19.368  1.00  0.00    +0.000 H 
ATOM    137  H40 UNL A   1      52.644  51.023  22.581  1.00  0.00    +0.000 H 
ATOM    138  H41 UNL A   1      53.471  53.331  21.845  1.00  0.00    +0.000 H 
ATOM    139  H42 UNL A   1      46.100  53.904  15.040  1.00  0.00    +0.000 H 
ATOM    140  H43 UNL A   1      44.965  51.868  16.099  1.00  0.00    +0.000 H 
ATOM     37  C30 UNL A   1      46.496  50.657  18.183  1.00  0.00    +0.000 C 
ATOM     38  C31 UNL A   1      46.796  51.927  17.437  1.00  0.00    +0.000 C 
ATOM     39  N3  UNL A   1      47.808  52.748  17.576  1.00  0.00    +0.000 N 
ATOM     40  C32 UNL A   1      47.634  53.731  16.610  1.00  0.00    +0.000 C 
ATOM     41  C33 UNL A   1      48.389  54.831  16.382  1.00  0.00    +0.000 C 
ATOM     53  C40 UNL A   1      49.548  55.193  17.157  1.00  0.00    +0.000 C 
ATOM     54  C41 UNL A   1      50.325  56.334  17.062  1.00  0.00    +0.000 C 
ATOM     55  C42 UNL A   1      51.376  56.225  17.978  1.00  0.00    +0.000 C 
ATOM     56  C43 UNL A   1      51.223  55.042  18.681  1.00  0.00    +0.000 C 
ATOM     57  N4  UNL A   1      50.099  54.416  18.166  1.00  0.00    +0.000 N 
ATOM     58  C44 UNL A   1      52.041  54.518  19.743  1.00  0.00    +0.000 C 
ATOM     70  C51 UNL A   1      51.813  53.353  20.397  1.00  0.00    +0.000 C 
ATOM     71  N5  UNL A   1      50.791  52.433  20.211  1.00  0.00    +0.000 N 
ATOM     72  C52 UNL A   1      51.017  51.465  21.065  1.00  0.00    +0.000 C 
ATOM     73  C53 UNL A   1      50.214  50.219  21.323  1.00  0.00    +0.000 C 
ATOM     85  C60 UNL A   1      49.071  50.024  20.637  1.00  0.00    +0.000 C 
ATOM     86  C61 UNL A   1      48.183  48.876  20.784  1.00  0.00    +0.000 C 
ATOM     87  C62 UNL A   1      47.177  48.987  19.902  1.00  0.00    +0.000 C 
ATOM     88  C63 UNL A   1      47.328  50.233  19.153  1.00  0.00    +0.000 C 
ATOM     89  N6  UNL A   1      48.473  50.791  19.666  1.00  0.00    +0.000 N 
ATOM     90  C64 UNL A   1      52.229  51.652  21.875  1.00  0.00    +0.000 C 
ATOM     91  C65 UNL A   1      52.650  52.837  21.460  1.00  0.00    +0.000 C 
ATOM     92  C66 UNL A   1      46.444  53.386  15.863  1.00  0.00    +0.000 C 
ATOM     93  C67 UNL A   1      45.854  52.314  16.375  1.00  0.00    +0.000 C 
ENDROOT
BRANCH   37   36
ATOM     33  C26 UNL A   1      43.094  48.250  17.150  1.00  0.00    +0.000 C 
ATOM     34  C27 UNL A   1      42.968  49.256  18.111  1.00  0.00    +0.000 C 
ATOM     35  C28 UNL A   1      44.066  50.058  18.431  1.00  0.00    +0.000 C 
ATOM    129  H32 UNL A   1      42.063  49.407  18.585  1.00  0.00    +0.000 H 
ATOM    130  H33 UNL A   1      43.961  50.820  19.119  1.00  0.00    +0.000 H 
ATOM     36  C29 UNL A   1      45.311  49.835  17.822  1.00  0.00    +0.000 C 
ATOM    141  H44 UNL A   1      46.341  48.638  16.415  1.00  0.00    +0.000 H 
ATOM    142  H45 UNL A   1      44.385  47.388  15.718  1.00  0.00    +0.000 H 
ATOM     94  C68 UNL A   1      45.426  48.826  16.855  1.00  0.00    +0.000 C 
ATOM     95  C69 UNL A   1      44.312  48.074  16.484  1.00  0.00    +0.000 C 
BRANCH   33   31
ATOM     31  C25 UNL A   1      41.903  47.432  16.816  1.00  0.00    +0.000 C 
ATOM     32  O5  UNL A   1      41.317  47.612  15.752  1.00  0.00    +0.000 O 
BRANCH   31   30
ATOM     30  N2  UNL A   1      41.458  46.466  17.683  1.00  0.00    +0.000 N 
ATOM    128  H31 UNL A   1      40.502  46.502  17.917  1.00  0.00    +0.000 H 
BRANCH   30   29
ATOM     29  C24 UNL A   1      42.223  45.395  18.300  1.00  0.00    +0.000 C 
ATOM    126  H29 UNL A   1      42.880  45.816  19.033  1.00  0.00    +0.000 H 
ATOM    127  H30 UNL A   1      41.537  44.710  18.752  1.00  0.00    +0.000 H 
BRANCH   29   28
ATOM    124  H27 UNL A   1      42.608  43.672  17.132  1.00  0.00    +0.000 H 
ATOM     28  C23 UNL A   1      43.051  44.636  17.272  1.00  0.00    +0.000 C 
ATOM    125  H28 UNL A   1      43.049  45.231  16.381  1.00  0.00    +0.000 H 
BRANCH   28   27
ATOM    122  H25 UNL A   1      44.686  43.387  17.793  1.00  0.00    +0.000 H 
ATOM     27  C22 UNL A   1      44.518  44.436  17.655  1.00  0.00    +0.000 C 
ATOM    123  H26 UNL A   1      45.096  44.856  16.858  1.00  0.00    +0.000 H 
BRANCH   27   26
ATOM    121  H24 UNL A   1      44.862  44.448  19.726  1.00  0.00    +0.000 H 
ATOM     26  C21 UNL A   1      44.958  45.160  18.933  1.00  0.00    +0.000 C 
ATOM    120  H23 UNL A   1      44.334  46.022  19.056  1.00  0.00    +0.000 H 
BRANCH   26   25
ATOM     25  C20 UNL A   1      46.418  45.624  18.949  1.00  0.00    +0.000 C 
ATOM    118  H21 UNL A   1      46.463  46.577  19.433  1.00  0.00    +0.000 H 
ATOM    119  H22 UNL A   1      46.976  44.873  19.468  1.00  0.00    +0.000 H 
BRANCH   25   24
ATOM    116  H19 UNL A   1      46.655  44.985  16.933  1.00  0.00    +0.000 H 
ATOM    117  H20 UNL A   1      46.788  46.724  17.174  1.00  0.00    +0.000 H 
ATOM     24  C19 UNL A   1      47.038  45.759  17.564  1.00  0.00    +0.000 C 
BRANCH   24   23
ATOM    115  H18 UNL A   1      48.861  44.811  17.267  1.00  0.00    +0.000 H 
ATOM     23  N1  UNL A   1      48.480  45.648  17.622  1.00  0.00    +0.000 N 
BRANCH   23   21
ATOM     21  C18 UNL A   1      49.375  46.549  18.105  1.00  0.00    +0.000 C 
ATOM     22  O4  UNL A   1      50.013  46.321  19.125  1.00  0.00    +0.000 O 
BRANCH   21   20
ATOM    114  H17 UNL A   1      49.341  48.720  17.895  1.00  0.00    +0.000 H 
ATOM     20  C17 UNL A   1      49.546  47.837  17.403  1.00  0.00    +0.000 C 
BRANCH   20   19
ATOM    113  H16 UNL A   1      49.591  47.166  15.466  1.00  0.00    +0.000 H 
ATOM     19  C16 UNL A   1      49.964  47.864  16.128  1.00  0.00    +0.000 C 
BRANCH   19   18
ATOM      9  C8  UNL A   1      50.455  49.968  14.893  1.00  0.00    +0.000 C 
ATOM     10  C9  UNL A   1      51.359  50.896  14.348  1.00  0.00    +0.000 C 
ATOM     11  C10 UNL A   1      52.731  50.741  14.514  1.00  0.00    +0.000 C 
ATOM    105  H8  UNL A   1      50.999  51.704  13.816  1.00  0.00    +0.000 H 
ATOM    109  H12 UNL A   1      54.216  49.572  15.417  1.00  0.00    +0.000 H 
ATOM     14  C12 UNL A   1      53.200  49.670  15.265  1.00  0.00    +0.000 C 
ATOM     15  C13 UNL A   1      52.330  48.716  15.824  1.00  0.00    +0.000 C 
ATOM     18  C15 UNL A   1      50.936  48.855  15.641  1.00  0.00    +0.000 C 
BRANCH    9    8
ATOM    104  H7  UNL A   1      48.570  51.042  14.979  1.00  0.00    +0.000 H 
ATOM      8  C7  UNL A   1      49.030  50.209  14.577  1.00  0.00    +0.000 C 
BRANCH    8    7
ATOM    103  H6  UNL A   1      47.397  49.074  14.162  1.00  0.00    +0.000 H 
ATOM      7  C6  UNL A   1      48.307  49.393  13.792  1.00  0.00    +0.000 C 
BRANCH    7    6
ATOM     97  C71 UNL A   1      50.327  47.714  11.073  1.00  0.00    +0.000 C 
ATOM      3  C2  UNL A   1      49.566  47.942   9.929  1.00  0.00    +0.000 C 
ATOM      4  C3  UNL A   1      48.364  48.640  10.049  1.00  0.00    +0.000 C 
ATOM    101  H4  UNL A   1      47.789  48.812   9.209  1.00  0.00    +0.000 H 
ATOM      5  C4  UNL A   1      47.926  49.113  11.295  1.00  0.00    +0.000 C 
ATOM    102  H5  UNL A   1      47.029  49.618  11.362  1.00  0.00    +0.000 H 
ATOM      6  C5  UNL A   1      48.692  48.909  12.449  1.00  0.00    +0.000 C 
ATOM    143  H46 UNL A   1      50.470  48.018  13.156  1.00  0.00    +0.000 H 
ATOM    144  H47 UNL A   1      51.214  47.190  11.004  1.00  0.00    +0.000 H 
ATOM     96  C70 UNL A   1      49.893  48.194  12.318  1.00  0.00    +0.000 C 
BRANCH    3    2
ATOM      2  O1  UNL A   1      49.899  47.574   8.655  1.00  0.00    +0.000 O 
BRANCH    2    1
ATOM      1  C1  UNL A   1      50.986  46.668   8.513  1.00  0.00    +0.000 C 
ATOM     98  H1  UNL A   1      50.927  45.919   9.274  1.00  0.00    +0.000 H 
ATOM     99  H2  UNL A   1      51.909  47.201   8.608  1.00  0.00    +0.000 H 
ATOM    100  H3  UNL A   1      50.940  46.203   7.551  1.00  0.00    +0.000 H 
ENDBRANCH    2    1
ENDBRANCH    3    2
ENDBRANCH    7    6
ENDBRANCH    8    7
ENDBRANCH    9    8
BRANCH   11   12
ATOM     12  O2  UNL A   1      53.511  51.681  13.898  1.00  0.00    +0.000 O 
BRANCH   12   13
ATOM    106  H9  UNL A   1      55.124  52.804  14.468  1.00  0.00    +0.000 H 
ATOM    107  H10 UNL A   1      55.508  51.319  13.630  1.00  0.00    +0.000 H 
ATOM    108  H11 UNL A   1      54.956  51.270  15.287  1.00  0.00    +0.000 H 
ATOM     13  C11 UNL A   1      54.859  51.774  14.349  1.00  0.00    +0.000 C 
ENDBRANCH   12   13
ENDBRANCH   11   12
BRANCH   15   16
ATOM     16  O3  UNL A   1      53.062  47.736  16.440  1.00  0.00    +0.000 O 
BRANCH   16   17
ATOM     17  C14 UNL A   1      53.386  47.771  17.816  1.00  0.00    +0.000 C 
ATOM    110  H13 UNL A   1      54.444  47.662  17.936  1.00  0.00    +0.000 H 
ATOM    111  H14 UNL A   1      52.885  46.973  18.322  1.00  0.00    +0.000 H 
ATOM    112  H15 UNL A   1      53.076  48.707  18.232  1.00  0.00    +0.000 H 
ENDBRANCH   16   17
ENDBRANCH   15   16
ENDBRANCH   19   18
ENDBRANCH   20   19
ENDBRANCH   21   20
ENDBRANCH   23   21
ENDBRANCH   24   23
ENDBRANCH   25   24
ENDBRANCH   26   25
ENDBRANCH   27   26
ENDBRANCH   28   27
ENDBRANCH   29   28
ENDBRANCH   30   29
ENDBRANCH   31   30
ENDBRANCH   33   31
ENDBRANCH   37   36
BRANCH   41   42
ATOM     42  C34 UNL A   1      47.993  55.735  15.252  1.00  0.00    +0.000 C 
ATOM     43  C35 UNL A   1      47.170  56.853  15.454  1.00  0.00    +0.000 C 
ATOM     44  F1  UNL A   1      46.648  57.096  16.666  1.00  0.00    +0.000 F 
ATOM     45  C36 UNL A   1      46.859  57.713  14.403  1.00  0.00    +0.000 C 
ATOM     46  F2  UNL A   1      46.042  58.755  14.613  1.00  0.00    +0.000 F 
ATOM     47  C37 UNL A   1      47.390  57.492  13.142  1.00  0.00    +0.000 C 
ATOM     48  F3  UNL A   1      47.103  58.331  12.137  1.00  0.00    +0.000 F 
ATOM     49  C38 UNL A   1      48.215  56.400  12.922  1.00  0.00    +0.000 C 
ATOM     50  F4  UNL A   1      48.740  56.193  11.706  1.00  0.00    +0.000 F 
ATOM     51  C39 UNL A   1      48.505  55.523  13.962  1.00  0.00    +0.000 C 
ATOM     52  F5  UNL A   1      49.302  54.472  13.716  1.00  0.00    +0.000 F 
ENDBRANCH   41   42
BRANCH   58   59
ATOM     65  F8  UNL A   1      56.535  57.508  21.414  1.00  0.00    +0.000 F 
ATOM     66  C49 UNL A   1      55.624  55.735  20.147  1.00  0.00    +0.000 C 
ATOM     67  F9  UNL A   1      56.846  55.400  19.711  1.00  0.00    +0.000 F 
ATOM     68  C50 UNL A   1      54.512  55.015  19.719  1.00  0.00    +0.000 C 
ATOM     69  F10 UNL A   1      54.694  53.999  18.860  1.00  0.00    +0.000 F 
ATOM     59  C45 UNL A   1      53.226  55.330  20.181  1.00  0.00    +0.000 C 
ATOM     60  C46 UNL A   1      53.093  56.395  21.083  1.00  0.00    +0.000 C 
ATOM     61  F6  UNL A   1      51.883  56.746  21.542  1.00  0.00    +0.000 F 
ATOM     62  C47 UNL A   1      54.203  57.134  21.484  1.00  0.00    +0.000 C 
ATOM     63  F7  UNL A   1      54.047  58.181  22.307  1.00  0.00    +0.000 F 
ATOM     64  C48 UNL A   1      55.467  56.799  21.022  1.00  0.00    +0.000 C 
ENDBRANCH   58   59
BRANCH   73   74
ATOM     74  C54 UNL A   1      50.664  49.216  22.324  1.00  0.00    +0.000 C 
ATOM     75  C55 UNL A   1      51.541  48.182  21.967  1.00  0.00    +0.000 C 
ATOM     76  F11 UNL A   1      51.988  48.087  20.706  1.00  0.00    +0.000 F 
ATOM     77  C56 UNL A   1      51.923  47.210  22.890  1.00  0.00    +0.000 C 
ATOM     78  F12 UNL A   1      52.718  46.201  22.508  1.00  0.00    +0.000 F 
ATOM     79  C57 UNL A   1      51.467  47.276  24.198  1.00  0.00    +0.000 C 
ATOM     80  F13 UNL A   1      51.833  46.342  25.085  1.00  0.00    +0.000 F 
ATOM     81  C58 UNL A   1      50.620  48.305  24.581  1.00  0.00    +0.000 C 
ATOM     82  F14 UNL A   1      50.189  48.380  25.848  1.00  0.00    +0.000 F 
ATOM     83  C59 UNL A   1      50.211  49.258  23.650  1.00  0.00    +0.000 C 
ATOM     84  F15 UNL A   1      49.377  50.230  24.045  1.00  0.00    +0.000 F 
ENDBRANCH   73   74
TORSDOF 26
ENDMDL
MODEL 5
REMARK VINA RESULT:      -7.4     29.239     34.593
ROOT
ATOM    131  H34 UNL A   1      59.401  18.083   7.597  1.00  0.00    +0.000 H 
ATOM    132  H35 UNL A   1      58.256  17.182   5.435  1.00  0.00    +0.000 H 
ATOM    133  H36 UNL A   1      55.351  18.926   7.816  1.00  0.00    +0.000 H 
ATOM    134  H37 UNL A   1      49.213  20.221   8.963  1.00  0.00    +0.000 H 
ATOM    135  H38 UNL A   1      50.350  21.145  11.038  1.00  0.00    +0.000 H 
ATOM    136  H39 UNL A   1      53.284  19.438   8.642  1.00  0.00    +0.000 H 
ATOM    137  H40 UNL A   1      50.938  17.865   4.484  1.00  0.00    +0.000 H 
ATOM    138  H41 UNL A   1      53.201  16.947   3.718  1.00  0.00    +0.000 H 
ATOM    139  H42 UNL A   1      57.643  20.864  11.835  1.00  0.00    +0.000 H 
ATOM    140  H43 UNL A   1      55.346  21.331  12.865  1.00  0.00    +0.000 H 
ATOM     37  C30 UNL A   1      53.166  20.753  11.115  1.00  0.00    +0.000 C 
ATOM     38  C31 UNL A   1      54.627  20.484  10.888  1.00  0.00    +0.000 C 
ATOM     39  N3  UNL A   1      55.215  19.932   9.855  1.00  0.00    +0.000 N 
ATOM     40  C32 UNL A   1      56.576  19.971  10.129  1.00  0.00    +0.000 C 
ATOM     41  C33 UNL A   1      57.598  19.477   9.390  1.00  0.00    +0.000 C 
ATOM     53  C40 UNL A   1      57.432  18.778   8.142  1.00  0.00    +0.000 C 
ATOM     54  C41 UNL A   1      58.397  18.161   7.366  1.00  0.00    +0.000 C 
ATOM     55  C42 UNL A   1      57.781  17.661   6.215  1.00  0.00    +0.000 C 
ATOM     56  C43 UNL A   1      56.422  17.918   6.301  1.00  0.00    +0.000 C 
ATOM     57  N4  UNL A   1      56.222  18.606   7.487  1.00  0.00    +0.000 N 
ATOM     58  C44 UNL A   1      55.382  17.565   5.369  1.00  0.00    +0.000 C 
ATOM     70  C51 UNL A   1      54.065  17.838   5.535  1.00  0.00    +0.000 C 
ATOM     71  N5  UNL A   1      53.435  18.490   6.585  1.00  0.00    +0.000 N 
ATOM     72  C52 UNL A   1      52.162  18.529   6.273  1.00  0.00    +0.000 C 
ATOM     73  C53 UNL A   1      51.009  19.093   7.058  1.00  0.00    +0.000 C 
ATOM     85  C60 UNL A   1      51.240  19.617   8.276  1.00  0.00    +0.000 C 
ATOM     86  C61 UNL A   1      50.227  20.189   9.157  1.00  0.00    +0.000 C 
ATOM     87  C62 UNL A   1      50.827  20.667  10.258  1.00  0.00    +0.000 C 
ATOM     88  C63 UNL A   1      52.263  20.402  10.180  1.00  0.00    +0.000 C 
ATOM     89  N6  UNL A   1      52.416  19.762   8.975  1.00  0.00    +0.000 N 
ATOM     90  C64 UNL A   1      51.846  17.925   4.970  1.00  0.00    +0.000 C 
ATOM     91  C65 UNL A   1      53.033  17.480   4.585  1.00  0.00    +0.000 C 
ATOM     92  C66 UNL A   1      56.734  20.636  11.403  1.00  0.00    +0.000 C 
ATOM     93  C67 UNL A   1      55.556  20.917  11.943  1.00  0.00    +0.000 C 
ENDROOT
BRANCH   37   36
ATOM     33  C26 UNL A   1      51.885  22.759  14.689  1.00  0.00    +0.000 C 
ATOM     34  C27 UNL A   1      52.164  23.499  13.537  1.00  0.00    +0.000 C 
ATOM     35  C28 UNL A   1      52.556  22.847  12.365  1.00  0.00    +0.000 C 
ATOM    129  H32 UNL A   1      52.081  24.528  13.552  1.00  0.00    +0.000 H 
ATOM    130  H33 UNL A   1      52.732  23.395  11.509  1.00  0.00    +0.000 H 
ATOM     36  C29 UNL A   1      52.712  21.453  12.346  1.00  0.00    +0.000 C 
ATOM    141  H44 UNL A   1      52.555  19.694  13.509  1.00  0.00    +0.000 H 
ATOM    142  H45 UNL A   1      51.680  20.809  15.475  1.00  0.00    +0.000 H 
ATOM     94  C68 UNL A   1      52.424  20.718  13.505  1.00  0.00    +0.000 C 
ATOM     95  C69 UNL A   1      51.964  21.363  14.652  1.00  0.00    +0.000 C 
BRANCH   33   31
ATOM     31  C25 UNL A   1      51.448  23.480  15.909  1.00  0.00    +0.000 C 
ATOM     32  O5  UNL A   1      50.251  23.574  16.167  1.00  0.00    +0.000 O 
BRANCH   31   30
ATOM     30  N2  UNL A   1      52.374  24.029  16.760  1.00  0.00    +0.000 N 
ATOM    128  H31 UNL A   1      52.011  24.502  17.544  1.00  0.00    +0.000 H 
BRANCH   30   29
ATOM     29  C24 UNL A   1      53.822  24.003  16.647  1.00  0.00    +0.000 C 
ATOM    126  H29 UNL A   1      54.092  24.117  15.618  1.00  0.00    +0.000 H 
ATOM    127  H30 UNL A   1      54.219  24.803  17.236  1.00  0.00    +0.000 H 
BRANCH   29   28
ATOM    124  H27 UNL A   1      54.882  22.889  18.102  1.00  0.00    +0.000 H 
ATOM     28  C23 UNL A   1      54.399  22.693  17.167  1.00  0.00    +0.000 C 
ATOM    125  H28 UNL A   1      53.577  22.013  17.255  1.00  0.00    +0.000 H 
BRANCH   28   27
ATOM    122  H25 UNL A   1      54.957  21.156  15.814  1.00  0.00    +0.000 H 
ATOM     27  C22 UNL A   1      55.414  22.027  16.236  1.00  0.00    +0.000 C 
ATOM    123  H26 UNL A   1      55.677  22.764  15.505  1.00  0.00    +0.000 H 
BRANCH   27   26
ATOM    121  H24 UNL A   1      56.475  20.791  17.561  1.00  0.00    +0.000 H 
ATOM     26  C21 UNL A   1      56.725  21.601  16.907  1.00  0.00    +0.000 C 
ATOM    120  H23 UNL A   1      57.128  22.452  17.417  1.00  0.00    +0.000 H 
BRANCH   26   25
ATOM     25  C20 UNL A   1      57.799  21.065  15.956  1.00  0.00    +0.000 C 
ATOM    118  H21 UNL A   1      58.184  21.885  15.387  1.00  0.00    +0.000 H 
ATOM    119  H22 UNL A   1      58.546  20.598  16.562  1.00  0.00    +0.000 H 
BRANCH   25   24
ATOM    116  H19 UNL A   1      56.446  20.392  14.458  1.00  0.00    +0.000 H 
ATOM    117  H20 UNL A   1      58.082  19.761  14.307  1.00  0.00    +0.000 H 
ATOM     24  C19 UNL A   1      57.291  20.005  14.985  1.00  0.00    +0.000 C 
BRANCH   24   23
ATOM    115  H18 UNL A   1      56.586  18.924  16.610  1.00  0.00    +0.000 H 
ATOM     23  N1  UNL A   1      56.899  18.800  15.685  1.00  0.00    +0.000 N 
BRANCH   23   21
ATOM     21  C18 UNL A   1      56.909  17.520  15.228  1.00  0.00    +0.000 C 
ATOM     22  O4  UNL A   1      55.905  17.017  14.740  1.00  0.00    +0.000 O 
BRANCH   21   20
ATOM    114  H17 UNL A   1      58.458  16.131  14.576  1.00  0.00    +0.000 H 
ATOM     20  C17 UNL A   1      58.143  16.721  15.361  1.00  0.00    +0.000 C 
BRANCH   20   19
ATOM    113  H16 UNL A   1      58.532  16.198  17.305  1.00  0.00    +0.000 H 
ATOM     19  C16 UNL A   1      58.854  16.755  16.498  1.00  0.00    +0.000 C 
BRANCH   19   18
ATOM      9  C8  UNL A   1      60.108  18.590  17.619  1.00  0.00    +0.000 C 
ATOM     10  C9  UNL A   1      61.231  19.428  17.729  1.00  0.00    +0.000 C 
ATOM     11  C10 UNL A   1      62.322  19.279  16.880  1.00  0.00    +0.000 C 
ATOM    105  H8  UNL A   1      61.246  20.165  18.451  1.00  0.00    +0.000 H 
ATOM    109  H12 UNL A   1      63.127  18.125  15.327  1.00  0.00    +0.000 H 
ATOM     14  C12 UNL A   1      62.305  18.258  15.937  1.00  0.00    +0.000 C 
ATOM     15  C13 UNL A   1      61.199  17.400  15.789  1.00  0.00    +0.000 C 
ATOM     18  C15 UNL A   1      60.078  17.560  16.635  1.00  0.00    +0.000 C 
BRANCH    9    8
ATOM    104  H7  UNL A   1      58.121  18.350  18.458  1.00  0.00    +0.000 H 
ATOM      8  C7  UNL A   1      58.988  18.905  18.532  1.00  0.00    +0.000 C 
BRANCH    8    7
ATOM    103  H6  UNL A   1      58.911  20.848  19.118  1.00  0.00    +0.000 H 
ATOM      7  C6  UNL A   1      59.048  19.882  19.453  1.00  0.00    +0.000 C 
BRANCH    7    6
ATOM     97  C71 UNL A   1      60.662  18.678  22.653  1.00  0.00    +0.000 C 
ATOM      3  C2  UNL A   1      59.865  19.250  23.642  1.00  0.00    +0.000 C 
ATOM      4  C3  UNL A   1      58.793  20.057  23.259  1.00  0.00    +0.000 C 
ATOM    101  H4  UNL A   1      58.197  20.489  23.982  1.00  0.00    +0.000 H 
ATOM      5  C4  UNL A   1      58.512  20.287  21.904  1.00  0.00    +0.000 C 
ATOM    102  H5  UNL A   1      57.721  20.896  21.644  1.00  0.00    +0.000 H 
ATOM      6  C5  UNL A   1      59.293  19.702  20.900  1.00  0.00    +0.000 C 
ATOM    143  H46 UNL A   1      60.976  18.470  20.578  1.00  0.00    +0.000 H 
ATOM    144  H47 UNL A   1      61.466  18.088  22.919  1.00  0.00    +0.000 H 
ATOM     96  C70 UNL A   1      60.377  18.903  21.298  1.00  0.00    +0.000 C 
BRANCH    3    2
ATOM      2  O1  UNL A   1      60.004  19.071  24.991  1.00  0.00    +0.000 O 
BRANCH    2    1
ATOM      1  C1  UNL A   1      60.352  17.764  25.431  1.00  0.00    +0.000 C 
ATOM     98  H1  UNL A   1      59.463  17.181  25.554  1.00  0.00    +0.000 H 
ATOM     99  H2  UNL A   1      60.870  17.828  26.364  1.00  0.00    +0.000 H 
ATOM    100  H3  UNL A   1      60.984  17.299  24.702  1.00  0.00    +0.000 H 
ENDBRANCH    2    1
ENDBRANCH    3    2
ENDBRANCH    7    6
ENDBRANCH    8    7
ENDBRANCH    9    8
BRANCH   11   12
ATOM     12  O2  UNL A   1      63.333  20.183  17.052  1.00  0.00    +0.000 O 
BRANCH   12   13
ATOM    106  H9  UNL A   1      65.288  19.752  17.481  1.00  0.00    +0.000 H 
ATOM    107  H10 UNL A   1      64.106  18.879  18.427  1.00  0.00    +0.000 H 
ATOM    108  H11 UNL A   1      64.408  20.570  18.750  1.00  0.00    +0.000 H 
ATOM     13  C11 UNL A   1      64.347  19.823  17.986  1.00  0.00    +0.000 C 
ENDBRANCH   12   13
ENDBRANCH   11   12
BRANCH   15   16
ATOM     16  O3  UNL A   1      61.419  16.546  14.742  1.00  0.00    +0.000 O 
BRANCH   16   17
ATOM     17  C14 UNL A   1      61.774  15.189  14.920  1.00  0.00    +0.000 C 
ATOM    110  H13 UNL A   1      61.870  14.717  13.964  1.00  0.00    +0.000 H 
ATOM    111  H14 UNL A   1      61.015  14.694  15.489  1.00  0.00    +0.000 H 
ATOM    112  H15 UNL A   1      62.707  15.130  15.441  1.00  0.00    +0.000 H 
ENDBRANCH   16   17
ENDBRANCH   15   16
ENDBRANCH   19   18
ENDBRANCH   20   19
ENDBRANCH   21   20
ENDBRANCH   23   21
ENDBRANCH   24   23
ENDBRANCH   25   24
ENDBRANCH   26   25
ENDBRANCH   27   26
ENDBRANCH   28   27
ENDBRANCH   29   28
ENDBRANCH   30   29
ENDBRANCH   31   30
ENDBRANCH   33   31
ENDBRANCH   37   36
BRANCH   41   42
ATOM     42  C34 UNL A   1      58.995  19.669   9.904  1.00  0.00    +0.000 C 
ATOM     43  C35 UNL A   1      59.602  18.735  10.757  1.00  0.00    +0.000 C 
ATOM     44  F1  UNL A   1      58.909  17.674  11.199  1.00  0.00    +0.000 F 
ATOM     45  C36 UNL A   1      60.919  18.900  11.179  1.00  0.00    +0.000 C 
ATOM     46  F2  UNL A   1      61.467  18.012  12.021  1.00  0.00    +0.000 F 
ATOM     47  C37 UNL A   1      61.663  19.981  10.733  1.00  0.00    +0.000 C 
ATOM     48  F3  UNL A   1      62.936  20.129  11.126  1.00  0.00    +0.000 F 
ATOM     49  C38 UNL A   1      61.087  20.911   9.881  1.00  0.00    +0.000 C 
ATOM     50  F4  UNL A   1      61.809  21.950   9.438  1.00  0.00    +0.000 F 
ATOM     51  C39 UNL A   1      59.763  20.764   9.479  1.00  0.00    +0.000 C 
ATOM     52  F5  UNL A   1      59.232  21.684   8.659  1.00  0.00    +0.000 F 
ENDBRANCH   41   42
BRANCH   58   59
ATOM     65  F8  UNL A   1      56.831  14.798   0.661  1.00  0.00    +0.000 F 
ATOM     66  C49 UNL A   1      56.784  16.798   1.916  1.00  0.00    +0.000 C 
ATOM     67  F9  UNL A   1      57.402  17.452   0.923  1.00  0.00    +0.000 F 
ATOM     68  C50 UNL A   1      56.446  17.472   3.086  1.00  0.00    +0.000 C 
ATOM     69  F10 UNL A   1      56.764  18.771   3.196  1.00  0.00    +0.000 F 
ATOM     59  C45 UNL A   1      55.777  16.815   4.130  1.00  0.00    +0.000 C 
ATOM     60  C46 UNL A   1      55.463  15.459   3.960  1.00  0.00    +0.000 C 
ATOM     61  F6  UNL A   1      54.838  14.783   4.934  1.00  0.00    +0.000 F 
ATOM     62  C47 UNL A   1      55.832  14.780   2.801  1.00  0.00    +0.000 C 
ATOM     63  F7  UNL A   1      55.567  13.471   2.682  1.00  0.00    +0.000 F 
ATOM     64  C48 UNL A   1      56.484  15.451   1.778  1.00  0.00    +0.000 C 
ENDBRANCH   58   59
BRANCH   73   74
ATOM     74  C54 UNL A   1      49.628  19.068   6.506  1.00  0.00    +0.000 C 
ATOM     75  C55 UNL A   1      48.816  17.933   6.642  1.00  0.00    +0.000 C 
ATOM     76  F11 UNL A   1      49.281  16.848   7.280  1.00  0.00    +0.000 F 
ATOM     77  C56 UNL A   1      47.541  17.888   6.081  1.00  0.00    +0.000 C 
ATOM     78  F12 UNL A   1      46.808  16.770   6.178  1.00  0.00    +0.000 F 
ATOM     79  C57 UNL A   1      47.039  18.990   5.406  1.00  0.00    +0.000 C 
ATOM     80  F13 UNL A   1      45.814  18.946   4.866  1.00  0.00    +0.000 F 
ATOM     81  C58 UNL A   1      47.813  20.133   5.281  1.00  0.00    +0.000 C 
ATOM     82  F14 UNL A   1      47.326  21.206   4.644  1.00  0.00    +0.000 F 
ATOM     83  C59 UNL A   1      49.101  20.167   5.814  1.00  0.00    +0.000 C 
ATOM     84  F15 UNL A   1      49.833  21.280   5.662  1.00  0.00    +0.000 F 
ENDBRANCH   73   74
TORSDOF 26
ENDMDL
MODEL 6
REMARK VINA RESULT:      -7.2     62.161     69.326
ROOT
ATOM    131  H34 UNL A   1       6.615  -8.336  28.749  1.00  0.00    +0.000 H 
ATOM    132  H35 UNL A   1       6.102  -8.685  31.281  1.00  0.00    +0.000 H 
ATOM    133  H36 UNL A   1       4.849  -4.886  30.210  1.00  0.00    +0.000 H 
ATOM    134  H37 UNL A   1       2.519   0.817  31.858  1.00  0.00    +0.000 H 
ATOM    135  H38 UNL A   1       2.971   1.122  29.378  1.00  0.00    +0.000 H 
ATOM    136  H39 UNL A   1       4.194  -2.708  30.425  1.00  0.00    +0.000 H 
ATOM    137  H40 UNL A   1       3.032  -3.256  35.284  1.00  0.00    +0.000 H 
ATOM    138  H41 UNL A   1       4.114  -5.571  35.142  1.00  0.00    +0.000 H 
ATOM    139  H42 UNL A   1       5.625  -4.363  25.282  1.00  0.00    +0.000 H 
ATOM    140  H43 UNL A   1       5.034  -1.881  25.497  1.00  0.00    +0.000 H 
ATOM     37  C30 UNL A   1       4.135  -1.138  28.103  1.00  0.00    +0.000 C 
ATOM     38  C31 UNL A   1       4.677  -2.468  27.659  1.00  0.00    +0.000 C 
ATOM     39  N3  UNL A   1       4.856  -3.562  28.356  1.00  0.00    +0.000 N 
ATOM     40  C32 UNL A   1       5.329  -4.511  27.459  1.00  0.00    +0.000 C 
ATOM     41  C33 UNL A   1       5.711  -5.786  27.705  1.00  0.00    +0.000 C 
ATOM     53  C40 UNL A   1       5.708  -6.396  29.009  1.00  0.00    +0.000 C 
ATOM     54  C41 UNL A   1       6.163  -7.650  29.374  1.00  0.00    +0.000 C 
ATOM     55  C42 UNL A   1       5.905  -7.831  30.737  1.00  0.00    +0.000 C 
ATOM     56  C43 UNL A   1       5.340  -6.667  31.232  1.00  0.00    +0.000 C 
ATOM     57  N4  UNL A   1       5.222  -5.795  30.162  1.00  0.00    +0.000 N 
ATOM     58  C44 UNL A   1       4.935  -6.371  32.582  1.00  0.00    +0.000 C 
ATOM     70  C51 UNL A   1       4.403  -5.195  32.994  1.00  0.00    +0.000 C 
ATOM     71  N5  UNL A   1       4.134  -4.052  32.253  1.00  0.00    +0.000 N 
ATOM     72  C52 UNL A   1       3.604  -3.196  33.091  1.00  0.00    +0.000 C 
ATOM     73  C53 UNL A   1       3.145  -1.784  32.844  1.00  0.00    +0.000 C 
ATOM     85  C60 UNL A   1       3.303  -1.250  31.617  1.00  0.00    +0.000 C 
ATOM     86  C61 UNL A   1       2.919   0.102  31.229  1.00  0.00    +0.000 C 
ATOM     87  C62 UNL A   1       3.169   0.267  29.920  1.00  0.00    +0.000 C 
ATOM     88  C63 UNL A   1       3.765  -0.956  29.385  1.00  0.00    +0.000 C 
ATOM     89  N6  UNL A   1       3.820  -1.798  30.467  1.00  0.00    +0.000 N 
ATOM     90  C64 UNL A   1       3.452  -3.712  34.459  1.00  0.00    +0.000 C 
ATOM     91  C65 UNL A   1       3.996  -4.915  34.354  1.00  0.00    +0.000 C 
ATOM     92  C66 UNL A   1       5.371  -3.880  26.158  1.00  0.00    +0.000 C 
ATOM     93  C67 UNL A   1       5.038  -2.599  26.238  1.00  0.00    +0.000 C 
ENDROOT
BRANCH   37   36
ATOM     33  C26 UNL A   1       3.586   2.063  25.295  1.00  0.00    +0.000 C 
ATOM     34  C27 UNL A   1       4.799   1.936  25.976  1.00  0.00    +0.000 C 
ATOM     35  C28 UNL A   1       4.990   0.881  26.871  1.00  0.00    +0.000 C 
ATOM    129  H32 UNL A   1       5.554   2.623  25.818  1.00  0.00    +0.000 H 
ATOM    130  H33 UNL A   1       5.898   0.773  27.349  1.00  0.00    +0.000 H 
ATOM     36  C29 UNL A   1       3.956  -0.034  27.124  1.00  0.00    +0.000 C 
ATOM    141  H44 UNL A   1       1.968  -0.554  26.624  1.00  0.00    +0.000 H 
ATOM    142  H45 UNL A   1       1.715   1.155  24.924  1.00  0.00    +0.000 H 
ATOM     94  C68 UNL A   1       2.743   0.099  26.432  1.00  0.00    +0.000 C 
ATOM     95  C69 UNL A   1       2.580   1.110  25.485  1.00  0.00    +0.000 C 
BRANCH   33   31
ATOM     31  C25 UNL A   1       3.423   3.181  24.334  1.00  0.00    +0.000 C 
ATOM     32  O5  UNL A   1       3.699   4.327  24.679  1.00  0.00    +0.000 O 
BRANCH   31   30
ATOM     30  N2  UNL A   1       2.982   2.942  23.057  1.00  0.00    +0.000 N 
ATOM    128  H31 UNL A   1       2.019   2.758  22.961  1.00  0.00    +0.000 H 
BRANCH   30   29
ATOM     29  C24 UNL A   1       3.758   2.926  21.829  1.00  0.00    +0.000 C 
ATOM    126  H29 UNL A   1       3.324   2.220  21.153  1.00  0.00    +0.000 H 
ATOM    127  H30 UNL A   1       3.744   3.911  21.411  1.00  0.00    +0.000 H 
BRANCH   29   28
ATOM    124  H27 UNL A   1       5.835   3.177  21.505  1.00  0.00    +0.000 H 
ATOM     28  C23 UNL A   1       5.207   2.537  22.089  1.00  0.00    +0.000 C 
ATOM    125  H28 UNL A   1       5.365   2.643  23.142  1.00  0.00    +0.000 H 
BRANCH   28   27
ATOM    122  H25 UNL A   1       5.859   1.053  20.719  1.00  0.00    +0.000 H 
ATOM     27  C22 UNL A   1       5.550   1.087  21.743  1.00  0.00    +0.000 C 
ATOM    123  H26 UNL A   1       6.317   0.790  22.428  1.00  0.00    +0.000 H 
BRANCH   27   26
ATOM    121  H24 UNL A   1       4.330  -0.457  21.009  1.00  0.00    +0.000 H 
ATOM     26  C21 UNL A   1       4.401   0.088  21.927  1.00  0.00    +0.000 C 
ATOM    120  H23 UNL A   1       3.516   0.643  22.163  1.00  0.00    +0.000 H 
BRANCH   26   25
ATOM     25  C20 UNL A   1       4.615  -0.956  23.028  1.00  0.00    +0.000 C 
ATOM    118  H21 UNL A   1       5.111  -0.482  23.849  1.00  0.00    +0.000 H 
ATOM    119  H22 UNL A   1       3.649  -1.331  23.291  1.00  0.00    +0.000 H 
BRANCH   25   24
ATOM    116  H19 UNL A   1       4.935  -3.052  22.851  1.00  0.00    +0.000 H 
ATOM    117  H20 UNL A   1       5.595  -2.094  21.530  1.00  0.00    +0.000 H 
ATOM     24  C19 UNL A   1       5.450  -2.153  22.589  1.00  0.00    +0.000 C 
BRANCH   24   23
ATOM    115  H18 UNL A   1       6.801  -2.622  24.092  1.00  0.00    +0.000 H 
ATOM     23  N1  UNL A   1       6.748  -2.149  23.230  1.00  0.00    +0.000 N 
BRANCH   23   21
ATOM     21  C18 UNL A   1       7.900  -1.577  22.795  1.00  0.00    +0.000 C 
ATOM     22  O4  UNL A   1       8.520  -2.046  21.849  1.00  0.00    +0.000 O 
BRANCH   21   20
ATOM    114  H17 UNL A   1       9.255   0.098  23.137  1.00  0.00    +0.000 H 
ATOM     20  C17 UNL A   1       8.426  -0.394  23.504  1.00  0.00    +0.000 C 
BRANCH   20   19
ATOM    113  H16 UNL A   1       6.937  -0.381  24.913  1.00  0.00    +0.000 H 
ATOM     19  C16 UNL A   1       7.832   0.045  24.625  1.00  0.00    +0.000 C 
BRANCH   19   18
ATOM      9  C8  UNL A   1       8.818   0.790  26.785  1.00  0.00    +0.000 C 
ATOM     10  C9  UNL A   1       9.307   1.796  27.634  1.00  0.00    +0.000 C 
ATOM     11  C10 UNL A   1       9.393   3.116  27.206  1.00  0.00    +0.000 C 
ATOM    105  H8  UNL A   1       9.607   1.552  28.591  1.00  0.00    +0.000 H 
ATOM    109  H12 UNL A   1       9.116   4.399  25.572  1.00  0.00    +0.000 H 
ATOM     14  C12 UNL A   1       9.022   3.425  25.903  1.00  0.00    +0.000 C 
ATOM     15  C13 UNL A   1       8.522   2.449  25.021  1.00  0.00    +0.000 C 
ATOM     18  C15 UNL A   1       8.412   1.110  25.457  1.00  0.00    +0.000 C 
BRANCH    9    8
ATOM    104  H7  UNL A   1       7.841  -0.798  27.896  1.00  0.00    +0.000 H 
ATOM      8  C7  UNL A   1       8.708  -0.555  27.391  1.00  0.00    +0.000 C 
BRANCH    8    7
ATOM    103  H6  UNL A   1      10.308  -1.563  28.131  1.00  0.00    +0.000 H 
ATOM      7  C6  UNL A   1       9.685  -1.474  27.313  1.00  0.00    +0.000 C 
BRANCH    7    6
ATOM     97  C71 UNL A   1      11.434  -2.965  24.311  1.00  0.00    +0.000 C 
ATOM      3  C2  UNL A   1      10.576  -3.993  23.926  1.00  0.00    +0.000 C 
ATOM      4  C3  UNL A   1       9.416  -4.216  24.669  1.00  0.00    +0.000 C 
ATOM    101  H4  UNL A   1       8.775  -4.977  24.397  1.00  0.00    +0.000 H 
ATOM      5  C4  UNL A   1       9.109  -3.418  25.781  1.00  0.00    +0.000 C 
ATOM    102  H5  UNL A   1       8.251  -3.608  26.323  1.00  0.00    +0.000 H 
ATOM      6  C5  UNL A   1       9.952  -2.368  26.166  1.00  0.00    +0.000 C 
ATOM    143  H46 UNL A   1      11.767  -1.404  25.689  1.00  0.00    +0.000 H 
ATOM    144  H47 UNL A   1      12.302  -2.794  23.779  1.00  0.00    +0.000 H 
ATOM     96  C70 UNL A   1      11.122  -2.163  25.419  1.00  0.00    +0.000 C 
BRANCH    3    2
ATOM      2  O1  UNL A   1      10.737  -4.812  22.842  1.00  0.00    +0.000 O 
BRANCH    2    1
ATOM      1  C1  UNL A   1      11.737  -4.440  21.902  1.00  0.00    +0.000 C 
ATOM     98  H1  UNL A   1      12.668  -4.889  22.176  1.00  0.00    +0.000 H 
ATOM     99  H2  UNL A   1      11.842  -3.375  21.895  1.00  0.00    +0.000 H 
ATOM    100  H3  UNL A   1      11.453  -4.777  20.927  1.00  0.00    +0.000 H 
ENDBRANCH    2    1
ENDBRANCH    3    2
ENDBRANCH    7    6
ENDBRANCH    8    7
ENDBRANCH    9    8
BRANCH   11   12
ATOM     12  O2  UNL A   1       9.839   4.013  28.138  1.00  0.00    +0.000 O 
BRANCH   12   13
ATOM    106  H9  UNL A   1      11.817   4.142  27.623  1.00  0.00    +0.000 H 
ATOM    107  H10 UNL A   1      11.438   2.941  28.834  1.00  0.00    +0.000 H 
ATOM    108  H11 UNL A   1      11.437   4.636  29.255  1.00  0.00    +0.000 H 
ATOM     13  C11 UNL A   1      11.219   3.927  28.484  1.00  0.00    +0.000 C 
ENDBRANCH   12   13
ENDBRANCH   11   12
BRANCH   15   16
ATOM     16  O3  UNL A   1       8.164   3.041  23.839  1.00  0.00    +0.000 O 
BRANCH   16   17
ATOM     17  C14 UNL A   1       8.910   4.088  23.248  1.00  0.00    +0.000 C 
ATOM    110  H13 UNL A   1       8.762   4.077  22.189  1.00  0.00    +0.000 H 
ATOM    111  H14 UNL A   1       9.949   3.953  23.466  1.00  0.00    +0.000 H 
ATOM    112  H15 UNL A   1       8.581   5.027  23.644  1.00  0.00    +0.000 H 
ENDBRANCH   16   17
ENDBRANCH   15   16
ENDBRANCH   19   18
ENDBRANCH   20   19
ENDBRANCH   21   20
ENDBRANCH   23   21
ENDBRANCH   24   23
ENDBRANCH   25   24
ENDBRANCH   26   25
ENDBRANCH   27   26
ENDBRANCH   28   27
ENDBRANCH   29   28
ENDBRANCH   30   29
ENDBRANCH   31   30
ENDBRANCH   33   31
ENDBRANCH   37   36
BRANCH   41   42
ATOM     42  C34 UNL A   1       6.170  -6.619  26.544  1.00  0.00    +0.000 C 
ATOM     43  C35 UNL A   1       7.532  -6.837  26.285  1.00  0.00    +0.000 C 
ATOM     44  F1  UNL A   1       8.467  -6.233  27.034  1.00  0.00    +0.000 F 
ATOM     45  C36 UNL A   1       7.939  -7.660  25.237  1.00  0.00    +0.000 C 
ATOM     46  F2  UNL A   1       9.246  -7.825  24.987  1.00  0.00    +0.000 F 
ATOM     47  C37 UNL A   1       6.996  -8.305  24.451  1.00  0.00    +0.000 C 
ATOM     48  F3  UNL A   1       7.391  -9.109  23.455  1.00  0.00    +0.000 F 
ATOM     49  C38 UNL A   1       5.645  -8.112  24.696  1.00  0.00    +0.000 C 
ATOM     50  F4  UNL A   1       4.733  -8.746  23.946  1.00  0.00    +0.000 F 
ATOM     51  C39 UNL A   1       5.235  -7.269  25.725  1.00  0.00    +0.000 C 
ATOM     52  F5  UNL A   1       3.920  -7.100  25.933  1.00  0.00    +0.000 F 
ENDBRANCH   41   42
BRANCH   58   59
ATOM     65  F8  UNL A   1       5.625 -10.352  36.532  1.00  0.00    +0.000 F 
ATOM     66  C49 UNL A   1       4.305  -9.371  34.837  1.00  0.00    +0.000 C 
ATOM     67  F9  UNL A   1       3.337 -10.272  35.051  1.00  0.00    +0.000 F 
ATOM     68  C50 UNL A   1       4.148  -8.403  33.849  1.00  0.00    +0.000 C 
ATOM     69  F10 UNL A   1       3.022  -8.406  33.118  1.00  0.00    +0.000 F 
ATOM     59  C45 UNL A   1       5.137  -7.434  33.623  1.00  0.00    +0.000 C 
ATOM     60  C46 UNL A   1       6.291  -7.473  34.420  1.00  0.00    +0.000 C 
ATOM     61  F6  UNL A   1       7.271  -6.578  34.234  1.00  0.00    +0.000 F 
ATOM     62  C47 UNL A   1       6.459  -8.462  35.385  1.00  0.00    +0.000 C 
ATOM     63  F7  UNL A   1       7.591  -8.511  36.100  1.00  0.00    +0.000 F 
ATOM     64  C48 UNL A   1       5.464  -9.405  35.598  1.00  0.00    +0.000 C 
ENDBRANCH   58   59
BRANCH   73   74
ATOM     74  C54 UNL A   1       2.532  -0.980  33.934  1.00  0.00    +0.000 C 
ATOM     75  C55 UNL A   1       1.147  -0.995  34.152  1.00  0.00    +0.000 C 
ATOM     76  F11 UNL A   1       0.353  -1.744  33.371  1.00  0.00    +0.000 F 
ATOM     77  C56 UNL A   1       0.563  -0.203  35.139  1.00  0.00    +0.000 C 
ATOM     78  F12 UNL A   1      -0.768  -0.194  35.288  1.00  0.00    +0.000 F 
ATOM     79  C57 UNL A   1       1.358   0.590  35.953  1.00  0.00    +0.000 C 
ATOM     80  F13 UNL A   1       0.798   1.352  36.901  1.00  0.00    +0.000 F 
ATOM     81  C58 UNL A   1       2.733   0.601  35.774  1.00  0.00    +0.000 C 
ATOM     82  F14 UNL A   1       3.505   1.354  36.569  1.00  0.00    +0.000 F 
ATOM     83  C59 UNL A   1       3.313  -0.166  34.765  1.00  0.00    +0.000 C 
ATOM     84  F15 UNL A   1       4.643  -0.121  34.605  1.00  0.00    +0.000 F 
ENDBRANCH   73   74
TORSDOF 26
ENDMDL
MODEL 7
REMARK VINA RESULT:      -7.1     35.748     44.237
ROOT
ATOM    131  H34 UNL A   1      16.870  35.503  48.845  1.00  0.00    +0.000 H 
ATOM    132  H35 UNL A   1      18.656  34.067  47.600  1.00  0.00    +0.000 H 
ATOM    133  H36 UNL A   1      20.388  37.682  48.643  1.00  0.00    +0.000 H 
ATOM    134  H37 UNL A   1      25.333  41.699  48.385  1.00  0.00    +0.000 H 
ATOM    135  H38 UNL A   1      23.603  43.064  49.646  1.00  0.00    +0.000 H 
ATOM    136  H39 UNL A   1      21.862  39.427  48.647  1.00  0.00    +0.000 H 
ATOM    137  H40 UNL A   1      25.454  36.748  46.371  1.00  0.00    +0.000 H 
ATOM    138  H41 UNL A   1      23.690  34.926  46.027  1.00  0.00    +0.000 H 
ATOM    139  H42 UNL A   1      16.994  40.296  51.251  1.00  0.00    +0.000 H 
ATOM    140  H43 UNL A   1      18.553  42.326  51.161  1.00  0.00    +0.000 H 
ATOM     37  C30 UNL A   1      21.093  41.768  49.983  1.00  0.00    +0.000 C 
ATOM     38  C31 UNL A   1      19.903  40.855  50.084  1.00  0.00    +0.000 C 
ATOM     39  N3  UNL A   1      19.768  39.623  49.660  1.00  0.00    +0.000 N 
ATOM     40  C32 UNL A   1      18.497  39.224  50.052  1.00  0.00    +0.000 C 
ATOM     41  C33 UNL A   1      17.869  38.051  49.806  1.00  0.00    +0.000 C 
ATOM     53  C40 UNL A   1      18.438  36.972  49.039  1.00  0.00    +0.000 C 
ATOM     54  C41 UNL A   1      17.847  35.781  48.657  1.00  0.00    +0.000 C 
ATOM     55  C42 UNL A   1      18.798  35.019  47.974  1.00  0.00    +0.000 C 
ATOM     56  C43 UNL A   1      19.966  35.758  47.882  1.00  0.00    +0.000 C 
ATOM     57  N4  UNL A   1      19.733  36.953  48.541  1.00  0.00    +0.000 N 
ATOM     58  C44 UNL A   1      21.205  35.400  47.240  1.00  0.00    +0.000 C 
ATOM     70  C51 UNL A   1      22.304  36.191  47.178  1.00  0.00    +0.000 C 
ATOM     71  N5  UNL A   1      22.491  37.468  47.689  1.00  0.00    +0.000 N 
ATOM     72  C52 UNL A   1      23.724  37.798  47.392  1.00  0.00    +0.000 C 
ATOM     73  C53 UNL A   1      24.458  39.080  47.676  1.00  0.00    +0.000 C 
ATOM     85  C60 UNL A   1      23.805  40.086  48.288  1.00  0.00    +0.000 C 
ATOM     86  C61 UNL A   1      24.376  41.387  48.618  1.00  0.00    +0.000 C 
ATOM     87  C62 UNL A   1      23.457  42.113  49.275  1.00  0.00    +0.000 C 
ATOM     88  C63 UNL A   1      22.219  41.343  49.379  1.00  0.00    +0.000 C 
ATOM     89  N6  UNL A   1      22.513  40.157  48.753  1.00  0.00    +0.000 N 
ATOM     90  C64 UNL A   1      24.469  36.751  46.678  1.00  0.00    +0.000 C 
ATOM     91  C65 UNL A   1      23.545  35.814  46.534  1.00  0.00    +0.000 C 
ATOM     92  C66 UNL A   1      17.914  40.326  50.785  1.00  0.00    +0.000 C 
ATOM     93  C67 UNL A   1      18.717  41.381  50.779  1.00  0.00    +0.000 C 
ENDROOT
BRANCH   37   36
ATOM     33  C26 UNL A   1      20.948  45.688  51.731  1.00  0.00    +0.000 C 
ATOM     34  C27 UNL A   1      21.265  44.583  52.525  1.00  0.00    +0.000 C 
ATOM     35  C28 UNL A   1      21.338  43.310  51.954  1.00  0.00    +0.000 C 
ATOM    129  H32 UNL A   1      21.445  44.707  53.534  1.00  0.00    +0.000 H 
ATOM    130  H33 UNL A   1      21.603  42.501  52.538  1.00  0.00    +0.000 H 
ATOM     36  C29 UNL A   1      21.055  43.124  50.592  1.00  0.00    +0.000 C 
ATOM    141  H44 UNL A   1      20.513  44.113  48.804  1.00  0.00    +0.000 H 
ATOM    142  H45 UNL A   1      20.587  46.341  49.755  1.00  0.00    +0.000 H 
ATOM     94  C68 UNL A   1      20.743  44.239  49.802  1.00  0.00    +0.000 C 
ATOM     95  C69 UNL A   1      20.741  45.518  50.358  1.00  0.00    +0.000 C 
BRANCH   33   31
ATOM     31  C25 UNL A   1      20.901  47.028  52.363  1.00  0.00    +0.000 C 
ATOM     32  O5  UNL A   1      21.651  47.916  51.967  1.00  0.00    +0.000 O 
BRANCH   31   30
ATOM     30  N2  UNL A   1      20.015  47.287  53.379  1.00  0.00    +0.000 N 
ATOM    128  H31 UNL A   1      19.098  47.515  53.103  1.00  0.00    +0.000 H 
BRANCH   30   29
ATOM     29  C24 UNL A   1      20.264  47.269  54.810  1.00  0.00    +0.000 C 
ATOM    126  H29 UNL A   1      21.314  47.154  54.979  1.00  0.00    +0.000 H 
ATOM    127  H30 UNL A   1      19.911  48.191  55.224  1.00  0.00    +0.000 H 
BRANCH   29   28
ATOM    124  H27 UNL A   1      20.239  45.369  55.743  1.00  0.00    +0.000 H 
ATOM     28  C23 UNL A   1      19.524  46.125  55.491  1.00  0.00    +0.000 C 
ATOM    125  H28 UNL A   1      19.038  46.544  56.347  1.00  0.00    +0.000 H 
BRANCH   28   27
ATOM    122  H25 UNL A   1      17.562  46.109  54.682  1.00  0.00    +0.000 H 
ATOM     27  C22 UNL A   1      18.427  45.479  54.642  1.00  0.00    +0.000 C 
ATOM    123  H26 UNL A   1      18.832  45.378  53.657  1.00  0.00    +0.000 H 
BRANCH   27   26
ATOM    121  H24 UNL A   1      17.577  43.605  54.224  1.00  0.00    +0.000 H 
ATOM     26  C21 UNL A   1      18.012  44.071  55.084  1.00  0.00    +0.000 C 
ATOM    120  H23 UNL A   1      17.333  44.168  55.906  1.00  0.00    +0.000 H 
BRANCH   26   25
ATOM     25  C20 UNL A   1      19.164  43.161  55.524  1.00  0.00    +0.000 C 
ATOM    118  H21 UNL A   1      20.073  43.723  55.477  1.00  0.00    +0.000 H 
ATOM    119  H22 UNL A   1      18.936  42.830  56.515  1.00  0.00    +0.000 H 
BRANCH   25   24
ATOM    116  H19 UNL A   1      19.835  42.174  53.762  1.00  0.00    +0.000 H 
ATOM    117  H20 UNL A   1      19.888  41.191  55.221  1.00  0.00    +0.000 H 
ATOM     24  C19 UNL A   1      19.327  41.912  54.665  1.00  0.00    +0.000 C 
BRANCH   24   23
ATOM    115  H18 UNL A   1      17.563  41.757  53.581  1.00  0.00    +0.000 H 
ATOM     23  N1  UNL A   1      18.042  41.335  54.332  1.00  0.00    +0.000 N 
BRANCH   23   21
ATOM     21  C18 UNL A   1      17.411  40.286  54.922  1.00  0.00    +0.000 C 
ATOM     22  O4  UNL A   1      18.047  39.358  55.406  1.00  0.00    +0.000 O 
BRANCH   21   20
ATOM    114  H17 UNL A   1      15.439  40.056  55.824  1.00  0.00    +0.000 H 
ATOM     20  C17 UNL A   1      15.935  40.256  54.942  1.00  0.00    +0.000 C 
BRANCH   20   19
ATOM    113  H16 UNL A   1      15.646  40.209  52.913  1.00  0.00    +0.000 H 
ATOM     19  C16 UNL A   1      15.237  40.485  53.820  1.00  0.00    +0.000 C 
BRANCH   19   18
ATOM      9  C8  UNL A   1      13.824  42.528  53.671  1.00  0.00    +0.000 C 
ATOM     10  C9  UNL A   1      12.579  43.175  53.755  1.00  0.00    +0.000 C 
ATOM     11  C10 UNL A   1      11.415  42.459  54.012  1.00  0.00    +0.000 C 
ATOM    105  H8  UNL A   1      12.528  44.197  53.625  1.00  0.00    +0.000 H 
ATOM    109  H12 UNL A   1      10.626  40.540  54.305  1.00  0.00    +0.000 H 
ATOM     14  C12 UNL A   1      11.492  41.078  54.147  1.00  0.00    +0.000 C 
ATOM     15  C13 UNL A   1      12.718  40.391  54.075  1.00  0.00    +0.000 C 
ATOM     18  C15 UNL A   1      13.908  41.115  53.836  1.00  0.00    +0.000 C 
BRANCH    9    8
ATOM    104  H7  UNL A   1      15.931  43.047  53.675  1.00  0.00    +0.000 H 
ATOM      8  C7  UNL A   1      14.989  43.416  53.470  1.00  0.00    +0.000 C 
BRANCH    8    7
ATOM    103  H6  UNL A   1      14.316  45.327  53.611  1.00  0.00    +0.000 H 
ATOM      7  C6  UNL A   1      14.877  44.682  53.033  1.00  0.00    +0.000 C 
BRANCH    7    6
ATOM     97  C71 UNL A   1      15.348  46.881  49.993  1.00  0.00    +0.000 C 
ATOM      3  C2  UNL A   1      16.516  46.382  49.422  1.00  0.00    +0.000 C 
ATOM      4  C3  UNL A   1      17.172  45.321  50.049  1.00  0.00    +0.000 C 
ATOM    101  H4  UNL A   1      18.041  44.945  49.638  1.00  0.00    +0.000 H 
ATOM      5  C4  UNL A   1      16.666  44.758  51.230  1.00  0.00    +0.000 C 
ATOM    102  H5  UNL A   1      17.173  43.981  51.682  1.00  0.00    +0.000 H 
ATOM      6  C5  UNL A   1      15.482  45.237  51.803  1.00  0.00    +0.000 C 
ATOM    143  H46 UNL A   1      13.970  46.692  51.579  1.00  0.00    +0.000 H 
ATOM    144  H47 UNL A   1      14.857  47.672  49.549  1.00  0.00    +0.000 H 
ATOM     96  C70 UNL A   1      14.838  46.312  51.170  1.00  0.00    +0.000 C 
BRANCH    3    2
ATOM      2  O1  UNL A   1      17.089  46.810  48.256  1.00  0.00    +0.000 O 
BRANCH    2    1
ATOM      1  C1  UNL A   1      18.325  47.506  48.369  1.00  0.00    +0.000 C 
ATOM     98  H1  UNL A   1      18.547  47.674  49.402  1.00  0.00    +0.000 H 
ATOM     99  H2  UNL A   1      18.252  48.446  47.862  1.00  0.00    +0.000 H 
ATOM    100  H3  UNL A   1      19.105  46.921  47.927  1.00  0.00    +0.000 H 
ENDBRANCH    2    1
ENDBRANCH    3    2
ENDBRANCH    7    6
ENDBRANCH    8    7
ENDBRANCH    9    8
BRANCH   11   12
ATOM     12  O2  UNL A   1      10.273  43.204  54.118  1.00  0.00    +0.000 O 
BRANCH   12   13
ATOM    106  H9  UNL A   1       8.234  43.170  53.940  1.00  0.00    +0.000 H 
ATOM    107  H10 UNL A   1       9.007  41.603  53.968  1.00  0.00    +0.000 H 
ATOM    108  H11 UNL A   1       9.115  42.605  52.541  1.00  0.00    +0.000 H 
ATOM     13  C11 UNL A   1       9.083  42.608  53.610  1.00  0.00    +0.000 C 
ENDBRANCH   12   13
ENDBRANCH   11   12
BRANCH   15   16
ATOM     16  O3  UNL A   1      12.512  39.060  54.321  1.00  0.00    +0.000 O 
BRANCH   16   17
ATOM     17  C14 UNL A   1      11.228  38.511  54.545  1.00  0.00    +0.000 C 
ATOM    110  H13 UNL A   1      11.203  37.504  54.185  1.00  0.00    +0.000 H 
ATOM    111  H14 UNL A   1      10.495  39.094  54.028  1.00  0.00    +0.000 H 
ATOM    112  H15 UNL A   1      11.015  38.519  55.594  1.00  0.00    +0.000 H 
ENDBRANCH   16   17
ENDBRANCH   15   16
ENDBRANCH   19   18
ENDBRANCH   20   19
ENDBRANCH   21   20
ENDBRANCH   23   21
ENDBRANCH   24   23
ENDBRANCH   25   24
ENDBRANCH   26   25
ENDBRANCH   27   26
ENDBRANCH   28   27
ENDBRANCH   29   28
ENDBRANCH   30   29
ENDBRANCH   31   30
ENDBRANCH   33   31
ENDBRANCH   37   36
BRANCH   41   42
ATOM     42  C34 UNL A   1      16.490  37.859  50.364  1.00  0.00    +0.000 C 
ATOM     43  C35 UNL A   1      15.356  37.837  49.538  1.00  0.00    +0.000 C 
ATOM     44  F1  UNL A   1      15.475  38.067  48.222  1.00  0.00    +0.000 F 
ATOM     45  C36 UNL A   1      14.089  37.602  50.067  1.00  0.00    +0.000 C 
ATOM     46  F2  UNL A   1      13.016  37.620  49.263  1.00  0.00    +0.000 F 
ATOM     47  C37 UNL A   1      13.935  37.353  51.422  1.00  0.00    +0.000 C 
ATOM     48  F3  UNL A   1      12.717  37.109  51.926  1.00  0.00    +0.000 F 
ATOM     49  C38 UNL A   1      15.043  37.359  52.255  1.00  0.00    +0.000 C 
ATOM     50  F4  UNL A   1      14.898  37.104  53.564  1.00  0.00    +0.000 F 
ATOM     51  C39 UNL A   1      16.307  37.621  51.735  1.00  0.00    +0.000 C 
ATOM     52  F5  UNL A   1      17.358  37.625  52.568  1.00  0.00    +0.000 F 
ENDBRANCH   41   42
BRANCH   58   59
ATOM     65  F8  UNL A   1      21.426  30.361  44.694  1.00  0.00    +0.000 F 
ATOM     66  C49 UNL A   1      20.808  32.640  44.651  1.00  0.00    +0.000 C 
ATOM     67  F9  UNL A   1      20.294  32.491  43.423  1.00  0.00    +0.000 F 
ATOM     68  C50 UNL A   1      20.776  33.885  45.272  1.00  0.00    +0.000 C 
ATOM     69  F10 UNL A   1      20.236  34.921  44.610  1.00  0.00    +0.000 F 
ATOM     59  C45 UNL A   1      21.285  34.060  46.568  1.00  0.00    +0.000 C 
ATOM     60  C46 UNL A   1      21.831  32.943  47.216  1.00  0.00    +0.000 C 
ATOM     61  F6  UNL A   1      22.344  33.062  48.449  1.00  0.00    +0.000 F 
ATOM     62  C47 UNL A   1      21.891  31.706  46.580  1.00  0.00    +0.000 C 
ATOM     63  F7  UNL A   1      22.464  30.664  47.199  1.00  0.00    +0.000 F 
ATOM     64  C48 UNL A   1      21.373  31.554  45.302  1.00  0.00    +0.000 C 
ENDBRANCH   58   59
BRANCH   73   74
ATOM     74  C54 UNL A   1      25.882  39.246  47.281  1.00  0.00    +0.000 C 
ATOM     75  C55 UNL A   1      26.915  38.703  48.058  1.00  0.00    +0.000 C 
ATOM     76  F11 UNL A   1      26.625  38.021  49.176  1.00  0.00    +0.000 F 
ATOM     77  C56 UNL A   1      28.252  38.901  47.719  1.00  0.00    +0.000 C 
ATOM     78  F12 UNL A   1      29.221  38.419  48.510  1.00  0.00    +0.000 F 
ATOM     79  C57 UNL A   1      28.582  39.613  46.576  1.00  0.00    +0.000 C 
ATOM     80  F13 UNL A   1      29.867  39.804  46.250  1.00  0.00    +0.000 F 
ATOM     81  C58 UNL A   1      27.577  40.137  45.777  1.00  0.00    +0.000 C 
ATOM     82  F14 UNL A   1      27.891  40.812  44.663  1.00  0.00    +0.000 F 
ATOM     83  C59 UNL A   1      26.240  39.967  46.133  1.00  0.00    +0.000 C 
ATOM     84  F15 UNL A   1      25.291  40.500  45.351  1.00  0.00    +0.000 F 
ENDBRANCH   73   74
TORSDOF 26
ENDMDL
MODEL 8
REMARK VINA RESULT:      -7.1      3.037      5.740
ROOT
ATOM    131  H34 UNL A   1      53.064  52.075  21.903  1.00  0.00    +0.000 H 
ATOM    132  H35 UNL A   1      53.808  54.419  21.038  1.00  0.00    +0.000 H 
ATOM    133  H36 UNL A   1      50.222  53.436  19.215  1.00  0.00    +0.000 H 
ATOM    134  H37 UNL A   1      45.670  54.747  14.945  1.00  0.00    +0.000 H 
ATOM    135  H38 UNL A   1      44.927  52.489  15.840  1.00  0.00    +0.000 H 
ATOM    136  H39 UNL A   1      48.503  53.478  17.711  1.00  0.00    +0.000 H 
ATOM    137  H40 UNL A   1      49.731  58.052  16.028  1.00  0.00    +0.000 H 
ATOM    138  H41 UNL A   1      51.861  57.848  17.431  1.00  0.00    +0.000 H 
ATOM    139  H42 UNL A   1      48.711  49.042  21.104  1.00  0.00    +0.000 H 
ATOM    140  H43 UNL A   1      46.852  48.975  19.344  1.00  0.00    +0.000 H 
ATOM     37  C30 UNL A   1      46.682  51.347  17.764  1.00  0.00    +0.000 C 
ATOM     38  C31 UNL A   1      47.721  50.996  18.793  1.00  0.00    +0.000 C 
ATOM     39  N3  UNL A   1      48.763  51.687  19.184  1.00  0.00    +0.000 N 
ATOM     40  C32 UNL A   1      49.360  50.936  20.188  1.00  0.00    +0.000 C 
ATOM     41  C33 UNL A   1      50.497  51.200  20.875  1.00  0.00    +0.000 C 
ATOM     53  C40 UNL A   1      51.328  52.355  20.652  1.00  0.00    +0.000 C 
ATOM     54  C41 UNL A   1      52.546  52.664  21.232  1.00  0.00    +0.000 C 
ATOM     55  C42 UNL A   1      52.954  53.913  20.754  1.00  0.00    +0.000 C 
ATOM     56  C43 UNL A   1      52.018  54.356  19.835  1.00  0.00    +0.000 C 
ATOM     57  N4  UNL A   1      51.024  53.392  19.783  1.00  0.00    +0.000 N 
ATOM     58  C44 UNL A   1      52.028  55.570  19.060  1.00  0.00    +0.000 C 
ATOM     70  C51 UNL A   1      51.077  55.926  18.162  1.00  0.00    +0.000 C 
ATOM     71  N5  UNL A   1      49.927  55.243  17.791  1.00  0.00    +0.000 N 
ATOM     72  C52 UNL A   1      49.325  56.003  16.910  1.00  0.00    +0.000 C 
ATOM     73  C53 UNL A   1      48.050  55.751  16.152  1.00  0.00    +0.000 C 
ATOM     85  C60 UNL A   1      47.403  54.584  16.330  1.00  0.00    +0.000 C 
ATOM     86  C61 UNL A   1      46.167  54.192  15.660  1.00  0.00    +0.000 C 
ATOM     87  C62 UNL A   1      45.781  52.993  16.125  1.00  0.00    +0.000 C 
ATOM     88  C63 UNL A   1      46.762  52.514  17.098  1.00  0.00    +0.000 C 
ATOM     89  N6  UNL A   1      47.698  53.518  17.146  1.00  0.00    +0.000 N 
ATOM     90  C64 UNL A   1      50.016  57.273  16.642  1.00  0.00    +0.000 C 
ATOM     91  C65 UNL A   1      51.099  57.154  17.395  1.00  0.00    +0.000 C 
ATOM     92  C66 UNL A   1      48.545  49.756  20.378  1.00  0.00    +0.000 C 
ATOM     93  C67 UNL A   1      47.556  49.714  19.497  1.00  0.00    +0.000 C 
ENDROOT
BRANCH   37   36
ATOM     33  C26 UNL A   1      43.389  48.686  17.050  1.00  0.00    +0.000 C 
ATOM     34  C27 UNL A   1      43.237  49.761  17.929  1.00  0.00    +0.000 C 
ATOM     35  C28 UNL A   1      44.298  50.644  18.144  1.00  0.00    +0.000 C 
ATOM    129  H32 UNL A   1      42.340  49.903  18.421  1.00  0.00    +0.000 H 
ATOM    130  H33 UNL A   1      44.172  51.454  18.771  1.00  0.00    +0.000 H 
ATOM     36  C29 UNL A   1      45.535  50.436  17.513  1.00  0.00    +0.000 C 
ATOM    141  H44 UNL A   1      46.586  49.181  16.174  1.00  0.00    +0.000 H 
ATOM    142  H45 UNL A   1      44.683  47.776  15.650  1.00  0.00    +0.000 H 
ATOM     94  C68 UNL A   1      45.676  49.357  16.629  1.00  0.00    +0.000 C 
ATOM     95  C69 UNL A   1      44.594  48.520  16.360  1.00  0.00    +0.000 C 
BRANCH   33   31
ATOM     31  C25 UNL A   1      42.235  47.782  16.826  1.00  0.00    +0.000 C 
ATOM     32  O5  UNL A   1      41.276  48.168  16.164  1.00  0.00    +0.000 O 
BRANCH   31   30
ATOM     30  N2  UNL A   1      42.238  46.510  17.342  1.00  0.00    +0.000 N 
ATOM    128  H31 UNL A   1      41.800  46.398  18.217  1.00  0.00    +0.000 H 
BRANCH   30   29
ATOM     29  C24 UNL A   1      42.810  45.308  16.759  1.00  0.00    +0.000 C 
ATOM    126  H29 UNL A   1      42.040  44.572  16.655  1.00  0.00    +0.000 H 
ATOM    127  H30 UNL A   1      43.224  45.562  15.805  1.00  0.00    +0.000 H 
BRANCH   29   28
ATOM    124  H27 UNL A   1      43.760  43.689  17.736  1.00  0.00    +0.000 H 
ATOM     28  C23 UNL A   1      43.924  44.741  17.629  1.00  0.00    +0.000 C 
ATOM    125  H28 UNL A   1      44.844  44.972  17.133  1.00  0.00    +0.000 H 
BRANCH   28   27
ATOM    122  H25 UNL A   1      43.166  45.986  19.170  1.00  0.00    +0.000 H 
ATOM     27  C22 UNL A   1      44.018  45.355  19.027  1.00  0.00    +0.000 C 
ATOM    123  H26 UNL A   1      44.057  44.533  19.712  1.00  0.00    +0.000 H 
BRANCH   27   26
ATOM    121  H24 UNL A   1      45.332  46.330  20.342  1.00  0.00    +0.000 H 
ATOM     26  C21 UNL A   1      45.279  46.189  19.283  1.00  0.00    +0.000 C 
ATOM    120  H23 UNL A   1      45.188  47.103  18.734  1.00  0.00    +0.000 H 
BRANCH   26   25
ATOM     25  C20 UNL A   1      46.596  45.520  18.876  1.00  0.00    +0.000 C 
ATOM    118  H21 UNL A   1      47.207  45.422  19.748  1.00  0.00    +0.000 H 
ATOM    119  H22 UNL A   1      46.343  44.575  18.443  1.00  0.00    +0.000 H 
BRANCH   25   24
ATOM    116  H19 UNL A   1      47.408  45.723  16.920  1.00  0.00    +0.000 H 
ATOM    117  H20 UNL A   1      46.898  47.234  17.664  1.00  0.00    +0.000 H 
ATOM     24  C19 UNL A   1      47.382  46.293  17.824  1.00  0.00    +0.000 C 
BRANCH   24   23
ATOM    115  H18 UNL A   1      48.870  47.355  18.807  1.00  0.00    +0.000 H 
ATOM     23  N1  UNL A   1      48.738  46.544  18.263  1.00  0.00    +0.000 N 
BRANCH   23   21
ATOM     21  C18 UNL A   1      49.852  45.805  18.020  1.00  0.00    +0.000 C 
ATOM     22  O4  UNL A   1      49.830  44.584  18.106  1.00  0.00    +0.000 O 
BRANCH   21   20
ATOM    114  H17 UNL A   1      51.943  46.368  18.282  1.00  0.00    +0.000 H 
ATOM     20  C17 UNL A   1      51.112  46.497  17.684  1.00  0.00    +0.000 C 
BRANCH   20   19
ATOM    113  H16 UNL A   1      50.334  47.440  16.039  1.00  0.00    +0.000 H 
ATOM     19  C16 UNL A   1      51.183  47.294  16.607  1.00  0.00    +0.000 C 
BRANCH   19   18
ATOM      9  C8  UNL A   1      52.623  49.324  16.600  1.00  0.00    +0.000 C 
ATOM     10  C9  UNL A   1      53.765  50.023  16.175  1.00  0.00    +0.000 C 
ATOM     11  C10 UNL A   1      54.714  49.418  15.360  1.00  0.00    +0.000 C 
ATOM    105  H8  UNL A   1      53.901  51.002  16.473  1.00  0.00    +0.000 H 
ATOM    109  H12 UNL A   1      55.258  47.626  14.419  1.00  0.00    +0.000 H 
ATOM     14  C12 UNL A   1      54.539  48.087  14.998  1.00  0.00    +0.000 C 
ATOM     15  C13 UNL A   1      53.407  47.351  15.397  1.00  0.00    +0.000 C 
ATOM     18  C15 UNL A   1      52.428  47.968  16.208  1.00  0.00    +0.000 C 
BRANCH    9    8
ATOM    104  H7  UNL A   1      51.310  49.708  18.285  1.00  0.00    +0.000 H 
ATOM      8  C7  UNL A   1      51.658  50.109  17.400  1.00  0.00    +0.000 C 
BRANCH    8    7
ATOM    103  H6  UNL A   1      51.433  52.112  17.648  1.00  0.00    +0.000 H 
ATOM      7  C6  UNL A   1      51.212  51.320  17.025  1.00  0.00    +0.000 C 
BRANCH    7    6
ATOM     97  C71 UNL A   1      50.044  53.143  13.926  1.00  0.00    +0.000 C 
ATOM      3  C2  UNL A   1      49.006  52.340  13.461  1.00  0.00    +0.000 C 
ATOM      4  C3  UNL A   1      48.692  51.174  14.160  1.00  0.00    +0.000 C 
ATOM    101  H4  UNL A   1      47.928  50.568  13.823  1.00  0.00    +0.000 H 
ATOM      5  C4  UNL A   1      49.401  50.814  15.315  1.00  0.00    +0.000 C 
ATOM    102  H5  UNL A   1      49.159  49.941  15.810  1.00  0.00    +0.000 H 
ATOM      6  C5  UNL A   1      50.434  51.623  15.805  1.00  0.00    +0.000 C 
ATOM    143  H46 UNL A   1      51.514  53.394  15.418  1.00  0.00    +0.000 H 
ATOM    144  H47 UNL A   1      50.296  54.004  13.414  1.00  0.00    +0.000 H 
ATOM     96  C70 UNL A   1      50.748  52.787  15.086  1.00  0.00    +0.000 C 
BRANCH    3    2
ATOM      2  O1  UNL A   1      48.211  52.598  12.378  1.00  0.00    +0.000 O 
BRANCH    2    1
ATOM      1  C1  UNL A   1      46.829  52.294  12.511  1.00  0.00    +0.000 C 
ATOM     98  H1  UNL A   1      46.297  52.670  11.662  1.00  0.00    +0.000 H 
ATOM     99  H2  UNL A   1      46.447  52.749  13.401  1.00  0.00    +0.000 H 
ATOM    100  H3  UNL A   1      46.701  51.233  12.569  1.00  0.00    +0.000 H 
ENDBRANCH    2    1
ENDBRANCH    3    2
ENDBRANCH    7    6
ENDBRANCH    8    7
ENDBRANCH    9    8
BRANCH   11   12
ATOM     12  O2  UNL A   1      55.757  50.214  14.973  1.00  0.00    +0.000 O 
BRANCH   12   13
ATOM    106  H9  UNL A   1      57.727  49.955  15.465  1.00  0.00    +0.000 H 
ATOM    107  H10 UNL A   1      56.599  49.794  16.790  1.00  0.00    +0.000 H 
ATOM    108  H11 UNL A   1      56.969  51.375  16.144  1.00  0.00    +0.000 H 
ATOM     13  C11 UNL A   1      56.830  50.342  15.901  1.00  0.00    +0.000 C 
ENDBRANCH   12   13
ENDBRANCH   11   12
BRANCH   15   16
ATOM     16  O3  UNL A   1      53.454  46.103  14.837  1.00  0.00    +0.000 O 
BRANCH   16   17
ATOM     17  C14 UNL A   1      52.864  45.799  13.588  1.00  0.00    +0.000 C 
ATOM    110  H13 UNL A   1      51.846  45.502  13.737  1.00  0.00    +0.000 H 
ATOM    111  H14 UNL A   1      53.405  45.003  13.121  1.00  0.00    +0.000 H 
ATOM    112  H15 UNL A   1      52.893  46.666  12.960  1.00  0.00    +0.000 H 
ENDBRANCH   16   17
ENDBRANCH   15   16
ENDBRANCH   19   18
ENDBRANCH   20   19
ENDBRANCH   21   20
ENDBRANCH   23   21
ENDBRANCH   24   23
ENDBRANCH   25   24
ENDBRANCH   26   25
ENDBRANCH   27   26
ENDBRANCH   28   27
ENDBRANCH   29   28
ENDBRANCH   30   29
ENDBRANCH   31   30
ENDBRANCH   33   31
ENDBRANCH   37   36
BRANCH   41   42
ATOM     42  C34 UNL A   1      50.922  50.227  21.935  1.00  0.00    +0.000 C 
ATOM     43  C35 UNL A   1      51.810  49.177  21.660  1.00  0.00    +0.000 C 
ATOM     44  F1  UNL A   1      52.245  48.971  20.407  1.00  0.00    +0.000 F 
ATOM     45  C36 UNL A   1      52.238  48.317  22.669  1.00  0.00    +0.000 C 
ATOM     46  F2  UNL A   1      53.060  47.299  22.375  1.00  0.00    +0.000 F 
ATOM     47  C37 UNL A   1      51.812  48.509  23.975  1.00  0.00    +0.000 C 
ATOM     48  F3  UNL A   1      52.239  47.691  24.947  1.00  0.00    +0.000 F 
ATOM     49  C38 UNL A   1      50.943  49.547  24.271  1.00  0.00    +0.000 C 
ATOM     50  F4  UNL A   1      50.541  49.742  25.535  1.00  0.00    +0.000 F 
ATOM     51  C39 UNL A   1      50.492  50.391  23.261  1.00  0.00    +0.000 C 
ATOM     52  F5  UNL A   1      49.646  51.383  23.580  1.00  0.00    +0.000 F 
ENDBRANCH   41   42
BRANCH   58   59
ATOM     65  F8  UNL A   1      56.343  59.156  19.729  1.00  0.00    +0.000 F 
ATOM     66  C49 UNL A   1      54.215  58.380  20.401  1.00  0.00    +0.000 C 
ATOM     67  F9  UNL A   1      54.161  59.317  21.357  1.00  0.00    +0.000 F 
ATOM     68  C50 UNL A   1      53.164  57.481  20.248  1.00  0.00    +0.000 C 
ATOM     69  F10 UNL A   1      52.116  57.569  21.081  1.00  0.00    +0.000 F 
ATOM     59  C45 UNL A   1      53.188  56.507  19.239  1.00  0.00    +0.000 C 
ATOM     60  C46 UNL A   1      54.304  56.464  18.391  1.00  0.00    +0.000 C 
ATOM     61  F6  UNL A   1      54.381  55.542  17.421  1.00  0.00    +0.000 F 
ATOM     62  C47 UNL A   1      55.369  57.344  18.568  1.00  0.00    +0.000 C 
ATOM     63  F7  UNL A   1      56.448  57.252  17.779  1.00  0.00    +0.000 F 
ATOM     64  C48 UNL A   1      55.320  58.305  19.566  1.00  0.00    +0.000 C 
ENDBRANCH   58   59
BRANCH   73   74
ATOM     74  C54 UNL A   1      47.510  56.768  15.211  1.00  0.00    +0.000 C 
ATOM     75  C55 UNL A   1      46.842  57.907  15.682  1.00  0.00    +0.000 C 
ATOM     76  F11 UNL A   1      46.684  58.093  17.002  1.00  0.00    +0.000 F 
ATOM     77  C56 UNL A   1      46.289  58.835  14.802  1.00  0.00    +0.000 C 
ATOM     78  F12 UNL A   1      45.607  59.885  15.279  1.00  0.00    +0.000 F 
ATOM     79  C57 UNL A   1      46.426  58.662  13.433  1.00  0.00    +0.000 C 
ATOM     80  F13 UNL A   1      45.894  59.553  12.586  1.00  0.00    +0.000 F 
ATOM     81  C58 UNL A   1      47.106  57.557  12.943  1.00  0.00    +0.000 C 
ATOM     82  F14 UNL A   1      47.255  57.395  11.621  1.00  0.00    +0.000 F 
ATOM     83  C59 UNL A   1      47.631  56.612  13.823  1.00  0.00    +0.000 C 
ATOM     84  F15 UNL A   1      48.266  55.545  13.319  1.00  0.00    +0.000 F 
ENDBRANCH   73   74
TORSDOF 26
ENDMDL
MODEL 9
REMARK VINA RESULT:      -7.1     46.350     50.622
ROOT
ATOM    131  H34 UNL A   1      15.256  34.523 -13.519  1.00  0.00    +0.000 H 
ATOM    132  H35 UNL A   1      16.226  32.104 -13.445  1.00  0.00    +0.000 H 
ATOM    133  H36 UNL A   1      13.035  32.309 -10.813  1.00  0.00    +0.000 H 
ATOM    134  H37 UNL A   1       9.446  29.610  -6.286  1.00  0.00    +0.000 H 
ATOM    135  H38 UNL A   1       8.474  31.953  -6.410  1.00  0.00    +0.000 H 
ATOM    136  H39 UNL A   1      11.645  31.754  -9.088  1.00  0.00    +0.000 H 
ATOM    137  H40 UNL A   1      13.317  27.017  -8.910  1.00  0.00    +0.000 H 
ATOM    138  H41 UNL A   1      15.126  27.736 -10.571  1.00  0.00    +0.000 H 
ATOM    139  H42 UNL A   1      11.052  36.901 -11.183  1.00  0.00    +0.000 H 
ATOM    140  H43 UNL A   1       9.571  36.376  -9.162  1.00  0.00    +0.000 H 
ATOM     37  C30 UNL A   1       9.785  33.678  -8.253  1.00  0.00    +0.000 C 
ATOM     38  C31 UNL A   1      10.592  34.357  -9.324  1.00  0.00    +0.000 C 
ATOM     39  N3  UNL A   1      11.558  33.872 -10.063  1.00  0.00    +0.000 N 
ATOM     40  C32 UNL A   1      11.925  34.896 -10.927  1.00  0.00    +0.000 C 
ATOM     41  C33 UNL A   1      12.913  34.904 -11.852  1.00  0.00    +0.000 C 
ATOM     53  C40 UNL A   1      13.807  33.800 -12.094  1.00  0.00    +0.000 C 
ATOM     54  C41 UNL A   1      14.897  33.745 -12.944  1.00  0.00    +0.000 C 
ATOM     55  C42 UNL A   1      15.429  32.453 -12.891  1.00  0.00    +0.000 C 
ATOM     56  C43 UNL A   1      14.704  31.720 -11.966  1.00  0.00    +0.000 C 
ATOM     57  N4  UNL A   1      13.710  32.557 -11.485  1.00  0.00    +0.000 N 
ATOM     58  C44 UNL A   1      14.902  30.355 -11.550  1.00  0.00    +0.000 C 
ATOM     70  C51 UNL A   1      14.156  29.711 -10.620  1.00  0.00    +0.000 C 
ATOM     71  N5  UNL A   1      13.080  30.185  -9.882  1.00  0.00    +0.000 N 
ATOM     72  C52 UNL A   1      12.684  29.182  -9.137  1.00  0.00    +0.000 C 
ATOM     73  C53 UNL A   1      11.574  29.133  -8.122  1.00  0.00    +0.000 C 
ATOM     85  C60 UNL A   1      10.869  30.253  -7.869  1.00  0.00    +0.000 C 
ATOM     86  C61 UNL A   1       9.777  30.364  -6.909  1.00  0.00    +0.000 C 
ATOM     87  C62 UNL A   1       9.272  31.606  -6.967  1.00  0.00    +0.000 C 
ATOM     88  C63 UNL A   1      10.028  32.391  -7.941  1.00  0.00    +0.000 C 
ATOM     89  N6  UNL A   1      10.967  31.510  -8.417  1.00  0.00    +0.000 N 
ATOM     90  C64 UNL A   1      13.453  27.946  -9.339  1.00  0.00    +0.000 C 
ATOM     91  C65 UNL A   1      14.364  28.336 -10.217  1.00  0.00    +0.000 C 
ATOM     92  C66 UNL A   1      11.053  36.016 -10.652  1.00  0.00    +0.000 C 
ATOM     93  C67 UNL A   1      10.253  35.757  -9.627  1.00  0.00    +0.000 C 
ENDROOT
BRANCH   37   36
ATOM     33  C26 UNL A   1       6.617  35.801  -6.281  1.00  0.00    +0.000 C 
ATOM     34  C27 UNL A   1       6.358  35.111  -7.469  1.00  0.00    +0.000 C 
ATOM     35  C28 UNL A   1       7.381  34.398  -8.099  1.00  0.00    +0.000 C 
ATOM    129  H32 UNL A   1       5.411  35.129  -7.880  1.00  0.00    +0.000 H 
ATOM    130  H33 UNL A   1       7.178  33.864  -8.959  1.00  0.00    +0.000 H 
ATOM     36  C29 UNL A   1       8.681  34.402  -7.570  1.00  0.00    +0.000 C 
ATOM    141  H44 UNL A   1       9.885  35.121  -5.987  1.00  0.00    +0.000 H 
ATOM    142  H45 UNL A   1       8.065  36.185  -4.792  1.00  0.00    +0.000 H 
ATOM     94  C68 UNL A   1       8.929  35.093  -6.375  1.00  0.00    +0.000 C 
ATOM     95  C69 UNL A   1       7.892  35.744  -5.709  1.00  0.00    +0.000 C 
BRANCH   33   31
ATOM     31  C25 UNL A   1       5.503  36.529  -5.625  1.00  0.00    +0.000 C 
ATOM     32  O5  UNL A   1       5.598  37.737  -5.426  1.00  0.00    +0.000 O 
BRANCH   31   30
ATOM     30  N2  UNL A   1       4.362  35.865  -5.253  1.00  0.00    +0.000 N 
ATOM    128  H31 UNL A   1       3.539  36.405  -5.222  1.00  0.00    +0.000 H 
BRANCH   30   29
ATOM     29  C24 UNL A   1       4.217  34.463  -4.897  1.00  0.00    +0.000 C 
ATOM    126  H29 UNL A   1       4.345  33.867  -5.776  1.00  0.00    +0.000 H 
ATOM    127  H30 UNL A   1       4.959  34.225  -4.164  1.00  0.00    +0.000 H 
BRANCH   29   28
ATOM    124  H27 UNL A   1       2.544  35.033  -3.733  1.00  0.00    +0.000 H 
ATOM     28  C23 UNL A   1       2.845  34.178  -4.301  1.00  0.00    +0.000 C 
ATOM    125  H28 UNL A   1       2.193  33.971  -5.124  1.00  0.00    +0.000 H 
BRANCH   28   27
ATOM    122  H25 UNL A   1       2.481  32.113  -3.973  1.00  0.00    +0.000 H 
ATOM     27  C22 UNL A   1       2.789  32.953  -3.386  1.00  0.00    +0.000 C 
ATOM    123  H26 UNL A   1       3.770  32.844  -2.972  1.00  0.00    +0.000 H 
BRANCH   27   26
ATOM    121  H24 UNL A   1       0.912  32.629  -2.503  1.00  0.00    +0.000 H 
ATOM     26  C21 UNL A   1       1.832  33.079  -2.195  1.00  0.00    +0.000 C 
ATOM    120  H23 UNL A   1       1.739  34.118  -1.953  1.00  0.00    +0.000 H 
BRANCH   26   25
ATOM     25  C20 UNL A   1       2.267  32.335  -0.928  1.00  0.00    +0.000 C 
ATOM    118  H21 UNL A   1       2.043  32.951  -0.082  1.00  0.00    +0.000 H 
ATOM    119  H22 UNL A   1       1.735  31.408  -0.915  1.00  0.00    +0.000 H 
BRANCH   25   24
ATOM    116  H19 UNL A   1       3.867  30.967  -0.617  1.00  0.00    +0.000 H 
ATOM    117  H20 UNL A   1       4.164  32.173  -1.864  1.00  0.00    +0.000 H 
ATOM     24  C19 UNL A   1       3.752  31.993  -0.892  1.00  0.00    +0.000 C 
BRANCH   24   23
ATOM    115  H18 UNL A   1       4.040  33.688   0.270  1.00  0.00    +0.000 H 
ATOM     23  N1  UNL A   1       4.457  32.820   0.065  1.00  0.00    +0.000 N 
BRANCH   23   21
ATOM     21  C18 UNL A   1       5.619  32.551   0.714  1.00  0.00    +0.000 C 
ATOM     22  O4  UNL A   1       5.693  32.630   1.934  1.00  0.00    +0.000 O 
BRANCH   21   20
ATOM    114  H17 UNL A   1       6.900  31.253  -0.483  1.00  0.00    +0.000 H 
ATOM     20  C17 UNL A   1       6.816  32.196  -0.074  1.00  0.00    +0.000 C 
BRANCH   20   19
ATOM    113  H16 UNL A   1       7.793  33.959   0.303  1.00  0.00    +0.000 H 
ATOM     19  C16 UNL A   1       7.796  33.094  -0.261  1.00  0.00    +0.000 C 
BRANCH   19   18
ATOM      9  C8  UNL A   1      10.202  32.694  -0.757  1.00  0.00    +0.000 C 
ATOM     10  C9  UNL A   1      11.269  32.569  -1.662  1.00  0.00    +0.000 C 
ATOM     11  C10 UNL A   1      11.058  32.644  -3.034  1.00  0.00    +0.000 C 
ATOM    105  H8  UNL A   1      12.225  32.420  -1.302  1.00  0.00    +0.000 H 
ATOM    109  H12 UNL A   1       9.597  32.830  -4.525  1.00  0.00    +0.000 H 
ATOM     14  C12 UNL A   1       9.761  32.807  -3.506  1.00  0.00    +0.000 C 
ATOM     15  C13 UNL A   1       8.664  32.942  -2.635  1.00  0.00    +0.000 C 
ATOM     18  C15 UNL A   1       8.875  32.888  -1.239  1.00  0.00    +0.000 C 
BRANCH    9    8
ATOM    104  H7  UNL A   1      10.332  33.488   1.259  1.00  0.00    +0.000 H 
ATOM      8  C7  UNL A   1      10.576  32.673   0.674  1.00  0.00    +0.000 C 
BRANCH    8    7
ATOM    103  H6  UNL A   1      12.247  31.632   1.171  1.00  0.00    +0.000 H 
ATOM      7  C6  UNL A   1      11.218  31.641   1.246  1.00  0.00    +0.000 C 
BRANCH    7    6
ATOM     97  C71 UNL A   1       8.607  29.116   2.297  1.00  0.00    +0.000 C 
ATOM      3  C2  UNL A   1       9.251  28.397   3.302  1.00  0.00    +0.000 C 
ATOM      4  C3  UNL A   1      10.566  28.730   3.630  1.00  0.00    +0.000 C 
ATOM    101  H4  UNL A   1      11.055  28.201   4.369  1.00  0.00    +0.000 H 
ATOM      5  C4  UNL A   1      11.232  29.772   2.969  1.00  0.00    +0.000 C 
ATOM    102  H5  UNL A   1      12.208  29.994   3.221  1.00  0.00    +0.000 H 
ATOM      6  C5  UNL A   1      10.589  30.516   1.972  1.00  0.00    +0.000 C 
ATOM    143  H46 UNL A   1       8.779  30.688   0.902  1.00  0.00    +0.000 H 
ATOM    144  H47 UNL A   1       7.638  28.876   2.035  1.00  0.00    +0.000 H 
ATOM     96  C70 UNL A   1       9.271  30.164   1.642  1.00  0.00    +0.000 C 
BRANCH    3    2
ATOM      2  O1  UNL A   1       8.703  27.391   4.049  1.00  0.00    +0.000 O 
BRANCH    2    1
ATOM      1  C1  UNL A   1       7.307  27.167   3.895  1.00  0.00    +0.000 C 
ATOM     98  H1  UNL A   1       6.773  28.057   4.157  1.00  0.00    +0.000 H 
ATOM     99  H2  UNL A   1       7.001  26.366   4.535  1.00  0.00    +0.000 H 
ATOM    100  H3  UNL A   1       7.097  26.912   2.878  1.00  0.00    +0.000 H 
ENDBRANCH    2    1
ENDBRANCH    3    2
ENDBRANCH    7    6
ENDBRANCH    8    7
ENDBRANCH    9    8
BRANCH   11   12
ATOM     12  O2  UNL A   1      12.180  32.556  -3.812  1.00  0.00    +0.000 O 
BRANCH   12   13
ATOM    106  H9  UNL A   1      13.347  32.487  -2.131  1.00  0.00    +0.000 H 
ATOM    107  H10 UNL A   1      13.657  33.834  -3.200  1.00  0.00    +0.000 H 
ATOM    108  H11 UNL A   1      14.193  32.230  -3.638  1.00  0.00    +0.000 H 
ATOM     13  C11 UNL A   1      13.422  32.792  -3.154  1.00  0.00    +0.000 C 
ENDBRANCH   12   13
ENDBRANCH   11   12
BRANCH   15   16
ATOM     16  O3  UNL A   1       7.527  33.167  -3.364  1.00  0.00    +0.000 O 
BRANCH   16   17
ATOM     17  C14 UNL A   1       6.854  32.144  -4.072  1.00  0.00    +0.000 C 
ATOM    110  H13 UNL A   1       6.689  31.310  -3.423  1.00  0.00    +0.000 H 
ATOM    111  H14 UNL A   1       7.449  31.836  -4.906  1.00  0.00    +0.000 H 
ATOM    112  H15 UNL A   1       5.913  32.514  -4.423  1.00  0.00    +0.000 H 
ENDBRANCH   16   17
ENDBRANCH   15   16
ENDBRANCH   19   18
ENDBRANCH   20   19
ENDBRANCH   21   20
ENDBRANCH   23   21
ENDBRANCH   24   23
ENDBRANCH   25   24
ENDBRANCH   26   25
ENDBRANCH   27   26
ENDBRANCH   28   27
ENDBRANCH   29   28
ENDBRANCH   30   29
ENDBRANCH   31   30
ENDBRANCH   33   31
ENDBRANCH   37   36
BRANCH   41   42
ATOM     42  C34 UNL A   1      13.093  36.143 -12.680  1.00  0.00    +0.000 C 
ATOM     43  C35 UNL A   1      12.289  36.406 -13.799  1.00  0.00    +0.000 C 
ATOM     44  F1  UNL A   1      11.380  35.506 -14.204  1.00  0.00    +0.000 F 
ATOM     45  C36 UNL A   1      12.432  37.588 -14.522  1.00  0.00    +0.000 C 
ATOM     46  F2  UNL A   1      11.676  37.802 -15.608  1.00  0.00    +0.000 F 
ATOM     47  C37 UNL A   1      13.357  38.541 -14.123  1.00  0.00    +0.000 C 
ATOM     48  F3  UNL A   1      13.480  39.685 -14.810  1.00  0.00    +0.000 F 
ATOM     49  C38 UNL A   1      14.154  38.307 -13.014  1.00  0.00    +0.000 C 
ATOM     50  F4  UNL A   1      15.039  39.233 -12.619  1.00  0.00    +0.000 F 
ATOM     51  C39 UNL A   1      14.033  37.115 -12.306  1.00  0.00    +0.000 C 
ATOM     52  F5  UNL A   1      14.824  36.916 -11.240  1.00  0.00    +0.000 F 
ENDBRANCH   41   42
BRANCH   58   59
ATOM     65  F8  UNL A   1      19.201  27.541 -13.900  1.00  0.00    +0.000 F 
ATOM     66  C49 UNL A   1      18.386  28.975 -12.209  1.00  0.00    +0.000 C 
ATOM     67  F9  UNL A   1      19.612  29.066 -11.676  1.00  0.00    +0.000 F 
ATOM     68  C50 UNL A   1      17.320  29.649 -11.619  1.00  0.00    +0.000 C 
ATOM     69  F10 UNL A   1      17.548  30.370 -10.511  1.00  0.00    +0.000 F 
ATOM     59  C45 UNL A   1      16.032  29.590 -12.174  1.00  0.00    +0.000 C 
ATOM     60  C46 UNL A   1      15.851  28.828 -13.337  1.00  0.00    +0.000 C 
ATOM     61  F6  UNL A   1      14.637  28.727 -13.897  1.00  0.00    +0.000 F 
ATOM     62  C47 UNL A   1      16.913  28.129 -13.906  1.00  0.00    +0.000 C 
ATOM     63  F7  UNL A   1      16.705  27.366 -14.988  1.00  0.00    +0.000 F 
ATOM     64  C48 UNL A   1      18.179  28.209 -13.347  1.00  0.00    +0.000 C 
ENDBRANCH   58   59
BRANCH   73   74
ATOM     74  C54 UNL A   1      11.260  27.873  -7.398  1.00  0.00    +0.000 C 
ATOM     75  C55 UNL A   1      10.340  26.952  -7.917  1.00  0.00    +0.000 C 
ATOM     76  F11 UNL A   1       9.729  27.200  -9.086  1.00  0.00    +0.000 F 
ATOM     77  C56 UNL A   1      10.003  25.795  -7.216  1.00  0.00    +0.000 C 
ATOM     78  F12 UNL A   1       9.079  24.960  -7.709  1.00  0.00    +0.000 F 
ATOM     79  C57 UNL A   1      10.609  25.519  -6.000  1.00  0.00    +0.000 C 
ATOM     80  F13 UNL A   1      10.285  24.408  -5.325  1.00  0.00    +0.000 F 
ATOM     81  C58 UNL A   1      11.542  26.403  -5.478  1.00  0.00    +0.000 C 
ATOM     82  F14 UNL A   1      12.141  26.131  -4.311  1.00  0.00    +0.000 F 
ATOM     83  C59 UNL A   1      11.854  27.575  -6.164  1.00  0.00    +0.000 C 
ATOM     84  F15 UNL A   1      12.746  28.419  -5.626  1.00  0.00    +0.000 F 
ENDBRANCH   73   74
TORSDOF 26
ENDMDL
MODEL 10
REMARK VINA RESULT:      -7.1     31.368     37.045
ROOT
ATOM    131  H34 UNL A   1      28.175  42.592  49.616  1.00  0.00    +0.000 H 
ATOM    132  H35 UNL A   1      30.665  42.536  48.846  1.00  0.00    +0.000 H 
ATOM    133  H36 UNL A   1      28.635  39.492  46.908  1.00  0.00    +0.000 H 
ATOM    134  H37 UNL A   1      28.703  34.373  43.105  1.00  0.00    +0.000 H 
ATOM    135  H38 UNL A   1      26.269  34.474  43.819  1.00  0.00    +0.000 H 
ATOM    136  H39 UNL A   1      28.280  37.561  45.739  1.00  0.00    +0.000 H 
ATOM    137  H40 UNL A   1      33.014  37.388  44.062  1.00  0.00    +0.000 H 
ATOM    138  H41 UNL A   1      33.509  39.323  45.662  1.00  0.00    +0.000 H 
ATOM    139  H42 UNL A   1      23.806  39.803  48.229  1.00  0.00    +0.000 H 
ATOM    140  H43 UNL A   1      23.386  37.568  47.052  1.00  0.00    +0.000 H 
ATOM     37  C30 UNL A   1      25.660  36.567  45.646  1.00  0.00    +0.000 C 
ATOM     38  C31 UNL A   1      25.585  37.774  46.540  1.00  0.00    +0.000 C 
ATOM     39  N3  UNL A   1      26.532  38.618  46.868  1.00  0.00    +0.000 N 
ATOM     40  C32 UNL A   1      25.924  39.575  47.671  1.00  0.00    +0.000 C 
ATOM     41  C33 UNL A   1      26.492  40.630  48.301  1.00  0.00    +0.000 C 
ATOM     53  C40 UNL A   1      27.897  40.941  48.256  1.00  0.00    +0.000 C 
ATOM     54  C41 UNL A   1      28.582  41.933  48.933  1.00  0.00    +0.000 C 
ATOM     55  C42 UNL A   1      29.921  41.892  48.534  1.00  0.00    +0.000 C 
ATOM     56  C43 UNL A   1      30.082  40.838  47.650  1.00  0.00    +0.000 C 
ATOM     57  N4  UNL A   1      28.832  40.264  47.485  1.00  0.00    +0.000 N 
ATOM     58  C44 UNL A   1      31.286  40.388  47.001  1.00  0.00    +0.000 C 
ATOM     70  C51 UNL A   1      31.365  39.331  46.157  1.00  0.00    +0.000 C 
ATOM     71  N5  UNL A   1      30.358  38.473  45.737  1.00  0.00    +0.000 N 
ATOM     72  C52 UNL A   1      30.925  37.630  44.909  1.00  0.00    +0.000 C 
ATOM     73  C53 UNL A   1      30.317  36.467  44.173  1.00  0.00    +0.000 C 
ATOM     85  C60 UNL A   1      29.019  36.172  44.374  1.00  0.00    +0.000 C 
ATOM     86  C61 UNL A   1      28.294  35.073  43.745  1.00  0.00    +0.000 C 
ATOM     87  C62 UNL A   1      27.010  35.120  44.132  1.00  0.00    +0.000 C 
ATOM     88  C63 UNL A   1      26.827  36.229  45.066  1.00  0.00    +0.000 C 
ATOM     89  N6  UNL A   1      28.077  36.790  45.162  1.00  0.00    +0.000 N 
ATOM     90  C64 UNL A   1      32.358  37.878  44.689  1.00  0.00    +0.000 C 
ATOM     91  C65 UNL A   1      32.583  38.895  45.508  1.00  0.00    +0.000 C 
ATOM     92  C66 UNL A   1      24.520  39.234  47.748  1.00  0.00    +0.000 C 
ATOM     93  C67 UNL A   1      24.271  38.094  47.118  1.00  0.00    +0.000 C 
ENDROOT
BRANCH   37   36
ATOM     33  C26 UNL A   1      22.147  34.259  44.769  1.00  0.00    +0.000 C 
ATOM     34  C27 UNL A   1      22.937  33.931  45.874  1.00  0.00    +0.000 C 
ATOM     35  C28 UNL A   1      24.066  34.696  46.177  1.00  0.00    +0.000 C 
ATOM    129  H32 UNL A   1      22.686  33.123  46.466  1.00  0.00    +0.000 H 
ATOM    130  H33 UNL A   1      24.629  34.469  47.011  1.00  0.00    +0.000 H 
ATOM     36  C29 UNL A   1      24.439  35.771  45.354  1.00  0.00    +0.000 C 
ATOM    141  H44 UNL A   1      23.911  36.870  43.627  1.00  0.00    +0.000 H 
ATOM    142  H45 UNL A   1      21.845  35.669  43.225  1.00  0.00    +0.000 H 
ATOM     94  C68 UNL A   1      23.637  36.095  44.251  1.00  0.00    +0.000 C 
ATOM     95  C69 UNL A   1      22.471  35.376  43.992  1.00  0.00    +0.000 C 
BRANCH   33   31
ATOM     31  C25 UNL A   1      20.942  33.442  44.489  1.00  0.00    +0.000 C 
ATOM     32  O5  UNL A   1      19.864  33.993  44.282  1.00  0.00    +0.000 O 
BRANCH   31   30
ATOM     30  N2  UNL A   1      21.025  32.073  44.444  1.00  0.00    +0.000 N 
ATOM    128  H31 UNL A   1      21.274  31.684  43.574  1.00  0.00    +0.000 H 
BRANCH   30   29
ATOM     29  C24 UNL A   1      20.791  31.125  45.520  1.00  0.00    +0.000 C 
ATOM    126  H29 UNL A   1      20.852  31.641  46.456  1.00  0.00    +0.000 H 
ATOM    127  H30 UNL A   1      19.820  30.696  45.384  1.00  0.00    +0.000 H 
BRANCH   29   28
ATOM    124  H27 UNL A   1      22.064  29.762  46.521  1.00  0.00    +0.000 H 
ATOM     28  C23 UNL A   1      21.818  30.001  45.507  1.00  0.00    +0.000 C 
ATOM    125  H28 UNL A   1      21.367  29.184  44.982  1.00  0.00    +0.000 H 
BRANCH   28   27
ATOM    122  H25 UNL A   1      23.148  29.737  43.875  1.00  0.00    +0.000 H 
ATOM     27  C22 UNL A   1      23.116  30.329  44.766  1.00  0.00    +0.000 C 
ATOM    123  H26 UNL A   1      23.093  31.382  44.576  1.00  0.00    +0.000 H 
BRANCH   27   26
ATOM    121  H24 UNL A   1      24.996  29.413  44.956  1.00  0.00    +0.000 H 
ATOM     26  C21 UNL A   1      24.399  30.064  45.562  1.00  0.00    +0.000 C 
ATOM    120  H23 UNL A   1      24.123  29.636  46.503  1.00  0.00    +0.000 H 
BRANCH   26   25
ATOM     25  C20 UNL A   1      25.262  31.300  45.837  1.00  0.00    +0.000 C 
ATOM    118  H21 UNL A   1      25.802  31.539  44.945  1.00  0.00    +0.000 H 
ATOM    119  H22 UNL A   1      24.597  32.082  46.137  1.00  0.00    +0.000 H 
BRANCH   25   24
ATOM    116  H19 UNL A   1      26.003  31.762  47.777  1.00  0.00    +0.000 H 
ATOM    117  H20 UNL A   1      26.237  30.089  47.280  1.00  0.00    +0.000 H 
ATOM     24  C19 UNL A   1      26.265  31.113  46.969  1.00  0.00    +0.000 C 
BRANCH   24   23
ATOM    115  H18 UNL A   1      27.903  30.985  45.701  1.00  0.00    +0.000 H 
ATOM     23  N1  UNL A   1      27.610  31.423  46.533  1.00  0.00    +0.000 N 
BRANCH   23   21
ATOM     21  C18 UNL A   1      28.520  32.239  47.126  1.00  0.00    +0.000 C 
ATOM     22  O4  UNL A   1      29.177  33.035  46.467  1.00  0.00    +0.000 O 
BRANCH   21   20
ATOM    114  H17 UNL A   1      28.550  32.941  49.191  1.00  0.00    +0.000 H 
ATOM     20  C17 UNL A   1      28.741  32.130  48.582  1.00  0.00    +0.000 C 
BRANCH   20   19
ATOM    113  H16 UNL A   1      28.799  30.669  50.019  1.00  0.00    +0.000 H 
ATOM     19  C16 UNL A   1      29.189  30.984  49.116  1.00  0.00    +0.000 C 
BRANCH   19   18
ATOM      9  C8  UNL A   1      29.843  28.876  47.968  1.00  0.00    +0.000 C 
ATOM     10  C9  UNL A   1      30.812  28.030  47.402  1.00  0.00    +0.000 C 
ATOM     11  C10 UNL A   1      32.145  28.418  47.324  1.00  0.00    +0.000 C 
ATOM    105  H8  UNL A   1      30.531  27.105  47.040  1.00  0.00    +0.000 H 
ATOM    109  H12 UNL A   1      33.487  29.984  47.694  1.00  0.00    +0.000 H 
ATOM     14  C12 UNL A   1      32.505  29.681  47.781  1.00  0.00    +0.000 C 
ATOM     15  C13 UNL A   1      31.568  30.557  48.358  1.00  0.00    +0.000 C 
ATOM     18  C15 UNL A   1      30.216  30.160  48.460  1.00  0.00    +0.000 C 
BRANCH    9    8
ATOM    104  H7  UNL A   1      27.792  28.563  47.331  1.00  0.00    +0.000 H 
ATOM      8  C7  UNL A   1      28.480  28.310  48.058  1.00  0.00    +0.000 C 
BRANCH    8    7
ATOM    103  H6  UNL A   1      27.805  26.530  48.768  1.00  0.00    +0.000 H 
ATOM      7  C6  UNL A   1      28.096  27.481  49.043  1.00  0.00    +0.000 C 
BRANCH    7    6
ATOM     97  C71 UNL A   1      26.782  28.753  52.353  1.00  0.00    +0.000 C 
ATOM      3  C2  UNL A   1      27.837  28.502  53.228  1.00  0.00    +0.000 C 
ATOM      4  C3  UNL A   1      28.990  27.890  52.733  1.00  0.00    +0.000 C 
ATOM    101  H4  UNL A   1      29.776  27.695  53.372  1.00  0.00    +0.000 H 
ATOM      5  C4  UNL A   1      29.095  27.538  51.380  1.00  0.00    +0.000 C 
ATOM    102  H5  UNL A   1      29.953  27.078  51.038  1.00  0.00    +0.000 H 
ATOM      6  C5  UNL A   1      28.051  27.805  50.486  1.00  0.00    +0.000 C 
ATOM    143  H46 UNL A   1      26.101  28.603  50.362  1.00  0.00    +0.000 H 
ATOM    144  H47 UNL A   1      25.918  29.195  52.704  1.00  0.00    +0.000 H 
ATOM     96  C70 UNL A   1      26.891  28.408  50.997  1.00  0.00    +0.000 C 
BRANCH    3    2
ATOM      2  O1  UNL A   1      27.879  28.832  54.554  1.00  0.00    +0.000 O 
BRANCH    2    1
ATOM      1  C1  UNL A   1      28.746  28.063  55.378  1.00  0.00    +0.000 C 
ATOM     98  H1  UNL A   1      29.340  27.418  54.765  1.00  0.00    +0.000 H 
ATOM     99  H2  UNL A   1      28.165  27.476  56.058  1.00  0.00    +0.000 H 
ATOM    100  H3  UNL A   1      29.387  28.719  55.930  1.00  0.00    +0.000 H 
ENDBRANCH    2    1
ENDBRANCH    3    2
ENDBRANCH    7    6
ENDBRANCH    8    7
ENDBRANCH    9    8
BRANCH   11   12
ATOM     12  O2  UNL A   1      33.002  27.491  46.798  1.00  0.00    +0.000 O 
BRANCH   12   13
ATOM    106  H9  UNL A   1      32.389  26.085  48.153  1.00  0.00    +0.000 H 
ATOM    107  H10 UNL A   1      34.060  26.577  48.293  1.00  0.00    +0.000 H 
ATOM    108  H11 UNL A   1      33.563  25.532  46.984  1.00  0.00    +0.000 H 
ATOM     13  C11 UNL A   1      33.270  26.350  47.608  1.00  0.00    +0.000 C 
ENDBRANCH   12   13
ENDBRANCH   11   12
BRANCH   15   16
ATOM     16  O3  UNL A   1      32.206  31.690  48.788  1.00  0.00    +0.000 O 
BRANCH   16   17
ATOM     17  C14 UNL A   1      33.146  32.389  47.996  1.00  0.00    +0.000 C 
ATOM    110  H13 UNL A   1      32.730  32.570  47.026  1.00  0.00    +0.000 H 
ATOM    111  H14 UNL A   1      34.037  31.805  47.900  1.00  0.00    +0.000 H 
ATOM    112  H15 UNL A   1      33.380  33.323  48.463  1.00  0.00    +0.000 H 
ENDBRANCH   16   17
ENDBRANCH   15   16
ENDBRANCH   19   18
ENDBRANCH   20   19
ENDBRANCH   21   20
ENDBRANCH   23   21
ENDBRANCH   24   23
ENDBRANCH   25   24
ENDBRANCH   26   25
ENDBRANCH   27   26
ENDBRANCH   28   27
ENDBRANCH   29   28
ENDBRANCH   30   29
ENDBRANCH   31   30
ENDBRANCH   33   31
ENDBRANCH   37   36
BRANCH   41   42
ATOM     42  C34 UNL A   1      25.601  41.535  49.101  1.00  0.00    +0.000 C 
ATOM     43  C35 UNL A   1      25.360  41.315  50.465  1.00  0.00    +0.000 C 
ATOM     44  F1  UNL A   1      25.866  40.232  51.074  1.00  0.00    +0.000 F 
ATOM     45  C36 UNL A   1      24.576  42.198  51.205  1.00  0.00    +0.000 C 
ATOM     46  F2  UNL A   1      24.331  41.948  52.500  1.00  0.00    +0.000 F 
ATOM     47  C37 UNL A   1      24.047  43.330  50.606  1.00  0.00    +0.000 C 
ATOM     48  F3  UNL A   1      23.308  44.187  51.324  1.00  0.00    +0.000 F 
ATOM     49  C38 UNL A   1      24.282  43.573  49.261  1.00  0.00    +0.000 C 
ATOM     50  F4  UNL A   1      23.782  44.675  48.684  1.00  0.00    +0.000 F 
ATOM     51  C39 UNL A   1      25.041  42.679  48.512  1.00  0.00    +0.000 C 
ATOM     52  F5  UNL A   1      25.245  42.940  47.212  1.00  0.00    +0.000 F 
ENDBRANCH   41   42
BRANCH   58   59
ATOM     65  F8  UNL A   1      36.055  43.177  48.186  1.00  0.00    +0.000 F 
ATOM     66  C49 UNL A   1      34.559  41.409  48.651  1.00  0.00    +0.000 C 
ATOM     67  F9  UNL A   1      35.330  41.007  49.670  1.00  0.00    +0.000 F 
ATOM     68  C50 UNL A   1      33.396  40.711  48.342  1.00  0.00    +0.000 C 
ATOM     69  F10 UNL A   1      33.079  39.631  49.074  1.00  0.00    +0.000 F 
ATOM     59  C45 UNL A   1      32.559  41.127  47.295  1.00  0.00    +0.000 C 
ATOM     60  C46 UNL A   1      32.933  42.266  46.567  1.00  0.00    +0.000 C 
ATOM     61  F6  UNL A   1      32.176  42.696  45.548  1.00  0.00    +0.000 F 
ATOM     62  C47 UNL A   1      34.115  42.943  46.858  1.00  0.00    +0.000 C 
ATOM     63  F7  UNL A   1      34.479  43.999  46.116  1.00  0.00    +0.000 F 
ATOM     64  C48 UNL A   1      34.922  42.520  47.903  1.00  0.00    +0.000 C 
ENDBRANCH   58   59
BRANCH   73   74
ATOM     74  C54 UNL A   1      31.134  35.644  43.242  1.00  0.00    +0.000 C 
ATOM     75  C55 UNL A   1      31.777  34.478  43.682  1.00  0.00    +0.000 C 
ATOM     76  F11 UNL A   1      31.660  34.090  44.961  1.00  0.00    +0.000 F 
ATOM     77  C56 UNL A   1      32.586  33.734  42.825  1.00  0.00    +0.000 C 
ATOM     78  F12 UNL A   1      33.234  32.656  43.287  1.00  0.00    +0.000 F 
ATOM     79  C57 UNL A   1      32.736  34.119  41.501  1.00  0.00    +0.000 C 
ATOM     80  F13 UNL A   1      33.513  33.404  40.678  1.00  0.00    +0.000 F 
ATOM     81  C58 UNL A   1      32.087  35.252  41.036  1.00  0.00    +0.000 C 
ATOM     82  F14 UNL A   1      32.217  35.618  39.753  1.00  0.00    +0.000 F 
ATOM     83  C59 UNL A   1      31.305  36.016  41.901  1.00  0.00    +0.000 C 
ATOM     84  F15 UNL A   1      30.705  37.117  41.427  1.00  0.00    +0.000 F 
ENDBRANCH   73   74
TORSDOF 26
ENDMDL
