MODEL 1
REMARK VINA RESULT:      -7.5      0.000      0.000
ROOT
ATOM    129  H30 UNL A   1      10.907  -0.208  26.342  1.00  0.00    +0.000 H 
ATOM    130  H31 UNL A   1       7.066  -3.436  19.716  1.00  0.00    +0.000 H 
ATOM    131  H32 UNL A   1       8.566  -1.510  19.043  1.00  0.00    +0.000 H 
ATOM    132  H33 UNL A   1       9.357  -2.357  23.010  1.00  0.00    +0.000 H 
ATOM    133  H34 UNL A   1       9.975  -5.889  23.157  1.00  0.00    +0.000 H 
ATOM    134  H35 UNL A   1      10.928  -4.946  25.360  1.00  0.00    +0.000 H 
ATOM    135  H36 UNL A   1      13.629   1.958  23.060  1.00  0.00    +0.000 H 
ATOM    136  H37 UNL A   1      11.996   1.754  21.099  1.00  0.00    +0.000 H 
ATOM     29  C24 UNL A   1      10.477  -0.686  21.003  1.00  0.00    +0.000 C 
ATOM     30  C25 UNL A   1      11.471  -0.228  22.082  1.00  0.00    +0.000 C 
ATOM     31  N3  UNL A   1      11.903  -0.822  23.162  1.00  0.00    +0.000 N 
ATOM     32  C26 UNL A   1      12.769   0.084  23.810  1.00  0.00    +0.000 C 
ATOM     33  C27 UNL A   1      13.189  -0.015  25.106  1.00  0.00    +0.000 C 
ATOM     45  C34 UNL A   1      12.692  -1.166  25.785  1.00  0.00    +0.000 C 
ATOM     46  C35 UNL A   1      13.148  -2.395  26.198  1.00  0.00    +0.000 C 
ATOM     47  C36 UNL A   1      12.015  -3.087  26.716  1.00  0.00    +0.000 C 
ATOM     48  C37 UNL A   1      10.903  -2.306  26.428  1.00  0.00    +0.000 C 
ATOM     49  N4  UNL A   1      11.398  -1.051  26.212  1.00  0.00    +0.000 N 
ATOM     50  C38 UNL A   1       9.515  -2.503  26.133  1.00  0.00    +0.000 C 
ATOM     62  C45 UNL A   1       9.184  -3.593  25.400  1.00  0.00    +0.000 C 
ATOM     63  N5  UNL A   1       8.025  -3.635  24.656  1.00  0.00    +0.000 N 
ATOM     64  C46 UNL A   1       8.321  -4.423  23.671  1.00  0.00    +0.000 C 
ATOM     65  C47 UNL A   1       7.605  -4.470  22.385  1.00  0.00    +0.000 C 
ATOM     77  C54 UNL A   1       8.072  -3.391  21.685  1.00  0.00    +0.000 C 
ATOM     78  C55 UNL A   1       7.779  -2.998  20.321  1.00  0.00    +0.000 C 
ATOM     79  C56 UNL A   1       8.579  -1.973  19.965  1.00  0.00    +0.000 C 
ATOM     80  C57 UNL A   1       9.476  -1.605  21.075  1.00  0.00    +0.000 C 
ATOM     81  N6  UNL A   1       9.033  -2.429  22.083  1.00  0.00    +0.000 N 
ATOM     82  C58 UNL A   1       9.576  -5.167  23.777  1.00  0.00    +0.000 C 
ATOM     83  C59 UNL A   1      10.054  -4.644  24.902  1.00  0.00    +0.000 C 
ATOM     84  C60 UNL A   1      12.955   1.189  22.915  1.00  0.00    +0.000 C 
ATOM     85  C61 UNL A   1      12.136   1.084  21.871  1.00  0.00    +0.000 C 
ATOM    127  H28 UNL A   1      14.116  -2.747  26.142  1.00  0.00    +0.000 H 
ATOM    128  H29 UNL A   1      12.020  -3.993  27.211  1.00  0.00    +0.000 H 
ENDROOT
BRANCH   29   28
ATOM    137  H38 UNL A   1      12.170  -1.451  19.010  1.00  0.00    +0.000 H 
ATOM    138  H39 UNL A   1      12.333  -0.515  16.772  1.00  0.00    +0.000 H 
ATOM     86  C62 UNL A   1      11.592  -0.637  18.746  1.00  0.00    +0.000 C 
ATOM     87  C63 UNL A   1      11.682  -0.102  17.459  1.00  0.00    +0.000 C 
ATOM     25  C20 UNL A   1      10.889   0.994  17.102  1.00  0.00    +0.000 C 
ATOM     26  C21 UNL A   1      10.043   1.584  18.051  1.00  0.00    +0.000 C 
ATOM     27  C22 UNL A   1       9.955   1.058  19.334  1.00  0.00    +0.000 C 
ATOM     28  C23 UNL A   1      10.715  -0.065  19.677  1.00  0.00    +0.000 C 
ATOM    125  H26 UNL A   1       9.482   2.411  17.795  1.00  0.00    +0.000 H 
ATOM    126  H27 UNL A   1       9.332   1.496  20.032  1.00  0.00    +0.000 H 
BRANCH   25   23
ATOM     23  C19 UNL A   1      10.971   1.658  15.779  1.00  0.00    +0.000 C 
ATOM     24  O3  UNL A   1      10.945   2.876  15.714  1.00  0.00    +0.000 O 
BRANCH   23   22
ATOM    124  H25 UNL A   1      11.916   1.031  14.127  1.00  0.00    +0.000 H 
ATOM     22  N2  UNL A   1      11.065   0.941  14.613  1.00  0.00    +0.000 N 
BRANCH   22   21
ATOM    122  H23 UNL A   1       9.115   0.299  14.386  1.00  0.00    +0.000 H 
ATOM    123  H24 UNL A   1      10.105   0.218  12.938  1.00  0.00    +0.000 H 
ATOM     21  C18 UNL A   1      10.084   0.068  13.998  1.00  0.00    +0.000 C 
BRANCH   21   20
ATOM    121  H22 UNL A   1      11.130  -1.393  15.081  1.00  0.00    +0.000 H 
ATOM     20  C17 UNL A   1      10.405  -1.401  14.294  1.00  0.00    +0.000 C 
ATOM    120  H21 UNL A   1      10.762  -1.851  13.391  1.00  0.00    +0.000 H 
BRANCH   20   19
ATOM     19  C16 UNL A   1       9.222  -2.237  14.810  1.00  0.00    +0.000 C 
ATOM    118  H19 UNL A   1       8.425  -2.152  14.100  1.00  0.00    +0.000 H 
ATOM    119  H20 UNL A   1       9.597  -3.233  14.924  1.00  0.00    +0.000 H 
BRANCH   19   18
ATOM     18  C15 UNL A   1       8.673  -1.840  16.181  1.00  0.00    +0.000 C 
ATOM    116  H17 UNL A   1       8.504  -2.733  16.745  1.00  0.00    +0.000 H 
ATOM    117  H18 UNL A   1       9.402  -1.196  16.626  1.00  0.00    +0.000 H 
BRANCH   18   17
ATOM     17  C14 UNL A   1       7.368  -1.051  16.138  1.00  0.00    +0.000 C 
ATOM    114  H15 UNL A   1       7.601  -0.017  16.275  1.00  0.00    +0.000 H 
ATOM    115  H16 UNL A   1       6.922  -1.266  15.190  1.00  0.00    +0.000 H 
BRANCH   17   16
ATOM    113  H14 UNL A   1       6.845  -1.858  18.037  1.00  0.00    +0.000 H 
ATOM    112  H13 UNL A   1       5.667  -2.173  16.774  1.00  0.00    +0.000 H 
ATOM     16  C13 UNL A   1       6.334  -1.448  17.192  1.00  0.00    +0.000 C 
BRANCH   16   15
ATOM    111  H12 UNL A   1       4.747  -0.110  17.114  1.00  0.00    +0.000 H 
ATOM     15  N1  UNL A   1       5.572  -0.291  17.622  1.00  0.00    +0.000 N 
BRANCH   15   13
ATOM     13  C12 UNL A   1       5.846   0.577  18.636  1.00  0.00    +0.000 C 
ATOM     14  O2  UNL A   1       6.413   1.637  18.365  1.00  0.00    +0.000 O 
BRANCH   13   12
ATOM     12  C11 UNL A   1       5.513   0.216  20.071  1.00  0.00    +0.000 C 
ATOM    109  H10 UNL A   1       4.530   0.573  20.294  1.00  0.00    +0.000 H 
ATOM    110  H11 UNL A   1       5.578  -0.849  20.157  1.00  0.00    +0.000 H 
BRANCH   12   11
ATOM     11  C10 UNL A   1       6.493   0.820  21.076  1.00  0.00    +0.000 C 
ATOM    108  H9  UNL A   1       7.365   1.117  20.530  1.00  0.00    +0.000 H 
ATOM    107  H8  UNL A   1       6.715   0.083  21.820  1.00  0.00    +0.000 H 
BRANCH   11   10
ATOM      7  C6  UNL A   1       5.993   3.955  22.979  1.00  0.00    +0.000 C 
ATOM      8  C7  UNL A   1       4.690   3.477  22.951  1.00  0.00    +0.000 C 
ATOM      9  C8  UNL A   1       4.667   2.292  22.190  1.00  0.00    +0.000 C 
ATOM     10  C9  UNL A   1       5.956   2.048  21.764  1.00  0.00    +0.000 C 
ATOM    105  H6  UNL A   1       3.877   3.916  23.411  1.00  0.00    +0.000 H 
ATOM    106  H7  UNL A   1       3.837   1.713  21.988  1.00  0.00    +0.000 H 
ATOM     88  N7  UNL A   1       6.710   3.183  22.060  1.00  0.00    +0.000 N 
BRANCH    7    6
ATOM     98  C72 UNL A   1       7.112   5.181  24.836  1.00  0.00    +0.000 C 
ATOM      3  C2  UNL A   1       7.185   7.604  24.855  1.00  0.00    +0.000 C 
ATOM      4  C3  UNL A   1       6.503   7.621  23.638  1.00  0.00    +0.000 C 
ATOM      5  C4  UNL A   1       6.141   6.427  23.011  1.00  0.00    +0.000 C 
ATOM     99  C73 UNL A   1       7.483   6.381  25.459  1.00  0.00    +0.000 C 
ATOM    103  H4  UNL A   1       6.263   8.523  23.198  1.00  0.00    +0.000 H 
ATOM      6  C5  UNL A   1       6.446   5.198  23.605  1.00  0.00    +0.000 C 
ATOM    104  H5  UNL A   1       5.649   6.451  22.105  1.00  0.00    +0.000 H 
ATOM    146  H47 UNL A   1       7.332   4.280  25.288  1.00  0.00    +0.000 H 
ATOM    147  H48 UNL A   1       7.977   6.361  26.365  1.00  0.00    +0.000 H 
BRANCH    3    2
ATOM      2  O1  UNL A   1       7.456   8.832  25.391  1.00  0.00    +0.000 O 
BRANCH    2    1
ATOM      1  C1  UNL A   1       7.224   9.937  24.524  1.00  0.00    +0.000 C 
ATOM    100  H1  UNL A   1       8.119  10.517  24.438  1.00  0.00    +0.000 H 
ATOM    101  H2  UNL A   1       6.441  10.547  24.924  1.00  0.00    +0.000 H 
ATOM    102  H3  UNL A   1       6.938   9.578  23.558  1.00  0.00    +0.000 H 
ENDBRANCH    2    1
ENDBRANCH    3    2
ENDBRANCH    7    6
BRANCH   88   89
ATOM     97  C71 UNL A   1       9.129   3.562  21.844  1.00  0.00    +0.000 C 
ATOM    139  H40 UNL A   1       6.640   4.308  19.723  1.00  0.00    +0.000 H 
ATOM    140  H41 UNL A   1       8.461   5.351  18.513  1.00  0.00    +0.000 H 
ATOM    144  H45 UNL A   1      11.144   4.077  21.494  1.00  0.00    +0.000 H 
ATOM    145  H46 UNL A   1       9.308   3.087  22.744  1.00  0.00    +0.000 H 
ATOM     89  C64 UNL A   1       7.838   3.630  21.326  1.00  0.00    +0.000 C 
ATOM     90  C65 UNL A   1       7.598   4.275  20.107  1.00  0.00    +0.000 C 
ATOM     91  C66 UNL A   1       8.647   4.872  19.407  1.00  0.00    +0.000 C 
ATOM     92  C67 UNL A   1       9.947   4.823  19.918  1.00  0.00    +0.000 C 
ATOM     96  C70 UNL A   1      10.181   4.145  21.128  1.00  0.00    +0.000 C 
BRANCH   92   93
ATOM     93  C68 UNL A   1      11.107   5.479  19.240  1.00  0.00    +0.000 C 
ATOM     95  O4  UNL A   1      11.197   6.707  19.262  1.00  0.00    +0.000 O 
BRANCH   93   94
ATOM    143  H44 UNL A   1      13.015   4.557  19.132  1.00  0.00    +0.000 H 
ATOM    141  H42 UNL A   1      12.417   5.156  17.603  1.00  0.00    +0.000 H 
ATOM     94  C69 UNL A   1      12.148   4.662  18.513  1.00  0.00    +0.000 C 
ATOM    142  H43 UNL A   1      11.749   3.694  18.289  1.00  0.00    +0.000 H 
ENDBRANCH   93   94
ENDBRANCH   92   93
ENDBRANCH   88   89
ENDBRANCH   11   10
ENDBRANCH   12   11
ENDBRANCH   13   12
ENDBRANCH   15   13
ENDBRANCH   16   15
ENDBRANCH   17   16
ENDBRANCH   18   17
ENDBRANCH   19   18
ENDBRANCH   20   19
ENDBRANCH   21   20
ENDBRANCH   22   21
ENDBRANCH   23   22
ENDBRANCH   25   23
ENDBRANCH   29   28
BRANCH   33   34
ATOM     34  C28 UNL A   1      13.771   1.065  25.995  1.00  0.00    +0.000 C 
ATOM     35  C29 UNL A   1      15.063   0.873  26.539  1.00  0.00    +0.000 C 
ATOM     36  F1  UNL A   1      15.915  -0.004  25.985  1.00  0.00    +0.000 F 
ATOM     37  C30 UNL A   1      15.476   1.509  27.710  1.00  0.00    +0.000 C 
ATOM     38  F2  UNL A   1      16.649   1.182  28.269  1.00  0.00    +0.000 F 
ATOM     39  C31 UNL A   1      14.647   2.423  28.330  1.00  0.00    +0.000 C 
ATOM     40  F3  UNL A   1      15.015   2.992  29.487  1.00  0.00    +0.000 F 
ATOM     41  C32 UNL A   1      13.418   2.717  27.767  1.00  0.00    +0.000 C 
ATOM     42  F4  UNL A   1      12.609   3.604  28.365  1.00  0.00    +0.000 F 
ATOM     43  C33 UNL A   1      12.973   2.032  26.632  1.00  0.00    +0.000 C 
ATOM     44  F5  UNL A   1      11.708   2.248  26.249  1.00  0.00    +0.000 F 
ENDBRANCH   33   34
BRANCH   50   51
ATOM     51  C39 UNL A   1       8.484  -1.404  26.073  1.00  0.00    +0.000 C 
ATOM     52  C40 UNL A   1       8.609  -0.330  25.193  1.00  0.00    +0.000 C 
ATOM     53  F6  UNL A   1       9.608  -0.306  24.299  1.00  0.00    +0.000 F 
ATOM     54  C41 UNL A   1       7.702   0.734  25.225  1.00  0.00    +0.000 C 
ATOM     55  F7  UNL A   1       7.839   1.754  24.369  1.00  0.00    +0.000 F 
ATOM     56  C42 UNL A   1       6.650   0.746  26.135  1.00  0.00    +0.000 C 
ATOM     57  F8  UNL A   1       5.773   1.759  26.150  1.00  0.00    +0.000 F 
ATOM     58  C43 UNL A   1       6.505  -0.301  27.020  1.00  0.00    +0.000 C 
ATOM     59  F9  UNL A   1       5.484  -0.323  27.890  1.00  0.00    +0.000 F 
ATOM     60  C44 UNL A   1       7.417  -1.349  26.994  1.00  0.00    +0.000 C 
ATOM     61  F10 UNL A   1       7.231  -2.339  27.868  1.00  0.00    +0.000 F 
ENDBRANCH   50   51
BRANCH   65   66
ATOM     66  C48 UNL A   1       6.720  -5.661  22.124  1.00  0.00    +0.000 C 
ATOM     67  C49 UNL A   1       6.984  -6.695  21.217  1.00  0.00    +0.000 C 
ATOM     68  F11 UNL A   1       8.021  -6.632  20.377  1.00  0.00    +0.000 F 
ATOM     69  C50 UNL A   1       6.160  -7.831  21.115  1.00  0.00    +0.000 C 
ATOM     70  F12 UNL A   1       6.480  -8.809  20.255  1.00  0.00    +0.000 F 
ATOM     71  C51 UNL A   1       5.022  -7.961  21.891  1.00  0.00    +0.000 C 
ATOM     72  F13 UNL A   1       4.259  -9.059  21.813  1.00  0.00    +0.000 F 
ATOM     73  C52 UNL A   1       4.679  -6.935  22.740  1.00  0.00    +0.000 C 
ATOM     74  F14 UNL A   1       3.569  -7.020  23.487  1.00  0.00    +0.000 F 
ATOM     75  C53 UNL A   1       5.497  -5.807  22.838  1.00  0.00    +0.000 C 
ATOM     76  F15 UNL A   1       5.053  -4.856  23.671  1.00  0.00    +0.000 F 
ENDBRANCH   65   66
TORSDOF 23
ENDMDL
MODEL 2
REMARK VINA RESULT:      -7.1     41.348     46.342
ROOT
ATOM    129  H30 UNL A   1      22.226  22.809 -11.288  1.00  0.00    +0.000 H 
ATOM    130  H31 UNL A   1      27.825  28.559 -13.445  1.00  0.00    +0.000 H 
ATOM    131  H32 UNL A   1      28.485  26.280 -14.326  1.00  0.00    +0.000 H 
ATOM    132  H33 UNL A   1      24.649  25.955 -12.824  1.00  0.00    +0.000 H 
ATOM    133  H34 UNL A   1      22.772  28.615 -14.333  1.00  0.00    +0.000 H 
ATOM    134  H35 UNL A   1      21.003  26.977 -13.420  1.00  0.00    +0.000 H 
ATOM    135  H36 UNL A   1      24.488  20.133 -14.541  1.00  0.00    +0.000 H 
ATOM    136  H37 UNL A   1      26.685  21.448 -14.572  1.00  0.00    +0.000 H 
ATOM     29  C24 UNL A   1      26.424  24.299 -14.300  1.00  0.00    +0.000 C 
ATOM     30  C25 UNL A   1      25.316  23.234 -14.242  1.00  0.00    +0.000 C 
ATOM     31  N3  UNL A   1      24.023  23.344 -14.110  1.00  0.00    +0.000 N 
ATOM     32  C26 UNL A   1      23.501  22.034 -14.069  1.00  0.00    +0.000 C 
ATOM     33  C27 UNL A   1      22.249  21.696 -13.640  1.00  0.00    +0.000 C 
ATOM     45  C34 UNL A   1      21.456  22.813 -13.242  1.00  0.00    +0.000 C 
ATOM     46  C35 UNL A   1      20.409  23.558 -13.730  1.00  0.00    +0.000 C 
ATOM     47  C36 UNL A   1      20.223  24.632 -12.813  1.00  0.00    +0.000 C 
ATOM     48  C37 UNL A   1      21.280  24.577 -11.912  1.00  0.00    +0.000 C 
ATOM     49  N4  UNL A   1      21.752  23.298 -11.999  1.00  0.00    +0.000 N 
ATOM     50  C38 UNL A   1      22.056  25.491 -11.130  1.00  0.00    +0.000 C 
ATOM     62  C45 UNL A   1      22.326  26.702 -11.675  1.00  0.00    +0.000 C 
ATOM     63  N5  UNL A   1      23.419  27.443 -11.278  1.00  0.00    +0.000 N 
ATOM     64  C46 UNL A   1      23.730  28.122 -12.336  1.00  0.00    +0.000 C 
ATOM     65  C47 UNL A   1      25.046  28.731 -12.590  1.00  0.00    +0.000 C 
ATOM     77  C54 UNL A   1      25.839  27.695 -13.000  1.00  0.00    +0.000 C 
ATOM     78  C55 UNL A   1      27.210  27.731 -13.468  1.00  0.00    +0.000 C 
ATOM     79  C56 UNL A   1      27.559  26.516 -13.937  1.00  0.00    +0.000 C 
ATOM     80  C57 UNL A   1      26.434  25.571 -13.818  1.00  0.00    +0.000 C 
ATOM     81  N6  UNL A   1      25.495  26.330 -13.159  1.00  0.00    +0.000 N 
ATOM     82  C58 UNL A   1      22.768  28.103 -13.438  1.00  0.00    +0.000 C 
ATOM     83  C59 UNL A   1      21.885  27.236 -12.952  1.00  0.00    +0.000 C 
ATOM     84  C60 UNL A   1      24.585  21.148 -14.380  1.00  0.00    +0.000 C 
ATOM     85  C61 UNL A   1      25.733  21.820 -14.432  1.00  0.00    +0.000 C 
ATOM    127  H28 UNL A   1      19.869  23.377 -14.590  1.00  0.00    +0.000 H 
ATOM    128  H29 UNL A   1      19.452  25.317 -12.815  1.00  0.00    +0.000 H 
ENDROOT
BRANCH   29   28
ATOM    137  H38 UNL A   1      26.999  24.612 -16.945  1.00  0.00    +0.000 H 
ATOM    138  H39 UNL A   1      29.087  24.083 -18.074  1.00  0.00    +0.000 H 
ATOM     86  C62 UNL A   1      27.772  24.170 -16.423  1.00  0.00    +0.000 C 
ATOM     87  C63 UNL A   1      28.973  23.871 -17.070  1.00  0.00    +0.000 C 
ATOM     25  C20 UNL A   1      30.022  23.281 -16.356  1.00  0.00    +0.000 C 
ATOM     26  C21 UNL A   1      29.848  22.947 -15.005  1.00  0.00    +0.000 C 
ATOM     27  C22 UNL A   1      28.653  23.238 -14.360  1.00  0.00    +0.000 C 
ATOM     28  C23 UNL A   1      27.620  23.868 -15.063  1.00  0.00    +0.000 C 
ATOM    125  H26 UNL A   1      30.612  22.484 -14.489  1.00  0.00    +0.000 H 
ATOM    126  H27 UNL A   1      28.527  22.989 -13.366  1.00  0.00    +0.000 H 
BRANCH   25   23
ATOM     23  C19 UNL A   1      31.304  22.876 -16.982  1.00  0.00    +0.000 C 
ATOM     24  O3  UNL A   1      31.412  22.892 -18.197  1.00  0.00    +0.000 O 
BRANCH   23   22
ATOM    124  H25 UNL A   1      32.448  21.499 -16.084  1.00  0.00    +0.000 H 
ATOM     22  N2  UNL A   1      32.378  22.469 -16.233  1.00  0.00    +0.000 N 
BRANCH   22   21
ATOM    122  H23 UNL A   1      34.377  22.843 -15.868  1.00  0.00    +0.000 H 
ATOM    123  H24 UNL A   1      33.362  24.268 -16.017  1.00  0.00    +0.000 H 
ATOM     21  C18 UNL A   1      33.426  23.271 -15.631  1.00  0.00    +0.000 C 
BRANCH   21   20
ATOM    121  H22 UNL A   1      34.235  23.129 -13.700  1.00  0.00    +0.000 H 
ATOM     20  C17 UNL A   1      33.264  23.321 -14.109  1.00  0.00    +0.000 C 
ATOM    120  H21 UNL A   1      32.533  22.591 -13.829  1.00  0.00    +0.000 H 
BRANCH   20   19
ATOM     19  C16 UNL A   1      32.821  24.681 -13.543  1.00  0.00    +0.000 C 
ATOM    118  H19 UNL A   1      33.702  25.252 -13.335  1.00  0.00    +0.000 H 
ATOM    119  H20 UNL A   1      32.188  25.114 -14.289  1.00  0.00    +0.000 H 
BRANCH   19   18
ATOM     18  C15 UNL A   1      31.982  24.630 -12.265  1.00  0.00    +0.000 C 
ATOM    116  H17 UNL A   1      31.643  23.625 -12.127  1.00  0.00    +0.000 H 
ATOM    117  H18 UNL A   1      32.614  24.971 -11.472  1.00  0.00    +0.000 H 
BRANCH   18   17
ATOM     17  C14 UNL A   1      30.762  25.546 -12.271  1.00  0.00    +0.000 C 
ATOM    114  H15 UNL A   1      31.091  26.538 -12.042  1.00  0.00    +0.000 H 
ATOM    115  H16 UNL A   1      30.326  25.454 -13.243  1.00  0.00    +0.000 H 
BRANCH   17   16
ATOM    113  H14 UNL A   1      29.244  24.230 -11.566  1.00  0.00    +0.000 H 
ATOM    112  H13 UNL A   1      28.910  25.930 -11.283  1.00  0.00    +0.000 H 
ATOM     16  C13 UNL A   1      29.664  25.170 -11.277  1.00  0.00    +0.000 C 
BRANCH   16   15
ATOM    111  H12 UNL A   1      31.158  24.803  -9.882  1.00  0.00    +0.000 H 
ATOM     15  N1  UNL A   1      30.205  25.048  -9.937  1.00  0.00    +0.000 N 
BRANCH   15   13
ATOM     13  C12 UNL A   1      29.569  25.227  -8.745  1.00  0.00    +0.000 C 
ATOM     14  O2  UNL A   1      28.453  25.748  -8.747  1.00  0.00    +0.000 O 
BRANCH   13   12
ATOM     12  C11 UNL A   1      30.250  24.846  -7.444  1.00  0.00    +0.000 C 
ATOM    109  H10 UNL A   1      31.112  25.466  -7.314  1.00  0.00    +0.000 H 
ATOM    110  H11 UNL A   1      29.538  24.984  -6.657  1.00  0.00    +0.000 H 
BRANCH   12   11
ATOM     11  C10 UNL A   1      30.692  23.383  -7.415  1.00  0.00    +0.000 C 
ATOM    108  H9  UNL A   1      31.132  23.203  -6.456  1.00  0.00    +0.000 H 
ATOM    107  H8  UNL A   1      31.387  23.222  -8.213  1.00  0.00    +0.000 H 
BRANCH   11   10
ATOM      7  C6  UNL A   1      28.100  21.037  -8.629  1.00  0.00    +0.000 C 
ATOM      8  C7  UNL A   1      27.576  21.353  -7.383  1.00  0.00    +0.000 C 
ATOM      9  C8  UNL A   1      28.483  22.206  -6.723  1.00  0.00    +0.000 C 
ATOM     10  C9  UNL A   1      29.550  22.413  -7.573  1.00  0.00    +0.000 C 
ATOM    105  H6  UNL A   1      26.675  21.020  -7.006  1.00  0.00    +0.000 H 
ATOM    106  H7  UNL A   1      28.368  22.604  -5.778  1.00  0.00    +0.000 H 
ATOM     88  N7  UNL A   1      29.412  21.519  -8.633  1.00  0.00    +0.000 N 
BRANCH    7    6
ATOM     98  C72 UNL A   1      26.545  20.573 -10.519  1.00  0.00    +0.000 C 
ATOM      3  C2  UNL A   1      26.290  18.326 -11.391  1.00  0.00    +0.000 C 
ATOM      4  C3  UNL A   1      27.236  17.875 -10.470  1.00  0.00    +0.000 C 
ATOM      5  C4  UNL A   1      27.849  18.768  -9.589  1.00  0.00    +0.000 C 
ATOM     99  C73 UNL A   1      25.939  19.676 -11.410  1.00  0.00    +0.000 C 
ATOM    103  H4  UNL A   1      27.484  16.874 -10.439  1.00  0.00    +0.000 H 
ATOM      6  C5  UNL A   1      27.510  20.124  -9.609  1.00  0.00    +0.000 C 
ATOM    104  H5  UNL A   1      28.557  18.425  -8.921  1.00  0.00    +0.000 H 
ATOM    146  H47 UNL A   1      26.280  21.570 -10.535  1.00  0.00    +0.000 H 
ATOM    147  H48 UNL A   1      25.231  20.016 -12.081  1.00  0.00    +0.000 H 
BRANCH    3    2
ATOM      2  O1  UNL A   1      25.733  17.357 -12.178  1.00  0.00    +0.000 O 
BRANCH    2    1
ATOM      1  C1  UNL A   1      25.489  17.737 -13.528  1.00  0.00    +0.000 C 
ATOM    100  H1  UNL A   1      26.247  17.321 -14.159  1.00  0.00    +0.000 H 
ATOM    101  H2  UNL A   1      25.506  18.805 -13.607  1.00  0.00    +0.000 H 
ATOM    102  H3  UNL A   1      24.531  17.372 -13.834  1.00  0.00    +0.000 H 
ENDBRANCH    2    1
ENDBRANCH    3    2
ENDBRANCH    7    6
BRANCH   88   89
ATOM     97  C71 UNL A   1      31.350  20.019  -8.825  1.00  0.00    +0.000 C 
ATOM    139  H40 UNL A   1      30.072  22.174 -11.055  1.00  0.00    +0.000 H 
ATOM    140  H41 UNL A   1      32.032  21.491 -12.305  1.00  0.00    +0.000 H 
ATOM    144  H45 UNL A   1      33.101  18.896  -9.171  1.00  0.00    +0.000 H 
ATOM    145  H46 UNL A   1      31.171  19.629  -7.886  1.00  0.00    +0.000 H 
ATOM     89  C64 UNL A   1      30.483  20.959  -9.376  1.00  0.00    +0.000 C 
ATOM     90  C65 UNL A   1      30.728  21.488 -10.649  1.00  0.00    +0.000 C 
ATOM     91  C66 UNL A   1      31.854  21.093 -11.371  1.00  0.00    +0.000 C 
ATOM     92  C67 UNL A   1      32.741  20.159 -10.830  1.00  0.00    +0.000 C 
ATOM     96  C70 UNL A   1      32.468  19.610  -9.563  1.00  0.00    +0.000 C 
BRANCH   92   93
ATOM     93  C68 UNL A   1      33.988  19.725 -11.532  1.00  0.00    +0.000 C 
ATOM     95  O4  UNL A   1      34.014  19.731 -12.763  1.00  0.00    +0.000 O 
BRANCH   93   94
ATOM    143  H44 UNL A   1      35.943  20.025 -10.763  1.00  0.00    +0.000 H 
ATOM    141  H42 UNL A   1      35.591  18.373 -11.210  1.00  0.00    +0.000 H 
ATOM     94  C69 UNL A   1      35.197  19.258 -10.757  1.00  0.00    +0.000 C 
ATOM    142  H43 UNL A   1      34.912  19.045  -9.747  1.00  0.00    +0.000 H 
ENDBRANCH   93   94
ENDBRANCH   92   93
ENDBRANCH   88   89
ENDBRANCH   11   10
ENDBRANCH   12   11
ENDBRANCH   13   12
ENDBRANCH   15   13
ENDBRANCH   16   15
ENDBRANCH   17   16
ENDBRANCH   18   17
ENDBRANCH   19   18
ENDBRANCH   20   19
ENDBRANCH   21   20
ENDBRANCH   22   21
ENDBRANCH   23   22
ENDBRANCH   25   23
ENDBRANCH   29   28
BRANCH   33   34
ATOM     34  C28 UNL A   1      21.739  20.342 -13.190  1.00  0.00    +0.000 C 
ATOM     35  C29 UNL A   1      22.253  19.787 -11.994  1.00  0.00    +0.000 C 
ATOM     36  F1  UNL A   1      22.841  20.569 -11.075  1.00  0.00    +0.000 F 
ATOM     37  C30 UNL A   1      22.254  18.413 -11.756  1.00  0.00    +0.000 C 
ATOM     38  F2  UNL A   1      22.886  17.922 -10.680  1.00  0.00    +0.000 F 
ATOM     39  C31 UNL A   1      21.664  17.553 -12.661  1.00  0.00    +0.000 C 
ATOM     40  F3  UNL A   1      21.714  16.228 -12.465  1.00  0.00    +0.000 F 
ATOM     41  C32 UNL A   1      21.055  18.069 -13.792  1.00  0.00    +0.000 C 
ATOM     42  F4  UNL A   1      20.482  17.239 -14.675  1.00  0.00    +0.000 F 
ATOM     43  C33 UNL A   1      21.113  19.439 -14.067  1.00  0.00    +0.000 C 
ATOM     44  F5  UNL A   1      20.653  19.838 -15.260  1.00  0.00    +0.000 F 
ENDBRANCH   33   34
BRANCH   50   51
ATOM     51  C39 UNL A   1      23.031  25.089 -10.051  1.00  0.00    +0.000 C 
ATOM     52  C40 UNL A   1      22.799  25.383  -8.708  1.00  0.00    +0.000 C 
ATOM     53  F6  UNL A   1      21.640  25.945  -8.333  1.00  0.00    +0.000 F 
ATOM     54  C41 UNL A   1      23.762  25.099  -7.735  1.00  0.00    +0.000 C 
ATOM     55  F7  UNL A   1      23.517  25.388  -6.451  1.00  0.00    +0.000 F 
ATOM     56  C42 UNL A   1      24.975  24.514  -8.082  1.00  0.00    +0.000 C 
ATOM     57  F8  UNL A   1      25.887  24.229  -7.142  1.00  0.00    +0.000 F 
ATOM     58  C43 UNL A   1      25.232  24.217  -9.403  1.00  0.00    +0.000 C 
ATOM     59  F9  UNL A   1      26.386  23.630  -9.758  1.00  0.00    +0.000 F 
ATOM     60  C44 UNL A   1      24.279  24.514 -10.369  1.00  0.00    +0.000 C 
ATOM     61  F10 UNL A   1      24.576  24.203 -11.631  1.00  0.00    +0.000 F 
ENDBRANCH   50   51
BRANCH   65   66
ATOM     66  C48 UNL A   1      25.152  30.230 -12.477  1.00  0.00    +0.000 C 
ATOM     67  C49 UNL A   1      24.962  31.145 -13.522  1.00  0.00    +0.000 C 
ATOM     68  F11 UNL A   1      24.799  30.733 -14.783  1.00  0.00    +0.000 F 
ATOM     69  C50 UNL A   1      24.967  32.536 -13.310  1.00  0.00    +0.000 C 
ATOM     70  F12 UNL A   1      24.742  33.365 -14.339  1.00  0.00    +0.000 F 
ATOM     71  C51 UNL A   1      25.195  33.067 -12.052  1.00  0.00    +0.000 C 
ATOM     72  F13 UNL A   1      25.168  34.390 -11.851  1.00  0.00    +0.000 F 
ATOM     73  C52 UNL A   1      25.465  32.210 -11.012  1.00  0.00    +0.000 C 
ATOM     74  F14 UNL A   1      25.716  32.695  -9.787  1.00  0.00    +0.000 F 
ATOM     75  C53 UNL A   1      25.463  30.830 -11.224  1.00  0.00    +0.000 C 
ATOM     76  F15 UNL A   1      25.768  30.090 -10.150  1.00  0.00    +0.000 F 
ENDBRANCH   65   66
TORSDOF 23
ENDMDL
MODEL 3
REMARK VINA RESULT:      -6.9     50.190     56.001
ROOT
ATOM    129  H30 UNL A   1      13.630  49.103   8.529  1.00  0.00    +0.000 H 
ATOM    130  H31 UNL A   1      14.854  51.837   0.776  1.00  0.00    +0.000 H 
ATOM    131  H32 UNL A   1      14.229  53.744   2.319  1.00  0.00    +0.000 H 
ATOM    132  H33 UNL A   1      14.890  50.417   4.681  1.00  0.00    +0.000 H 
ATOM    133  H34 UNL A   1      18.093  49.132   3.695  1.00  0.00    +0.000 H 
ATOM    134  H35 UNL A   1      17.606  48.046   5.982  1.00  0.00    +0.000 H 
ATOM    135  H36 UNL A   1      13.823  53.749   9.643  1.00  0.00    +0.000 H 
ATOM    136  H37 UNL A   1      13.292  54.664   7.312  1.00  0.00    +0.000 H 
ATOM     29  C24 UNL A   1      14.416  53.184   5.117  1.00  0.00    +0.000 C 
ATOM     30  C25 UNL A   1      14.482  52.855   6.617  1.00  0.00    +0.000 C 
ATOM     31  N3  UNL A   1      15.081  51.890   7.261  1.00  0.00    +0.000 N 
ATOM     32  C26 UNL A   1      14.762  52.048   8.626  1.00  0.00    +0.000 C 
ATOM     33  C27 UNL A   1      14.927  51.094   9.590  1.00  0.00    +0.000 C 
ATOM     45  C34 UNL A   1      15.495  49.879   9.106  1.00  0.00    +0.000 C 
ATOM     46  C35 UNL A   1      16.703  49.225   9.134  1.00  0.00    +0.000 C 
ATOM     47  C36 UNL A   1      16.555  48.079   8.300  1.00  0.00    +0.000 C 
ATOM     48  C37 UNL A   1      15.320  48.196   7.674  1.00  0.00    +0.000 C 
ATOM     49  N4  UNL A   1      14.611  49.067   8.453  1.00  0.00    +0.000 N 
ATOM     50  C38 UNL A   1      14.722  47.824   6.427  1.00  0.00    +0.000 C 
ATOM     62  C45 UNL A   1      15.507  47.872   5.323  1.00  0.00    +0.000 C 
ATOM     63  N5  UNL A   1      14.968  48.023   4.063  1.00  0.00    +0.000 N 
ATOM     64  C46 UNL A   1      15.895  48.644   3.405  1.00  0.00    +0.000 C 
ATOM     65  C47 UNL A   1      15.680  49.417   2.171  1.00  0.00    +0.000 C 
ATOM     77  C54 UNL A   1      15.155  50.609   2.591  1.00  0.00    +0.000 C 
ATOM     78  C55 UNL A   1      14.833  51.784   1.807  1.00  0.00    +0.000 C 
ATOM     79  C56 UNL A   1      14.501  52.799   2.631  1.00  0.00    +0.000 C 
ATOM     80  C57 UNL A   1      14.580  52.370   4.039  1.00  0.00    +0.000 C 
ATOM     81  N6  UNL A   1      14.875  51.033   3.913  1.00  0.00    +0.000 N 
ATOM     82  C58 UNL A   1      17.204  48.748   4.051  1.00  0.00    +0.000 C 
ATOM     83  C59 UNL A   1      16.918  48.207   5.232  1.00  0.00    +0.000 C 
ATOM     84  C60 UNL A   1      14.079  53.303   8.748  1.00  0.00    +0.000 C 
ATOM     85  C61 UNL A   1      13.822  53.810   7.545  1.00  0.00    +0.000 C 
ATOM    127  H28 UNL A   1      17.549  49.508   9.653  1.00  0.00    +0.000 H 
ATOM    128  H29 UNL A   1      17.233  47.310   8.184  1.00  0.00    +0.000 H 
ENDROOT
BRANCH   29   28
ATOM    137  H38 UNL A   1      12.114  54.524   4.542  1.00  0.00    +0.000 H 
ATOM    138  H39 UNL A   1      11.821  56.928   4.322  1.00  0.00    +0.000 H 
ATOM     86  C62 UNL A   1      12.929  55.153   4.615  1.00  0.00    +0.000 C 
ATOM     87  C63 UNL A   1      12.760  56.535   4.494  1.00  0.00    +0.000 C 
ATOM     25  C20 UNL A   1      13.866  57.385   4.605  1.00  0.00    +0.000 C 
ATOM     26  C21 UNL A   1      15.147  56.846   4.787  1.00  0.00    +0.000 C 
ATOM     27  C22 UNL A   1      15.320  55.472   4.902  1.00  0.00    +0.000 C 
ATOM     28  C23 UNL A   1      14.208  54.625   4.836  1.00  0.00    +0.000 C 
ATOM    125  H26 UNL A   1      15.965  57.473   4.838  1.00  0.00    +0.000 H 
ATOM    126  H27 UNL A   1      16.264  55.078   5.035  1.00  0.00    +0.000 H 
BRANCH   25   23
ATOM     23  C19 UNL A   1      13.781  58.855   4.426  1.00  0.00    +0.000 C 
ATOM     24  O3  UNL A   1      14.199  59.593   5.302  1.00  0.00    +0.000 O 
BRANCH   23   22
ATOM    124  H25 UNL A   1      12.305  59.732   3.393  1.00  0.00    +0.000 H 
ATOM     22  N2  UNL A   1      13.233  59.417   3.301  1.00  0.00    +0.000 N 
BRANCH   22   21
ATOM    122  H23 UNL A   1      13.183  60.214   1.396  1.00  0.00    +0.000 H 
ATOM    123  H24 UNL A   1      14.779  60.096   2.118  1.00  0.00    +0.000 H 
ATOM     21  C18 UNL A   1      13.833  59.611   1.995  1.00  0.00    +0.000 C 
BRANCH   21   20
ATOM    121  H22 UNL A   1      14.655  57.681   1.963  1.00  0.00    +0.000 H 
ATOM     20  C17 UNL A   1      14.056  58.266   1.295  1.00  0.00    +0.000 C 
ATOM    120  H21 UNL A   1      14.529  58.456   0.355  1.00  0.00    +0.000 H 
BRANCH   20   19
ATOM     19  C16 UNL A   1      12.781  57.447   1.033  1.00  0.00    +0.000 C 
ATOM    118  H19 UNL A   1      12.831  56.562   1.631  1.00  0.00    +0.000 H 
ATOM    119  H20 UNL A   1      11.964  58.093   1.279  1.00  0.00    +0.000 H 
BRANCH   19   18
ATOM     18  C15 UNL A   1      12.550  57.021  -0.418  1.00  0.00    +0.000 C 
ATOM    116  H17 UNL A   1      11.503  56.849  -0.554  1.00  0.00    +0.000 H 
ATOM    117  H18 UNL A   1      12.927  57.812  -1.031  1.00  0.00    +0.000 H 
BRANCH   18   17
ATOM     17  C14 UNL A   1      13.297  55.757  -0.835  1.00  0.00    +0.000 C 
ATOM    114  H15 UNL A   1      13.380  55.757  -1.901  1.00  0.00    +0.000 H 
ATOM    115  H16 UNL A   1      14.241  55.791  -0.333  1.00  0.00    +0.000 H 
BRANCH   17   16
ATOM    113  H14 UNL A   1      11.612  54.462  -0.711  1.00  0.00    +0.000 H 
ATOM    112  H13 UNL A   1      12.712  54.343   0.652  1.00  0.00    +0.000 H 
ATOM     16  C13 UNL A   1      12.639  54.445  -0.411  1.00  0.00    +0.000 C 
BRANCH   16   15
ATOM    111  H12 UNL A   1      14.277  53.343  -1.054  1.00  0.00    +0.000 H 
ATOM     15  N1  UNL A   1      13.293  53.316  -1.044  1.00  0.00    +0.000 N 
BRANCH   15   13
ATOM     13  C12 UNL A   1      12.723  52.223  -1.626  1.00  0.00    +0.000 C 
ATOM     14  O2  UNL A   1      11.591  51.891  -1.272  1.00  0.00    +0.000 O 
BRANCH   13   12
ATOM     12  C11 UNL A   1      13.494  51.403  -2.644  1.00  0.00    +0.000 C 
ATOM    109  H10 UNL A   1      12.873  50.596  -2.974  1.00  0.00    +0.000 H 
ATOM    110  H11 UNL A   1      13.758  52.056  -3.449  1.00  0.00    +0.000 H 
BRANCH   12   11
ATOM     11  C10 UNL A   1      14.789  50.823  -2.077  1.00  0.00    +0.000 C 
ATOM    108  H9  UNL A   1      14.633  49.774  -1.936  1.00  0.00    +0.000 H 
ATOM    107  H8  UNL A   1      15.012  51.323  -1.157  1.00  0.00    +0.000 H 
BRANCH   11   10
ATOM      7  C6  UNL A   1      17.593  52.037  -4.166  1.00  0.00    +0.000 C 
ATOM      8  C7  UNL A   1      17.404  50.780  -4.721  1.00  0.00    +0.000 C 
ATOM      9  C8  UNL A   1      16.395  50.119  -3.993  1.00  0.00    +0.000 C 
ATOM     10  C9  UNL A   1      15.967  50.980  -3.003  1.00  0.00    +0.000 C 
ATOM    105  H6  UNL A   1      17.916  50.395  -5.530  1.00  0.00    +0.000 H 
ATOM    106  H7  UNL A   1      16.040  49.166  -4.169  1.00  0.00    +0.000 H 
ATOM     88  N7  UNL A   1      16.857  52.053  -2.977  1.00  0.00    +0.000 N 
BRANCH    7    6
ATOM     98  C72 UNL A   1      19.961  52.738  -4.491  1.00  0.00    +0.000 C 
ATOM      3  C2  UNL A   1      20.498  54.979  -5.242  1.00  0.00    +0.000 C 
ATOM      4  C3  UNL A   1      19.135  55.270  -5.308  1.00  0.00    +0.000 C 
ATOM      5  C4  UNL A   1      18.187  54.297  -4.985  1.00  0.00    +0.000 C 
ATOM     99  C73 UNL A   1      20.912  53.713  -4.826  1.00  0.00    +0.000 C 
ATOM    103  H4  UNL A   1      18.826  56.211  -5.596  1.00  0.00    +0.000 H 
ATOM      6  C5  UNL A   1      18.593  53.023  -4.577  1.00  0.00    +0.000 C 
ATOM    104  H5  UNL A   1      17.182  54.520  -5.050  1.00  0.00    +0.000 H 
ATOM    146  H47 UNL A   1      20.271  51.804  -4.181  1.00  0.00    +0.000 H 
ATOM    147  H48 UNL A   1      21.919  53.494  -4.764  1.00  0.00    +0.000 H 
BRANCH    3    2
ATOM      2  O1  UNL A   1      21.333  56.018  -5.547  1.00  0.00    +0.000 O 
BRANCH    2    1
ATOM      1  C1  UNL A   1      22.669  55.649  -5.872  1.00  0.00    +0.000 C 
ATOM    100  H1  UNL A   1      22.700  55.261  -6.869  1.00  0.00    +0.000 H 
ATOM    101  H2  UNL A   1      23.009  54.899  -5.187  1.00  0.00    +0.000 H 
ATOM    102  H3  UNL A   1      23.303  56.508  -5.803  1.00  0.00    +0.000 H 
ENDBRANCH    2    1
ENDBRANCH    3    2
ENDBRANCH    7    6
BRANCH   88   89
ATOM     97  C71 UNL A   1      17.894  52.282  -0.761  1.00  0.00    +0.000 C 
ATOM    139  H40 UNL A   1      16.120  54.502  -2.542  1.00  0.00    +0.000 H 
ATOM    140  H41 UNL A   1      16.377  55.801  -0.513  1.00  0.00    +0.000 H 
ATOM    144  H45 UNL A   1      18.609  52.664   1.186  1.00  0.00    +0.000 H 
ATOM    145  H46 UNL A   1      18.296  51.333  -0.824  1.00  0.00    +0.000 H 
ATOM     89  C64 UNL A   1      17.180  52.819  -1.829  1.00  0.00    +0.000 C 
ATOM     90  C65 UNL A   1      16.635  54.106  -1.740  1.00  0.00    +0.000 C 
ATOM     91  C66 UNL A   1      16.786  54.856  -0.574  1.00  0.00    +0.000 C 
ATOM     92  C67 UNL A   1      17.490  54.329   0.512  1.00  0.00    +0.000 C 
ATOM     96  C70 UNL A   1      18.060  53.047   0.400  1.00  0.00    +0.000 C 
BRANCH   92   93
ATOM     93  C68 UNL A   1      17.652  55.062   1.805  1.00  0.00    +0.000 C 
ATOM     95  O4  UNL A   1      18.032  54.444   2.800  1.00  0.00    +0.000 O 
BRANCH   93   94
ATOM    143  H44 UNL A   1      16.631  56.803   1.149  1.00  0.00    +0.000 H 
ATOM    141  H42 UNL A   1      18.231  57.103   1.785  1.00  0.00    +0.000 H 
ATOM     94  C69 UNL A   1      17.333  56.535   1.911  1.00  0.00    +0.000 C 
ATOM    142  H43 UNL A   1      16.912  56.740   2.873  1.00  0.00    +0.000 H 
ENDBRANCH   93   94
ENDBRANCH   92   93
ENDBRANCH   88   89
ENDBRANCH   11   10
ENDBRANCH   12   11
ENDBRANCH   13   12
ENDBRANCH   15   13
ENDBRANCH   16   15
ENDBRANCH   17   16
ENDBRANCH   18   17
ENDBRANCH   19   18
ENDBRANCH   20   19
ENDBRANCH   21   20
ENDBRANCH   22   21
ENDBRANCH   23   22
ENDBRANCH   25   23
ENDBRANCH   29   28
BRANCH   33   34
ATOM     34  C28 UNL A   1      14.275  51.010  10.955  1.00  0.00    +0.000 C 
ATOM     35  C29 UNL A   1      12.873  51.176  11.049  1.00  0.00    +0.000 C 
ATOM     36  F1  UNL A   1      12.090  51.001   9.973  1.00  0.00    +0.000 F 
ATOM     37  C30 UNL A   1      12.255  51.610  12.222  1.00  0.00    +0.000 C 
ATOM     38  F2  UNL A   1      10.945  51.897  12.220  1.00  0.00    +0.000 F 
ATOM     39  C31 UNL A   1      13.003  51.808  13.366  1.00  0.00    +0.000 C 
ATOM     40  F3  UNL A   1      12.423  52.281  14.478  1.00  0.00    +0.000 F 
ATOM     41  C32 UNL A   1      14.363  51.552  13.341  1.00  0.00    +0.000 C 
ATOM     42  F4  UNL A   1      15.094  51.744  14.449  1.00  0.00    +0.000 F 
ATOM     43  C33 UNL A   1      14.996  51.183  12.150  1.00  0.00    +0.000 C 
ATOM     44  F5  UNL A   1      16.333  51.121  12.168  1.00  0.00    +0.000 F 
ENDBRANCH   33   34
BRANCH   50   51
ATOM     51  C39 UNL A   1      13.248  47.910   6.120  1.00  0.00    +0.000 C 
ATOM     52  C40 UNL A   1      12.587  49.135   6.039  1.00  0.00    +0.000 C 
ATOM     53  F6  UNL A   1      13.279  50.279   6.132  1.00  0.00    +0.000 F 
ATOM     54  C41 UNL A   1      11.201  49.191   5.861  1.00  0.00    +0.000 C 
ATOM     55  F7  UNL A   1      10.587  50.378   5.783  1.00  0.00    +0.000 F 
ATOM     56  C42 UNL A   1      10.448  48.027   5.756  1.00  0.00    +0.000 C 
ATOM     57  F8  UNL A   1       9.122  48.087   5.567  1.00  0.00    +0.000 F 
ATOM     58  C43 UNL A   1      11.075  46.802   5.837  1.00  0.00    +0.000 C 
ATOM     59  F9  UNL A   1      10.373  45.666   5.715  1.00  0.00    +0.000 F 
ATOM     60  C44 UNL A   1      12.450  46.750   6.029  1.00  0.00    +0.000 C 
ATOM     61  F10 UNL A   1      13.009  45.541   6.097  1.00  0.00    +0.000 F 
ENDBRANCH   50   51
BRANCH   65   66
ATOM     66  C48 UNL A   1      16.171  48.816   0.880  1.00  0.00    +0.000 C 
ATOM     67  C49 UNL A   1      17.496  48.827   0.423  1.00  0.00    +0.000 C 
ATOM     68  F11 UNL A   1      18.444  49.520   1.062  1.00  0.00    +0.000 F 
ATOM     69  C50 UNL A   1      17.894  48.143  -0.741  1.00  0.00    +0.000 C 
ATOM     70  F12 UNL A   1      19.183  48.156  -1.111  1.00  0.00    +0.000 F 
ATOM     71  C51 UNL A   1      16.976  47.452  -1.512  1.00  0.00    +0.000 C 
ATOM     72  F13 UNL A   1      17.366  46.777  -2.602  1.00  0.00    +0.000 F 
ATOM     73  C52 UNL A   1      15.651  47.479  -1.147  1.00  0.00    +0.000 C 
ATOM     74  F14 UNL A   1      14.735  46.839  -1.888  1.00  0.00    +0.000 F 
ATOM     75  C53 UNL A   1      15.258  48.159   0.007  1.00  0.00    +0.000 C 
ATOM     76  F15 UNL A   1      13.941  48.147   0.252  1.00  0.00    +0.000 F 
ENDBRANCH   65   66
TORSDOF 23
ENDMDL
MODEL 4
REMARK VINA RESULT:      -6.9     50.006     55.056
ROOT
ATOM    129  H30 UNL A   1      13.073  48.928   9.417  1.00  0.00    +0.000 H 
ATOM    130  H31 UNL A   1      14.999  52.893   2.372  1.00  0.00    +0.000 H 
ATOM    131  H32 UNL A   1      14.377  54.537   4.194  1.00  0.00    +0.000 H 
ATOM    132  H33 UNL A   1      14.677  50.809   5.951  1.00  0.00    +0.000 H 
ATOM    133  H34 UNL A   1      17.862  49.498   4.942  1.00  0.00    +0.000 H 
ATOM    134  H35 UNL A   1      17.152  48.063   6.963  1.00  0.00    +0.000 H 
ATOM    135  H36 UNL A   1      13.453  53.280  11.361  1.00  0.00    +0.000 H 
ATOM    136  H37 UNL A   1      13.142  54.626   9.205  1.00  0.00    +0.000 H 
ATOM     29  C24 UNL A   1      14.332  53.482   6.850  1.00  0.00    +0.000 C 
ATOM     30  C25 UNL A   1      14.273  52.890   8.268  1.00  0.00    +0.000 C 
ATOM     31  N3  UNL A   1      14.768  51.787   8.761  1.00  0.00    +0.000 N 
ATOM     32  C26 UNL A   1      14.363  51.724  10.111  1.00  0.00    +0.000 C 
ATOM     33  C27 UNL A   1      14.403  50.606  10.896  1.00  0.00    +0.000 C 
ATOM     45  C34 UNL A   1      14.934  49.459  10.235  1.00  0.00    +0.000 C 
ATOM     46  C35 UNL A   1      16.097  48.728  10.216  1.00  0.00    +0.000 C 
ATOM     47  C36 UNL A   1      15.943  47.760   9.182  1.00  0.00    +0.000 C 
ATOM     48  C37 UNL A   1      14.765  48.071   8.516  1.00  0.00    +0.000 C 
ATOM     49  N4  UNL A   1      14.053  48.838   9.394  1.00  0.00    +0.000 N 
ATOM     50  C38 UNL A   1      14.236  47.966   7.188  1.00  0.00    +0.000 C 
ATOM     62  C45 UNL A   1      15.098  48.153   6.160  1.00  0.00    +0.000 C 
ATOM     63  N5  UNL A   1      14.660  48.562   4.918  1.00  0.00    +0.000 N 
ATOM     64  C46 UNL A   1      15.666  49.223   4.439  1.00  0.00    +0.000 C 
ATOM     65  C47 UNL A   1      15.583  50.214   3.354  1.00  0.00    +0.000 C 
ATOM     77  C54 UNL A   1      15.100  51.347   3.950  1.00  0.00    +0.000 C 
ATOM     78  C55 UNL A   1      14.902  52.661   3.373  1.00  0.00    +0.000 C 
ATOM     79  C56 UNL A   1      14.572  53.535   4.345  1.00  0.00    +0.000 C 
ATOM     80  C57 UNL A   1      14.526  52.861   5.655  1.00  0.00    +0.000 C 
ATOM     81  N6  UNL A   1      14.752  51.550   5.307  1.00  0.00    +0.000 N 
ATOM     82  C58 UNL A   1      16.929  49.121   5.170  1.00  0.00    +0.000 C 
ATOM     83  C59 UNL A   1      16.529  48.401   6.214  1.00  0.00    +0.000 C 
ATOM     84  C60 UNL A   1      13.746  52.982  10.417  1.00  0.00    +0.000 C 
ATOM     85  C61 UNL A   1      13.605  53.710   9.312  1.00  0.00    +0.000 C 
ATOM    127  H28 UNL A   1      16.919  48.856  10.827  1.00  0.00    +0.000 H 
ATOM    128  H29 UNL A   1      16.582  46.978   8.970  1.00  0.00    +0.000 H 
ENDROOT
BRANCH   29   28
ATOM    137  H38 UNL A   1      12.148  55.059   6.442  1.00  0.00    +0.000 H 
ATOM    138  H39 UNL A   1      12.017  57.479   6.642  1.00  0.00    +0.000 H 
ATOM     86  C62 UNL A   1      12.996  55.607   6.654  1.00  0.00    +0.000 C 
ATOM     87  C63 UNL A   1      12.920  56.997   6.774  1.00  0.00    +0.000 C 
ATOM     25  C20 UNL A   1      14.070  57.736   7.071  1.00  0.00    +0.000 C 
ATOM     26  C21 UNL A   1      15.306  57.085   7.200  1.00  0.00    +0.000 C 
ATOM     27  C22 UNL A   1      15.387  55.704   7.076  1.00  0.00    +0.000 C 
ATOM     28  C23 UNL A   1      14.228  54.961   6.822  1.00  0.00    +0.000 C 
ATOM    125  H26 UNL A   1      16.158  57.635   7.389  1.00  0.00    +0.000 H 
ATOM    126  H27 UNL A   1      16.298  55.228   7.169  1.00  0.00    +0.000 H 
BRANCH   25   23
ATOM     23  C19 UNL A   1      14.086  59.216   7.153  1.00  0.00    +0.000 C 
ATOM     24  O3  UNL A   1      14.439  59.758   8.187  1.00  0.00    +0.000 O 
BRANCH   23   22
ATOM    124  H25 UNL A   1      13.429  60.920   6.329  1.00  0.00    +0.000 H 
ATOM     22  N2  UNL A   1      13.703  60.003   6.097  1.00  0.00    +0.000 N 
BRANCH   22   21
ATOM    122  H23 UNL A   1      14.035  60.490   4.117  1.00  0.00    +0.000 H 
ATOM    123  H24 UNL A   1      14.231  58.791   4.515  1.00  0.00    +0.000 H 
ATOM     21  C18 UNL A   1      13.647  59.672   4.686  1.00  0.00    +0.000 C 
BRANCH   21   20
ATOM    121  H22 UNL A   1      11.993  58.390   4.542  1.00  0.00    +0.000 H 
ATOM     20  C17 UNL A   1      12.204  59.398   4.251  1.00  0.00    +0.000 C 
ATOM    120  H21 UNL A   1      12.139  59.559   3.195  1.00  0.00    +0.000 H 
BRANCH   20   19
ATOM     19  C16 UNL A   1      11.138  60.273   4.934  1.00  0.00    +0.000 C 
ATOM    118  H19 UNL A   1      11.638  60.918   5.626  1.00  0.00    +0.000 H 
ATOM    119  H20 UNL A   1      10.636  60.790   4.142  1.00  0.00    +0.000 H 
BRANCH   19   18
ATOM     18  C15 UNL A   1      10.047  59.520   5.696  1.00  0.00    +0.000 C 
ATOM    116  H17 UNL A   1      10.317  59.498   6.731  1.00  0.00    +0.000 H 
ATOM    117  H18 UNL A   1       9.132  60.044   5.514  1.00  0.00    +0.000 H 
BRANCH   18   17
ATOM     17  C14 UNL A   1       9.824  58.084   5.232  1.00  0.00    +0.000 C 
ATOM    114  H15 UNL A   1       9.184  58.108   4.375  1.00  0.00    +0.000 H 
ATOM    115  H16 UNL A   1      10.795  57.684   5.029  1.00  0.00    +0.000 H 
BRANCH   17   16
ATOM    113  H14 UNL A   1       8.129  57.281   6.240  1.00  0.00    +0.000 H 
ATOM    112  H13 UNL A   1       9.567  57.409   7.240  1.00  0.00    +0.000 H 
ATOM     16  C13 UNL A   1       9.191  57.157   6.269  1.00  0.00    +0.000 C 
BRANCH   16   15
ATOM    111  H12 UNL A   1      10.448  55.511   6.119  1.00  0.00    +0.000 H 
ATOM     15  N1  UNL A   1       9.509  55.772   5.980  1.00  0.00    +0.000 N 
BRANCH   15   13
ATOM     13  C12 UNL A   1       8.677  54.785   5.541  1.00  0.00    +0.000 C 
ATOM     14  O2  UNL A   1       7.546  54.712   6.023  1.00  0.00    +0.000 O 
BRANCH   13   12
ATOM     12  C11 UNL A   1       9.160  53.766   4.526  1.00  0.00    +0.000 C 
ATOM    109  H10 UNL A   1       8.843  52.794   4.840  1.00  0.00    +0.000 H 
ATOM    110  H11 UNL A   1       8.741  54.034   3.578  1.00  0.00    +0.000 H 
BRANCH   12   11
ATOM     11  C10 UNL A   1      10.681  53.758   4.373  1.00  0.00    +0.000 C 
ATOM    108  H9  UNL A   1      11.025  52.793   4.679  1.00  0.00    +0.000 H 
ATOM    107  H8  UNL A   1      11.087  54.542   4.979  1.00  0.00    +0.000 H 
BRANCH   11   10
ATOM      7  C6  UNL A   1      12.212  53.536   1.011  1.00  0.00    +0.000 C 
ATOM      8  C7  UNL A   1      11.868  54.880   1.032  1.00  0.00    +0.000 C 
ATOM      9  C8  UNL A   1      11.192  55.147   2.239  1.00  0.00    +0.000 C 
ATOM     10  C9  UNL A   1      11.136  53.967   2.952  1.00  0.00    +0.000 C 
ATOM    105  H6  UNL A   1      12.072  55.567   0.289  1.00  0.00    +0.000 H 
ATOM    106  H7  UNL A   1      10.809  56.059   2.536  1.00  0.00    +0.000 H 
ATOM     88  N7  UNL A   1      11.559  52.950   2.098  1.00  0.00    +0.000 N 
BRANCH    7    6
ATOM     98  C72 UNL A   1      12.116  52.226  -1.105  1.00  0.00    +0.000 C 
ATOM      3  C2  UNL A   1      14.139  51.357  -2.118  1.00  0.00    +0.000 C 
ATOM      4  C3  UNL A   1      14.887  51.939  -1.094  1.00  0.00    +0.000 C 
ATOM      5  C4  UNL A   1      14.258  52.677  -0.089  1.00  0.00    +0.000 C 
ATOM     99  C73 UNL A   1      12.750  51.494  -2.119  1.00  0.00    +0.000 C 
ATOM    103  H4  UNL A   1      15.912  51.824  -1.079  1.00  0.00    +0.000 H 
ATOM      6  C5  UNL A   1      12.868  52.828  -0.089  1.00  0.00    +0.000 C 
ATOM    104  H5  UNL A   1      14.822  53.115   0.655  1.00  0.00    +0.000 H 
ATOM    146  H47 UNL A   1      11.089  52.322  -1.108  1.00  0.00    +0.000 H 
ATOM    147  H48 UNL A   1      12.189  51.056  -2.867  1.00  0.00    +0.000 H 
BRANCH    3    2
ATOM      2  O1  UNL A   1      14.858  50.630  -3.026  1.00  0.00    +0.000 O 
BRANCH    2    1
ATOM      1  C1  UNL A   1      14.131  49.609  -3.700  1.00  0.00    +0.000 C 
ATOM    100  H1  UNL A   1      13.978  49.893  -4.720  1.00  0.00    +0.000 H 
ATOM    101  H2  UNL A   1      13.182  49.472  -3.222  1.00  0.00    +0.000 H 
ATOM    102  H3  UNL A   1      14.684  48.694  -3.664  1.00  0.00    +0.000 H 
ENDBRANCH    2    1
ENDBRANCH    3    2
ENDBRANCH    7    6
BRANCH   88   89
ATOM     97  C71 UNL A   1       9.835  51.223   1.795  1.00  0.00    +0.000 C 
ATOM    139  H40 UNL A   1      12.961  50.953   2.980  1.00  0.00    +0.000 H 
ATOM    140  H41 UNL A   1      12.232  48.678   3.383  1.00  0.00    +0.000 H 
ATOM    144  H45 UNL A   1       8.481  49.609   1.719  1.00  0.00    +0.000 H 
ATOM    145  H46 UNL A   1       9.188  51.909   1.375  1.00  0.00    +0.000 H 
ATOM     89  C64 UNL A   1      11.126  51.600   2.158  1.00  0.00    +0.000 C 
ATOM     90  C65 UNL A   1      12.002  50.669   2.728  1.00  0.00    +0.000 C 
ATOM     91  C66 UNL A   1      11.584  49.357   2.956  1.00  0.00    +0.000 C 
ATOM     92  C67 UNL A   1      10.289  48.964   2.609  1.00  0.00    +0.000 C 
ATOM     96  C70 UNL A   1       9.428  49.901   2.008  1.00  0.00    +0.000 C 
BRANCH   92   93
ATOM     93  C68 UNL A   1       9.765  47.587   2.866  1.00  0.00    +0.000 C 
ATOM     95  O4  UNL A   1      10.561  46.656   2.978  1.00  0.00    +0.000 O 
BRANCH   93   94
ATOM    143  H44 UNL A   1       7.782  47.784   2.136  1.00  0.00    +0.000 H 
ATOM    141  H42 UNL A   1       7.906  47.733   3.878  1.00  0.00    +0.000 H 
ATOM     94  C69 UNL A   1       8.281  47.324   2.963  1.00  0.00    +0.000 C 
ATOM    142  H43 UNL A   1       8.104  46.269   2.945  1.00  0.00    +0.000 H 
ENDBRANCH   93   94
ENDBRANCH   92   93
ENDBRANCH   88   89
ENDBRANCH   11   10
ENDBRANCH   12   11
ENDBRANCH   13   12
ENDBRANCH   15   13
ENDBRANCH   16   15
ENDBRANCH   17   16
ENDBRANCH   18   17
ENDBRANCH   19   18
ENDBRANCH   20   19
ENDBRANCH   21   20
ENDBRANCH   22   21
ENDBRANCH   23   22
ENDBRANCH   25   23
ENDBRANCH   29   28
BRANCH   33   34
ATOM     34  C28 UNL A   1      13.653  50.328  12.182  1.00  0.00    +0.000 C 
ATOM     35  C29 UNL A   1      12.249  50.158  12.125  1.00  0.00    +0.000 C 
ATOM     36  F1  UNL A   1      11.645  49.838  10.969  1.00  0.00    +0.000 F 
ATOM     37  C30 UNL A   1      11.428  50.397  13.227  1.00  0.00    +0.000 C 
ATOM     38  F2  UNL A   1      10.095  50.370  13.086  1.00  0.00    +0.000 F 
ATOM     39  C31 UNL A   1      11.986  50.729  14.446  1.00  0.00    +0.000 C 
ATOM     40  F3  UNL A   1      11.199  51.017  15.492  1.00  0.00    +0.000 F 
ATOM     41  C32 UNL A   1      13.363  50.800  14.567  1.00  0.00    +0.000 C 
ATOM     42  F4  UNL A   1      13.910  51.122  15.748  1.00  0.00    +0.000 F 
ATOM     43  C33 UNL A   1      14.184  50.628  13.449  1.00  0.00    +0.000 C 
ATOM     44  F5  UNL A   1      15.489  50.880  13.610  1.00  0.00    +0.000 F 
ENDBRANCH   33   34
BRANCH   50   51
ATOM     51  C39 UNL A   1      12.795  48.207   6.814  1.00  0.00    +0.000 C 
ATOM     52  C40 UNL A   1      12.241  49.486   6.820  1.00  0.00    +0.000 C 
ATOM     53  F6  UNL A   1      13.015  50.553   7.063  1.00  0.00    +0.000 F 
ATOM     54  C41 UNL A   1      10.877  49.678   6.576  1.00  0.00    +0.000 C 
ATOM     55  F7  UNL A   1      10.366  50.916   6.584  1.00  0.00    +0.000 F 
ATOM     56  C42 UNL A   1      10.041  48.598   6.318  1.00  0.00    +0.000 C 
ATOM     57  F8  UNL A   1       8.738  48.790   6.067  1.00  0.00    +0.000 F 
ATOM     58  C43 UNL A   1      10.561  47.322   6.309  1.00  0.00    +0.000 C 
ATOM     59  F9  UNL A   1       9.778  46.267   6.039  1.00  0.00    +0.000 F 
ATOM     60  C44 UNL A   1      11.913  47.134   6.568  1.00  0.00    +0.000 C 
ATOM     61  F10 UNL A   1      12.368  45.880   6.544  1.00  0.00    +0.000 F 
ENDBRANCH   50   51
BRANCH   65   66
ATOM     66  C48 UNL A   1      16.130  49.817   2.007  1.00  0.00    +0.000 C 
ATOM     67  C49 UNL A   1      15.619  48.807   1.181  1.00  0.00    +0.000 C 
ATOM     68  F11 UNL A   1      14.649  47.991   1.603  1.00  0.00    +0.000 F 
ATOM     69  C50 UNL A   1      16.118  48.574  -0.114  1.00  0.00    +0.000 C 
ATOM     70  F12 UNL A   1      15.566  47.618  -0.876  1.00  0.00    +0.000 F 
ATOM     71  C51 UNL A   1      17.168  49.319  -0.620  1.00  0.00    +0.000 C 
ATOM     72  F13 UNL A   1      17.618  49.114  -1.865  1.00  0.00    +0.000 F 
ATOM     73  C52 UNL A   1      17.754  50.268   0.183  1.00  0.00    +0.000 C 
ATOM     74  F14 UNL A   1      18.790  50.989  -0.270  1.00  0.00    +0.000 F 
ATOM     75  C53 UNL A   1      17.259  50.497   1.469  1.00  0.00    +0.000 C 
ATOM     76  F15 UNL A   1      17.923  51.421   2.176  1.00  0.00    +0.000 F 
ENDBRANCH   65   66
TORSDOF 23
ENDMDL
MODEL 5
REMARK VINA RESULT:      -6.7     44.948     49.214
ROOT
ATOM    129  H30 UNL A   1      47.221  14.657  47.372  1.00  0.00    +0.000 H 
ATOM    130  H31 UNL A   1      43.699   9.346  52.706  1.00  0.00    +0.000 H 
ATOM    131  H32 UNL A   1      42.670  11.650  52.913  1.00  0.00    +0.000 H 
ATOM    132  H33 UNL A   1      45.117  11.688  49.582  1.00  0.00    +0.000 H 
ATOM    133  H34 UNL A   1      44.154   8.841  47.621  1.00  0.00    +0.000 H 
ATOM    134  H35 UNL A   1      45.491  10.347  46.011  1.00  0.00    +0.000 H 
ATOM    135  H36 UNL A   1      43.483  17.430  48.470  1.00  0.00    +0.000 H 
ATOM    136  H37 UNL A   1      42.887  16.305  50.691  1.00  0.00    +0.000 H 
ATOM     29  C24 UNL A   1      43.225  13.450  50.762  1.00  0.00    +0.000 C 
ATOM     30  C25 UNL A   1      43.565  14.418  49.618  1.00  0.00    +0.000 C 
ATOM     31  N3  UNL A   1      44.030  14.203  48.417  1.00  0.00    +0.000 N 
ATOM     32  C26 UNL A   1      44.201  15.465  47.810  1.00  0.00    +0.000 C 
ATOM     33  C27 UNL A   1      44.940  15.707  46.687  1.00  0.00    +0.000 C 
ATOM     45  C34 UNL A   1      45.534  14.538  46.126  1.00  0.00    +0.000 C 
ATOM     46  C35 UNL A   1      45.337  13.694  45.059  1.00  0.00    +0.000 C 
ATOM     47  C36 UNL A   1      46.274  12.633  45.211  1.00  0.00    +0.000 C 
ATOM     48  C37 UNL A   1      46.869  12.800  46.456  1.00  0.00    +0.000 C 
ATOM     49  N4  UNL A   1      46.658  14.112  46.775  1.00  0.00    +0.000 N 
ATOM     50  C38 UNL A   1      47.425  11.975  47.486  1.00  0.00    +0.000 C 
ATOM     62  C45 UNL A   1      46.832  10.777  47.711  1.00  0.00    +0.000 C 
ATOM     63  N5  UNL A   1      46.933  10.142  48.930  1.00  0.00    +0.000 N 
ATOM     64  C46 UNL A   1      45.832   9.464  49.016  1.00  0.00    +0.000 C 
ATOM     65  C47 UNL A   1      45.247   8.962  50.270  1.00  0.00    +0.000 C 
ATOM     77  C54 UNL A   1      44.642  10.051  50.835  1.00  0.00    +0.000 C 
ATOM     78  C55 UNL A   1      43.834  10.119  52.036  1.00  0.00    +0.000 C 
ATOM     79  C56 UNL A   1      43.286  11.346  52.143  1.00  0.00    +0.000 C 
ATOM     80  C57 UNL A   1      43.692  12.196  51.009  1.00  0.00    +0.000 C 
ATOM     81  N6  UNL A   1      44.574  11.377  50.342  1.00  0.00    +0.000 N 
ATOM     82  C58 UNL A   1      45.019   9.373  47.803  1.00  0.00    +0.000 C 
ATOM     83  C59 UNL A   1      45.715  10.176  47.003  1.00  0.00    +0.000 C 
ATOM     84  C60 UNL A   1      43.617  16.431  48.694  1.00  0.00    +0.000 C 
ATOM     85  C61 UNL A   1      43.270  15.857  49.845  1.00  0.00    +0.000 C 
ATOM    127  H28 UNL A   1      44.647  13.807  44.300  1.00  0.00    +0.000 H 
ATOM    128  H29 UNL A   1      46.475  11.885  44.529  1.00  0.00    +0.000 H 
ENDROOT
BRANCH   29   28
ATOM    137  H38 UNL A   1      43.455  15.121  52.901  1.00  0.00    +0.000 H 
ATOM    138  H39 UNL A   1      41.655  16.098  54.212  1.00  0.00    +0.000 H 
ATOM     86  C62 UNL A   1      42.474  14.869  52.701  1.00  0.00    +0.000 C 
ATOM     87  C63 UNL A   1      41.440  15.434  53.450  1.00  0.00    +0.000 C 
ATOM     25  C20 UNL A   1      40.111  15.099  53.169  1.00  0.00    +0.000 C 
ATOM     26  C21 UNL A   1      39.823  14.160  52.168  1.00  0.00    +0.000 C 
ATOM     27  C22 UNL A   1      40.850  13.591  51.425  1.00  0.00    +0.000 C 
ATOM     28  C23 UNL A   1      42.176  13.961  51.677  1.00  0.00    +0.000 C 
ATOM    125  H26 UNL A   1      38.845  13.891  51.982  1.00  0.00    +0.000 H 
ATOM    126  H27 UNL A   1      40.636  12.899  50.690  1.00  0.00    +0.000 H 
BRANCH   25   23
ATOM     23  C19 UNL A   1      38.961  15.605  53.956  1.00  0.00    +0.000 C 
ATOM     24  O3  UNL A   1      38.110  16.287  53.410  1.00  0.00    +0.000 O 
BRANCH   23   22
ATOM    124  H25 UNL A   1      38.972  16.103  55.897  1.00  0.00    +0.000 H 
ATOM     22  N2  UNL A   1      38.827  15.338  55.295  1.00  0.00    +0.000 N 
BRANCH   22   21
ATOM    122  H23 UNL A   1      37.996  14.285  56.867  1.00  0.00    +0.000 H 
ATOM    123  H24 UNL A   1      37.872  13.511  55.295  1.00  0.00    +0.000 H 
ATOM     21  C18 UNL A   1      38.501  14.083  55.946  1.00  0.00    +0.000 C 
BRANCH   21   20
ATOM    121  H22 UNL A   1      40.102  12.895  55.292  1.00  0.00    +0.000 H 
ATOM     20  C17 UNL A   1      39.772  13.277  56.236  1.00  0.00    +0.000 C 
ATOM    120  H21 UNL A   1      39.525  12.512  56.943  1.00  0.00    +0.000 H 
BRANCH   20   19
ATOM     19  C16 UNL A   1      40.946  14.092  56.803  1.00  0.00    +0.000 C 
ATOM    118  H19 UNL A   1      40.888  15.080  56.397  1.00  0.00    +0.000 H 
ATOM    119  H20 UNL A   1      40.840  14.053  57.868  1.00  0.00    +0.000 H 
BRANCH   19   18
ATOM     18  C15 UNL A   1      42.343  13.544  56.506  1.00  0.00    +0.000 C 
ATOM    116  H17 UNL A   1      42.916  14.320  56.045  1.00  0.00    +0.000 H 
ATOM    117  H18 UNL A   1      42.749  13.222  57.442  1.00  0.00    +0.000 H 
BRANCH   18   17
ATOM     17  C14 UNL A   1      42.364  12.327  55.585  1.00  0.00    +0.000 C 
ATOM    114  H15 UNL A   1      41.487  11.748  55.781  1.00  0.00    +0.000 H 
ATOM    115  H16 UNL A   1      42.408  12.711  54.587  1.00  0.00    +0.000 H 
BRANCH   17   16
ATOM    113  H14 UNL A   1      43.456  10.564  55.106  1.00  0.00    +0.000 H 
ATOM    112  H13 UNL A   1      43.656  11.105  56.764  1.00  0.00    +0.000 H 
ATOM     16  C13 UNL A   1      43.579  11.415  55.742  1.00  0.00    +0.000 C 
BRANCH   16   15
ATOM    111  H12 UNL A   1      44.817  13.073  55.568  1.00  0.00    +0.000 H 
ATOM     15  N1  UNL A   1      44.794  12.111  55.363  1.00  0.00    +0.000 N 
BRANCH   15   13
ATOM     13  C12 UNL A   1      45.908  11.606  54.761  1.00  0.00    +0.000 C 
ATOM     14  O2  UNL A   1      46.662  12.383  54.174  1.00  0.00    +0.000 O 
BRANCH   13   12
ATOM     12  C11 UNL A   1      46.177  10.113  54.766  1.00  0.00    +0.000 C 
ATOM    109  H10 UNL A   1      46.555   9.837  55.729  1.00  0.00    +0.000 H 
ATOM    110  H11 UNL A   1      45.254   9.619  54.545  1.00  0.00    +0.000 H 
BRANCH   12   11
ATOM     11  C10 UNL A   1      47.191   9.691  53.704  1.00  0.00    +0.000 C 
ATOM    108  H9  UNL A   1      48.003  10.386  53.746  1.00  0.00    +0.000 H 
ATOM    107  H8  UNL A   1      46.706   9.696  52.749  1.00  0.00    +0.000 H 
BRANCH   11   10
ATOM      7  C6  UNL A   1      49.100   6.521  53.626  1.00  0.00    +0.000 C 
ATOM      8  C7  UNL A   1      48.007   6.128  54.386  1.00  0.00    +0.000 C 
ATOM      9  C8  UNL A   1      47.179   7.249  54.588  1.00  0.00    +0.000 C 
ATOM     10  C9  UNL A   1      47.764   8.318  53.941  1.00  0.00    +0.000 C 
ATOM    105  H6  UNL A   1      47.832   5.175  54.743  1.00  0.00    +0.000 H 
ATOM    106  H7  UNL A   1      46.295   7.267  55.120  1.00  0.00    +0.000 H 
ATOM     88  N7  UNL A   1      49.041   7.915  53.553  1.00  0.00    +0.000 N 
BRANCH    7    6
ATOM     98  C72 UNL A   1      50.957   4.967  54.210  1.00  0.00    +0.000 C 
ATOM      3  C2  UNL A   1      52.497   4.183  52.510  1.00  0.00    +0.000 C 
ATOM      4  C3  UNL A   1      51.791   4.911  51.552  1.00  0.00    +0.000 C 
ATOM      5  C4  UNL A   1      50.662   5.649  51.914  1.00  0.00    +0.000 C 
ATOM     99  C73 UNL A   1      52.084   4.217  53.843  1.00  0.00    +0.000 C 
ATOM    103  H4  UNL A   1      52.105   4.904  50.569  1.00  0.00    +0.000 H 
ATOM      6  C5  UNL A   1      50.236   5.681  53.245  1.00  0.00    +0.000 C 
ATOM    104  H5  UNL A   1      50.140   6.174  51.195  1.00  0.00    +0.000 H 
ATOM    146  H47 UNL A   1      50.657   4.992  55.196  1.00  0.00    +0.000 H 
ATOM    147  H48 UNL A   1      52.608   3.691  54.559  1.00  0.00    +0.000 H 
BRANCH    3    2
ATOM      2  O1  UNL A   1      53.604   3.527  52.047  1.00  0.00    +0.000 O 
BRANCH    2    1
ATOM      1  C1  UNL A   1      53.556   3.150  50.676  1.00  0.00    +0.000 C 
ATOM    100  H1  UNL A   1      52.603   2.717  50.457  1.00  0.00    +0.000 H 
ATOM    101  H2  UNL A   1      54.328   2.435  50.474  1.00  0.00    +0.000 H 
ATOM    102  H3  UNL A   1      53.704   4.015  50.063  1.00  0.00    +0.000 H 
ENDBRANCH    2    1
ENDBRANCH    3    2
ENDBRANCH    7    6
BRANCH   88   89
ATOM     97  C71 UNL A   1      50.581   9.256  52.184  1.00  0.00    +0.000 C 
ATOM    139  H40 UNL A   1      50.608   8.656  55.484  1.00  0.00    +0.000 H 
ATOM    140  H41 UNL A   1      52.695   9.877  55.330  1.00  0.00    +0.000 H 
ATOM    144  H45 UNL A   1      52.078  10.366  51.196  1.00  0.00    +0.000 H 
ATOM    145  H46 UNL A   1      50.017   9.083  51.337  1.00  0.00    +0.000 H 
ATOM     89  C64 UNL A   1      50.164   8.772  53.422  1.00  0.00    +0.000 C 
ATOM     90  C65 UNL A   1      50.931   9.006  54.569  1.00  0.00    +0.000 C 
ATOM     91  C66 UNL A   1      52.131   9.713  54.482  1.00  0.00    +0.000 C 
ATOM     92  C67 UNL A   1      52.571  10.198  53.247  1.00  0.00    +0.000 C 
ATOM     96  C70 UNL A   1      51.776   9.983  52.106  1.00  0.00    +0.000 C 
BRANCH   92   93
ATOM     93  C68 UNL A   1      53.866  10.924  53.077  1.00  0.00    +0.000 C 
ATOM     95  O4  UNL A   1      54.904  10.400  53.482  1.00  0.00    +0.000 O 
BRANCH   93   94
ATOM    143  H44 UNL A   1      52.947  12.749  52.502  1.00  0.00    +0.000 H 
ATOM    141  H42 UNL A   1      54.202  12.201  51.417  1.00  0.00    +0.000 H 
ATOM     94  C69 UNL A   1      53.914  12.294  52.443  1.00  0.00    +0.000 C 
ATOM    142  H43 UNL A   1      54.627  12.902  52.960  1.00  0.00    +0.000 H 
ENDBRANCH   93   94
ENDBRANCH   92   93
ENDBRANCH   88   89
ENDBRANCH   11   10
ENDBRANCH   12   11
ENDBRANCH   13   12
ENDBRANCH   15   13
ENDBRANCH   16   15
ENDBRANCH   17   16
ENDBRANCH   18   17
ENDBRANCH   19   18
ENDBRANCH   20   19
ENDBRANCH   21   20
ENDBRANCH   22   21
ENDBRANCH   23   22
ENDBRANCH   25   23
ENDBRANCH   29   28
BRANCH   33   34
ATOM     34  C28 UNL A   1      45.503  17.024  46.194  1.00  0.00    +0.000 C 
ATOM     35  C29 UNL A   1      46.432  17.713  47.010  1.00  0.00    +0.000 C 
ATOM     36  F1  UNL A   1      47.111  17.065  47.970  1.00  0.00    +0.000 F 
ATOM     37  C30 UNL A   1      46.620  19.092  46.917  1.00  0.00    +0.000 C 
ATOM     38  F2  UNL A   1      47.396  19.722  47.810  1.00  0.00    +0.000 F 
ATOM     39  C31 UNL A   1      45.953  19.818  45.950  1.00  0.00    +0.000 C 
ATOM     40  F3  UNL A   1      46.084  21.150  45.896  1.00  0.00    +0.000 F 
ATOM     41  C32 UNL A   1      45.117  19.161  45.064  1.00  0.00    +0.000 C 
ATOM     42  F4  UNL A   1      44.465  19.861  44.123  1.00  0.00    +0.000 F 
ATOM     43  C33 UNL A   1      44.874  17.791  45.197  1.00  0.00    +0.000 C 
ATOM     44  F5  UNL A   1      43.926  17.263  44.413  1.00  0.00    +0.000 F 
ENDBRANCH   33   34
BRANCH   50   51
ATOM     51  C39 UNL A   1      48.212  12.485  48.667  1.00  0.00    +0.000 C 
ATOM     52  C40 UNL A   1      49.572  12.213  48.813  1.00  0.00    +0.000 C 
ATOM     53  F6  UNL A   1      50.238  11.573  47.842  1.00  0.00    +0.000 F 
ATOM     54  C41 UNL A   1      50.261  12.602  49.967  1.00  0.00    +0.000 C 
ATOM     55  F7  UNL A   1      51.567  12.333  50.085  1.00  0.00    +0.000 F 
ATOM     56  C42 UNL A   1      49.608  13.271  50.995  1.00  0.00    +0.000 C 
ATOM     57  F8  UNL A   1      50.277  13.657  52.091  1.00  0.00    +0.000 F 
ATOM     58  C43 UNL A   1      48.263  13.549  50.879  1.00  0.00    +0.000 C 
ATOM     59  F9  UNL A   1      47.617  14.215  51.849  1.00  0.00    +0.000 F 
ATOM     60  C44 UNL A   1      47.578  13.148  49.739  1.00  0.00    +0.000 C 
ATOM     61  F10 UNL A   1      46.279  13.444  49.674  1.00  0.00    +0.000 F 
ENDBRANCH   50   51
BRANCH   65   66
ATOM     66  C48 UNL A   1      45.332   7.481  50.533  1.00  0.00    +0.000 C 
ATOM     67  C49 UNL A   1      46.507   6.760  50.786  1.00  0.00    +0.000 C 
ATOM     68  F11 UNL A   1      47.709   7.333  50.674  1.00  0.00    +0.000 F 
ATOM     69  C50 UNL A   1      46.490   5.397  51.135  1.00  0.00    +0.000 C 
ATOM     70  F12 UNL A   1      47.642   4.766  51.403  1.00  0.00    +0.000 F 
ATOM     71  C51 UNL A   1      45.300   4.694  51.211  1.00  0.00    +0.000 C 
ATOM     72  F13 UNL A   1      45.287   3.405  51.574  1.00  0.00    +0.000 F 
ATOM     73  C52 UNL A   1      44.129   5.339  50.894  1.00  0.00    +0.000 C 
ATOM     74  F14 UNL A   1      42.963   4.678  50.934  1.00  0.00    +0.000 F 
ATOM     75  C53 UNL A   1      44.148   6.691  50.546  1.00  0.00    +0.000 C 
ATOM     76  F15 UNL A   1      42.955   7.212  50.227  1.00  0.00    +0.000 F 
ENDBRANCH   65   66
TORSDOF 23
ENDMDL
MODEL 6
REMARK VINA RESULT:      -6.6     41.201     46.576
ROOT
ATOM    129  H30 UNL A   1      22.291  22.327 -12.448  1.00  0.00    +0.000 H 
ATOM    130  H31 UNL A   1      28.113  28.078 -13.899  1.00  0.00    +0.000 H 
ATOM    131  H32 UNL A   1      29.023  25.749 -14.298  1.00  0.00    +0.000 H 
ATOM    132  H33 UNL A   1      24.944  25.397 -13.738  1.00  0.00    +0.000 H 
ATOM    133  H34 UNL A   1      23.436  27.758 -15.981  1.00  0.00    +0.000 H 
ATOM    134  H35 UNL A   1      21.535  26.145 -15.322  1.00  0.00    +0.000 H 
ATOM    135  H36 UNL A   1      25.347  19.414 -14.693  1.00  0.00    +0.000 H 
ATOM    136  H37 UNL A   1      27.452  20.832 -14.358  1.00  0.00    +0.000 H 
ATOM     29  C24 UNL A   1      27.066  23.677 -14.521  1.00  0.00    +0.000 C 
ATOM     30  C25 UNL A   1      26.004  22.569 -14.598  1.00  0.00    +0.000 C 
ATOM     31  N3  UNL A   1      24.715  22.624 -14.797  1.00  0.00    +0.000 N 
ATOM     32  C26 UNL A   1      24.230  21.301 -14.718  1.00  0.00    +0.000 C 
ATOM     33  C27 UNL A   1      22.919  20.950 -14.565  1.00  0.00    +0.000 C 
ATOM     45  C34 UNL A   1      22.027  22.061 -14.515  1.00  0.00    +0.000 C 
ATOM     46  C35 UNL A   1      21.115  22.687 -15.332  1.00  0.00    +0.000 C 
ATOM     47  C36 UNL A   1      20.684  23.849 -14.630  1.00  0.00    +0.000 C 
ATOM     48  C37 UNL A   1      21.487  23.956 -13.501  1.00  0.00    +0.000 C 
ATOM     49  N4  UNL A   1      21.996  22.703 -13.309  1.00  0.00    +0.000 N 
ATOM     50  C38 UNL A   1      22.026  24.996 -12.676  1.00  0.00    +0.000 C 
ATOM     62  C45 UNL A   1      22.393  26.148 -13.289  1.00  0.00    +0.000 C 
ATOM     63  N5  UNL A   1      23.337  26.988 -12.737  1.00  0.00    +0.000 N 
ATOM     64  C46 UNL A   1      23.883  27.554 -13.766  1.00  0.00    +0.000 C 
ATOM     65  C47 UNL A   1      25.207  28.199 -13.769  1.00  0.00    +0.000 C 
ATOM     77  C54 UNL A   1      26.100  27.166 -13.841  1.00  0.00    +0.000 C 
ATOM     78  C55 UNL A   1      27.543  27.220 -13.964  1.00  0.00    +0.000 C 
ATOM     79  C56 UNL A   1      28.025  25.979 -14.178  1.00  0.00    +0.000 C 
ATOM     80  C57 UNL A   1      26.927  24.996 -14.215  1.00  0.00    +0.000 C 
ATOM     81  N6  UNL A   1      25.838  25.775 -13.905  1.00  0.00    +0.000 N 
ATOM     82  C58 UNL A   1      23.222  27.355 -15.056  1.00  0.00    +0.000 C 
ATOM     83  C59 UNL A   1      22.268  26.504 -14.692  1.00  0.00    +0.000 C 
ATOM     84  C60 UNL A   1      25.377  20.445 -14.643  1.00  0.00    +0.000 C 
ATOM     85  C61 UNL A   1      26.487  21.166 -14.501  1.00  0.00    +0.000 C 
ATOM    127  H28 UNL A   1      20.808  22.378 -16.266  1.00  0.00    +0.000 H 
ATOM    128  H29 UNL A   1      19.921  24.487 -14.905  1.00  0.00    +0.000 H 
ENDROOT
BRANCH   29   28
ATOM    137  H38 UNL A   1      28.271  23.717 -16.964  1.00  0.00    +0.000 H 
ATOM    138  H39 UNL A   1      30.584  23.172 -17.478  1.00  0.00    +0.000 H 
ATOM     86  C62 UNL A   1      28.900  23.378 -16.220  1.00  0.00    +0.000 C 
ATOM     87  C63 UNL A   1      30.230  23.069 -16.514  1.00  0.00    +0.000 C 
ATOM     25  C20 UNL A   1      31.083  22.620 -15.499  1.00  0.00    +0.000 C 
ATOM     26  C21 UNL A   1      30.588  22.433 -14.201  1.00  0.00    +0.000 C 
ATOM     27  C22 UNL A   1      29.264  22.733 -13.906  1.00  0.00    +0.000 C 
ATOM     28  C23 UNL A   1      28.423  23.225 -14.911  1.00  0.00    +0.000 C 
ATOM    125  H26 UNL A   1      31.210  22.072 -13.461  1.00  0.00    +0.000 H 
ATOM    126  H27 UNL A   1      28.901  22.593 -12.950  1.00  0.00    +0.000 H 
BRANCH   25   23
ATOM     23  C19 UNL A   1      32.488  22.213 -15.741  1.00  0.00    +0.000 C 
ATOM     24  O3  UNL A   1      32.840  21.901 -16.866  1.00  0.00    +0.000 O 
BRANCH   23   22
ATOM    124  H25 UNL A   1      33.500  21.295 -14.275  1.00  0.00    +0.000 H 
ATOM     22  N2  UNL A   1      33.412  22.165 -14.728  1.00  0.00    +0.000 N 
BRANCH   22   21
ATOM    122  H23 UNL A   1      35.283  22.858 -14.194  1.00  0.00    +0.000 H 
ATOM    123  H24 UNL A   1      34.208  24.059 -14.890  1.00  0.00    +0.000 H 
ATOM     21  C18 UNL A   1      34.277  23.218 -14.232  1.00  0.00    +0.000 C 
BRANCH   21   20
ATOM    121  H22 UNL A   1      34.732  24.020 -12.347  1.00  0.00    +0.000 H 
ATOM     20  C17 UNL A   1      33.847  23.655 -12.827  1.00  0.00    +0.000 C 
ATOM    120  H21 UNL A   1      33.414  22.810 -12.335  1.00  0.00    +0.000 H 
BRANCH   20   19
ATOM     19  C16 UNL A   1      32.830  24.807 -12.784  1.00  0.00    +0.000 C 
ATOM    118  H19 UNL A   1      33.368  25.725 -12.895  1.00  0.00    +0.000 H 
ATOM    119  H20 UNL A   1      32.136  24.612 -13.576  1.00  0.00    +0.000 H 
BRANCH   19   18
ATOM     18  C15 UNL A   1      31.989  24.907 -11.510  1.00  0.00    +0.000 C 
ATOM    116  H17 UNL A   1      31.836  23.918 -11.132  1.00  0.00    +0.000 H 
ATOM    117  H18 UNL A   1      32.532  25.534 -10.835  1.00  0.00    +0.000 H 
BRANCH   18   17
ATOM     17  C14 UNL A   1      30.622  25.559 -11.702  1.00  0.00    +0.000 C 
ATOM    114  H15 UNL A   1      30.731  26.610 -11.540  1.00  0.00    +0.000 H 
ATOM    115  H16 UNL A   1      30.311  25.309 -12.694  1.00  0.00    +0.000 H 
BRANCH   17   16
ATOM    113  H14 UNL A   1      29.348  24.013 -10.982  1.00  0.00    +0.000 H 
ATOM    112  H13 UNL A   1      28.631  25.615 -10.936  1.00  0.00    +0.000 H 
ATOM     16  C13 UNL A   1      29.523  25.047 -10.771  1.00  0.00    +0.000 C 
BRANCH   16   15
ATOM    111  H12 UNL A   1      30.894  25.220  -9.221  1.00  0.00    +0.000 H 
ATOM     15  N1  UNL A   1      29.924  25.180  -9.384  1.00  0.00    +0.000 N 
BRANCH   15   13
ATOM     13  C12 UNL A   1      29.133  25.259  -8.276  1.00  0.00    +0.000 C 
ATOM     14  O2  UNL A   1      27.978  25.665  -8.407  1.00  0.00    +0.000 O 
BRANCH   13   12
ATOM     12  C11 UNL A   1      29.687  24.910  -6.908  1.00  0.00    +0.000 C 
ATOM    109  H10 UNL A   1      30.454  25.614  -6.659  1.00  0.00    +0.000 H 
ATOM    110  H11 UNL A   1      28.874  24.945  -6.213  1.00  0.00    +0.000 H 
BRANCH   12   11
ATOM     11  C10 UNL A   1      30.281  23.502  -6.852  1.00  0.00    +0.000 C 
ATOM    108  H9  UNL A   1      30.627  23.344  -5.852  1.00  0.00    +0.000 H 
ATOM    107  H8  UNL A   1      31.075  23.440  -7.567  1.00  0.00    +0.000 H 
BRANCH   11   10
ATOM      7  C6  UNL A   1      28.095  20.948  -8.399  1.00  0.00    +0.000 C 
ATOM      8  C7  UNL A   1      27.429  21.141  -7.196  1.00  0.00    +0.000 C 
ATOM      9  C8  UNL A   1      28.169  22.054  -6.420  1.00  0.00    +0.000 C 
ATOM     10  C9  UNL A   1      29.277  22.421  -7.156  1.00  0.00    +0.000 C 
ATOM    105  H6  UNL A   1      26.543  20.690  -6.919  1.00  0.00    +0.000 H 
ATOM    106  H7  UNL A   1      27.927  22.388  -5.474  1.00  0.00    +0.000 H 
ATOM     88  N7  UNL A   1      29.337  21.573  -8.261  1.00  0.00    +0.000 N 
BRANCH    7    6
ATOM     98  C72 UNL A   1      26.746  20.397 -10.419  1.00  0.00    +0.000 C 
ATOM      3  C2  UNL A   1      26.865  18.196 -11.426  1.00  0.00    +0.000 C 
ATOM      4  C3  UNL A   1      27.803  17.821 -10.464  1.00  0.00    +0.000 C 
ATOM      5  C4  UNL A   1      28.227  18.731  -9.495  1.00  0.00    +0.000 C 
ATOM     99  C73 UNL A   1      26.329  19.484 -11.399  1.00  0.00    +0.000 C 
ATOM    103  H4  UNL A   1      28.187  16.862 -10.469  1.00  0.00    +0.000 H 
ATOM      6  C5  UNL A   1      27.703  20.027  -9.467  1.00  0.00    +0.000 C 
ATOM    104  H5  UNL A   1      28.931  18.447  -8.796  1.00  0.00    +0.000 H 
ATOM    146  H47 UNL A   1      26.345  21.348 -10.401  1.00  0.00    +0.000 H 
ATOM    147  H48 UNL A   1      25.626  19.765 -12.100  1.00  0.00    +0.000 H 
BRANCH    3    2
ATOM      2  O1  UNL A   1      26.501  17.211 -12.303  1.00  0.00    +0.000 O 
BRANCH    2    1
ATOM      1  C1  UNL A   1      27.283  17.135 -13.489  1.00  0.00    +0.000 C 
ATOM    100  H1  UNL A   1      26.647  16.919 -14.323  1.00  0.00    +0.000 H 
ATOM    101  H2  UNL A   1      28.013  16.358 -13.386  1.00  0.00    +0.000 H 
ATOM    102  H3  UNL A   1      27.777  18.070 -13.651  1.00  0.00    +0.000 H 
ENDBRANCH    2    1
ENDBRANCH    3    2
ENDBRANCH    7    6
BRANCH   88   89
ATOM     97  C71 UNL A   1      30.860  21.647 -10.189  1.00  0.00    +0.000 C 
ATOM    139  H40 UNL A   1      31.052  19.842  -7.368  1.00  0.00    +0.000 H 
ATOM    140  H41 UNL A   1      32.954  18.890  -8.528  1.00  0.00    +0.000 H 
ATOM    144  H45 UNL A   1      32.242  21.473 -11.772  1.00  0.00    +0.000 H 
ATOM    145  H46 UNL A   1      30.293  22.383 -10.639  1.00  0.00    +0.000 H 
ATOM     89  C64 UNL A   1      30.527  21.175  -8.922  1.00  0.00    +0.000 C 
ATOM     90  C65 UNL A   1      31.297  20.176  -8.314  1.00  0.00    +0.000 C 
ATOM     91  C66 UNL A   1      32.395  19.630  -8.979  1.00  0.00    +0.000 C 
ATOM     92  C67 UNL A   1      32.737  20.084 -10.255  1.00  0.00    +0.000 C 
ATOM     96  C70 UNL A   1      31.975  21.110 -10.844  1.00  0.00    +0.000 C 
BRANCH   92   93
ATOM     93  C68 UNL A   1      33.875  19.512 -11.040  1.00  0.00    +0.000 C 
ATOM     95  O4  UNL A   1      34.934  19.263 -10.463  1.00  0.00    +0.000 O 
BRANCH   93   94
ATOM    143  H44 UNL A   1      33.893  20.179 -13.054  1.00  0.00    +0.000 H 
ATOM    141  H42 UNL A   1      32.776  18.873 -12.738  1.00  0.00    +0.000 H 
ATOM     94  C69 UNL A   1      33.750  19.261 -12.524  1.00  0.00    +0.000 C 
ATOM    142  H43 UNL A   1      34.491  18.552 -12.829  1.00  0.00    +0.000 H 
ENDBRANCH   93   94
ENDBRANCH   92   93
ENDBRANCH   88   89
ENDBRANCH   11   10
ENDBRANCH   12   11
ENDBRANCH   13   12
ENDBRANCH   15   13
ENDBRANCH   16   15
ENDBRANCH   17   16
ENDBRANCH   18   17
ENDBRANCH   19   18
ENDBRANCH   20   19
ENDBRANCH   21   20
ENDBRANCH   22   21
ENDBRANCH   23   22
ENDBRANCH   25   23
ENDBRANCH   29   28
BRANCH   33   34
ATOM     34  C28 UNL A   1      22.346  19.632 -14.084  1.00  0.00    +0.000 C 
ATOM     35  C29 UNL A   1      21.289  19.044 -14.818  1.00  0.00    +0.000 C 
ATOM     36  F1  UNL A   1      21.069  19.389 -16.096  1.00  0.00    +0.000 F 
ATOM     37  C30 UNL A   1      20.385  18.157 -14.234  1.00  0.00    +0.000 C 
ATOM     38  F2  UNL A   1      19.314  17.743 -14.925  1.00  0.00    +0.000 F 
ATOM     39  C31 UNL A   1      20.554  17.759 -12.922  1.00  0.00    +0.000 C 
ATOM     40  F3  UNL A   1      19.655  16.954 -12.339  1.00  0.00    +0.000 F 
ATOM     41  C32 UNL A   1      21.639  18.231 -12.204  1.00  0.00    +0.000 C 
ATOM     42  F4  UNL A   1      21.809  17.850 -10.929  1.00  0.00    +0.000 F 
ATOM     43  C33 UNL A   1      22.508  19.172 -12.764  1.00  0.00    +0.000 C 
ATOM     44  F5  UNL A   1      23.429  19.708 -11.953  1.00  0.00    +0.000 F 
ENDBRANCH   33   34
BRANCH   50   51
ATOM     51  C39 UNL A   1      22.713  24.776 -11.352  1.00  0.00    +0.000 C 
ATOM     52  C40 UNL A   1      22.182  25.268 -10.160  1.00  0.00    +0.000 C 
ATOM     53  F6  UNL A   1      20.981  25.864 -10.155  1.00  0.00    +0.000 F 
ATOM     54  C41 UNL A   1      22.886  25.148  -8.958  1.00  0.00    +0.000 C 
ATOM     55  F7  UNL A   1      22.356  25.625  -7.825  1.00  0.00    +0.000 F 
ATOM     56  C42 UNL A   1      24.133  24.534  -8.921  1.00  0.00    +0.000 C 
ATOM     57  F8  UNL A   1      24.795  24.407  -7.762  1.00  0.00    +0.000 F 
ATOM     58  C43 UNL A   1      24.684  24.043 -10.085  1.00  0.00    +0.000 C 
ATOM     59  F9  UNL A   1      25.875  23.425 -10.069  1.00  0.00    +0.000 F 
ATOM     60  C44 UNL A   1      23.988  24.177 -11.280  1.00  0.00    +0.000 C 
ATOM     61  F10 UNL A   1      24.563  23.682 -12.377  1.00  0.00    +0.000 F 
ENDBRANCH   50   51
BRANCH   65   66
ATOM     66  C48 UNL A   1      25.247  29.704 -13.825  1.00  0.00    +0.000 C 
ATOM     67  C49 UNL A   1      25.012  30.571 -12.749  1.00  0.00    +0.000 C 
ATOM     68  F11 UNL A   1      24.583  30.111 -11.570  1.00  0.00    +0.000 F 
ATOM     69  C50 UNL A   1      25.180  31.963 -12.857  1.00  0.00    +0.000 C 
ATOM     70  F12 UNL A   1      24.978  32.742 -11.785  1.00  0.00    +0.000 F 
ATOM     71  C51 UNL A   1      25.556  32.547 -14.054  1.00  0.00    +0.000 C 
ATOM     72  F13 UNL A   1      25.745  33.870 -14.144  1.00  0.00    +0.000 F 
ATOM     73  C52 UNL A   1      25.721  31.745 -15.158  1.00  0.00    +0.000 C 
ATOM     74  F14 UNL A   1      26.061  32.283 -16.339  1.00  0.00    +0.000 F 
ATOM     75  C53 UNL A   1      25.551  30.363 -15.050  1.00  0.00    +0.000 C 
ATOM     76  F15 UNL A   1      25.705  29.681 -16.192  1.00  0.00    +0.000 F 
ENDBRANCH   65   66
TORSDOF 23
ENDMDL
MODEL 7
REMARK VINA RESULT:      -6.6      2.168      3.987
ROOT
ATOM    129  H30 UNL A   1       9.581   0.215  26.833  1.00  0.00    +0.000 H 
ATOM    130  H31 UNL A   1       6.602  -4.024  20.335  1.00  0.00    +0.000 H 
ATOM    131  H32 UNL A   1       7.869  -1.970  19.570  1.00  0.00    +0.000 H 
ATOM    132  H33 UNL A   1       8.530  -2.384  23.629  1.00  0.00    +0.000 H 
ATOM    133  H34 UNL A   1       9.602  -5.774  24.111  1.00  0.00    +0.000 H 
ATOM    134  H35 UNL A   1      10.289  -4.537  26.266  1.00  0.00    +0.000 H 
ATOM    135  H36 UNL A   1      12.180   2.467  23.510  1.00  0.00    +0.000 H 
ATOM    136  H37 UNL A   1      10.708   1.886  21.498  1.00  0.00    +0.000 H 
ATOM     29  C24 UNL A   1       9.534  -0.739  21.541  1.00  0.00    +0.000 C 
ATOM     30  C25 UNL A   1      10.394  -0.065  22.623  1.00  0.00    +0.000 C 
ATOM     31  N3  UNL A   1      10.836  -0.506  23.769  1.00  0.00    +0.000 N 
ATOM     32  C26 UNL A   1      11.534   0.559  24.377  1.00  0.00    +0.000 C 
ATOM     33  C27 UNL A   1      11.886   0.621  25.695  1.00  0.00    +0.000 C 
ATOM     45  C34 UNL A   1      11.507  -0.530  26.447  1.00  0.00    +0.000 C 
ATOM     46  C35 UNL A   1      12.097  -1.648  26.986  1.00  0.00    +0.000 C 
ATOM     47  C36 UNL A   1      11.038  -2.446  27.508  1.00  0.00    +0.000 C 
ATOM     48  C37 UNL A   1       9.851  -1.850  27.100  1.00  0.00    +0.000 C 
ATOM     49  N4  UNL A   1      10.187  -0.560  26.800  1.00  0.00    +0.000 N 
ATOM     50  C38 UNL A   1       8.521  -2.258  26.757  1.00  0.00    +0.000 C 
ATOM     62  C45 UNL A   1       8.382  -3.438  26.106  1.00  0.00    +0.000 C 
ATOM     63  N5  UNL A   1       7.284  -3.698  25.313  1.00  0.00    +0.000 N 
ATOM     64  C46 UNL A   1       7.740  -4.513  24.415  1.00  0.00    +0.000 C 
ATOM     65  C47 UNL A   1       7.114  -4.760  23.106  1.00  0.00    +0.000 C 
ATOM     77  C54 UNL A   1       7.475  -3.686  22.338  1.00  0.00    +0.000 C 
ATOM     78  C55 UNL A   1       7.212  -3.446  20.933  1.00  0.00    +0.000 C 
ATOM     79  C56 UNL A   1       7.890  -2.353  20.528  1.00  0.00    +0.000 C 
ATOM     80  C57 UNL A   1       8.662  -1.778  21.644  1.00  0.00    +0.000 C 
ATOM     81  N6  UNL A   1       8.274  -2.573  22.697  1.00  0.00    +0.000 N 
ATOM     82  C58 UNL A   1       9.074  -5.067  24.646  1.00  0.00    +0.000 C 
ATOM     83  C59 UNL A   1       9.412  -4.396  25.743  1.00  0.00    +0.000 C 
ATOM     84  C60 UNL A   1      11.624   1.604  23.400  1.00  0.00    +0.000 C 
ATOM     85  C61 UNL A   1      10.889   1.306  22.331  1.00  0.00    +0.000 C 
ATOM    127  H28 UNL A   1      13.105  -1.867  27.007  1.00  0.00    +0.000 H 
ATOM    128  H29 UNL A   1      11.133  -3.300  28.078  1.00  0.00    +0.000 H 
ENDROOT
BRANCH   29   28
ATOM    137  H38 UNL A   1       7.953   0.882  20.026  1.00  0.00    +0.000 H 
ATOM    138  H39 UNL A   1       8.507   1.914  17.896  1.00  0.00    +0.000 H 
ATOM     86  C62 UNL A   1       8.857   0.678  19.573  1.00  0.00    +0.000 C 
ATOM     87  C63 UNL A   1       9.178   1.275  18.351  1.00  0.00    +0.000 C 
ATOM     25  C20 UNL A   1      10.409   1.004  17.745  1.00  0.00    +0.000 C 
ATOM     26  C21 UNL A   1      11.297   0.096  18.339  1.00  0.00    +0.000 C 
ATOM     27  C22 UNL A   1      10.979  -0.504  19.551  1.00  0.00    +0.000 C 
ATOM     28  C23 UNL A   1       9.766  -0.199  20.179  1.00  0.00    +0.000 C 
ATOM    125  H26 UNL A   1      12.191  -0.126  17.875  1.00  0.00    +0.000 H 
ATOM    126  H27 UNL A   1      11.634  -1.173  19.986  1.00  0.00    +0.000 H 
BRANCH   25   23
ATOM     23  C19 UNL A   1      10.799   1.546  16.421  1.00  0.00    +0.000 C 
ATOM     24  O3  UNL A   1      11.163   0.784  15.542  1.00  0.00    +0.000 O 
BRANCH   23   22
ATOM    124  H25 UNL A   1       9.937   3.230  15.761  1.00  0.00    +0.000 H 
ATOM     22  N2  UNL A   1      10.774   2.891  16.154  1.00  0.00    +0.000 N 
BRANCH   22   21
ATOM    122  H23 UNL A   1      12.643   3.667  15.738  1.00  0.00    +0.000 H 
ATOM    123  H24 UNL A   1      11.412   4.852  16.143  1.00  0.00    +0.000 H 
ATOM     21  C18 UNL A   1      11.809   3.884  16.371  1.00  0.00    +0.000 C 
BRANCH   21   20
ATOM    121  H22 UNL A   1      13.244   4.322  17.838  1.00  0.00    +0.000 H 
ATOM     20  C17 UNL A   1      12.272   3.874  17.832  1.00  0.00    +0.000 C 
ATOM    120  H21 UNL A   1      12.268   2.860  18.174  1.00  0.00    +0.000 H 
BRANCH   20   19
ATOM     19  C16 UNL A   1      11.410   4.707  18.796  1.00  0.00    +0.000 C 
ATOM    118  H19 UNL A   1      11.975   5.569  19.080  1.00  0.00    +0.000 H 
ATOM    119  H20 UNL A   1      10.511   4.933  18.260  1.00  0.00    +0.000 H 
BRANCH   19   18
ATOM     18  C15 UNL A   1      10.963   3.995  20.074  1.00  0.00    +0.000 C 
ATOM    116  H17 UNL A   1      11.136   2.947  19.952  1.00  0.00    +0.000 H 
ATOM    117  H18 UNL A   1      11.530   4.422  20.874  1.00  0.00    +0.000 H 
BRANCH   18   17
ATOM     17  C14 UNL A   1       9.493   4.196  20.431  1.00  0.00    +0.000 C 
ATOM    114  H15 UNL A   1       8.990   4.572  19.566  1.00  0.00    +0.000 H 
ATOM    115  H16 UNL A   1       9.133   3.241  20.753  1.00  0.00    +0.000 H 
BRANCH   17   16
ATOM    113  H14 UNL A   1       8.297   5.653  21.420  1.00  0.00    +0.000 H 
ATOM    112  H13 UNL A   1      10.026   5.877  21.633  1.00  0.00    +0.000 H 
ATOM     16  C13 UNL A   1       9.232   5.160  21.587  1.00  0.00    +0.000 C 
BRANCH   16   15
ATOM    111  H12 UNL A   1      10.023   4.120  23.201  1.00  0.00    +0.000 H 
ATOM     15  N1  UNL A   1       9.163   4.443  22.847  1.00  0.00    +0.000 N 
BRANCH   15   13
ATOM     13  C12 UNL A   1       8.066   4.159  23.602  1.00  0.00    +0.000 C 
ATOM     14  O2  UNL A   1       7.102   3.616  23.059  1.00  0.00    +0.000 O 
BRANCH   13   12
ATOM     12  C11 UNL A   1       8.014   4.556  25.065  1.00  0.00    +0.000 C 
ATOM    109  H10 UNL A   1       8.763   4.007  25.596  1.00  0.00    +0.000 H 
ATOM    110  H11 UNL A   1       8.183   5.612  25.117  1.00  0.00    +0.000 H 
BRANCH   12   11
ATOM     11  C10 UNL A   1       6.655   4.275  25.707  1.00  0.00    +0.000 C 
ATOM    108  H9  UNL A   1       6.841   3.801  26.648  1.00  0.00    +0.000 H 
ATOM    107  H8  UNL A   1       6.090   3.650  25.046  1.00  0.00    +0.000 H 
BRANCH   11   10
ATOM      7  C6  UNL A   1       4.692   7.408  25.535  1.00  0.00    +0.000 C 
ATOM      8  C7  UNL A   1       5.095   7.446  26.863  1.00  0.00    +0.000 C 
ATOM      9  C8  UNL A   1       5.817   6.269  27.143  1.00  0.00    +0.000 C 
ATOM     10  C9  UNL A   1       5.858   5.523  25.983  1.00  0.00    +0.000 C 
ATOM    105  H6  UNL A   1       4.900   8.209  27.530  1.00  0.00    +0.000 H 
ATOM    106  H7  UNL A   1       6.238   6.013  28.050  1.00  0.00    +0.000 H 
ATOM     88  N7  UNL A   1       4.981   6.119  25.078  1.00  0.00    +0.000 N 
BRANCH    7    6
ATOM     98  C72 UNL A   1       2.478   8.444  25.057  1.00  0.00    +0.000 C 
ATOM      3  C2  UNL A   1       2.270  10.229  23.431  1.00  0.00    +0.000 C 
ATOM      4  C3  UNL A   1       3.647  10.173  23.212  1.00  0.00    +0.000 C 
ATOM      5  C4  UNL A   1       4.441   9.271  23.924  1.00  0.00    +0.000 C 
ATOM     99  C73 UNL A   1       1.684   9.357  24.350  1.00  0.00    +0.000 C 
ATOM    103  H4  UNL A   1       4.082  10.802  22.519  1.00  0.00    +0.000 H 
ATOM      6  C5  UNL A   1       3.863   8.402  24.853  1.00  0.00    +0.000 C 
ATOM    104  H5  UNL A   1       5.460   9.247  23.763  1.00  0.00    +0.000 H 
ATOM    146  H47 UNL A   1       2.040   7.800  25.733  1.00  0.00    +0.000 H 
ATOM    147  H48 UNL A   1       0.664   9.385  24.508  1.00  0.00    +0.000 H 
BRANCH    3    2
ATOM      2  O1  UNL A   1       1.591  11.125  22.653  1.00  0.00    +0.000 O 
BRANCH    2    1
ATOM      1  C1  UNL A   1       0.508  11.788  23.295  1.00  0.00    +0.000 C 
ATOM    100  H1  UNL A   1      -0.261  11.079  23.522  1.00  0.00    +0.000 H 
ATOM    101  H2  UNL A   1       0.116  12.544  22.646  1.00  0.00    +0.000 H 
ATOM    102  H3  UNL A   1       0.853  12.240  24.201  1.00  0.00    +0.000 H 
ENDBRANCH    2    1
ENDBRANCH    3    2
ENDBRANCH    7    6
BRANCH   88   89
ATOM     97  C71 UNL A   1       3.336   4.440  24.358  1.00  0.00    +0.000 C 
ATOM    139  H40 UNL A   1       5.302   6.445  22.525  1.00  0.00    +0.000 H 
ATOM    140  H41 UNL A   1       4.343   5.145  20.720  1.00  0.00    +0.000 H 
ATOM    144  H45 UNL A   1       2.059   2.987  23.519  1.00  0.00    +0.000 H 
ATOM    145  H46 UNL A   1       3.070   4.245  25.337  1.00  0.00    +0.000 H 
ATOM     89  C64 UNL A   1       4.265   5.435  24.063  1.00  0.00    +0.000 C 
ATOM     90  C65 UNL A   1       4.624   5.697  22.735  1.00  0.00    +0.000 C 
ATOM     91  C66 UNL A   1       4.069   4.951  21.695  1.00  0.00    +0.000 C 
ATOM     92  C67 UNL A   1       3.143   3.942  21.973  1.00  0.00    +0.000 C 
ATOM     96  C70 UNL A   1       2.766   3.709  23.309  1.00  0.00    +0.000 C 
BRANCH   92   93
ATOM     93  C68 UNL A   1       2.543   3.078  20.910  1.00  0.00    +0.000 C 
ATOM     95  O4  UNL A   1       1.722   3.568  20.135  1.00  0.00    +0.000 O 
BRANCH   93   94
ATOM    143  H44 UNL A   1       2.089   1.016  21.114  1.00  0.00    +0.000 H 
ATOM    141  H42 UNL A   1       3.764   1.416  21.406  1.00  0.00    +0.000 H 
ATOM     94  C69 UNL A   1       2.912   1.618  20.792  1.00  0.00    +0.000 C 
ATOM    142  H43 UNL A   1       3.145   1.391  19.772  1.00  0.00    +0.000 H 
ENDBRANCH   93   94
ENDBRANCH   92   93
ENDBRANCH   88   89
ENDBRANCH   11   10
ENDBRANCH   12   11
ENDBRANCH   13   12
ENDBRANCH   15   13
ENDBRANCH   16   15
ENDBRANCH   17   16
ENDBRANCH   18   17
ENDBRANCH   19   18
ENDBRANCH   20   19
ENDBRANCH   21   20
ENDBRANCH   22   21
ENDBRANCH   23   22
ENDBRANCH   25   23
ENDBRANCH   29   28
BRANCH   33   34
ATOM     34  C28 UNL A   1      12.266   1.838  26.514  1.00  0.00    +0.000 C 
ATOM     35  C29 UNL A   1      13.591   1.944  26.997  1.00  0.00    +0.000 C 
ATOM     36  F1  UNL A   1      14.584   1.240  26.429  1.00  0.00    +0.000 F 
ATOM     37  C30 UNL A   1      13.912   2.704  28.121  1.00  0.00    +0.000 C 
ATOM     38  F2  UNL A   1      15.152   2.655  28.630  1.00  0.00    +0.000 F 
ATOM     39  C31 UNL A   1      12.938   3.453  28.751  1.00  0.00    +0.000 C 
ATOM     40  F3  UNL A   1      13.228   4.138  29.866  1.00  0.00    +0.000 F 
ATOM     41  C32 UNL A   1      11.650   3.458  28.243  1.00  0.00    +0.000 C 
ATOM     42  F4  UNL A   1      10.700   4.183  28.852  1.00  0.00    +0.000 F 
ATOM     43  C33 UNL A   1      11.311   2.645  27.158  1.00  0.00    +0.000 C 
ATOM     44  F5  UNL A   1      10.014   2.575  26.834  1.00  0.00    +0.000 F 
ENDBRANCH   33   34
BRANCH   50   51
ATOM     51  C39 UNL A   1       7.358  -1.320  26.553  1.00  0.00    +0.000 C 
ATOM     52  C40 UNL A   1       7.271  -0.495  25.431  1.00  0.00    +0.000 C 
ATOM     53  F6  UNL A   1       8.179  -0.597  24.450  1.00  0.00    +0.000 F 
ATOM     54  C41 UNL A   1       6.243   0.446  25.311  1.00  0.00    +0.000 C 
ATOM     55  F7  UNL A   1       6.178   1.225  24.225  1.00  0.00    +0.000 F 
ATOM     56  C42 UNL A   1       5.281   0.580  26.305  1.00  0.00    +0.000 C 
ATOM     57  F8  UNL A   1       4.288   1.471  26.176  1.00  0.00    +0.000 F 
ATOM     58  C43 UNL A   1       5.345  -0.219  27.426  1.00  0.00    +0.000 C 
ATOM     59  F9  UNL A   1       4.414  -0.123  28.387  1.00  0.00    +0.000 F 
ATOM     60  C44 UNL A   1       6.376  -1.142  27.549  1.00  0.00    +0.000 C 
ATOM     61  F10 UNL A   1       6.391  -1.893  28.651  1.00  0.00    +0.000 F 
ENDBRANCH   50   51
BRANCH   65   66
ATOM     66  C48 UNL A   1       6.412  -6.078  22.907  1.00  0.00    +0.000 C 
ATOM     67  C49 UNL A   1       6.798  -7.085  22.013  1.00  0.00    +0.000 C 
ATOM     68  F11 UNL A   1       7.783  -6.890  21.132  1.00  0.00    +0.000 F 
ATOM     69  C50 UNL A   1       6.153  -8.335  21.970  1.00  0.00    +0.000 C 
ATOM     70  F12 UNL A   1       6.588  -9.277  21.120  1.00  0.00    +0.000 F 
ATOM     71  C51 UNL A   1       5.077  -8.614  22.793  1.00  0.00    +0.000 C 
ATOM     72  F13 UNL A   1       4.487  -9.816  22.769  1.00  0.00    +0.000 F 
ATOM     73  C52 UNL A   1       4.612  -7.628  23.631  1.00  0.00    +0.000 C 
ATOM     74  F14 UNL A   1       3.555  -7.860  24.424  1.00  0.00    +0.000 F 
ATOM     75  C53 UNL A   1       5.252  -6.388  23.672  1.00  0.00    +0.000 C 
ATOM     76  F15 UNL A   1       4.698  -5.491  24.500  1.00  0.00    +0.000 F 
ENDBRANCH   65   66
TORSDOF 23
ENDMDL
MODEL 8
REMARK VINA RESULT:      -6.5      2.097      4.811
ROOT
ATOM    129  H30 UNL A   1      10.834  -0.214  26.331  1.00  0.00    +0.000 H 
ATOM    130  H31 UNL A   1       7.221  -3.548  19.630  1.00  0.00    +0.000 H 
ATOM    131  H32 UNL A   1       8.691  -1.590  18.985  1.00  0.00    +0.000 H 
ATOM    132  H33 UNL A   1       9.410  -2.408  22.972  1.00  0.00    +0.000 H 
ATOM    133  H34 UNL A   1      10.104  -5.924  23.146  1.00  0.00    +0.000 H 
ATOM    134  H35 UNL A   1      10.985  -4.953  25.366  1.00  0.00    +0.000 H 
ATOM    135  H36 UNL A   1      13.581   2.003  23.106  1.00  0.00    +0.000 H 
ATOM    136  H37 UNL A   1      11.999   1.757  21.108  1.00  0.00    +0.000 H 
ATOM     29  C24 UNL A   1      10.538  -0.717  20.986  1.00  0.00    +0.000 C 
ATOM     30  C25 UNL A   1      11.496  -0.234  22.086  1.00  0.00    +0.000 C 
ATOM     31  N3  UNL A   1      11.916  -0.814  23.177  1.00  0.00    +0.000 N 
ATOM     32  C26 UNL A   1      12.747   0.113  23.842  1.00  0.00    +0.000 C 
ATOM     33  C27 UNL A   1      13.139   0.027  25.147  1.00  0.00    +0.000 C 
ATOM     45  C34 UNL A   1      12.652  -1.133  25.819  1.00  0.00    +0.000 C 
ATOM     46  C35 UNL A   1      13.126  -2.350  26.247  1.00  0.00    +0.000 C 
ATOM     47  C36 UNL A   1      11.998  -3.066  26.741  1.00  0.00    +0.000 C 
ATOM     48  C37 UNL A   1      10.875  -2.311  26.425  1.00  0.00    +0.000 C 
ATOM     49  N4  UNL A   1      11.347  -1.046  26.216  1.00  0.00    +0.000 N 
ATOM     50  C38 UNL A   1       9.500  -2.540  26.099  1.00  0.00    +0.000 C 
ATOM     62  C45 UNL A   1       9.210  -3.640  25.362  1.00  0.00    +0.000 C 
ATOM     63  N5  UNL A   1       8.069  -3.711  24.591  1.00  0.00    +0.000 N 
ATOM     64  C46 UNL A   1       8.406  -4.495  23.616  1.00  0.00    +0.000 C 
ATOM     65  C47 UNL A   1       7.721  -4.562  22.314  1.00  0.00    +0.000 C 
ATOM     77  C54 UNL A   1       8.180  -3.475  21.621  1.00  0.00    +0.000 C 
ATOM     78  C55 UNL A   1       7.909  -3.092  20.250  1.00  0.00    +0.000 C 
ATOM     79  C56 UNL A   1       8.694  -2.051  19.909  1.00  0.00    +0.000 C 
ATOM     80  C57 UNL A   1       9.556  -1.658  21.038  1.00  0.00    +0.000 C 
ATOM     81  N6  UNL A   1       9.109  -2.490  22.038  1.00  0.00    +0.000 N 
ATOM     82  C58 UNL A   1       9.674  -5.210  23.754  1.00  0.00    +0.000 C 
ATOM     83  C59 UNL A   1      10.115  -4.673  24.887  1.00  0.00    +0.000 C 
ATOM     84  C60 UNL A   1      12.928   1.219  22.948  1.00  0.00    +0.000 C 
ATOM     85  C61 UNL A   1      12.136   1.093  21.885  1.00  0.00    +0.000 C 
ATOM    127  H28 UNL A   1      14.103  -2.680  26.214  1.00  0.00    +0.000 H 
ATOM    128  H29 UNL A   1      12.012  -3.970  27.239  1.00  0.00    +0.000 H 
ENDROOT
BRANCH   29   28
ATOM    137  H38 UNL A   1      12.109  -1.585  18.936  1.00  0.00    +0.000 H 
ATOM    138  H39 UNL A   1      12.292  -0.626  16.709  1.00  0.00    +0.000 H 
ATOM     86  C62 UNL A   1      11.594  -0.722  18.700  1.00  0.00    +0.000 C 
ATOM     87  C63 UNL A   1      11.695  -0.174  17.419  1.00  0.00    +0.000 C 
ATOM     25  C20 UNL A   1      10.987   0.990  17.101  1.00  0.00    +0.000 C 
ATOM     26  C21 UNL A   1      10.218   1.632  18.082  1.00  0.00    +0.000 C 
ATOM     27  C22 UNL A   1      10.120   1.093  19.359  1.00  0.00    +0.000 C 
ATOM     28  C23 UNL A   1      10.792  -0.096  19.664  1.00  0.00    +0.000 C 
ATOM    125  H26 UNL A   1       9.721   2.507  17.854  1.00  0.00    +0.000 H 
ATOM    126  H27 UNL A   1       9.554   1.568  20.079  1.00  0.00    +0.000 H 
BRANCH   25   23
ATOM     23  C19 UNL A   1      11.089   1.669  15.786  1.00  0.00    +0.000 C 
ATOM     24  O3  UNL A   1      11.340   2.861  15.742  1.00  0.00    +0.000 O 
BRANCH   23   22
ATOM    124  H25 UNL A   1      11.715   0.634  14.189  1.00  0.00    +0.000 H 
ATOM     22  N2  UNL A   1      10.900   0.994  14.607  1.00  0.00    +0.000 N 
BRANCH   22   21
ATOM    122  H23 UNL A   1       9.881   0.181  13.004  1.00  0.00    +0.000 H 
ATOM    123  H24 UNL A   1       9.006   0.183  14.527  1.00  0.00    +0.000 H 
ATOM     21  C18 UNL A   1       9.665   0.739  13.891  1.00  0.00    +0.000 C 
BRANCH   21   20
ATOM    121  H22 UNL A   1       8.534   1.884  12.545  1.00  0.00    +0.000 H 
ATOM     20  C17 UNL A   1       8.981   2.054  13.503  1.00  0.00    +0.000 C 
ATOM    120  H21 UNL A   1       9.723   2.824  13.497  1.00  0.00    +0.000 H 
BRANCH   20   19
ATOM     19  C16 UNL A   1       7.840   2.497  14.436  1.00  0.00    +0.000 C 
ATOM    118  H19 UNL A   1       6.947   2.568  13.851  1.00  0.00    +0.000 H 
ATOM    119  H20 UNL A   1       7.796   1.760  15.211  1.00  0.00    +0.000 H 
BRANCH   19   18
ATOM     18  C15 UNL A   1       8.044   3.836  15.147  1.00  0.00    +0.000 C 
ATOM    116  H17 UNL A   1       9.048   4.158  14.973  1.00  0.00    +0.000 H 
ATOM    117  H18 UNL A   1       7.313   4.507  14.747  1.00  0.00    +0.000 H 
BRANCH   18   17
ATOM     17  C14 UNL A   1       7.812   3.794  16.655  1.00  0.00    +0.000 C 
ATOM    114  H15 UNL A   1       6.869   3.321  16.833  1.00  0.00    +0.000 H 
ATOM    115  H16 UNL A   1       8.642   3.260  17.068  1.00  0.00    +0.000 H 
BRANCH   17   16
ATOM    113  H14 UNL A   1       6.926   5.693  17.033  1.00  0.00    +0.000 H 
ATOM    112  H13 UNL A   1       8.681   5.697  17.078  1.00  0.00    +0.000 H 
ATOM     16  C13 UNL A   1       7.797   5.156  17.347  1.00  0.00    +0.000 C 
BRANCH   16   15
ATOM    111  H12 UNL A   1       8.604   5.154  19.260  1.00  0.00    +0.000 H 
ATOM     15  N1  UNL A   1       7.754   4.998  18.788  1.00  0.00    +0.000 N 
BRANCH   15   13
ATOM     13  C12 UNL A   1       6.692   4.664  19.574  1.00  0.00    +0.000 C 
ATOM     14  O2  UNL A   1       6.902   4.021  20.603  1.00  0.00    +0.000 O 
BRANCH   13   12
ATOM     12  C11 UNL A   1       5.280   5.026  19.155  1.00  0.00    +0.000 C 
ATOM    109  H10 UNL A   1       4.924   5.808  19.794  1.00  0.00    +0.000 H 
ATOM    110  H11 UNL A   1       5.318   5.336  18.131  1.00  0.00    +0.000 H 
BRANCH   12   11
ATOM     11  C10 UNL A   1       4.315   3.844  19.244  1.00  0.00    +0.000 C 
ATOM    108  H9  UNL A   1       3.327   4.230  19.104  1.00  0.00    +0.000 H 
ATOM    107  H8  UNL A   1       4.434   3.380  20.201  1.00  0.00    +0.000 H 
BRANCH   11   10
ATOM      7  C6  UNL A   1       5.459   0.996  17.177  1.00  0.00    +0.000 C 
ATOM      8  C7  UNL A   1       4.833   1.764  16.205  1.00  0.00    +0.000 C 
ATOM      9  C8  UNL A   1       4.259   2.889  16.830  1.00  0.00    +0.000 C 
ATOM     10  C9  UNL A   1       4.546   2.806  18.177  1.00  0.00    +0.000 C 
ATOM    105  H6  UNL A   1       4.795   1.547  15.197  1.00  0.00    +0.000 H 
ATOM    106  H7  UNL A   1       3.723   3.639  16.365  1.00  0.00    +0.000 H 
ATOM     88  N7  UNL A   1       5.080   1.539  18.407  1.00  0.00    +0.000 N 
BRANCH    7    6
ATOM     98  C72 UNL A   1       7.502  -0.361  16.739  1.00  0.00    +0.000 C 
ATOM      3  C2  UNL A   1       7.353  -2.760  16.430  1.00  0.00    +0.000 C 
ATOM      4  C3  UNL A   1       5.975  -2.689  16.636  1.00  0.00    +0.000 C 
ATOM      5  C4  UNL A   1       5.362  -1.464  16.911  1.00  0.00    +0.000 C 
ATOM     99  C73 UNL A   1       8.117  -1.593  16.474  1.00  0.00    +0.000 C 
ATOM    103  H4  UNL A   1       5.404  -3.547  16.585  1.00  0.00    +0.000 H 
ATOM      6  C5  UNL A   1       6.122  -0.292  16.967  1.00  0.00    +0.000 C 
ATOM    104  H5  UNL A   1       4.345  -1.425  17.075  1.00  0.00    +0.000 H 
ATOM    146  H47 UNL A   1       8.070   0.500  16.768  1.00  0.00    +0.000 H 
ATOM    147  H48 UNL A   1       9.135  -1.636  16.311  1.00  0.00    +0.000 H 
BRANCH    3    2
ATOM      2  O1  UNL A   1       7.836  -4.005  16.135  1.00  0.00    +0.000 O 
BRANCH    2    1
ATOM      1  C1  UNL A   1       8.927  -4.439  16.939  1.00  0.00    +0.000 C 
ATOM    100  H1  UNL A   1       8.582  -4.641  17.932  1.00  0.00    +0.000 H 
ATOM    101  H2  UNL A   1       9.675  -3.673  16.970  1.00  0.00    +0.000 H 
ATOM    102  H3  UNL A   1       9.347  -5.329  16.520  1.00  0.00    +0.000 H 
ENDBRANCH    2    1
ENDBRANCH    3    2
ENDBRANCH    7    6
BRANCH   88   89
ATOM     97  C71 UNL A   1       6.050   0.609  20.465  1.00  0.00    +0.000 C 
ATOM    139  H40 UNL A   1       2.936   0.342  19.247  1.00  0.00    +0.000 H 
ATOM    140  H41 UNL A   1       2.703  -1.148  21.142  1.00  0.00    +0.000 H 
ATOM    144  H45 UNL A   1       6.696  -0.369  22.219  1.00  0.00    +0.000 H 
ATOM    145  H46 UNL A   1       6.952   1.076  20.280  1.00  0.00    +0.000 H 
ATOM     89  C64 UNL A   1       4.963   0.811  19.619  1.00  0.00    +0.000 C 
ATOM     90  C65 UNL A   1       3.741   0.176  19.872  1.00  0.00    +0.000 C 
ATOM     91  C66 UNL A   1       3.605  -0.679  20.965  1.00  0.00    +0.000 C 
ATOM     92  C67 UNL A   1       4.688  -0.902  21.820  1.00  0.00    +0.000 C 
ATOM     96  C70 UNL A   1       5.902  -0.234  21.573  1.00  0.00    +0.000 C 
BRANCH   92   93
ATOM     93  C68 UNL A   1       4.621  -1.839  22.983  1.00  0.00    +0.000 C 
ATOM     95  O4  UNL A   1       5.584  -1.913  23.747  1.00  0.00    +0.000 O 
BRANCH   93   94
ATOM    143  H44 UNL A   1       3.464  -3.575  22.595  1.00  0.00    +0.000 H 
ATOM    141  H42 UNL A   1       2.523  -2.153  22.977  1.00  0.00    +0.000 H 
ATOM     94  C69 UNL A   1       3.407  -2.706  23.217  1.00  0.00    +0.000 C 
ATOM    142  H43 UNL A   1       3.374  -3.003  24.245  1.00  0.00    +0.000 H 
ENDBRANCH   93   94
ENDBRANCH   92   93
ENDBRANCH   88   89
ENDBRANCH   11   10
ENDBRANCH   12   11
ENDBRANCH   13   12
ENDBRANCH   15   13
ENDBRANCH   16   15
ENDBRANCH   17   16
ENDBRANCH   18   17
ENDBRANCH   19   18
ENDBRANCH   20   19
ENDBRANCH   21   20
ENDBRANCH   22   21
ENDBRANCH   23   22
ENDBRANCH   25   23
ENDBRANCH   29   28
BRANCH   33   34
ATOM     34  C28 UNL A   1      13.675   1.123  26.046  1.00  0.00    +0.000 C 
ATOM     35  C29 UNL A   1      14.958   0.961  26.620  1.00  0.00    +0.000 C 
ATOM     36  F1  UNL A   1      15.842   0.103  26.089  1.00  0.00    +0.000 F 
ATOM     37  C30 UNL A   1      15.330   1.610  27.798  1.00  0.00    +0.000 C 
ATOM     38  F2  UNL A   1      16.497   1.311  28.385  1.00  0.00    +0.000 F 
ATOM     39  C31 UNL A   1      14.467   2.507  28.395  1.00  0.00    +0.000 C 
ATOM     40  F3  UNL A   1      14.795   3.088  29.558  1.00  0.00    +0.000 F 
ATOM     41  C32 UNL A   1      13.244   2.772  27.803  1.00  0.00    +0.000 C 
ATOM     42  F4  UNL A   1      12.402   3.642  28.379  1.00  0.00    +0.000 F 
ATOM     43  C33 UNL A   1      12.842   2.074  26.661  1.00  0.00    +0.000 C 
ATOM     44  F5  UNL A   1      11.581   2.260  26.248  1.00  0.00    +0.000 F 
ENDBRANCH   33   34
BRANCH   50   51
ATOM     51  C39 UNL A   1       8.445  -1.465  26.011  1.00  0.00    +0.000 C 
ATOM     52  C40 UNL A   1       8.513  -0.450  25.058  1.00  0.00    +0.000 C 
ATOM     53  F6  UNL A   1       9.473  -0.469  24.122  1.00  0.00    +0.000 F 
ATOM     54  C41 UNL A   1       7.587   0.598  25.060  1.00  0.00    +0.000 C 
ATOM     55  F7  UNL A   1       7.668   1.561  24.133  1.00  0.00    +0.000 F 
ATOM     56  C42 UNL A   1       6.574   0.652  26.011  1.00  0.00    +0.000 C 
ATOM     57  F8  UNL A   1       5.678   1.650  25.997  1.00  0.00    +0.000 F 
ATOM     58  C43 UNL A   1       6.486  -0.336  26.967  1.00  0.00    +0.000 C 
ATOM     59  F9  UNL A   1       5.503  -0.317  27.881  1.00  0.00    +0.000 F 
ATOM     60  C44 UNL A   1       7.417  -1.367  26.972  1.00  0.00    +0.000 C 
ATOM     61  F10 UNL A   1       7.287  -2.300  27.916  1.00  0.00    +0.000 F 
ENDBRANCH   50   51
BRANCH   65   66
ATOM     66  C48 UNL A   1       6.869  -5.773  22.038  1.00  0.00    +0.000 C 
ATOM     67  C49 UNL A   1       7.113  -6.738  21.052  1.00  0.00    +0.000 C 
ATOM     68  F11 UNL A   1       8.089  -6.579  20.153  1.00  0.00    +0.000 F 
ATOM     69  C50 UNL A   1       6.331  -7.902  20.933  1.00  0.00    +0.000 C 
ATOM     70  F12 UNL A   1       6.632  -8.811  19.994  1.00  0.00    +0.000 F 
ATOM     71  C51 UNL A   1       5.254  -8.128  21.772  1.00  0.00    +0.000 C 
ATOM     72  F13 UNL A   1       4.532  -9.252  21.674  1.00  0.00    +0.000 F 
ATOM     73  C52 UNL A   1       4.928  -7.171  22.703  1.00  0.00    +0.000 C 
ATOM     74  F14 UNL A   1       3.875  -7.350  23.514  1.00  0.00    +0.000 F 
ATOM     75  C53 UNL A   1       5.704  -6.016  22.819  1.00  0.00    +0.000 C 
ATOM     76  F15 UNL A   1       5.279  -5.137  23.736  1.00  0.00    +0.000 F 
ENDBRANCH   65   66
TORSDOF 23
ENDMDL
MODEL 9
REMARK VINA RESULT:      -6.4     41.361     47.115
ROOT
ATOM    129  H30 UNL A   1      36.455  22.399 -13.907  1.00  0.00    +0.000 H 
ATOM    130  H31 UNL A   1      30.935  17.572  -9.996  1.00  0.00    +0.000 H 
ATOM    131  H32 UNL A   1      31.090  19.846  -8.893  1.00  0.00    +0.000 H 
ATOM    132  H33 UNL A   1      33.242  20.038 -12.416  1.00  0.00    +0.000 H 
ATOM    133  H34 UNL A   1      31.052  18.802 -14.976  1.00  0.00    +0.000 H 
ATOM    134  H35 UNL A   1      32.916  20.061 -16.235  1.00  0.00    +0.000 H 
ATOM    135  H36 UNL A   1      34.434  25.895 -11.346  1.00  0.00    +0.000 H 
ATOM    136  H37 UNL A   1      33.409  24.413  -9.528  1.00  0.00    +0.000 H 
ATOM     29  C24 UNL A   1      32.391  21.879 -10.426  1.00  0.00    +0.000 C 
ATOM     30  C25 UNL A   1      33.128  22.950 -11.245  1.00  0.00    +0.000 C 
ATOM     31  N3  UNL A   1      33.427  23.008 -12.514  1.00  0.00    +0.000 N 
ATOM     32  C26 UNL A   1      34.156  24.200 -12.710  1.00  0.00    +0.000 C 
ATOM     33  C27 UNL A   1      34.911  24.491 -13.811  1.00  0.00    +0.000 C 
ATOM     45  C34 UNL A   1      34.891  23.473 -14.809  1.00  0.00    +0.000 C 
ATOM     46  C35 UNL A   1      34.316  23.245 -16.036  1.00  0.00    +0.000 C 
ATOM     47  C36 UNL A   1      34.658  21.910 -16.395  1.00  0.00    +0.000 C 
ATOM     48  C37 UNL A   1      35.276  21.343 -15.287  1.00  0.00    +0.000 C 
ATOM     49  N4  UNL A   1      35.699  22.404 -14.537  1.00  0.00    +0.000 N 
ATOM     50  C38 UNL A   1      35.399  20.049 -14.686  1.00  0.00    +0.000 C 
ATOM     62  C45 UNL A   1      34.322  19.228 -14.751  1.00  0.00    +0.000 C 
ATOM     63  N5  UNL A   1      34.131  18.217 -13.834  1.00  0.00    +0.000 N 
ATOM     64  C46 UNL A   1      32.843  18.095 -13.774  1.00  0.00    +0.000 C 
ATOM     65  C47 UNL A   1      32.105  17.475 -12.661  1.00  0.00    +0.000 C 
ATOM     77  C54 UNL A   1      32.077  18.431 -11.684  1.00  0.00    +0.000 C 
ATOM     78  C55 UNL A   1      31.405  18.397 -10.400  1.00  0.00    +0.000 C 
ATOM     79  C56 UNL A   1      31.488  19.609  -9.816  1.00  0.00    +0.000 C 
ATOM     80  C57 UNL A   1      32.228  20.551 -10.675  1.00  0.00    +0.000 C 
ATOM     81  N6  UNL A   1      32.625  19.737 -11.710  1.00  0.00    +0.000 N 
ATOM     82  C58 UNL A   1      32.067  18.807 -14.790  1.00  0.00    +0.000 C 
ATOM     83  C59 UNL A   1      33.046  19.464 -15.404  1.00  0.00    +0.000 C 
ATOM     84  C60 UNL A   1      34.093  24.930 -11.478  1.00  0.00    +0.000 C 
ATOM     85  C61 UNL A   1      33.533  24.186 -10.526  1.00  0.00    +0.000 C 
ATOM    127  H28 UNL A   1      33.747  23.908 -16.586  1.00  0.00    +0.000 H 
ATOM    128  H29 UNL A   1      34.483  21.451 -17.303  1.00  0.00    +0.000 H 
ENDROOT
BRANCH   29   28
ATOM    137  H38 UNL A   1      33.119  21.737  -7.804  1.00  0.00    +0.000 H 
ATOM    138  H39 UNL A   1      32.063  22.849  -5.917  1.00  0.00    +0.000 H 
ATOM     86  C62 UNL A   1      32.264  22.298  -7.946  1.00  0.00    +0.000 C 
ATOM     87  C63 UNL A   1      31.661  22.941  -6.863  1.00  0.00    +0.000 C 
ATOM     25  C20 UNL A   1      30.509  23.710  -7.062  1.00  0.00    +0.000 C 
ATOM     26  C21 UNL A   1      29.935  23.793  -8.339  1.00  0.00    +0.000 C 
ATOM     27  C22 UNL A   1      30.529  23.151  -9.417  1.00  0.00    +0.000 C 
ATOM     28  C23 UNL A   1      31.706  22.418  -9.226  1.00  0.00    +0.000 C 
ATOM    125  H26 UNL A   1      29.068  24.336  -8.477  1.00  0.00    +0.000 H 
ATOM    126  H27 UNL A   1      30.104  23.212 -10.356  1.00  0.00    +0.000 H 
BRANCH   25   23
ATOM     23  C19 UNL A   1      29.773  24.372  -5.957  1.00  0.00    +0.000 C 
ATOM     24  O3  UNL A   1      30.282  25.314  -5.374  1.00  0.00    +0.000 O 
BRANCH   23   22
ATOM    124  H25 UNL A   1      27.808  24.611  -5.646  1.00  0.00    +0.000 H 
ATOM     22  N2  UNL A   1      28.531  23.948  -5.560  1.00  0.00    +0.000 N 
BRANCH   22   21
ATOM    122  H23 UNL A   1      29.001  22.041  -4.917  1.00  0.00    +0.000 H 
ATOM    123  H24 UNL A   1      27.659  22.805  -4.081  1.00  0.00    +0.000 H 
ATOM     21  C18 UNL A   1      28.134  22.657  -5.029  1.00  0.00    +0.000 C 
BRANCH   21   20
ATOM    121  H22 UNL A   1      26.611  22.748  -6.470  1.00  0.00    +0.000 H 
ATOM     20  C17 UNL A   1      27.145  21.965  -5.973  1.00  0.00    +0.000 C 
ATOM    120  H21 UNL A   1      26.517  21.328  -5.385  1.00  0.00    +0.000 H 
BRANCH   20   19
ATOM     19  C16 UNL A   1      27.787  21.113  -7.081  1.00  0.00    +0.000 C 
ATOM    118  H19 UNL A   1      28.820  21.385  -7.147  1.00  0.00    +0.000 H 
ATOM    119  H20 UNL A   1      27.623  20.094  -6.796  1.00  0.00    +0.000 H 
BRANCH   19   18
ATOM     18  C15 UNL A   1      27.172  21.259  -8.474  1.00  0.00    +0.000 C 
ATOM    116  H17 UNL A   1      26.203  20.808  -8.461  1.00  0.00    +0.000 H 
ATOM    117  H18 UNL A   1      27.144  22.307  -8.686  1.00  0.00    +0.000 H 
BRANCH   18   17
ATOM     17  C14 UNL A   1      27.981  20.613  -9.595  1.00  0.00    +0.000 C 
ATOM    114  H15 UNL A   1      27.712  21.088 -10.514  1.00  0.00    +0.000 H 
ATOM    115  H16 UNL A   1      29.010  20.743  -9.332  1.00  0.00    +0.000 H 
BRANCH   17   16
ATOM    113  H14 UNL A   1      27.413  18.706  -8.837  1.00  0.00    +0.000 H 
ATOM    112  H13 UNL A   1      28.705  18.652 -10.025  1.00  0.00    +0.000 H 
ATOM     16  C13 UNL A   1      27.773  19.108  -9.761  1.00  0.00    +0.000 C 
BRANCH   16   15
ATOM    111  H12 UNL A   1      25.966  18.404 -10.503  1.00  0.00    +0.000 H 
ATOM     15  N1  UNL A   1      26.799  18.837 -10.800  1.00  0.00    +0.000 N 
BRANCH   15   13
ATOM     13  C12 UNL A   1      26.885  19.104 -12.134  1.00  0.00    +0.000 C 
ATOM     14  O2  UNL A   1      26.285  18.370 -12.921  1.00  0.00    +0.000 O 
BRANCH   13   12
ATOM     12  C11 UNL A   1      27.748  20.245 -12.637  1.00  0.00    +0.000 C 
ATOM    109  H10 UNL A   1      28.244  20.693 -11.801  1.00  0.00    +0.000 H 
ATOM    110  H11 UNL A   1      28.444  19.837 -13.339  1.00  0.00    +0.000 H 
BRANCH   12   11
ATOM     11  C10 UNL A   1      26.942  21.323 -13.361  1.00  0.00    +0.000 C 
ATOM    108  H9  UNL A   1      26.291  20.825 -14.048  1.00  0.00    +0.000 H 
ATOM    107  H8  UNL A   1      27.624  21.982 -13.858  1.00  0.00    +0.000 H 
BRANCH   11   10
ATOM      7  C6  UNL A   1      25.564  23.657 -10.840  1.00  0.00    +0.000 C 
ATOM      8  C7  UNL A   1      24.481  22.804 -10.997  1.00  0.00    +0.000 C 
ATOM      9  C8  UNL A   1      24.799  21.862 -11.996  1.00  0.00    +0.000 C 
ATOM     10  C9  UNL A   1      26.077  22.140 -12.436  1.00  0.00    +0.000 C 
ATOM    105  H6  UNL A   1      23.595  22.852 -10.471  1.00  0.00    +0.000 H 
ATOM    106  H7  UNL A   1      24.187  21.103 -12.335  1.00  0.00    +0.000 H 
ATOM     88  N7  UNL A   1      26.444  23.368 -11.887  1.00  0.00    +0.000 N 
BRANCH    7    6
ATOM     98  C72 UNL A   1      24.839  25.950 -10.190  1.00  0.00    +0.000 C 
ATOM      3  C2  UNL A   1      25.867  27.091  -8.316  1.00  0.00    +0.000 C 
ATOM      4  C3  UNL A   1      26.669  25.971  -8.091  1.00  0.00    +0.000 C 
ATOM      5  C4  UNL A   1      26.546  24.839  -8.898  1.00  0.00    +0.000 C 
ATOM     99  C73 UNL A   1      24.955  27.083  -9.372  1.00  0.00    +0.000 C 
ATOM    103  H4  UNL A   1      27.358  25.981  -7.322  1.00  0.00    +0.000 H 
ATOM      6  C5  UNL A   1      25.629  24.819  -9.952  1.00  0.00    +0.000 C 
ATOM    104  H5  UNL A   1      27.135  24.012  -8.714  1.00  0.00    +0.000 H 
ATOM    146  H47 UNL A   1      24.166  25.950 -10.972  1.00  0.00    +0.000 H 
ATOM    147  H48 UNL A   1      24.367  27.912  -9.552  1.00  0.00    +0.000 H 
BRANCH    3    2
ATOM      2  O1  UNL A   1      26.099  28.152  -7.485  1.00  0.00    +0.000 O 
BRANCH    2    1
ATOM      1  C1  UNL A   1      25.534  29.388  -7.908  1.00  0.00    +0.000 C 
ATOM    100  H1  UNL A   1      24.679  29.199  -8.522  1.00  0.00    +0.000 H 
ATOM    101  H2  UNL A   1      26.261  29.940  -8.469  1.00  0.00    +0.000 H 
ATOM    102  H3  UNL A   1      25.240  29.957  -7.051  1.00  0.00    +0.000 H 
ENDBRANCH    2    1
ENDBRANCH    3    2
ENDBRANCH    7    6
BRANCH   88   89
ATOM     97  C71 UNL A   1      26.961  25.081 -13.572  1.00  0.00    +0.000 C 
ATOM    139  H40 UNL A   1      28.922  23.729 -11.211  1.00  0.00    +0.000 H 
ATOM    140  H41 UNL A   1      30.596  25.074 -12.333  1.00  0.00    +0.000 H 
ATOM    144  H45 UNL A   1      27.652  26.478 -14.992  1.00  0.00    +0.000 H 
ATOM    145  H46 UNL A   1      25.985  25.078 -13.910  1.00  0.00    +0.000 H 
ATOM     89  C64 UNL A   1      27.334  24.297 -12.484  1.00  0.00    +0.000 C 
ATOM     90  C65 UNL A   1      28.658  24.302 -12.027  1.00  0.00    +0.000 C 
ATOM     91  C66 UNL A   1      29.621  25.080 -12.670  1.00  0.00    +0.000 C 
ATOM     92  C67 UNL A   1      29.267  25.865 -13.771  1.00  0.00    +0.000 C 
ATOM     96  C70 UNL A   1      27.927  25.876 -14.201  1.00  0.00    +0.000 C 
BRANCH   92   93
ATOM     93  C68 UNL A   1      30.259  26.687 -14.530  1.00  0.00    +0.000 C 
ATOM     95  O4  UNL A   1      29.856  27.443 -15.415  1.00  0.00    +0.000 O 
BRANCH   93   94
ATOM    143  H44 UNL A   1      32.053  27.437 -13.680  1.00  0.00    +0.000 H 
ATOM    141  H42 UNL A   1      32.277  26.549 -15.168  1.00  0.00    +0.000 H 
ATOM     94  C69 UNL A   1      31.738  26.584 -14.245  1.00  0.00    +0.000 C 
ATOM    142  H43 UNL A   1      31.931  25.693 -13.684  1.00  0.00    +0.000 H 
ENDBRANCH   93   94
ENDBRANCH   92   93
ENDBRANCH   88   89
ENDBRANCH   11   10
ENDBRANCH   12   11
ENDBRANCH   13   12
ENDBRANCH   15   13
ENDBRANCH   16   15
ENDBRANCH   17   16
ENDBRANCH   18   17
ENDBRANCH   19   18
ENDBRANCH   20   19
ENDBRANCH   21   20
ENDBRANCH   22   21
ENDBRANCH   23   22
ENDBRANCH   25   23
ENDBRANCH   29   28
BRANCH   33   34
ATOM     34  C28 UNL A   1      36.014  25.520 -13.953  1.00  0.00    +0.000 C 
ATOM     35  C29 UNL A   1      35.917  26.481 -14.987  1.00  0.00    +0.000 C 
ATOM     36  F1  UNL A   1      34.732  26.754 -15.558  1.00  0.00    +0.000 F 
ATOM     37  C30 UNL A   1      37.040  27.117 -15.517  1.00  0.00    +0.000 C 
ATOM     38  F2  UNL A   1      36.916  27.904 -16.594  1.00  0.00    +0.000 F 
ATOM     39  C31 UNL A   1      38.288  26.881 -14.974  1.00  0.00    +0.000 C 
ATOM     40  F3  UNL A   1      39.377  27.444 -15.518  1.00  0.00    +0.000 F 
ATOM     41  C32 UNL A   1      38.408  26.029 -13.891  1.00  0.00    +0.000 C 
ATOM     42  F4  UNL A   1      39.618  25.796 -13.361  1.00  0.00    +0.000 F 
ATOM     43  C33 UNL A   1      37.295  25.339 -13.402  1.00  0.00    +0.000 C 
ATOM     44  F5  UNL A   1      37.521  24.407 -12.467  1.00  0.00    +0.000 F 
ENDBRANCH   33   34
BRANCH   50   51
ATOM     51  C39 UNL A   1      36.345  19.708 -13.562  1.00  0.00    +0.000 C 
ATOM     52  C40 UNL A   1      36.211  20.273 -12.294  1.00  0.00    +0.000 C 
ATOM     53  F6  UNL A   1      35.163  21.061 -12.018  1.00  0.00    +0.000 F 
ATOM     54  C41 UNL A   1      37.160  20.029 -11.297  1.00  0.00    +0.000 C 
ATOM     55  F7  UNL A   1      37.010  20.580 -10.086  1.00  0.00    +0.000 F 
ATOM     56  C42 UNL A   1      38.260  19.215 -11.543  1.00  0.00    +0.000 C 
ATOM     57  F8  UNL A   1      39.157  18.971 -10.577  1.00  0.00    +0.000 F 
ATOM     58  C43 UNL A   1      38.420  18.647 -12.788  1.00  0.00    +0.000 C 
ATOM     59  F9  UNL A   1      39.460  17.839 -13.042  1.00  0.00    +0.000 F 
ATOM     60  C44 UNL A   1      37.483  18.904 -13.782  1.00  0.00    +0.000 C 
ATOM     61  F10 UNL A   1      37.682  18.327 -14.968  1.00  0.00    +0.000 F 
ENDBRANCH   50   51
BRANCH   65   66
ATOM     66  C48 UNL A   1      31.499  16.116 -12.900  1.00  0.00    +0.000 C 
ATOM     67  C49 UNL A   1      32.203  14.907 -12.978  1.00  0.00    +0.000 C 
ATOM     68  F11 UNL A   1      33.539  14.883 -12.980  1.00  0.00    +0.000 F 
ATOM     69  C50 UNL A   1      31.550  13.666 -13.090  1.00  0.00    +0.000 C 
ATOM     70  F12 UNL A   1      32.273  12.537 -13.122  1.00  0.00    +0.000 F 
ATOM     71  C51 UNL A   1      30.171  13.587 -13.164  1.00  0.00    +0.000 C 
ATOM     72  F13 UNL A   1      29.554  12.401 -13.240  1.00  0.00    +0.000 F 
ATOM     73  C52 UNL A   1      29.442  14.752 -13.172  1.00  0.00    +0.000 C 
ATOM     74  F14 UNL A   1      28.105  14.710 -13.268  1.00  0.00    +0.000 F 
ATOM     75  C53 UNL A   1      30.091  15.984 -13.063  1.00  0.00    +0.000 C 
ATOM     76  F15 UNL A   1      29.288  17.055 -13.112  1.00  0.00    +0.000 F 
ENDBRANCH   65   66
TORSDOF 23
ENDMDL
MODEL 10
REMARK VINA RESULT:      -6.4     44.577     47.746
ROOT
ATOM    129  H30 UNL A   1      46.989  14.052  48.210  1.00  0.00    +0.000 H 
ATOM    130  H31 UNL A   1      43.690   8.275  53.192  1.00  0.00    +0.000 H 
ATOM    131  H32 UNL A   1      42.407  10.452  53.358  1.00  0.00    +0.000 H 
ATOM    132  H33 UNL A   1      45.065  10.827  50.216  1.00  0.00    +0.000 H 
ATOM    133  H34 UNL A   1      44.557   7.939  48.147  1.00  0.00    +0.000 H 
ATOM    134  H35 UNL A   1      45.835   9.615  46.662  1.00  0.00    +0.000 H 
ATOM    135  H36 UNL A   1      42.906  16.386  49.075  1.00  0.00    +0.000 H 
ATOM    136  H37 UNL A   1      42.278  15.153  51.229  1.00  0.00    +0.000 H 
ATOM     29  C24 UNL A   1      42.916  12.349  51.281  1.00  0.00    +0.000 C 
ATOM     30  C25 UNL A   1      43.230  13.375  50.179  1.00  0.00    +0.000 C 
ATOM     31  N3  UNL A   1      43.799  13.237  49.013  1.00  0.00    +0.000 N 
ATOM     32  C26 UNL A   1      43.876  14.524  48.439  1.00  0.00    +0.000 C 
ATOM     33  C27 UNL A   1      44.663  14.869  47.377  1.00  0.00    +0.000 C 
ATOM     45  C34 UNL A   1      45.417  13.783  46.843  1.00  0.00    +0.000 C 
ATOM     46  C35 UNL A   1      45.388  12.948  45.751  1.00  0.00    +0.000 C 
ATOM     47  C36 UNL A   1      46.422  11.989  45.956  1.00  0.00    +0.000 C 
ATOM     48  C37 UNL A   1      46.905  12.190  47.243  1.00  0.00    +0.000 C 
ATOM     49  N4  UNL A   1      46.532  13.464  47.566  1.00  0.00    +0.000 N 
ATOM     50  C38 UNL A   1      47.472  11.405  48.298  1.00  0.00    +0.000 C 
ATOM     62  C45 UNL A   1      46.997  10.146  48.461  1.00  0.00    +0.000 C 
ATOM     63  N5  UNL A   1      47.080   9.497  49.675  1.00  0.00    +0.000 N 
ATOM     64  C46 UNL A   1      46.055   8.705  49.669  1.00  0.00    +0.000 C 
ATOM     65  C47 UNL A   1      45.440   8.114  50.870  1.00  0.00    +0.000 C 
ATOM     77  C54 UNL A   1      44.682   9.120  51.405  1.00  0.00    +0.000 C 
ATOM     78  C55 UNL A   1      43.788   9.074  52.545  1.00  0.00    +0.000 C 
ATOM     79  C56 UNL A   1      43.106  10.233  52.630  1.00  0.00    +0.000 C 
ATOM     80  C57 UNL A   1      43.497  11.147  51.542  1.00  0.00    +0.000 C 
ATOM     81  N6  UNL A   1      44.506  10.442  50.929  1.00  0.00    +0.000 N 
ATOM     82  C58 UNL A   1      45.344   8.556  48.400  1.00  0.00    +0.000 C 
ATOM     83  C59 UNL A   1      46.005   9.446  47.665  1.00  0.00    +0.000 C 
ATOM     84  C60 UNL A   1      43.130  15.402  49.293  1.00  0.00    +0.000 C 
ATOM     85  C61 UNL A   1      42.766  14.768  50.406  1.00  0.00    +0.000 C 
ATOM    127  H28 UNL A   1      44.746  13.004  44.946  1.00  0.00    +0.000 H 
ATOM    128  H29 UNL A   1      46.749  11.282  45.279  1.00  0.00    +0.000 H 
ENDROOT
BRANCH   29   28
ATOM    137  H38 UNL A   1      40.254  11.971  50.837  1.00  0.00    +0.000 H 
ATOM    138  H39 UNL A   1      38.425  12.406  52.378  1.00  0.00    +0.000 H 
ATOM     86  C62 UNL A   1      40.444  12.394  51.759  1.00  0.00    +0.000 C 
ATOM     87  C63 UNL A   1      39.394  12.639  52.646  1.00  0.00    +0.000 C 
ATOM     25  C20 UNL A   1      39.656  13.203  53.900  1.00  0.00    +0.000 C 
ATOM     26  C21 UNL A   1      40.967  13.566  54.243  1.00  0.00    +0.000 C 
ATOM     27  C22 UNL A   1      42.013  13.329  53.360  1.00  0.00    +0.000 C 
ATOM     28  C23 UNL A   1      41.756  12.724  52.125  1.00  0.00    +0.000 C 
ATOM    125  H26 UNL A   1      41.154  14.010  55.155  1.00  0.00    +0.000 H 
ATOM    126  H27 UNL A   1      42.977  13.599  53.614  1.00  0.00    +0.000 H 
BRANCH   25   23
ATOM     23  C19 UNL A   1      38.593  13.552  54.872  1.00  0.00    +0.000 C 
ATOM     24  O3  UNL A   1      38.620  13.071  55.992  1.00  0.00    +0.000 O 
BRANCH   23   22
ATOM    124  H25 UNL A   1      37.442  14.568  53.585  1.00  0.00    +0.000 H 
ATOM     22  N2  UNL A   1      37.564  14.399  54.547  1.00  0.00    +0.000 N 
BRANCH   22   21
ATOM    122  H23 UNL A   1      35.634  14.902  55.082  1.00  0.00    +0.000 H 
ATOM    123  H24 UNL A   1      36.756  14.703  56.418  1.00  0.00    +0.000 H 
ATOM     21  C18 UNL A   1      36.631  15.079  55.424  1.00  0.00    +0.000 C 
BRANCH   21   20
ATOM    121  H22 UNL A   1      37.952  16.704  55.285  1.00  0.00    +0.000 H 
ATOM     20  C17 UNL A   1      36.897  16.588  55.432  1.00  0.00    +0.000 C 
ATOM    120  H21 UNL A   1      36.552  16.981  56.366  1.00  0.00    +0.000 H 
BRANCH   20   19
ATOM     19  C16 UNL A   1      36.217  17.378  54.301  1.00  0.00    +0.000 C 
ATOM    118  H19 UNL A   1      36.899  17.425  53.478  1.00  0.00    +0.000 H 
ATOM    119  H20 UNL A   1      35.310  16.852  54.084  1.00  0.00    +0.000 H 
BRANCH   19   18
ATOM     18  C15 UNL A   1      35.796  18.807  54.645  1.00  0.00    +0.000 C 
ATOM    116  H17 UNL A   1      34.739  18.816  54.804  1.00  0.00    +0.000 H 
ATOM    117  H18 UNL A   1      36.352  19.087  55.516  1.00  0.00    +0.000 H 
BRANCH   18   17
ATOM     17  C14 UNL A   1      36.125  19.841  53.572  1.00  0.00    +0.000 C 
ATOM    114  H15 UNL A   1      35.446  20.660  53.682  1.00  0.00    +0.000 H 
ATOM    115  H16 UNL A   1      37.148  20.112  53.724  1.00  0.00    +0.000 H 
BRANCH   17   16
ATOM    113  H14 UNL A   1      34.996  19.262  51.862  1.00  0.00    +0.000 H 
ATOM    112  H13 UNL A   1      36.498  18.376  52.066  1.00  0.00    +0.000 H 
ATOM     16  C13 UNL A   1      36.028  19.335  52.133  1.00  0.00    +0.000 C 
BRANCH   16   15
ATOM    111  H12 UNL A   1      36.260  21.133  51.120  1.00  0.00    +0.000 H 
ATOM     15  N1  UNL A   1      36.688  20.252  51.223  1.00  0.00    +0.000 N 
BRANCH   15   13
ATOM     13  C12 UNL A   1      37.822  20.054  50.493  1.00  0.00    +0.000 C 
ATOM     14  O2  UNL A   1      37.717  19.897  49.276  1.00  0.00    +0.000 O 
BRANCH   13   12
ATOM     12  C11 UNL A   1      39.173  19.972  51.177  1.00  0.00    +0.000 C 
ATOM    109  H10 UNL A   1      39.689  20.898  51.028  1.00  0.00    +0.000 H 
ATOM    110  H11 UNL A   1      38.997  19.778  52.214  1.00  0.00    +0.000 H 
BRANCH   12   11
ATOM     11  C10 UNL A   1      40.041  18.836  50.636  1.00  0.00    +0.000 C 
ATOM    108  H9  UNL A   1      40.638  19.242  49.846  1.00  0.00    +0.000 H 
ATOM    107  H8  UNL A   1      39.399  18.051  50.292  1.00  0.00    +0.000 H 
BRANCH   11   10
ATOM      7  C6  UNL A   1      42.951  17.630  52.578  1.00  0.00    +0.000 C 
ATOM      8  C7  UNL A   1      41.924  16.992  53.259  1.00  0.00    +0.000 C 
ATOM      9  C8  UNL A   1      40.698  17.394  52.693  1.00  0.00    +0.000 C 
ATOM     10  C9  UNL A   1      40.984  18.267  51.663  1.00  0.00    +0.000 C 
ATOM    105  H6  UNL A   1      42.039  16.335  54.047  1.00  0.00    +0.000 H 
ATOM    106  H7  UNL A   1      39.759  17.090  52.993  1.00  0.00    +0.000 H 
ATOM     88  N7  UNL A   1      42.341  18.576  51.750  1.00  0.00    +0.000 N 
BRANCH    7    6
ATOM     98  C72 UNL A   1      44.898  18.124  54.052  1.00  0.00    +0.000 C 
ATOM      3  C2  UNL A   1      47.142  17.486  53.396  1.00  0.00    +0.000 C 
ATOM      4  C3  UNL A   1      46.627  16.926  52.227  1.00  0.00    +0.000 C 
ATOM      5  C4  UNL A   1      45.254  16.947  51.976  1.00  0.00    +0.000 C 
ATOM     99  C73 UNL A   1      46.276  18.093  54.307  1.00  0.00    +0.000 C 
ATOM    103  H4  UNL A   1      47.267  16.494  51.541  1.00  0.00    +0.000 H 
ATOM      6  C5  UNL A   1      44.379  17.544  52.888  1.00  0.00    +0.000 C 
ATOM    104  H5  UNL A   1      44.883  16.518  51.114  1.00  0.00    +0.000 H 
ATOM    146  H47 UNL A   1      44.262  18.576  54.727  1.00  0.00    +0.000 H 
ATOM    147  H48 UNL A   1      46.651  18.519  55.169  1.00  0.00    +0.000 H 
BRANCH    3    2
ATOM      2  O1  UNL A   1      48.503  17.437  53.518  1.00  0.00    +0.000 O 
BRANCH    2    1
ATOM      1  C1  UNL A   1      49.221  17.385  52.290  1.00  0.00    +0.000 C 
ATOM    100  H1  UNL A   1      49.663  16.417  52.176  1.00  0.00    +0.000 H 
ATOM    101  H2  UNL A   1      49.990  18.130  52.294  1.00  0.00    +0.000 H 
ATOM    102  H3  UNL A   1      48.551  17.569  51.477  1.00  0.00    +0.000 H 
ENDBRANCH    2    1
ENDBRANCH    3    2
ENDBRANCH    7    6
BRANCH   88   89
ATOM     97  C71 UNL A   1      43.050  20.885  52.206  1.00  0.00    +0.000 C 
ATOM    139  H40 UNL A   1      43.182  19.120  49.357  1.00  0.00    +0.000 H 
ATOM    140  H41 UNL A   1      43.939  21.251  48.488  1.00  0.00    +0.000 H 
ATOM    144  H45 UNL A   1      43.627  22.909  52.342  1.00  0.00    +0.000 H 
ATOM    145  H46 UNL A   1      42.804  20.790  53.204  1.00  0.00    +0.000 H 
ATOM     89  C64 UNL A   1      42.929  19.801  51.341  1.00  0.00    +0.000 C 
ATOM     90  C65 UNL A   1      43.262  19.933  49.988  1.00  0.00    +0.000 C 
ATOM     91  C66 UNL A   1      43.701  21.159  49.487  1.00  0.00    +0.000 C 
ATOM     92  C67 UNL A   1      43.819  22.261  50.337  1.00  0.00    +0.000 C 
ATOM     96  C70 UNL A   1      43.511  22.108  51.702  1.00  0.00    +0.000 C 
BRANCH   92   93
ATOM     93  C68 UNL A   1      44.242  23.612  49.857  1.00  0.00    +0.000 C 
ATOM     95  O4  UNL A   1      45.442  23.845  49.706  1.00  0.00    +0.000 O 
BRANCH   93   94
ATOM    143  H44 UNL A   1      42.268  24.386  49.945  1.00  0.00    +0.000 H 
ATOM    141  H42 UNL A   1      43.168  24.867  48.526  1.00  0.00    +0.000 H 
ATOM     94  C69 UNL A   1      43.226  24.695  49.580  1.00  0.00    +0.000 C 
ATOM    142  H43 UNL A   1      43.523  25.597  50.074  1.00  0.00    +0.000 H 
ENDBRANCH   93   94
ENDBRANCH   92   93
ENDBRANCH   88   89
ENDBRANCH   11   10
ENDBRANCH   12   11
ENDBRANCH   13   12
ENDBRANCH   15   13
ENDBRANCH   16   15
ENDBRANCH   17   16
ENDBRANCH   18   17
ENDBRANCH   19   18
ENDBRANCH   20   19
ENDBRANCH   21   20
ENDBRANCH   22   21
ENDBRANCH   23   22
ENDBRANCH   25   23
ENDBRANCH   29   28
BRANCH   33   34
ATOM     34  C28 UNL A   1      45.114  16.249  46.946  1.00  0.00    +0.000 C 
ATOM     35  C29 UNL A   1      45.794  17.064  47.883  1.00  0.00    +0.000 C 
ATOM     36  F1  UNL A   1      46.389  16.520  48.957  1.00  0.00    +0.000 F 
ATOM     37  C30 UNL A   1      45.805  18.455  47.785  1.00  0.00    +0.000 C 
ATOM     38  F2  UNL A   1      46.332  19.190  48.775  1.00  0.00    +0.000 F 
ATOM     39  C31 UNL A   1      45.213  19.078  46.704  1.00  0.00    +0.000 C 
ATOM     40  F3  UNL A   1      45.168  20.415  46.636  1.00  0.00    +0.000 F 
ATOM     41  C32 UNL A   1      44.630  18.308  45.712  1.00  0.00    +0.000 C 
ATOM     42  F4  UNL A   1      44.053  18.907  44.660  1.00  0.00    +0.000 F 
ATOM     43  C33 UNL A   1      44.559  16.917  45.840  1.00  0.00    +0.000 C 
ATOM     44  F5  UNL A   1      43.832  16.260  44.928  1.00  0.00    +0.000 F 
ENDBRANCH   33   34
BRANCH   50   51
ATOM     51  C39 UNL A   1      48.114  11.969  49.541  1.00  0.00    +0.000 C 
ATOM     52  C40 UNL A   1      49.468  11.781  49.816  1.00  0.00    +0.000 C 
ATOM     53  F6  UNL A   1      50.259  11.176  48.917  1.00  0.00    +0.000 F 
ATOM     54  C41 UNL A   1      50.022  12.217  51.023  1.00  0.00    +0.000 C 
ATOM     55  F7  UNL A   1      51.326  12.029  51.265  1.00  0.00    +0.000 F 
ATOM     56  C42 UNL A   1      49.237  12.852  51.979  1.00  0.00    +0.000 C 
ATOM     57  F8  UNL A   1      49.778  13.283  53.128  1.00  0.00    +0.000 F 
ATOM     58  C43 UNL A   1      47.895  13.047  51.736  1.00  0.00    +0.000 C 
ATOM     59  F9  UNL A   1      47.122  13.678  52.634  1.00  0.00    +0.000 F 
ATOM     60  C44 UNL A   1      47.345  12.598  50.542  1.00  0.00    +0.000 C 
ATOM     61  F10 UNL A   1      46.042  12.815  50.354  1.00  0.00    +0.000 F 
ENDBRANCH   50   51
BRANCH   65   66
ATOM     66  C48 UNL A   1      45.665   6.645  51.116  1.00  0.00    +0.000 C 
ATOM     67  C49 UNL A   1      46.884   6.052  51.471  1.00  0.00    +0.000 C 
ATOM     68  F11 UNL A   1      48.019   6.757  51.487  1.00  0.00    +0.000 F 
ATOM     69  C50 UNL A   1      46.986   4.686  51.794  1.00  0.00    +0.000 C 
ATOM     70  F12 UNL A   1      48.171   4.179  52.164  1.00  0.00    +0.000 F 
ATOM     71  C51 UNL A   1      45.882   3.854  51.742  1.00  0.00    +0.000 C 
ATOM     72  F13 UNL A   1      45.979   2.562  52.081  1.00  0.00    +0.000 F 
ATOM     73  C52 UNL A   1      44.681   4.375  51.322  1.00  0.00    +0.000 C 
ATOM     74  F14 UNL A   1      43.598   3.588  51.237  1.00  0.00    +0.000 F 
ATOM     75  C53 UNL A   1      44.581   5.730  50.999  1.00  0.00    +0.000 C 
ATOM     76  F15 UNL A   1      43.374   6.124  50.573  1.00  0.00    +0.000 F 
ENDBRANCH   65   66
TORSDOF 23
ENDMDL
